0
                    3D
 Structure written by MMmdl.
163172  0  0  1  0            999 V2000
  -30.5973  -14.7827   20.4243 C   0  0  0  0  0  0
  -30.4260  -12.4686   19.4962 C   0  0  0  0  0  0
  -29.5155  -12.5073   18.2497 C   0  0  0  0  0  0
  -28.0396  -12.3330   18.6556 C   0  0  0  0  0  0
  -27.6383  -13.2387   19.8507 C   0  0  2  0  0  0
  -28.6774  -13.1933   20.9927 C   0  0  0  0  0  0
  -25.2494  -13.8218   20.5694 C   0  0  0  0  0  0
  -24.1795  -13.0457   20.9208 C   0  0  0  0  0  0
  -24.6393  -11.6936   20.8739 C   0  0  0  0  0  0
  -23.9075  -10.4306   21.0394 C   0  0  0  0  0  0
  -24.3627   -9.4223   21.9174 C   0  0  0  0  0  0
  -23.6304   -8.2259   22.0748 C   0  0  0  0  0  0
  -22.4289   -8.0290   21.3535 C   0  0  0  0  0  0
  -21.9920   -9.0263   20.4639 C   0  0  0  0  0  0
  -22.7248  -10.2144   20.3047 C   0  0  0  0  0  0
  -21.6863   -6.0735   22.5268 C   0  0  0  0  0  0
  -21.4018   -6.5637   23.8205 C   0  0  0  0  0  0
  -21.3665   -5.6790   24.9165 C   0  0  0  0  0  0
  -21.6048   -4.3051   24.7214 C   0  0  0  0  0  0
  -21.8822   -3.8142   23.4339 C   0  0  0  0  0  0
  -21.9200   -4.6961   22.3391 C   0  0  0  0  0  0
  -22.7816  -13.5229   21.1865 C   0  0  0  0  0  0
  -22.1673   -4.2150   21.0970 F   0  0  0  0  0  0
  -21.5633   -3.4536   25.7726 F   0  0  0  0  0  0
  -29.9776  -13.5481   20.4138 N   0  0  0  0  0  0
  -26.2916  -12.9436   20.3267 N   0  0  0  0  0  0
  -25.9322  -11.6570   20.5736 N   0  0  0  0  0  0
  -22.0465  -12.8215   22.0425 N   0  0  0  0  0  0
  -25.4190  -15.1945   20.4110 N   0  0  0  0  0  0
  -31.7846  -14.8306   20.0891 O   0  0  0  0  0  0
  -21.6659   -6.8885   21.4235 O   0  0  0  0  0  0
  -22.3497  -14.5527   20.6703 O   0  0  0  0  0  0
  -24.6315  -31.8517   23.1928 C   0  0  0  0  0  0
  -25.9132  -32.4735   23.8290 C   0  0  1  0  0  0
  -27.2256  -27.2436   20.1355 C   0  0  0  0  0  0
  -25.5919  -33.8538   24.2217 N   0  0  0  0  0  0
  -23.4291  -30.4702   21.5356 C   0  0  2  0  0  0
  -24.8762  -28.9067   20.1041 C   0  0  0  0  0  0
  -22.7502  -29.4581   22.4894 C   0  0  0  0  0  0
  -18.0294  -28.1390   22.8486 C   0  0  0  0  0  0
  -24.1489  -36.7273   23.2642 C   0  0  0  0  0  0
  -25.9726  -30.7602   21.3713 C   0  0  0  0  0  0
  -26.0435  -29.3805   20.7132 C   0  0  0  0  0  0
  -27.2144  -28.5598   20.7153 C   0  0  0  0  0  0
  -26.0319  -26.8254   19.5135 C   0  0  0  0  0  0
  -24.8764  -27.6397   19.4929 C   0  0  0  0  0  0
  -23.6466  -29.7953   20.1530 C   0  0  0  0  0  0
  -25.4119  -36.3057   24.0321 C   0  0  1  0  0  0
  -20.5896  -28.3699   23.1270 C   0  0  2  0  0  0
  -20.6780  -26.9417   22.5411 C   0  0  0  0  0  0
  -19.5758  -26.6383   21.5215 C   0  0  0  0  0  0
  -18.1937  -26.7934   22.1623 C   0  0  0  0  0  0
  -19.1548  -28.8863   23.2874 C   0  0  0  0  0  0
  -18.9468  -30.1463   23.8894 C   0  0  0  0  0  0
  -17.6466  -30.6589   24.0564 C   0  0  0  0  0  0
  -25.9060  -34.9431   23.5078 C   0  0  0  0  0  0
  -16.5357  -29.9086   23.6334 C   0  0  0  0  0  0
  -16.7280  -28.6505   23.0356 C   0  0  0  0  0  0
  -26.4496  -31.6582   25.0698 C   0  0  0  0  0  0
  -25.3708  -31.3744   26.1412 C   0  0  0  0  0  0
  -27.0354  -30.2999   24.6204 C   0  0  0  0  0  0
  -27.6040  -32.4337   25.7475 C   0  0  0  0  0  0
  -27.5579  -37.1790   24.8467 C   0  0  0  0  0  0
  -21.4208  -29.3033   22.3643 N   0  0  0  0  0  0
  -26.4288  -37.3762   23.9410 N   0  0  0  0  0  0
  -24.6969  -31.0470   22.0900 N   0  0  0  0  0  0
  -23.4197  -28.8144   23.3017 O   0  0  0  0  0  0
  -28.3533  -26.3999   20.2768 O   0  0  0  0  0  0
  -26.5649  -34.8917   22.4659 O   0  0  0  0  0  0
  -23.5464  -32.1342   23.7222 O   0  0  0  0  0  0
  -28.8404  -19.9289   20.5070 C   0  0  0  0  0  0
  -30.8209  -21.3595   20.0957 C   0  0  0  0  0  0
  -29.7110  -18.7754   20.3377 C   0  0  0  0  0  0
  -31.0554  -18.9702   19.9144 C   0  0  0  0  0  0
  -29.4305  -21.2782   20.4380 C   0  0  0  0  0  0
  -31.6366  -20.2372   19.7776 C   0  0  0  0  0  0
  -29.8566  -17.2912   19.8062 C   0  0  1  0  0  0
  -30.1924  -25.0338   19.9811 C   0  0  0  0  0  0
  -28.5855  -25.2688   18.1232 C   0  0  0  0  0  0
  -31.7253  -17.5759   18.0757 C   0  0  0  0  0  0
  -28.0523  -23.5929   20.0188 C   0  0  0  0  0  0
  -28.6910  -25.0679   19.6478 C   0  0  0  0  0  0
  -31.2876  -17.6529   19.4647 N   0  0  0  0  0  0
  -32.9514  -20.3767   19.3326 N   0  0  0  0  0  0
  -28.8125  -22.5427   20.8259 N   0  0  0  0  0  0
  -29.8306  -15.9483   20.5814 N   0  0  0  0  0  0
  -31.4698  -12.5772   19.1991 H   0  0  0  0  0  0
  -30.3622  -11.4968   19.9890 H   0  0  0  0  0  0
  -29.8053  -11.7259   17.5459 H   0  0  0  0  0  0
  -29.6467  -13.4560   17.7260 H   0  0  0  0  0  0
  -27.8952  -11.2851   18.9219 H   0  0  0  0  0  0
  -27.3877  -12.5201   17.8015 H   0  0  0  0  0  0
  -27.6286  -14.2564   19.4598 H   0  0  0  0  0  0
  -28.7159  -12.2005   21.4434 H   0  0  0  0  0  0
  -28.4052  -13.8827   21.7928 H   0  0  0  0  0  0
  -25.2773   -9.5711   22.4742 H   0  0  0  0  0  0
  -24.0021   -7.4654   22.7467 H   0  0  0  0  0  0
  -21.0854   -8.8779   19.8939 H   0  0  0  0  0  0
  -22.3706  -10.9680   19.6152 H   0  0  0  0  0  0
  -21.2010   -7.6145   23.9708 H   0  0  0  0  0  0
  -21.1486   -6.0514   25.9067 H   0  0  0  0  0  0
  -22.0596   -2.7606   23.2833 H   0  0  0  0  0  0
  -22.4100  -11.9900   22.4839 H   0  0  0  0  0  0
  -21.1065  -13.1203   22.2597 H   0  0  0  0  0  0
  -24.6511  -15.8476   20.5241 H   0  0  0  0  0  0
  -26.2596  -15.6340   20.0581 H   0  0  0  0  0  0
  -26.7196  -32.5375   23.1027 H   0  0  0  0  0  0
  -25.0048  -33.9673   25.0352 H   0  0  0  0  0  0
  -22.7263  -31.2925   21.3851 H   0  0  0  0  0  0
  -23.3758  -35.9598   23.3299 H   0  0  0  0  0  0
  -24.3572  -36.8908   22.2056 H   0  0  0  0  0  0
  -23.7237  -37.6465   23.6680 H   0  0  0  0  0  0
  -26.1115  -31.5205   20.6012 H   0  0  0  0  0  0
  -26.8501  -30.8101   22.0049 H   0  0  0  0  0  0
  -28.1086  -28.9159   21.2078 H   0  0  0  0  0  0
  -25.9592  -25.8359   19.0902 H   0  0  0  0  0  0
  -23.9759  -27.2642   19.0270 H   0  0  0  0  0  0
  -23.7697  -30.5677   19.3932 H   0  0  0  0  0  0
  -22.7649  -29.2265   19.8520 H   0  0  0  0  0  0
  -25.1306  -36.1891   25.0813 H   0  0  0  0  0  0
  -20.9993  -28.3281   24.1391 H   0  0  0  0  0  0
  -20.5678  -26.2312   23.3620 H   0  0  0  0  0  0
  -21.6648  -26.7438   22.1208 H   0  0  0  0  0  0
  -19.6920  -25.6290   21.1257 H   0  0  0  0  0  0
  -19.6698  -27.3187   20.6740 H   0  0  0  0  0  0
  -17.4208  -26.6686   21.4024 H   0  0  0  0  0  0
  -18.0332  -26.0072   22.9018 H   0  0  0  0  0  0
  -19.7940  -30.7283   24.2262 H   0  0  0  0  0  0
  -17.5018  -31.6273   24.5159 H   0  0  0  0  0  0
  -15.5360  -30.2990   23.7655 H   0  0  0  0  0  0
  -15.8681  -28.0824   22.7074 H   0  0  0  0  0  0
  -24.5882  -30.7099   25.7733 H   0  0  0  0  0  0
  -24.8901  -32.2919   26.4816 H   0  0  0  0  0  0
  -25.8006  -30.8927   27.0204 H   0  0  0  0  0  0
  -26.2947  -29.6730   24.1224 H   0  0  0  0  0  0
  -27.4031  -29.7278   25.4734 H   0  0  0  0  0  0
  -27.8824  -30.4277   23.9457 H   0  0  0  0  0  0
  -27.2644  -33.3649   26.2026 H   0  0  0  0  0  0
  -28.3863  -32.6882   25.0312 H   0  0  0  0  0  0
  -28.0700  -31.8484   26.5413 H   0  0  0  0  0  0
  -28.2592  -38.0090   24.7516 H   0  0  0  0  0  0
  -28.1077  -36.2620   24.6293 H   0  0  0  0  0  0
  -27.2297  -37.1440   25.8870 H   0  0  0  0  0  0
  -20.9399  -29.8731   21.6822 H   0  0  0  0  0  0
  -26.0162  -38.2833   24.1413 H   0  0  0  0  0  0
  -27.7825  -19.7914   20.6792 H   0  0  0  0  0  0
  -31.2909  -22.3284   20.0607 H   0  0  0  0  0  0
  -29.2619  -17.2090   18.8934 H   0  0  0  0  0  0
  -30.6791  -25.9781   19.7339 H   0  0  0  0  0  0
  -30.7070  -24.2638   19.4124 H   0  0  0  0  0  0
  -30.3635  -24.8546   21.0432 H   0  0  0  0  0  0
  -29.0950  -24.4666   17.5882 H   0  0  0  0  0  0
  -29.0428  -26.2082   17.8116 H   0  0  0  0  0  0
  -27.5563  -25.2677   17.7712 H   0  0  0  0  0  0
  -32.8036  -17.7178   18.0028 H   0  0  0  0  0  0
  -31.2373  -18.3299   17.4556 H   0  0  0  0  0  0
  -31.4897  -16.5957   17.6584 H   0  0  0  0  0  0
  -27.7688  -23.0992   19.0878 H   0  0  0  0  0  0
  -27.1039  -23.7686   20.5288 H   0  0  0  0  0  0
  -33.2220  -21.2459   18.8859 H   0  0  0  0  0  0
  -33.3806  -19.5583   18.9136 H   0  0  0  0  0  0
  -29.4006  -23.0337   21.4944 H   0  0  0  0  0  0
  -28.9258  -15.7565   20.9853 H   0  0  0  0  0  0
  1 25  1  0  0  0
  1 30  2  0  0  0
  1 86  1  0  0  0
  2  3  1  0  0  0
  2 25  1  0  0  0
  2 87  1  0  0  0
  2 88  1  0  0  0
  3  4  1  0  0  0
  3 89  1  0  0  0
  3 90  1  0  0  0
  4  5  1  0  0  0
  4 91  1  0  0  0
  4 92  1  0  0  0
  5  6  1  0  0  0
  5 26  1  0  0  0
  5 93  1  0  0  0
  6 25  1  0  0  0
  6 94  1  0  0  0
  6 95  1  0  0  0
  7  8  2  0  0  0
  7 26  1  0  0  0
  7 29  1  0  0  0
  8  9  1  0  0  0
  8 22  1  0  0  0
  9 10  1  0  0  0
  9 27  2  0  0  0
 10 11  2  0  0  0
 10 15  1  0  0  0
 11 12  1  0  0  0
 11 96  1  0  0  0
 12 13  2  0  0  0
 12 97  1  0  0  0
 13 14  1  0  0  0
 13 31  1  0  0  0
 14 15  2  0  0  0
 14 98  1  0  0  0
 15 99  1  0  0  0
 16 17  2  0  0  0
 16 21  1  0  0  0
 16 31  1  0  0  0
 17 18  1  0  0  0
 17100  1  0  0  0
 18 19  2  0  0  0
 18101  1  0  0  0
 19 20  1  0  0  0
 19 24  1  0  0  0
 20 21  2  0  0  0
 20102  1  0  0  0
 21 23  1  0  0  0
 22 28  1  0  0  0
 22 32  2  0  0  0
 26 27  1  0  0  0
 28103  1  0  0  0
 28104  1  0  0  0
 29105  1  0  0  0
 29106  1  0  0  0
 33 34  1  0  0  0
 33 66  1  0  0  0
 33 70  2  0  0  0
 34 36  1  0  0  0
 34 59  1  0  0  0
 34107  1  0  0  0
 35 44  2  0  0  0
 35 45  1  0  0  0
 35 68  1  0  0  0
 36 56  1  0  0  0
 36108  1  0  0  0
 37 39  1  0  0  0
 37 47  1  0  0  0
 37 66  1  0  0  0
 37109  1  0  0  0
 38 43  2  0  0  0
 38 46  1  0  0  0
 38 47  1  0  0  0
 39 64  1  0  0  0
 39 67  2  0  0  0
 40 52  1  0  0  0
 40 53  2  0  0  0
 40 58  1  0  0  0
 41110  1  0  0  0
 41111  1  0  0  0
 41112  1  0  0  0
 41 48  1  0  0  0
 42 43  1  0  0  0
 42 66  1  0  0  0
 42113  1  0  0  0
 42114  1  0  0  0
 43 44  1  0  0  0
 44115  1  0  0  0
 45 46  2  0  0  0
 45116  1  0  0  0
 46117  1  0  0  0
 47118  1  0  0  0
 47119  1  0  0  0
 48 56  1  0  0  0
 48 65  1  0  0  0
 48120  1  0  0  0
 49 50  1  0  0  0
 49 53  1  0  0  0
 49 64  1  0  0  0
 49121  1  0  0  0
 50 51  1  0  0  0
 50122  1  0  0  0
 50123  1  0  0  0
 51 52  1  0  0  0
 51124  1  0  0  0
 51125  1  0  0  0
 52126  1  0  0  0
 52127  1  0  0  0
 53 54  1  0  0  0
 54 55  2  0  0  0
 54128  1  0  0  0
 55 57  1  0  0  0
 55129  1  0  0  0
 56 69  2  0  0  0
 57 58  2  0  0  0
 57130  1  0  0  0
 58131  1  0  0  0
 59 60  1  0  0  0
 59 61  1  0  0  0
 59 62  1  0  0  0
 60132  1  0  0  0
 60133  1  0  0  0
 60134  1  0  0  0
 61135  1  0  0  0
 61136  1  0  0  0
 61137  1  0  0  0
 62138  1  0  0  0
 62139  1  0  0  0
 62140  1  0  0  0
 63 65  1  0  0  0
 63141  1  0  0  0
 63142  1  0  0  0
 63143  1  0  0  0
 64144  1  0  0  0
 65145  1  0  0  0
 68 82  1  0  0  0
 71 73  2  0  0  0
 71 75  1  0  0  0
 71146  1  0  0  0
 72 75  2  0  0  0
 72 76  1  0  0  0
 72147  1  0  0  0
 73 74  1  0  0  0
 73 77  1  0  0  0
 74 76  2  0  0  0
 74 83  1  0  0  0
 75 85  1  0  0  0
 76 84  1  0  0  0
 77 83  1  0  0  0
 77 86  1  0  0  0
 77148  1  0  0  0
 78149  1  0  0  0
 78150  1  0  0  0
 78151  1  0  0  0
 78 82  1  0  0  0
 79 82  1  0  0  0
 79152  1  0  0  0
 79153  1  0  0  0
 79154  1  0  0  0
 80 83  1  0  0  0
 80155  1  0  0  0
 80156  1  0  0  0
 80157  1  0  0  0
 81 82  1  0  0  0
 81 85  1  0  0  0
 81158  1  0  0  0
 81159  1  0  0  0
 84160  1  0  0  0
 84161  1  0  0  0
 85162  1  0  0  0
 86163  1  0  0  0
M  ISO  4   1 100  68 101  82 101  86 100
M  END
> <chiral flag>
0

> <version>
0

> <s_m_source_file>
/data/baiqing/PycharmProjects/Reinvent-master-3.2/result/LINK_invent/BTK/process_docking_weight1_custom_product_contain_oxygen_bond_distance_aromatic_linkinvent_7_9_3/rearranged_h_0152.sdf

> <i_m_source_file_index>
1

> <r_mmod_Potential_Energy-OPLS-2005>
646.213989257812

> <r_mmod_Stretch_Energy-OPLS-2005>
162.404937744141

> <r_mmod_Bend_Energy-OPLS-2005>
606.151550292969

> <r_mmod_Torsional_Energy-OPLS-2005>
294.943908691406

> <r_mmod_Improper_Torsional_Energy-OPLS-2005>
34.6894912719727

> <r_mmod_Van_der_Waal_Energy-OPLS-2005>
132.511215209961

> <r_mmod_Electrostatic_Energy-OPLS-2005>
-426.838836669922

> <r_mmod_Solvation_Energy-OPLS-2005>
-256.059448242188

> <b_mmod_Minimization_Converged-OPLS-2005>
0

> <r_mmod_RMS_Derivative-OPLS-2005>
1.26004016399384

$$$$
1
                    3D
 Structure written by MMmdl.
153161  0  0  1  0            999 V2000
  -30.6286  -14.7640   20.4836 C   0  0  0  0  0  0
  -30.4279  -12.4766   19.4752 C   0  0  0  0  0  0
  -29.5065  -12.5122   18.2372 C   0  0  0  0  0  0
  -28.0348  -12.3319   18.6537 C   0  0  0  0  0  0
  -27.6380  -13.2375   19.8500 C   0  0  2  0  0  0
  -28.6834  -13.1916   20.9846 C   0  0  0  0  0  0
  -25.2489  -13.8209   20.5708 C   0  0  0  0  0  0
  -24.1794  -13.0444   20.9220 C   0  0  0  0  0  0
  -24.6397  -11.6923   20.8757 C   0  0  0  0  0  0
  -23.9074  -10.4299   21.0413 C   0  0  0  0  0  0
  -24.3625   -9.4214   21.9191 C   0  0  0  0  0  0
  -23.6303   -8.2247   22.0750 C   0  0  0  0  0  0
  -22.4285   -8.0285   21.3539 C   0  0  0  0  0  0
  -21.9924   -9.0257   20.4643 C   0  0  0  0  0  0
  -22.7247  -10.2139   20.3059 C   0  0  0  0  0  0
  -21.6853   -6.0742   22.5285 C   0  0  0  0  0  0
  -21.4011   -6.5645   23.8219 C   0  0  0  0  0  0
  -21.3660   -5.6797   24.9182 C   0  0  0  0  0  0
  -21.6045   -4.3058   24.7228 C   0  0  0  0  0  0
  -21.8815   -3.8153   23.4350 C   0  0  0  0  0  0
  -21.9192   -4.6973   22.3408 C   0  0  0  0  0  0
  -22.7811  -13.5213   21.1884 C   0  0  0  0  0  0
  -22.1661   -4.2156   21.0986 F   0  0  0  0  0  0
  -21.5631   -3.4545   25.7740 F   0  0  0  0  0  0
  -29.9783  -13.5500   20.3948 N   0  0  0  0  0  0
  -26.2923  -12.9430   20.3295 N   0  0  0  0  0  0
  -25.9332  -11.6563   20.5770 N   0  0  0  0  0  0
  -22.0465  -12.8192   22.0432 N   0  0  0  0  0  0
  -25.4165  -15.1938   20.4109 N   0  0  0  0  0  0
  -31.8227  -14.8257   20.1803 O   0  0  0  0  0  0
  -21.6642   -6.8884   21.4244 O   0  0  0  0  0  0
  -22.3493  -14.5530   20.6747 O   0  0  0  0  0  0
  -24.6327  -31.8528   23.1969 C   0  0  0  0  0  0
  -25.9153  -32.4735   23.8315 C   0  0  1  0  0  0
  -27.2125  -27.2315   20.1565 C   0  0  0  0  0  0
  -25.5952  -33.8539   24.2237 N   0  0  0  0  0  0
  -23.4309  -30.4761   21.5384 C   0  0  2  0  0  0
  -24.8820  -28.9214   20.1088 C   0  0  0  0  0  0
  -22.7506  -29.4590   22.4881 C   0  0  0  0  0  0
  -18.0289  -28.1388   22.8480 C   0  0  0  0  0  0
  -24.1490  -36.7265   23.2636 C   0  0  0  0  0  0
  -25.9798  -30.7582   21.3833 C   0  0  0  0  0  0
  -26.0530  -29.3779   20.7286 C   0  0  0  0  0  0
  -27.2234  -28.5466   20.7400 C   0  0  0  0  0  0
  -26.0277  -26.8599   19.4850 C   0  0  0  0  0  0
  -24.8777  -27.6720   19.4715 C   0  0  0  0  0  0
  -23.6527  -29.8105   20.1541 C   0  0  0  0  0  0
  -25.4112  -36.3049   24.0321 C   0  0  1  0  0  0
  -20.5898  -28.3703   23.1256 C   0  0  2  0  0  0
  -20.6781  -26.9416   22.5404 C   0  0  0  0  0  0
  -19.5759  -26.6377   21.5208 C   0  0  0  0  0  0
  -18.1934  -26.7928   22.1615 C   0  0  0  0  0  0
  -19.1546  -28.8861   23.2864 C   0  0  0  0  0  0
  -18.9472  -30.1463   23.8880 C   0  0  0  0  0  0
  -17.6474  -30.6593   24.0564 C   0  0  0  0  0  0
  -25.9058  -34.9429   23.5080 C   0  0  0  0  0  0
  -16.5363  -29.9088   23.6345 C   0  0  0  0  0  0
  -16.7275  -28.6506   23.0357 C   0  0  0  0  0  0
  -26.4510  -31.6576   25.0720 C   0  0  0  0  0  0
  -25.3719  -31.3756   26.1435 C   0  0  0  0  0  0
  -27.0371  -30.2982   24.6245 C   0  0  0  0  0  0
  -27.6048  -32.4333   25.7496 C   0  0  0  0  0  0
  -27.5584  -37.1778   24.8451 C   0  0  0  0  0  0
  -21.4208  -29.3053   22.3642 N   0  0  0  0  0  0
  -26.4275  -37.3764   23.9424 N   0  0  0  0  0  0
  -24.6999  -31.0482   22.0955 N   0  0  0  0  0  0
  -23.4196  -28.8123   23.2980 O   0  0  0  0  0  0
  -28.2720  -26.2891   20.2137 O   0  0  0  0  0  0
  -26.5627  -34.8911   22.4646 O   0  0  0  0  0  0
  -23.5473  -32.1355   23.7254 O   0  0  0  0  0  0
  -30.2617  -20.7457   19.6542 C   0  0  0  0  0  0
  -28.9624  -19.6808   21.1273 C   0  0  0  0  0  0
  -29.2215  -20.9956   20.5063 C   0  0  0  0  0  0
  -29.9040  -18.7460   20.6532 C   0  0  0  0  0  0
  -27.9810  -19.2596   22.1605 C   0  0  0  0  0  0
  -28.8661  -23.6238   20.2815 C   0  0  0  0  0  0
  -26.8142  -20.1959   22.4395 C   0  0  0  0  0  0
  -30.4949  -17.3160   21.0553 C   0  0  0  0  0  0
  -27.9349  -24.8820   20.6864 C   0  0  0  0  0  0
  -28.5645  -22.3294   20.7202 N   0  0  0  0  0  0
  -29.9131  -15.9309   20.7429 N   0  0  0  0  0  0
  -28.0574  -18.1845   22.7628 O   0  0  0  0  0  0
  -29.8566  -23.8353   19.5768 O   0  0  0  0  0  0
  -30.6700  -19.4287   19.7343 O   0  0  0  0  0  0
  -31.4689  -12.5980   19.1708 H   0  0  0  0  0  0
  -30.3741  -11.5048   19.9689 H   0  0  0  0  0  0
  -29.7933  -11.7348   17.5284 H   0  0  0  0  0  0
  -29.6270  -13.4627   17.7150 H   0  0  0  0  0  0
  -27.8984  -11.2840   18.9233 H   0  0  0  0  0  0
  -27.3748  -12.5155   17.8052 H   0  0  0  0  0  0
  -27.6264  -14.2563   19.4623 H   0  0  0  0  0  0
  -28.7272  -12.1997   21.4364 H   0  0  0  0  0  0
  -28.4149  -13.8814   21.7863 H   0  0  0  0  0  0
  -25.2770   -9.5692   22.4766 H   0  0  0  0  0  0
  -24.0015   -7.4634   22.7464 H   0  0  0  0  0  0
  -21.0857   -8.8780   19.8941 H   0  0  0  0  0  0
  -22.3713  -10.9683   19.6170 H   0  0  0  0  0  0
  -21.1997   -7.6148   23.9725 H   0  0  0  0  0  0
  -21.1485   -6.0526   25.9083 H   0  0  0  0  0  0
  -22.0590   -2.7615   23.2852 H   0  0  0  0  0  0
  -22.4093  -11.9845   22.4797 H   0  0  0  0  0  0
  -21.1083  -13.1203   22.2654 H   0  0  0  0  0  0
  -24.6445  -15.8433   20.5149 H   0  0  0  0  0  0
  -26.2598  -15.6344   20.0675 H   0  0  0  0  0  0
  -26.7219  -32.5380   23.1053 H   0  0  0  0  0  0
  -25.0142  -33.9682   25.0413 H   0  0  0  0  0  0
  -22.7283  -31.2991   21.3898 H   0  0  0  0  0  0
  -23.3749  -35.9603   23.3302 H   0  0  0  0  0  0
  -24.3576  -36.8870   22.2049 H   0  0  0  0  0  0
  -23.7250  -37.6474   23.6650 H   0  0  0  0  0  0
  -26.1250  -31.5170   20.6131 H   0  0  0  0  0  0
  -26.8548  -30.8060   22.0197 H   0  0  0  0  0  0
  -28.1144  -28.8881   21.2478 H   0  0  0  0  0  0
  -25.9728  -25.9097   18.9741 H   0  0  0  0  0  0
  -23.9879  -27.3216   18.9661 H   0  0  0  0  0  0
  -23.7775  -30.5877   19.3988 H   0  0  0  0  0  0
  -22.7715  -29.2442   19.8464 H   0  0  0  0  0  0
  -25.1286  -36.1881   25.0809 H   0  0  0  0  0  0
  -20.9996  -28.3286   24.1375 H   0  0  0  0  0  0
  -20.5679  -26.2307   23.3607 H   0  0  0  0  0  0
  -21.6648  -26.7427   22.1203 H   0  0  0  0  0  0
  -19.6927  -25.6285   21.1246 H   0  0  0  0  0  0
  -19.6709  -27.3185   20.6741 H   0  0  0  0  0  0
  -17.4205  -26.6677   21.4017 H   0  0  0  0  0  0
  -18.0332  -26.0063   22.9002 H   0  0  0  0  0  0
  -19.7953  -30.7287   24.2228 H   0  0  0  0  0  0
  -17.5032  -31.6274   24.5168 H   0  0  0  0  0  0
  -15.5371  -30.2996   23.7682 H   0  0  0  0  0  0
  -15.8663  -28.0832   22.7084 H   0  0  0  0  0  0
  -24.5923  -30.7059   25.7792 H   0  0  0  0  0  0
  -24.8879  -32.2936   26.4784 H   0  0  0  0  0  0
  -25.8027  -30.9014   27.0260 H   0  0  0  0  0  0
  -26.2986  -29.6722   24.1230 H   0  0  0  0  0  0
  -27.3995  -29.7254   25.4790 H   0  0  0  0  0  0
  -27.8870  -30.4238   23.9534 H   0  0  0  0  0  0
  -27.2641  -33.3642   26.2038 H   0  0  0  0  0  0
  -28.3881  -32.6883   25.0345 H   0  0  0  0  0  0
  -28.0689  -31.8482   26.5445 H   0  0  0  0  0  0
  -28.2547  -38.0135   24.7574 H   0  0  0  0  0  0
  -28.1136  -36.2666   24.6164 H   0  0  0  0  0  0
  -27.2317  -37.1282   25.8857 H   0  0  0  0  0  0
  -20.9385  -29.8782   21.6859 H   0  0  0  0  0  0
  -26.0137  -38.2816   24.1490 H   0  0  0  0  0  0
  -30.8289  -21.3620   18.9694 H   0  0  0  0  0  0
  -27.1617  -21.0974   22.9417 H   0  0  0  0  0  0
  -26.0819  -19.7047   23.0800 H   0  0  0  0  0  0
  -26.3243  -20.4689   21.5053 H   0  0  0  0  0  0
  -30.6153  -17.3220   22.1396 H   0  0  0  0  0  0
  -31.5249  -17.3033   20.6960 H   0  0  0  0  0  0
  -27.9236  -24.9223   21.7764 H   0  0  0  0  0  0
  -26.9209  -24.6004   20.4094 H   0  0  0  0  0  0
  -27.7411  -22.3062   21.3065 H   0  0  0  0  0  0
  -28.9244  -15.8212   20.9085 H   0  0  0  0  0  0
  1 25  1  0  0  0
  1 30  2  0  0  0
  1 81  1  0  0  0
  2  3  1  0  0  0
  2 25  1  0  0  0
  2 85  1  0  0  0
  2 86  1  0  0  0
  3  4  1  0  0  0
  3 87  1  0  0  0
  3 88  1  0  0  0
  4  5  1  0  0  0
  4 89  1  0  0  0
  4 90  1  0  0  0
  5  6  1  0  0  0
  5 26  1  0  0  0
  5 91  1  0  0  0
  6 25  1  0  0  0
  6 92  1  0  0  0
  6 93  1  0  0  0
  7  8  2  0  0  0
  7 26  1  0  0  0
  7 29  1  0  0  0
  8  9  1  0  0  0
  8 22  1  0  0  0
  9 10  1  0  0  0
  9 27  2  0  0  0
 10 11  2  0  0  0
 10 15  1  0  0  0
 11 12  1  0  0  0
 11 94  1  0  0  0
 12 13  2  0  0  0
 12 95  1  0  0  0
 13 14  1  0  0  0
 13 31  1  0  0  0
 14 15  2  0  0  0
 14 96  1  0  0  0
 15 97  1  0  0  0
 16 17  2  0  0  0
 16 21  1  0  0  0
 16 31  1  0  0  0
 17 18  1  0  0  0
 17 98  1  0  0  0
 18 19  2  0  0  0
 18 99  1  0  0  0
 19 20  1  0  0  0
 19 24  1  0  0  0
 20 21  2  0  0  0
 20100  1  0  0  0
 21 23  1  0  0  0
 22 28  1  0  0  0
 22 32  2  0  0  0
 26 27  1  0  0  0
 28101  1  0  0  0
 28102  1  0  0  0
 29103  1  0  0  0
 29104  1  0  0  0
 33 34  1  0  0  0
 33 66  1  0  0  0
 33 70  2  0  0  0
 34 36  1  0  0  0
 34 59  1  0  0  0
 34105  1  0  0  0
 35 44  2  0  0  0
 35 45  1  0  0  0
 35 68  1  0  0  0
 36 56  1  0  0  0
 36106  1  0  0  0
 37 39  1  0  0  0
 37 47  1  0  0  0
 37 66  1  0  0  0
 37107  1  0  0  0
 38 43  2  0  0  0
 38 46  1  0  0  0
 38 47  1  0  0  0
 39 64  1  0  0  0
 39 67  2  0  0  0
 40 52  1  0  0  0
 40 53  2  0  0  0
 40 58  1  0  0  0
 41108  1  0  0  0
 41109  1  0  0  0
 41110  1  0  0  0
 41 48  1  0  0  0
 42 43  1  0  0  0
 42 66  1  0  0  0
 42111  1  0  0  0
 42112  1  0  0  0
 43 44  1  0  0  0
 44113  1  0  0  0
 45 46  2  0  0  0
 45114  1  0  0  0
 46115  1  0  0  0
 47116  1  0  0  0
 47117  1  0  0  0
 48 56  1  0  0  0
 48 65  1  0  0  0
 48118  1  0  0  0
 49 50  1  0  0  0
 49 53  1  0  0  0
 49 64  1  0  0  0
 49119  1  0  0  0
 50 51  1  0  0  0
 50120  1  0  0  0
 50121  1  0  0  0
 51 52  1  0  0  0
 51122  1  0  0  0
 51123  1  0  0  0
 52124  1  0  0  0
 52125  1  0  0  0
 53 54  1  0  0  0
 54 55  2  0  0  0
 54126  1  0  0  0
 55 57  1  0  0  0
 55127  1  0  0  0
 56 69  2  0  0  0
 57 58  2  0  0  0
 57128  1  0  0  0
 58129  1  0  0  0
 59 60  1  0  0  0
 59 61  1  0  0  0
 59 62  1  0  0  0
 60130  1  0  0  0
 60131  1  0  0  0
 60132  1  0  0  0
 61133  1  0  0  0
 61134  1  0  0  0
 61135  1  0  0  0
 62136  1  0  0  0
 62137  1  0  0  0
 62138  1  0  0  0
 63 65  1  0  0  0
 63139  1  0  0  0
 63140  1  0  0  0
 63141  1  0  0  0
 64142  1  0  0  0
 65143  1  0  0  0
 68 79  1  0  0  0
 71 73  2  0  0  0
 71 84  1  0  0  0
 71144  1  0  0  0
 72 73  1  0  0  0
 72 74  2  0  0  0
 72 75  1  0  0  0
 73 80  1  0  0  0
 74 78  1  0  0  0
 74 84  1  0  0  0
 75 77  1  0  0  0
 75 82  2  0  0  0
 76 79  1  0  0  0
 76 80  1  0  0  0
 76 83  2  0  0  0
 77145  1  0  0  0
 77146  1  0  0  0
 77147  1  0  0  0
 78 81  1  0  0  0
 78148  1  0  0  0
 78149  1  0  0  0
 79150  1  0  0  0
 79151  1  0  0  0
 80152  1  0  0  0
 81153  1  0  0  0
M  ISO  4   1 100  68 101  79 101  81 100
M  END
> <chiral flag>
0

> <version>
0

> <s_m_source_file>
/data/baiqing/PycharmProjects/Reinvent-master-3.2/result/LINK_invent/BTK/process_docking_weight1_custom_product_contain_oxygen_bond_distance_aromatic_linkinvent_7_9_3/rearranged_h_0152.sdf

> <i_m_source_file_index>
2

> <r_mmod_Potential_Energy-OPLS-2005>
142.2705078125

> <r_mmod_Stretch_Energy-OPLS-2005>
140.34587097168

> <r_mmod_Bend_Energy-OPLS-2005>
192.400115966797

> <r_mmod_Torsional_Energy-OPLS-2005>
254.511047363281

> <r_mmod_Improper_Torsional_Energy-OPLS-2005>
5.32624816894531

> <r_mmod_Van_der_Waal_Energy-OPLS-2005>
117.259323120117

> <r_mmod_Electrostatic_Energy-OPLS-2005>
-415.220092773438

> <r_mmod_Solvation_Energy-OPLS-2005>
-255.166305541992

> <b_mmod_Minimization_Converged-OPLS-2005>
0

> <r_mmod_RMS_Derivative-OPLS-2005>
1.39272463321686

$$$$
2
                    3D
 Structure written by MMmdl.
149158  0  0  1  0            999 V2000
  -30.6487  -14.8523   20.4447 C   0  0  0  0  0  0
  -30.4167  -12.5355   19.4871 C   0  0  0  0  0  0
  -29.5047  -12.5121   18.2434 C   0  0  0  0  0  0
  -28.0382  -12.3153   18.6653 C   0  0  0  0  0  0
  -27.6261  -13.2470   19.8358 C   0  0  2  0  0  0
  -28.6735  -13.2732   20.9708 C   0  0  0  0  0  0
  -25.2422  -13.8207   20.5703 C   0  0  0  0  0  0
  -24.1755  -13.0428   20.9245 C   0  0  0  0  0  0
  -24.6383  -11.6920   20.8773 C   0  0  0  0  0  0
  -23.9075  -10.4288   21.0415 C   0  0  0  0  0  0
  -24.3626   -9.4201   21.9189 C   0  0  0  0  0  0
  -23.6299   -8.2238   22.0755 C   0  0  0  0  0  0
  -22.4281   -8.0279   21.3545 C   0  0  0  0  0  0
  -21.9919   -9.0253   20.4648 C   0  0  0  0  0  0
  -22.7248  -10.2131   20.3061 C   0  0  0  0  0  0
  -21.6854   -6.0736   22.5279 C   0  0  0  0  0  0
  -21.4014   -6.5640   23.8211 C   0  0  0  0  0  0
  -21.3659   -5.6792   24.9174 C   0  0  0  0  0  0
  -21.6044   -4.3056   24.7224 C   0  0  0  0  0  0
  -21.8819   -3.8147   23.4344 C   0  0  0  0  0  0
  -21.9192   -4.6964   22.3402 C   0  0  0  0  0  0
  -22.7776  -13.5199   21.1891 C   0  0  0  0  0  0
  -22.1662   -4.2149   21.0980 F   0  0  0  0  0  0
  -21.5629   -3.4539   25.7737 F   0  0  0  0  0  0
  -29.9528  -13.6517   20.3596 N   0  0  0  0  0  0
  -26.2864  -12.9455   20.3255 N   0  0  0  0  0  0
  -25.9317  -11.6585   20.5767 N   0  0  0  0  0  0
  -22.0428  -12.8191   22.0448 N   0  0  0  0  0  0
  -25.4012  -15.1927   20.4071 N   0  0  0  0  0  0
  -31.8552  -14.8081   20.1806 O   0  0  0  0  0  0
  -21.6641   -6.8879   21.4241 O   0  0  0  0  0  0
  -22.3460  -14.5501   20.6727 O   0  0  0  0  0  0
  -24.6387  -31.8498   23.1946 C   0  0  0  0  0  0
  -25.9183  -32.4725   23.8312 C   0  0  1  0  0  0
  -27.2071  -27.1869   20.1447 C   0  0  0  0  0  0
  -25.5955  -33.8530   24.2230 N   0  0  0  0  0  0
  -23.4389  -30.4727   21.5396 C   0  0  2  0  0  0
  -24.8867  -28.9123   20.1101 C   0  0  0  0  0  0
  -22.7542  -29.4579   22.4885 C   0  0  0  0  0  0
  -18.0300  -28.1391   22.8479 C   0  0  0  0  0  0
  -24.1492  -36.7268   23.2641 C   0  0  0  0  0  0
  -25.9924  -30.7386   21.3883 C   0  0  0  0  0  0
  -26.0629  -29.3553   20.7296 C   0  0  0  0  0  0
  -27.2278  -28.5073   20.7338 C   0  0  0  0  0  0
  -26.0151  -26.8470   19.4679 C   0  0  0  0  0  0
  -24.8728  -27.6695   19.4638 C   0  0  0  0  0  0
  -23.6618  -29.8082   20.1564 C   0  0  0  0  0  0
  -25.4121  -36.3051   24.0321 C   0  0  1  0  0  0
  -20.5910  -28.3713   23.1246 C   0  0  2  0  0  0
  -20.6786  -26.9423   22.5402 C   0  0  0  0  0  0
  -19.5759  -26.6381   21.5210 C   0  0  0  0  0  0
  -18.1942  -26.7932   22.1624 C   0  0  0  0  0  0
  -19.1555  -28.8870   23.2855 C   0  0  0  0  0  0
  -18.9472  -30.1468   23.8878 C   0  0  0  0  0  0
  -17.6470  -30.6590   24.0557 C   0  0  0  0  0  0
  -25.9068  -34.9423   23.5079 C   0  0  0  0  0  0
  -16.5361  -29.9083   23.6335 C   0  0  0  0  0  0
  -16.7285  -28.6501   23.0357 C   0  0  0  0  0  0
  -26.4520  -31.6574   25.0733 C   0  0  0  0  0  0
  -25.3719  -31.3756   26.1439 C   0  0  0  0  0  0
  -27.0373  -30.2972   24.6286 C   0  0  0  0  0  0
  -27.6063  -32.4328   25.7508 C   0  0  0  0  0  0
  -27.5578  -37.1791   24.8464 C   0  0  0  0  0  0
  -21.4241  -29.3049   22.3626 N   0  0  0  0  0  0
  -26.4290  -37.3757   23.9408 N   0  0  0  0  0  0
  -24.7094  -31.0401   22.0960 N   0  0  0  0  0  0
  -23.4210  -28.8117   23.3008 O   0  0  0  0  0  0
  -28.2489  -26.2074   20.1959 O   0  0  0  0  0  0
  -26.5641  -34.8908   22.4650 O   0  0  0  0  0  0
  -23.5518  -32.1353   23.7197 O   0  0  0  0  0  0
  -29.9206  -20.1305   20.1013 C   0  0  0  0  0  0
  -29.9046  -18.6556   20.2730 C   0  0  0  0  0  0
  -28.7974  -18.1981   20.8608 C   0  0  0  0  0  0
  -28.7826  -20.8212   20.5741 C   0  0  0  0  0  0
  -28.8000  -23.4580   20.2697 C   0  0  0  0  0  0
  -30.7662  -17.4022   19.9940 C   0  0  0  0  0  0
  -28.7653  -16.6727   21.0380 C   0  0  0  0  0  0
  -27.8586  -24.7640   20.5612 C   0  0  0  0  0  0
  -30.0380  -16.1347   20.4455 N   0  0  0  0  0  0
  -28.3462  -22.1790   20.6302 N   0  0  0  0  0  0
  -29.8996  -23.6143   19.7320 O   0  0  0  0  0  0
  -27.7057  -19.5403   21.2380 S   0  0  0  0  0  0
  -31.4563  -12.6440   19.1747 H   0  0  0  0  0  0
  -30.3702  -11.5846   20.0202 H   0  0  0  0  0  0
  -29.8096  -11.7154   17.5636 H   0  0  0  0  0  0
  -29.6087  -13.4467   17.6898 H   0  0  0  0  0  0
  -27.9231  -11.2735   18.9662 H   0  0  0  0  0  0
  -27.3741  -12.4597   17.8122 H   0  0  0  0  0  0
  -27.5902  -14.2467   19.4043 H   0  0  0  0  0  0
  -28.7457  -12.3013   21.4613 H   0  0  0  0  0  0
  -28.3880  -13.9867   21.7441 H   0  0  0  0  0  0
  -25.2766   -9.5680   22.4770 H   0  0  0  0  0  0
  -24.0006   -7.4629   22.7474 H   0  0  0  0  0  0
  -21.0850   -8.8775   19.8953 H   0  0  0  0  0  0
  -22.3706  -10.9674   19.6176 H   0  0  0  0  0  0
  -21.2006   -7.6147   23.9715 H   0  0  0  0  0  0
  -21.1482   -6.0522   25.9077 H   0  0  0  0  0  0
  -22.0599   -2.7609   23.2843 H   0  0  0  0  0  0
  -22.4053  -11.9861   22.4845 H   0  0  0  0  0  0
  -21.1042  -13.1208   22.2651 H   0  0  0  0  0  0
  -24.6244  -15.8362   20.5126 H   0  0  0  0  0  0
  -26.2299  -15.6329   20.0315 H   0  0  0  0  0  0
  -26.7249  -32.5348   23.1046 H   0  0  0  0  0  0
  -25.0096  -33.9656   25.0372 H   0  0  0  0  0  0
  -22.7390  -31.2976   21.3910 H   0  0  0  0  0  0
  -23.3758  -35.9596   23.3295 H   0  0  0  0  0  0
  -24.3579  -36.8901   22.2056 H   0  0  0  0  0  0
  -23.7242  -37.6464   23.6673 H   0  0  0  0  0  0
  -26.1441  -31.4958   20.6180 H   0  0  0  0  0  0
  -26.8648  -30.7856   22.0284 H   0  0  0  0  0  0
  -28.1233  -28.8383   21.2410 H   0  0  0  0  0  0
  -25.9380  -25.9123   18.9336 H   0  0  0  0  0  0
  -23.9799  -27.3320   18.9556 H   0  0  0  0  0  0
  -23.7941  -30.5852   19.4026 H   0  0  0  0  0  0
  -22.7777  -29.2480   19.8468 H   0  0  0  0  0  0
  -25.1308  -36.1888   25.0814 H   0  0  0  0  0  0
  -21.0002  -28.3297   24.1366 H   0  0  0  0  0  0
  -20.5683  -26.2326   23.3615 H   0  0  0  0  0  0
  -21.6653  -26.7436   22.1197 H   0  0  0  0  0  0
  -19.6920  -25.6287   21.1253 H   0  0  0  0  0  0
  -19.6696  -27.3179   20.6730 H   0  0  0  0  0  0
  -17.4210  -26.6672   21.4029 H   0  0  0  0  0  0
  -18.0345  -26.0079   22.9026 H   0  0  0  0  0  0
  -19.7948  -30.7288   24.2239 H   0  0  0  0  0  0
  -17.5024  -31.6270   24.5161 H   0  0  0  0  0  0
  -15.5361  -30.2978   23.7670 H   0  0  0  0  0  0
  -15.8685  -28.0812   22.7085 H   0  0  0  0  0  0
  -24.5886  -30.7118   25.7760 H   0  0  0  0  0  0
  -24.8924  -32.2938   26.4840 H   0  0  0  0  0  0
  -25.8011  -30.8937   27.0233 H   0  0  0  0  0  0
  -26.2979  -29.6706   24.1285 H   0  0  0  0  0  0
  -27.3985  -29.7260   25.4848 H   0  0  0  0  0  0
  -27.8892  -30.4212   23.9596 H   0  0  0  0  0  0
  -27.2667  -33.3642   26.2051 H   0  0  0  0  0  0
  -28.3891  -32.6865   25.0348 H   0  0  0  0  0  0
  -28.0713  -31.8476   26.5453 H   0  0  0  0  0  0
  -28.2593  -38.0091   24.7510 H   0  0  0  0  0  0
  -28.1077  -36.2621   24.6294 H   0  0  0  0  0  0
  -27.2295  -37.1443   25.8867 H   0  0  0  0  0  0
  -20.9440  -29.8770   21.6819 H   0  0  0  0  0  0
  -26.0163  -38.2828   24.1405 H   0  0  0  0  0  0
  -30.7635  -20.6234   19.6370 H   0  0  0  0  0  0
  -31.7214  -17.4779   20.5155 H   0  0  0  0  0  0
  -30.9928  -17.3212   18.9301 H   0  0  0  0  0  0
  -27.9069  -16.2516   20.5222 H   0  0  0  0  0  0
  -28.6960  -16.4056   22.0930 H   0  0  0  0  0  0
  -27.6846  -24.7716   21.6374 H   0  0  0  0  0  0
  -26.8957  -24.4997   20.1323 H   0  0  0  0  0  0
  -27.4325  -22.2561   21.0577 H   0  0  0  0  0  0
  1 25  1  0  0  0
  1 30  2  0  0  0
  1 79  1  0  0  0
  2  3  1  0  0  0
  2 25  1  0  0  0
  2 83  1  0  0  0
  2 84  1  0  0  0
  3  4  1  0  0  0
  3 85  1  0  0  0
  3 86  1  0  0  0
  4  5  1  0  0  0
  4 87  1  0  0  0
  4 88  1  0  0  0
  5  6  1  0  0  0
  5 26  1  0  0  0
  5 89  1  0  0  0
  6 25  1  0  0  0
  6 90  1  0  0  0
  6 91  1  0  0  0
  7  8  2  0  0  0
  7 26  1  0  0  0
  7 29  1  0  0  0
  8  9  1  0  0  0
  8 22  1  0  0  0
  9 10  1  0  0  0
  9 27  2  0  0  0
 10 11  2  0  0  0
 10 15  1  0  0  0
 11 12  1  0  0  0
 11 92  1  0  0  0
 12 13  2  0  0  0
 12 93  1  0  0  0
 13 14  1  0  0  0
 13 31  1  0  0  0
 14 15  2  0  0  0
 14 94  1  0  0  0
 15 95  1  0  0  0
 16 17  2  0  0  0
 16 21  1  0  0  0
 16 31  1  0  0  0
 17 18  1  0  0  0
 17 96  1  0  0  0
 18 19  2  0  0  0
 18 97  1  0  0  0
 19 20  1  0  0  0
 19 24  1  0  0  0
 20 21  2  0  0  0
 20 98  1  0  0  0
 21 23  1  0  0  0
 22 28  1  0  0  0
 22 32  2  0  0  0
 26 27  1  0  0  0
 28 99  1  0  0  0
 28100  1  0  0  0
 29101  1  0  0  0
 29102  1  0  0  0
 33 34  1  0  0  0
 33 66  1  0  0  0
 33 70  2  0  0  0
 34 36  1  0  0  0
 34 59  1  0  0  0
 34103  1  0  0  0
 35 44  2  0  0  0
 35 45  1  0  0  0
 35 68  1  0  0  0
 36 56  1  0  0  0
 36104  1  0  0  0
 37 39  1  0  0  0
 37 47  1  0  0  0
 37 66  1  0  0  0
 37105  1  0  0  0
 38 43  2  0  0  0
 38 46  1  0  0  0
 38 47  1  0  0  0
 39 64  1  0  0  0
 39 67  2  0  0  0
 40 52  1  0  0  0
 40 53  2  0  0  0
 40 58  1  0  0  0
 41106  1  0  0  0
 41107  1  0  0  0
 41108  1  0  0  0
 41 48  1  0  0  0
 42 43  1  0  0  0
 42 66  1  0  0  0
 42109  1  0  0  0
 42110  1  0  0  0
 43 44  1  0  0  0
 44111  1  0  0  0
 45 46  2  0  0  0
 45112  1  0  0  0
 46113  1  0  0  0
 47114  1  0  0  0
 47115  1  0  0  0
 48 56  1  0  0  0
 48 65  1  0  0  0
 48116  1  0  0  0
 49 50  1  0  0  0
 49 53  1  0  0  0
 49 64  1  0  0  0
 49117  1  0  0  0
 50 51  1  0  0  0
 50118  1  0  0  0
 50119  1  0  0  0
 51 52  1  0  0  0
 51120  1  0  0  0
 51121  1  0  0  0
 52122  1  0  0  0
 52123  1  0  0  0
 53 54  1  0  0  0
 54 55  2  0  0  0
 54124  1  0  0  0
 55 57  1  0  0  0
 55125  1  0  0  0
 56 69  2  0  0  0
 57 58  2  0  0  0
 57126  1  0  0  0
 58127  1  0  0  0
 59 60  1  0  0  0
 59 61  1  0  0  0
 59 62  1  0  0  0
 60128  1  0  0  0
 60129  1  0  0  0
 60130  1  0  0  0
 61131  1  0  0  0
 61132  1  0  0  0
 61133  1  0  0  0
 62134  1  0  0  0
 62135  1  0  0  0
 62136  1  0  0  0
 63 65  1  0  0  0
 63137  1  0  0  0
 63138  1  0  0  0
 63139  1  0  0  0
 64140  1  0  0  0
 65141  1  0  0  0
 68 78  1  0  0  0
 71 72  1  0  0  0
 71 74  2  0  0  0
 71142  1  0  0  0
 72 73  2  0  0  0
 72 76  1  0  0  0
 73 77  1  0  0  0
 73 82  1  0  0  0
 74 80  1  0  0  0
 74 82  1  0  0  0
 75 78  1  0  0  0
 75 80  1  0  0  0
 75 81  2  0  0  0
 76 79  1  0  0  0
 76143  1  0  0  0
 76144  1  0  0  0
 77 79  1  0  0  0
 77145  1  0  0  0
 77146  1  0  0  0
 78147  1  0  0  0
 78148  1  0  0  0
 80149  1  0  0  0
M  ISO  4   1 100  68 101  78 101  79 100
M  END
> <chiral flag>
0

> <version>
0

> <s_m_source_file>
/data/baiqing/PycharmProjects/Reinvent-master-3.2/result/LINK_invent/BTK/process_docking_weight1_custom_product_contain_oxygen_bond_distance_aromatic_linkinvent_7_9_3/rearranged_h_0152.sdf

> <i_m_source_file_index>
3

> <r_mmod_Potential_Energy-OPLS-2005>
427.202453613281

> <r_mmod_Stretch_Energy-OPLS-2005>
167.784561157227

> <r_mmod_Bend_Energy-OPLS-2005>
306.031890869141

> <r_mmod_Torsional_Energy-OPLS-2005>
257.585876464844

> <r_mmod_Improper_Torsional_Energy-OPLS-2005>
10.344162940979

> <r_mmod_Van_der_Waal_Energy-OPLS-2005>
111.17017364502

> <r_mmod_Electrostatic_Energy-OPLS-2005>
-329.476287841797

> <r_mmod_Solvation_Energy-OPLS-2005>
-240.983840942383

> <b_mmod_Minimization_Converged-OPLS-2005>
0

> <r_mmod_RMS_Derivative-OPLS-2005>
0.333023279905319

$$$$
3
                    3D
 Structure written by MMmdl.
148156  0  0  1  0            999 V2000
  -30.6424  -14.6790   20.4932 C   0  0  0  0  0  0
  -30.4331  -12.4158   19.4667 C   0  0  0  0  0  0
  -29.5055  -12.4953   18.2332 C   0  0  0  0  0  0
  -28.0317  -12.3243   18.6470 C   0  0  0  0  0  0
  -27.6461  -13.2254   19.8506 C   0  0  2  0  0  0
  -28.6901  -13.1360   20.9844 C   0  0  0  0  0  0
  -25.2525  -13.8200   20.5680 C   0  0  0  0  0  0
  -24.1806  -13.0446   20.9211 C   0  0  0  0  0  0
  -24.6386  -11.6916   20.8735 C   0  0  0  0  0  0
  -23.9058  -10.4291   21.0410 C   0  0  0  0  0  0
  -24.3632   -9.4194   21.9178 C   0  0  0  0  0  0
  -23.6298   -8.2232   22.0759 C   0  0  0  0  0  0
  -22.4278   -8.0270   21.3542 C   0  0  0  0  0  0
  -21.9886   -9.0250   20.4646 C   0  0  0  0  0  0
  -22.7226  -10.2128   20.3047 C   0  0  0  0  0  0
  -21.6840   -6.0715   22.5268 C   0  0  0  0  0  0
  -21.4008   -6.5634   23.8201 C   0  0  0  0  0  0
  -21.3664   -5.6800   24.9182 C   0  0  0  0  0  0
  -21.6055   -4.3061   24.7229 C   0  0  0  0  0  0
  -21.8826   -3.8134   23.4348 C   0  0  0  0  0  0
  -21.9194   -4.6945   22.3396 C   0  0  0  0  0  0
  -22.7830  -13.5231   21.1865 C   0  0  0  0  0  0
  -22.1670   -4.2138   21.0968 F   0  0  0  0  0  0
  -21.5629   -3.4547   25.7733 F   0  0  0  0  0  0
  -30.0051  -13.4635   20.4187 N   0  0  0  0  0  0
  -26.2943  -12.9392   20.3271 N   0  0  0  0  0  0
  -25.9319  -11.6543   20.5760 N   0  0  0  0  0  0
  -22.0485  -12.8211   22.0412 N   0  0  0  0  0  0
  -25.4255  -15.1920   20.4033 N   0  0  0  0  0  0
  -31.8166  -14.7721   20.1235 O   0  0  0  0  0  0
  -21.6648   -6.8858   21.4235 O   0  0  0  0  0  0
  -22.3510  -14.5521   20.6707 O   0  0  0  0  0  0
  -24.6314  -31.8595   23.2031 C   0  0  0  0  0  0
  -25.9154  -32.4773   23.8359 C   0  0  1  0  0  0
  -27.2081  -27.2906   20.1167 C   0  0  0  0  0  0
  -25.5972  -33.8579   24.2269 N   0  0  0  0  0  0
  -23.4254  -30.4892   21.5476 C   0  0  2  0  0  0
  -24.8664  -28.9508   20.1090 C   0  0  0  0  0  0
  -22.7497  -29.4655   22.4923 C   0  0  0  0  0  0
  -18.0291  -28.1394   22.8483 C   0  0  0  0  0  0
  -24.1493  -36.7282   23.2637 C   0  0  0  0  0  0
  -25.9726  -30.7825   21.3811 C   0  0  0  0  0  0
  -26.0403  -29.4099   20.7176 C   0  0  0  0  0  0
  -27.2171  -28.5958   20.7090 C   0  0  0  0  0  0
  -26.0032  -26.9008   19.4771 C   0  0  0  0  0  0
  -24.8513  -27.7001   19.4816 C   0  0  0  0  0  0
  -23.6398  -29.8351   20.1607 C   0  0  0  0  0  0
  -25.4116  -36.3081   24.0334 C   0  0  1  0  0  0
  -20.5891  -28.3707   23.1267 C   0  0  2  0  0  0
  -20.6784  -26.9424   22.5424 C   0  0  0  0  0  0
  -19.5772  -26.6385   21.5225 C   0  0  0  0  0  0
  -18.1934  -26.7941   22.1603 C   0  0  0  0  0  0
  -19.1543  -28.8866   23.2884 C   0  0  0  0  0  0
  -18.9467  -30.1468   23.8904 C   0  0  0  0  0  0
  -17.6472  -30.6600   24.0586 C   0  0  0  0  0  0
  -25.9067  -34.9456   23.5092 C   0  0  0  0  0  0
  -16.5368  -29.9110   23.6330 C   0  0  0  0  0  0
  -16.7279  -28.6526   23.0349 C   0  0  0  0  0  0
  -26.4478  -31.6604   25.0761 C   0  0  0  0  0  0
  -25.3688  -31.3847   26.1495 C   0  0  0  0  0  0
  -27.0257  -30.2974   24.6284 C   0  0  0  0  0  0
  -27.6073  -32.4307   25.7507 C   0  0  0  0  0  0
  -27.5588  -37.1789   24.8463 C   0  0  0  0  0  0
  -21.4211  -29.3058   22.3663 N   0  0  0  0  0  0
  -26.4280  -37.3783   23.9433 N   0  0  0  0  0  0
  -24.6953  -31.0606   22.0995 N   0  0  0  0  0  0
  -23.4208  -28.8177   23.3013 O   0  0  0  0  0  0
  -28.2939  -26.3899   20.1684 O   0  0  0  0  0  0
  -26.5627  -34.8928   22.4652 O   0  0  0  0  0  0
  -23.5467  -32.1397   23.7324 O   0  0  0  0  0  0
  -29.5767  -20.1843   21.3530 C   0  0  0  0  0  0
  -29.1252  -20.8189   19.1469 C   0  0  0  0  0  0
  -29.2094  -21.2655   20.4441 C   0  0  0  0  0  0
  -29.8284  -18.9523   20.7327 C   0  0  0  0  0  0
  -29.0408  -23.8221   20.1757 C   0  0  0  0  0  0
  -27.9260  -24.9427   20.2314 C   0  0  0  0  0  0
  -28.8295  -22.6296   20.8316 N   0  0  0  0  0  0
  -29.9106  -15.8558   20.8713 N   0  0  0  0  0  0
  -30.0593  -24.0184   19.5067 O   0  0  0  0  0  0
  -31.9693  -17.4827   21.2089 O   0  0  0  0  0  0
  -30.0982  -17.4752   22.9169 O   0  0  0  0  0  0
  -29.5264  -19.1041   19.0160 S   0  0  0  0  0  0
  -30.5284  -17.4102   21.5067 S   0  0  0  0  0  0
  -31.4734  -12.5341   19.1594 H   0  0  0  0  0  0
  -30.3713  -11.4319   19.9334 H   0  0  0  0  0  0
  -29.7765  -11.7302   17.5059 H   0  0  0  0  0  0
  -29.6373  -13.4539   17.7285 H   0  0  0  0  0  0
  -27.8861  -11.2744   18.9107 H   0  0  0  0  0  0
  -27.3738  -12.5202   17.7985 H   0  0  0  0  0  0
  -27.6508  -14.2491   19.4743 H   0  0  0  0  0  0
  -28.7068  -12.1331   21.4167 H   0  0  0  0  0  0
  -28.4298  -13.8116   21.8002 H   0  0  0  0  0  0
  -25.2778   -9.5683   22.4774 H   0  0  0  0  0  0
  -24.0006   -7.4619   22.7472 H   0  0  0  0  0  0
  -21.0830   -8.8750   19.8944 H   0  0  0  0  0  0
  -22.3672  -10.9676   19.6157 H   0  0  0  0  0  0
  -21.1993   -7.6144   23.9704 H   0  0  0  0  0  0
  -21.1487   -6.0530   25.9091 H   0  0  0  0  0  0
  -22.0594   -2.7586   23.2854 H   0  0  0  0  0  0
  -22.4118  -11.9877   22.4794 H   0  0  0  0  0  0
  -21.1106  -13.1228   22.2632 H   0  0  0  0  0  0
  -24.6481  -15.8404   20.4884 H   0  0  0  0  0  0
  -26.2506  -15.6196   20.0029 H   0  0  0  0  0  0
  -26.7259  -32.5409   23.1137 H   0  0  0  0  0  0
  -25.0182  -33.9744   25.0460 H   0  0  0  0  0  0
  -22.7216  -31.3128   21.4074 H   0  0  0  0  0  0
  -23.3764  -35.9605   23.3285 H   0  0  0  0  0  0
  -24.3601  -36.8894   22.2052 H   0  0  0  0  0  0
  -23.7208  -37.6478   23.6650 H   0  0  0  0  0  0
  -26.1207  -31.5463   20.6155 H   0  0  0  0  0  0
  -26.8487  -30.8174   22.0172 H   0  0  0  0  0  0
  -28.1156  -28.9434   21.1989 H   0  0  0  0  0  0
  -25.8959  -25.9595   18.9635 H   0  0  0  0  0  0
  -23.9524  -27.3410   18.9973 H   0  0  0  0  0  0
  -23.7657  -30.6182   19.4123 H   0  0  0  0  0  0
  -22.7558  -29.2777   19.8486 H   0  0  0  0  0  0
  -25.1267  -36.1941   25.0818 H   0  0  0  0  0  0
  -20.9992  -28.3292   24.1382 H   0  0  0  0  0  0
  -20.5656  -26.2334   23.3626 H   0  0  0  0  0  0
  -21.6653  -26.7432   22.1246 H   0  0  0  0  0  0
  -19.6952  -25.6296   21.1255 H   0  0  0  0  0  0
  -19.6743  -27.3198   20.6749 H   0  0  0  0  0  0
  -17.4228  -26.6722   21.3984 H   0  0  0  0  0  0
  -18.0311  -26.0073   22.8964 H   0  0  0  0  0  0
  -19.7960  -30.7288   24.2251 H   0  0  0  0  0  0
  -17.5039  -31.6273   24.5197 H   0  0  0  0  0  0
  -15.5370  -30.3019   23.7674 H   0  0  0  0  0  0
  -15.8659  -28.0859   22.7056 H   0  0  0  0  0  0
  -24.6074  -30.6870   25.7992 H   0  0  0  0  0  0
  -24.8616  -32.3005   26.4539 H   0  0  0  0  0  0
  -25.8028  -30.9477   27.0491 H   0  0  0  0  0  0
  -26.2815  -29.6784   24.1255 H   0  0  0  0  0  0
  -27.3811  -29.7197   25.4834 H   0  0  0  0  0  0
  -27.8772  -30.4173   23.9578 H   0  0  0  0  0  0
  -27.2801  -33.3767   26.1829 H   0  0  0  0  0  0
  -28.4021  -32.6552   25.0382 H   0  0  0  0  0  0
  -28.0551  -31.8543   26.5617 H   0  0  0  0  0  0
  -28.2596  -38.0100   24.7500 H   0  0  0  0  0  0
  -28.1066  -36.2615   24.6240 H   0  0  0  0  0  0
  -27.2325  -37.1398   25.8875 H   0  0  0  0  0  0
  -20.9378  -29.8807   21.6903 H   0  0  0  0  0  0
  -26.0157  -38.2849   24.1444 H   0  0  0  0  0  0
  -29.6855  -20.3460   22.4171 H   0  0  0  0  0  0
  -28.8350  -21.3742   18.2624 H   0  0  0  0  0  0
  -27.2497  -24.7557   21.0659 H   0  0  0  0  0  0
  -27.3864  -24.6837   19.3254 H   0  0  0  0  0  0
  -28.1714  -22.6845   21.5985 H   0  0  0  0  0  0
  -28.9263  -15.7713   21.0955 H   0  0  0  0  0  0
  1 25  1  0  0  0
  1 30  2  0  0  0
  1 78  1  0  0  0
  2  3  1  0  0  0
  2 25  1  0  0  0
  2 84  1  0  0  0
  2 85  1  0  0  0
  3  4  1  0  0  0
  3 86  1  0  0  0
  3 87  1  0  0  0
  4  5  1  0  0  0
  4 88  1  0  0  0
  4 89  1  0  0  0
  5  6  1  0  0  0
  5 26  1  0  0  0
  5 90  1  0  0  0
  6 25  1  0  0  0
  6 91  1  0  0  0
  6 92  1  0  0  0
  7  8  2  0  0  0
  7 26  1  0  0  0
  7 29  1  0  0  0
  8  9  1  0  0  0
  8 22  1  0  0  0
  9 10  1  0  0  0
  9 27  2  0  0  0
 10 11  2  0  0  0
 10 15  1  0  0  0
 11 12  1  0  0  0
 11 93  1  0  0  0
 12 13  2  0  0  0
 12 94  1  0  0  0
 13 14  1  0  0  0
 13 31  1  0  0  0
 14 15  2  0  0  0
 14 95  1  0  0  0
 15 96  1  0  0  0
 16 17  2  0  0  0
 16 21  1  0  0  0
 16 31  1  0  0  0
 17 18  1  0  0  0
 17 97  1  0  0  0
 18 19  2  0  0  0
 18 98  1  0  0  0
 19 20  1  0  0  0
 19 24  1  0  0  0
 20 21  2  0  0  0
 20 99  1  0  0  0
 21 23  1  0  0  0
 22 28  1  0  0  0
 22 32  2  0  0  0
 26 27  1  0  0  0
 28100  1  0  0  0
 28101  1  0  0  0
 29102  1  0  0  0
 29103  1  0  0  0
 33 34  1  0  0  0
 33 66  1  0  0  0
 33 70  2  0  0  0
 34 36  1  0  0  0
 34 59  1  0  0  0
 34104  1  0  0  0
 35 44  2  0  0  0
 35 45  1  0  0  0
 35 68  1  0  0  0
 36 56  1  0  0  0
 36105  1  0  0  0
 37 39  1  0  0  0
 37 47  1  0  0  0
 37 66  1  0  0  0
 37106  1  0  0  0
 38 43  2  0  0  0
 38 46  1  0  0  0
 38 47  1  0  0  0
 39 64  1  0  0  0
 39 67  2  0  0  0
 40 52  1  0  0  0
 40 53  2  0  0  0
 40 58  1  0  0  0
 41107  1  0  0  0
 41108  1  0  0  0
 41109  1  0  0  0
 41 48  1  0  0  0
 42 43  1  0  0  0
 42 66  1  0  0  0
 42110  1  0  0  0
 42111  1  0  0  0
 43 44  1  0  0  0
 44112  1  0  0  0
 45 46  2  0  0  0
 45113  1  0  0  0
 46114  1  0  0  0
 47115  1  0  0  0
 47116  1  0  0  0
 48 56  1  0  0  0
 48 65  1  0  0  0
 48117  1  0  0  0
 49 50  1  0  0  0
 49 53  1  0  0  0
 49 64  1  0  0  0
 49118  1  0  0  0
 50 51  1  0  0  0
 50119  1  0  0  0
 50120  1  0  0  0
 51 52  1  0  0  0
 51121  1  0  0  0
 51122  1  0  0  0
 52123  1  0  0  0
 52124  1  0  0  0
 53 54  1  0  0  0
 54 55  2  0  0  0
 54125  1  0  0  0
 55 57  1  0  0  0
 55126  1  0  0  0
 56 69  2  0  0  0
 57 58  2  0  0  0
 57127  1  0  0  0
 58128  1  0  0  0
 59 60  1  0  0  0
 59 61  1  0  0  0
 59 62  1  0  0  0
 60129  1  0  0  0
 60130  1  0  0  0
 60131  1  0  0  0
 61132  1  0  0  0
 61133  1  0  0  0
 61134  1  0  0  0
 62135  1  0  0  0
 62136  1  0  0  0
 62137  1  0  0  0
 63 65  1  0  0  0
 63138  1  0  0  0
 63139  1  0  0  0
 63140  1  0  0  0
 64141  1  0  0  0
 65142  1  0  0  0
 68 76  1  0  0  0
 71 73  1  0  0  0
 71 74  2  0  0  0
 71143  1  0  0  0
 72 73  2  0  0  0
 72 82  1  0  0  0
 72144  1  0  0  0
 73 77  1  0  0  0
 74 82  1  0  0  0
 74 83  1  0  0  0
 75 76  1  0  0  0
 75 77  1  0  0  0
 75 79  2  0  0  0
 76145  1  0  0  0
 76146  1  0  0  0
 77147  1  0  0  0
 78148  1  0  0  0
 78 83  1  0  0  0
 80 83  2  0  0  0
 81 83  2  0  0  0
M  ISO  4   1 100  68 101  76 101  78 100
M  END
> <chiral flag>
0

> <version>
0

> <s_m_source_file>
/data/baiqing/PycharmProjects/Reinvent-master-3.2/result/LINK_invent/BTK/process_docking_weight1_custom_product_contain_oxygen_bond_distance_aromatic_linkinvent_7_9_3/rearranged_h_0152.sdf

> <i_m_source_file_index>
4

> <r_mmod_Potential_Energy-OPLS-2005>
-93.2279586791992

> <r_mmod_Stretch_Energy-OPLS-2005>
85.8135757446289

> <r_mmod_Bend_Energy-OPLS-2005>
156.38444519043

> <r_mmod_Torsional_Energy-OPLS-2005>
234.537841796875

> <r_mmod_Improper_Torsional_Energy-OPLS-2005>
5.61043882369995

> <r_mmod_Van_der_Waal_Energy-OPLS-2005>
120.55672454834

> <r_mmod_Electrostatic_Energy-OPLS-2005>
-464.470764160156

> <r_mmod_Solvation_Energy-OPLS-2005>
-297.385437011719

> <b_mmod_Minimization_Converged-OPLS-2005>
0

> <r_mmod_RMS_Derivative-OPLS-2005>
4.21039533615112

$$$$
4
                    3D
 Structure written by MMmdl.
161170  0  0  1  0            999 V2000
  -30.7367  -14.4350   20.6254 C   0  0  0  0  0  0
  -30.4192  -12.3075   19.4120 C   0  0  0  0  0  0
  -29.4890  -12.5196   18.1989 C   0  0  0  0  0  0
  -28.0064  -12.3893   18.6052 C   0  0  0  0  0  0
  -27.6634  -13.2012   19.8830 C   0  0  2  0  0  0
  -28.7031  -12.9072   20.9825 C   0  0  0  0  0  0
  -25.2590  -13.8158   20.5675 C   0  0  0  0  0  0
  -24.1835  -13.0437   20.9170 C   0  0  0  0  0  0
  -24.6382  -11.6902   20.8728 C   0  0  0  0  0  0
  -23.9049  -10.4288   21.0402 C   0  0  0  0  0  0
  -24.3606   -9.4208   21.9185 C   0  0  0  0  0  0
  -23.6285   -8.2243   22.0752 C   0  0  0  0  0  0
  -22.4268   -8.0281   21.3545 C   0  0  0  0  0  0
  -21.9903   -9.0249   20.4642 C   0  0  0  0  0  0
  -22.7225  -10.2128   20.3050 C   0  0  0  0  0  0
  -21.6854   -6.0736   22.5277 C   0  0  0  0  0  0
  -21.4009   -6.5635   23.8210 C   0  0  0  0  0  0
  -21.3659   -5.6791   24.9173 C   0  0  0  0  0  0
  -21.6044   -4.3053   24.7223 C   0  0  0  0  0  0
  -21.8820   -3.8145   23.4344 C   0  0  0  0  0  0
  -21.9187   -4.6964   22.3401 C   0  0  0  0  0  0
  -22.7859  -13.5239   21.1837 C   0  0  0  0  0  0
  -22.1657   -4.2149   21.0983 F   0  0  0  0  0  0
  -21.5635   -3.4537   25.7735 F   0  0  0  0  0  0
  -30.0285  -13.2757   20.4559 N   0  0  0  0  0  0
  -26.3025  -12.9310   20.3393 N   0  0  0  0  0  0
  -25.9305  -11.6471   20.5765 N   0  0  0  0  0  0
  -22.0501  -12.8223   22.0389 N   0  0  0  0  0  0
  -25.4332  -15.1872   20.4086 N   0  0  0  0  0  0
  -31.8421  -14.5801   20.0888 O   0  0  0  0  0  0
  -21.6639   -6.8875   21.4239 O   0  0  0  0  0  0
  -22.3543  -14.5554   20.6701 O   0  0  0  0  0  0
  -24.6122  -31.8692   23.2111 C   0  0  0  0  0  0
  -25.9028  -32.4832   23.8398 C   0  0  1  0  0  0
  -27.2341  -27.4546   20.0933 C   0  0  0  0  0  0
  -25.5896  -33.8626   24.2333 N   0  0  0  0  0  0
  -23.3982  -30.4928   21.5515 C   0  0  2  0  0  0
  -24.8431  -28.9602   20.1158 C   0  0  0  0  0  0
  -22.7389  -29.4665   22.5007 C   0  0  0  0  0  0
  -18.0259  -28.1384   22.8487 C   0  0  0  0  0  0
  -24.1486  -36.7313   23.2633 C   0  0  0  0  0  0
  -25.9242  -30.8418   21.3601 C   0  0  0  0  0  0
  -26.0021  -29.4781   20.7077 C   0  0  0  0  0  0
  -27.2001  -28.7325   20.6912 C   0  0  0  0  0  0
  -26.0575  -26.9451   19.4968 C   0  0  0  0  0  0
  -24.8653  -27.6921   19.5090 C   0  0  0  0  0  0
  -23.6037  -29.8231   20.1664 C   0  0  0  0  0  0
  -25.4106  -36.3115   24.0337 C   0  0  1  0  0  0
  -20.5850  -28.3654   23.1331 C   0  0  2  0  0  0
  -20.6752  -26.9397   22.5414 C   0  0  0  0  0  0
  -19.5736  -26.6381   21.5213 C   0  0  0  0  0  0
  -18.1905  -26.7929   22.1614 C   0  0  0  0  0  0
  -19.1514  -28.8832   23.2904 C   0  0  0  0  0  0
  -18.9449  -30.1435   23.8918 C   0  0  0  0  0  0
  -17.6456  -30.6588   24.0568 C   0  0  0  0  0  0
  -25.9038  -34.9478   23.5131 C   0  0  0  0  0  0
  -16.5342  -29.9098   23.6335 C   0  0  0  0  0  0
  -16.7250  -28.6517   23.0349 C   0  0  0  0  0  0
  -26.4470  -31.6610   25.0717 C   0  0  0  0  0  0
  -25.3747  -31.3712   26.1474 C   0  0  0  0  0  0
  -27.0294  -30.3053   24.6061 C   0  0  0  0  0  0
  -27.6039  -32.4331   25.7485 C   0  0  0  0  0  0
  -27.5599  -37.1788   24.8448 C   0  0  0  0  0  0
  -21.4118  -29.3033   22.3751 N   0  0  0  0  0  0
  -26.4287  -37.3808   23.9436 N   0  0  0  0  0  0
  -24.6632  -31.0818   22.0999 N   0  0  0  0  0  0
  -23.4177  -28.8210   23.3036 O   0  0  0  0  0  0
  -28.4148  -26.7498   20.1047 O   0  0  0  0  0  0
  -26.5591  -34.8926   22.4688 O   0  0  0  0  0  0
  -23.5321  -32.1433   23.7520 O   0  0  0  0  0  0
  -32.7320  -20.0532   23.1951 C   0  0  0  0  0  0
  -31.9753  -18.9336   22.8098 C   0  0  0  0  0  0
  -32.2483  -21.3485   22.9416 C   0  0  0  0  0  0
  -30.2538  -20.4067   21.9010 C   0  0  0  0  0  0
  -30.7315  -19.0988   22.1598 C   0  0  0  0  0  0
  -31.0103  -21.5375   22.2965 C   0  0  0  0  0  0
  -29.5229  -24.7280   20.8764 C   0  0  0  0  0  0
  -29.4837  -17.0086   22.9500 C   0  0  0  0  0  0
  -29.2784  -15.6177   22.3477 C   0  0  0  0  0  0
  -30.6389  -16.8799   20.8529 C   0  0  0  0  0  0
  -29.9093  -17.8709   21.7699 C   0  0  2  0  0  0
  -29.5310  -23.2132   21.1463 C   0  0  0  0  0  0
  -28.3101  -25.3216   20.1492 C   0  0  0  0  0  0
  -30.1169  -15.5327   21.1455 N   0  0  0  0  0  0
  -30.5848  -22.8569   22.0959 N   0  0  0  0  0  0
  -30.4688  -25.4366   21.2484 O   0  0  0  0  0  0
  -31.4617  -12.4034   19.1035 H   0  0  0  0  0  0
  -30.3295  -11.2873   19.7879 H   0  0  0  0  0  0
  -29.7244  -11.7997   17.4139 H   0  0  0  0  0  0
  -29.6642  -13.5067   17.7691 H   0  0  0  0  0  0
  -27.8007  -11.3314   18.7735 H   0  0  0  0  0  0
  -27.3611  -12.6953   17.7808 H   0  0  0  0  0  0
  -27.7265  -14.2595   19.6292 H   0  0  0  0  0  0
  -28.6942  -11.8402   21.2099 H   0  0  0  0  0  0
  -28.4334  -13.3547   21.9299 H   0  0  0  0  0  0
  -25.2754   -9.5690   22.4756 H   0  0  0  0  0  0
  -23.9996   -7.4636   22.7472 H   0  0  0  0  0  0
  -21.0840   -8.8763   19.8947 H   0  0  0  0  0  0
  -22.3689  -10.9667   19.6155 H   0  0  0  0  0  0
  -21.2001   -7.6142   23.9712 H   0  0  0  0  0  0
  -21.1482   -6.0523   25.9076 H   0  0  0  0  0  0
  -22.0600   -2.7606   23.2845 H   0  0  0  0  0  0
  -22.4104  -11.9863   22.4749 H   0  0  0  0  0  0
  -21.1125  -13.1253   22.2618 H   0  0  0  0  0  0
  -24.6723  -15.8480   20.5204 H   0  0  0  0  0  0
  -26.2938  -15.6232   20.1022 H   0  0  0  0  0  0
  -26.7095  -32.5558   23.1163 H   0  0  0  0  0  0
  -25.0075  -33.9790   25.0497 H   0  0  0  0  0  0
  -22.6859  -31.3085   21.4122 H   0  0  0  0  0  0
  -23.3766  -35.9625   23.3262 H   0  0  0  0  0  0
  -24.3599  -36.8964   22.2058 H   0  0  0  0  0  0
  -23.7198  -37.6488   23.6669 H   0  0  0  0  0  0
  -26.0310  -31.6081   20.5919 H   0  0  0  0  0  0
  -26.8136  -30.8958   21.9762 H   0  0  0  0  0  0
  -28.0965  -29.1290   21.1475 H   0  0  0  0  0  0
  -26.0505  -25.9791   19.0129 H   0  0  0  0  0  0
  -23.9747  -27.2873   19.0484 H   0  0  0  0  0  0
  -23.7056  -30.5957   19.4034 H   0  0  0  0  0  0
  -22.7287  -29.2391   19.8750 H   0  0  0  0  0  0
  -25.1274  -36.1976   25.0826 H   0  0  0  0  0  0
  -20.9929  -28.3217   24.1460 H   0  0  0  0  0  0
  -20.5661  -26.2265   23.3600 H   0  0  0  0  0  0
  -21.6624  -26.7446   22.1208 H   0  0  0  0  0  0
  -19.6902  -25.6301   21.1226 H   0  0  0  0  0  0
  -19.6687  -27.3205   20.6760 H   0  0  0  0  0  0
  -17.4180  -26.6682   21.4007 H   0  0  0  0  0  0
  -18.0296  -26.0063   22.9003 H   0  0  0  0  0  0
  -19.7931  -30.7232   24.2298 H   0  0  0  0  0  0
  -17.5022  -31.6276   24.5154 H   0  0  0  0  0  0
  -15.5348  -30.3012   23.7656 H   0  0  0  0  0  0
  -15.8644  -28.0844   22.7067 H   0  0  0  0  0  0
  -24.5904  -30.7073   25.7828 H   0  0  0  0  0  0
  -24.8952  -32.2868   26.4947 H   0  0  0  0  0  0
  -25.8101  -30.8868   27.0221 H   0  0  0  0  0  0
  -26.2815  -29.6828   24.1126 H   0  0  0  0  0  0
  -27.4102  -29.7278   25.4498 H   0  0  0  0  0  0
  -27.8643  -30.4397   23.9174 H   0  0  0  0  0  0
  -27.2640  -33.3623   26.2076 H   0  0  0  0  0  0
  -28.3844  -32.6907   25.0314 H   0  0  0  0  0  0
  -28.0707  -31.8447   26.5395 H   0  0  0  0  0  0
  -28.2543  -38.0159   24.7607 H   0  0  0  0  0  0
  -28.1164  -36.2692   24.6126 H   0  0  0  0  0  0
  -27.2330  -37.1260   25.8846 H   0  0  0  0  0  0
  -20.9265  -29.8788   21.7013 H   0  0  0  0  0  0
  -26.0177  -38.2873   24.1501 H   0  0  0  0  0  0
  -33.6833  -19.9195   23.6911 H   0  0  0  0  0  0
  -32.3554  -17.9440   23.0237 H   0  0  0  0  0  0
  -32.8414  -22.1969   23.2539 H   0  0  0  0  0  0
  -29.2984  -20.5328   21.4115 H   0  0  0  0  0  0
  -30.2779  -16.9495   23.6945 H   0  0  0  0  0  0
  -28.5955  -17.3943   23.4528 H   0  0  0  0  0  0
  -28.2322  -15.5122   22.0572 H   0  0  0  0  0  0
  -29.5254  -14.8487   23.0814 H   0  0  0  0  0  0
  -31.7108  -16.8940   21.0553 H   0  0  0  0  0  0
  -30.5107  -17.1408   19.8016 H   0  0  0  0  0  0
  -29.0064  -18.1984   21.2513 H   0  0  0  0  0  0
  -29.6767  -22.6902   20.2002 H   0  0  0  0  0  0
  -28.5586  -22.9167   21.5420 H   0  0  0  0  0  0
  -27.4144  -25.0152   20.6897 H   0  0  0  0  0  0
  -28.2509  -24.9151   19.1398 H   0  0  0  0  0  0
  -31.2279  -23.6203   22.2993 H   0  0  0  0  0  0
  1 25  1  0  0  0
  1 30  2  0  0  0
  1 84  1  0  0  0
  2  3  1  0  0  0
  2 25  1  0  0  0
  2 87  1  0  0  0
  2 88  1  0  0  0
  3  4  1  0  0  0
  3 89  1  0  0  0
  3 90  1  0  0  0
  4  5  1  0  0  0
  4 91  1  0  0  0
  4 92  1  0  0  0
  5  6  1  0  0  0
  5 26  1  0  0  0
  5 93  1  0  0  0
  6 25  1  0  0  0
  6 94  1  0  0  0
  6 95  1  0  0  0
  7  8  2  0  0  0
  7 26  1  0  0  0
  7 29  1  0  0  0
  8  9  1  0  0  0
  8 22  1  0  0  0
  9 10  1  0  0  0
  9 27  2  0  0  0
 10 11  2  0  0  0
 10 15  1  0  0  0
 11 12  1  0  0  0
 11 96  1  0  0  0
 12 13  2  0  0  0
 12 97  1  0  0  0
 13 14  1  0  0  0
 13 31  1  0  0  0
 14 15  2  0  0  0
 14 98  1  0  0  0
 15 99  1  0  0  0
 16 17  2  0  0  0
 16 21  1  0  0  0
 16 31  1  0  0  0
 17 18  1  0  0  0
 17100  1  0  0  0
 18 19  2  0  0  0
 18101  1  0  0  0
 19 20  1  0  0  0
 19 24  1  0  0  0
 20 21  2  0  0  0
 20102  1  0  0  0
 21 23  1  0  0  0
 22 28  1  0  0  0
 22 32  2  0  0  0
 26 27  1  0  0  0
 28103  1  0  0  0
 28104  1  0  0  0
 29105  1  0  0  0
 29106  1  0  0  0
 33 34  1  0  0  0
 33 66  1  0  0  0
 33 70  2  0  0  0
 34 36  1  0  0  0
 34 59  1  0  0  0
 34107  1  0  0  0
 35 44  2  0  0  0
 35 45  1  0  0  0
 35 68  1  0  0  0
 36 56  1  0  0  0
 36108  1  0  0  0
 37 39  1  0  0  0
 37 47  1  0  0  0
 37 66  1  0  0  0
 37109  1  0  0  0
 38 43  2  0  0  0
 38 46  1  0  0  0
 38 47  1  0  0  0
 39 64  1  0  0  0
 39 67  2  0  0  0
 40 52  1  0  0  0
 40 53  2  0  0  0
 40 58  1  0  0  0
 41110  1  0  0  0
 41111  1  0  0  0
 41112  1  0  0  0
 41 48  1  0  0  0
 42 43  1  0  0  0
 42 66  1  0  0  0
 42113  1  0  0  0
 42114  1  0  0  0
 43 44  1  0  0  0
 44115  1  0  0  0
 45 46  2  0  0  0
 45116  1  0  0  0
 46117  1  0  0  0
 47118  1  0  0  0
 47119  1  0  0  0
 48 56  1  0  0  0
 48 65  1  0  0  0
 48120  1  0  0  0
 49 50  1  0  0  0
 49 53  1  0  0  0
 49 64  1  0  0  0
 49121  1  0  0  0
 50 51  1  0  0  0
 50122  1  0  0  0
 50123  1  0  0  0
 51 52  1  0  0  0
 51124  1  0  0  0
 51125  1  0  0  0
 52126  1  0  0  0
 52127  1  0  0  0
 53 54  1  0  0  0
 54 55  2  0  0  0
 54128  1  0  0  0
 55 57  1  0  0  0
 55129  1  0  0  0
 56 69  2  0  0  0
 57 58  2  0  0  0
 57130  1  0  0  0
 58131  1  0  0  0
 59 60  1  0  0  0
 59 61  1  0  0  0
 59 62  1  0  0  0
 60132  1  0  0  0
 60133  1  0  0  0
 60134  1  0  0  0
 61135  1  0  0  0
 61136  1  0  0  0
 61137  1  0  0  0
 62138  1  0  0  0
 62139  1  0  0  0
 62140  1  0  0  0
 63 65  1  0  0  0
 63141  1  0  0  0
 63142  1  0  0  0
 63143  1  0  0  0
 64144  1  0  0  0
 65145  1  0  0  0
 68 83  1  0  0  0
 71 72  2  0  0  0
 71 73  1  0  0  0
 71146  1  0  0  0
 72 75  1  0  0  0
 72147  1  0  0  0
 73 76  2  0  0  0
 73148  1  0  0  0
 74 75  2  0  0  0
 74 76  1  0  0  0
 74149  1  0  0  0
 75 81  1  0  0  0
 76 85  1  0  0  0
 77 82  1  0  0  0
 77 83  1  0  0  0
 77 86  2  0  0  0
 78 79  1  0  0  0
 78 81  1  0  0  0
 78150  1  0  0  0
 78151  1  0  0  0
 79 84  1  0  0  0
 79152  1  0  0  0
 79153  1  0  0  0
 80 81  1  0  0  0
 80 84  1  0  0  0
 80154  1  0  0  0
 80155  1  0  0  0
 81156  1  0  0  0
 82 85  1  0  0  0
 82157  1  0  0  0
 82158  1  0  0  0
 83159  1  0  0  0
 83160  1  0  0  0
 85161  1  0  0  0
M  ISO  4   1 100  68 101  83 101  84 100
M  END
> <chiral flag>
0

> <version>
0

> <s_m_source_file>
/data/baiqing/PycharmProjects/Reinvent-master-3.2/result/LINK_invent/BTK/process_docking_weight1_custom_product_contain_oxygen_bond_distance_aromatic_linkinvent_7_9_3/rearranged_h_0152.sdf

> <i_m_source_file_index>
5

> <r_mmod_Potential_Energy-OPLS-2005>
160.358474731445

> <r_mmod_Stretch_Energy-OPLS-2005>
37.7914428710938

> <r_mmod_Bend_Energy-OPLS-2005>
135.404235839844

> <r_mmod_Torsional_Energy-OPLS-2005>
301.071533203125

> <r_mmod_Improper_Torsional_Energy-OPLS-2005>
9.37506771087646

> <r_mmod_Van_der_Waal_Energy-OPLS-2005>
164.513977050781

> <r_mmod_Electrostatic_Energy-OPLS-2005>
-265.425750732422

> <r_mmod_Solvation_Energy-OPLS-2005>
-232.982162475586

> <b_mmod_Minimization_Converged-OPLS-2005>
0

> <r_mmod_RMS_Derivative-OPLS-2005>
1.28817105293274

$$$$
5
                    3D
 Structure written by MMmdl.
153161  0  0  1  0            999 V2000
  -30.6286  -14.7640   20.4836 C   0  0  0  0  0  0
  -30.4279  -12.4766   19.4752 C   0  0  0  0  0  0
  -29.5065  -12.5122   18.2372 C   0  0  0  0  0  0
  -28.0348  -12.3319   18.6537 C   0  0  0  0  0  0
  -27.6380  -13.2375   19.8500 C   0  0  2  0  0  0
  -28.6834  -13.1916   20.9846 C   0  0  0  0  0  0
  -25.2489  -13.8209   20.5708 C   0  0  0  0  0  0
  -24.1794  -13.0444   20.9220 C   0  0  0  0  0  0
  -24.6397  -11.6923   20.8757 C   0  0  0  0  0  0
  -23.9074  -10.4299   21.0413 C   0  0  0  0  0  0
  -24.3625   -9.4214   21.9191 C   0  0  0  0  0  0
  -23.6303   -8.2247   22.0750 C   0  0  0  0  0  0
  -22.4285   -8.0285   21.3539 C   0  0  0  0  0  0
  -21.9924   -9.0257   20.4643 C   0  0  0  0  0  0
  -22.7247  -10.2139   20.3059 C   0  0  0  0  0  0
  -21.6853   -6.0742   22.5285 C   0  0  0  0  0  0
  -21.4011   -6.5645   23.8219 C   0  0  0  0  0  0
  -21.3660   -5.6797   24.9182 C   0  0  0  0  0  0
  -21.6045   -4.3058   24.7228 C   0  0  0  0  0  0
  -21.8815   -3.8153   23.4350 C   0  0  0  0  0  0
  -21.9192   -4.6973   22.3408 C   0  0  0  0  0  0
  -22.7811  -13.5213   21.1884 C   0  0  0  0  0  0
  -22.1661   -4.2156   21.0986 F   0  0  0  0  0  0
  -21.5631   -3.4545   25.7740 F   0  0  0  0  0  0
  -29.9783  -13.5500   20.3948 N   0  0  0  0  0  0
  -26.2923  -12.9430   20.3295 N   0  0  0  0  0  0
  -25.9332  -11.6563   20.5770 N   0  0  0  0  0  0
  -22.0465  -12.8192   22.0432 N   0  0  0  0  0  0
  -25.4165  -15.1938   20.4109 N   0  0  0  0  0  0
  -31.8227  -14.8257   20.1803 O   0  0  0  0  0  0
  -21.6642   -6.8884   21.4244 O   0  0  0  0  0  0
  -22.3493  -14.5530   20.6747 O   0  0  0  0  0  0
  -24.6327  -31.8528   23.1969 C   0  0  0  0  0  0
  -25.9153  -32.4735   23.8315 C   0  0  1  0  0  0
  -27.2125  -27.2315   20.1565 C   0  0  0  0  0  0
  -25.5952  -33.8539   24.2237 N   0  0  0  0  0  0
  -23.4309  -30.4761   21.5384 C   0  0  2  0  0  0
  -24.8820  -28.9214   20.1088 C   0  0  0  0  0  0
  -22.7506  -29.4590   22.4881 C   0  0  0  0  0  0
  -18.0289  -28.1388   22.8480 C   0  0  0  0  0  0
  -24.1490  -36.7265   23.2636 C   0  0  0  0  0  0
  -25.9798  -30.7582   21.3833 C   0  0  0  0  0  0
  -26.0530  -29.3779   20.7286 C   0  0  0  0  0  0
  -27.2234  -28.5466   20.7400 C   0  0  0  0  0  0
  -26.0277  -26.8599   19.4850 C   0  0  0  0  0  0
  -24.8777  -27.6720   19.4715 C   0  0  0  0  0  0
  -23.6527  -29.8105   20.1541 C   0  0  0  0  0  0
  -25.4112  -36.3049   24.0321 C   0  0  1  0  0  0
  -20.5898  -28.3703   23.1256 C   0  0  2  0  0  0
  -20.6781  -26.9416   22.5404 C   0  0  0  0  0  0
  -19.5759  -26.6377   21.5208 C   0  0  0  0  0  0
  -18.1934  -26.7928   22.1615 C   0  0  0  0  0  0
  -19.1546  -28.8861   23.2864 C   0  0  0  0  0  0
  -18.9472  -30.1463   23.8880 C   0  0  0  0  0  0
  -17.6474  -30.6593   24.0564 C   0  0  0  0  0  0
  -25.9058  -34.9429   23.5080 C   0  0  0  0  0  0
  -16.5363  -29.9088   23.6345 C   0  0  0  0  0  0
  -16.7275  -28.6506   23.0357 C   0  0  0  0  0  0
  -26.4510  -31.6576   25.0720 C   0  0  0  0  0  0
  -25.3719  -31.3756   26.1435 C   0  0  0  0  0  0
  -27.0371  -30.2982   24.6245 C   0  0  0  0  0  0
  -27.6048  -32.4333   25.7496 C   0  0  0  0  0  0
  -27.5584  -37.1778   24.8451 C   0  0  0  0  0  0
  -21.4208  -29.3053   22.3642 N   0  0  0  0  0  0
  -26.4275  -37.3764   23.9424 N   0  0  0  0  0  0
  -24.6999  -31.0482   22.0955 N   0  0  0  0  0  0
  -23.4196  -28.8123   23.2980 O   0  0  0  0  0  0
  -28.2720  -26.2891   20.2137 O   0  0  0  0  0  0
  -26.5627  -34.8911   22.4646 O   0  0  0  0  0  0
  -23.5473  -32.1355   23.7254 O   0  0  0  0  0  0
  -30.2617  -20.7457   19.6542 C   0  0  0  0  0  0
  -28.9624  -19.6808   21.1273 C   0  0  0  0  0  0
  -29.2215  -20.9956   20.5063 C   0  0  0  0  0  0
  -29.9040  -18.7460   20.6532 C   0  0  0  0  0  0
  -27.9810  -19.2596   22.1605 C   0  0  0  0  0  0
  -28.8661  -23.6238   20.2815 C   0  0  0  0  0  0
  -26.8142  -20.1959   22.4395 C   0  0  0  0  0  0
  -30.4949  -17.3160   21.0553 C   0  0  0  0  0  0
  -27.9349  -24.8820   20.6864 C   0  0  0  0  0  0
  -28.5645  -22.3294   20.7202 N   0  0  0  0  0  0
  -29.9131  -15.9309   20.7429 N   0  0  0  0  0  0
  -28.0574  -18.1845   22.7628 O   0  0  0  0  0  0
  -29.8566  -23.8353   19.5768 O   0  0  0  0  0  0
  -30.6700  -19.4287   19.7343 O   0  0  0  0  0  0
  -31.4689  -12.5980   19.1708 H   0  0  0  0  0  0
  -30.3741  -11.5048   19.9689 H   0  0  0  0  0  0
  -29.7933  -11.7348   17.5284 H   0  0  0  0  0  0
  -29.6270  -13.4627   17.7150 H   0  0  0  0  0  0
  -27.8984  -11.2840   18.9233 H   0  0  0  0  0  0
  -27.3748  -12.5155   17.8052 H   0  0  0  0  0  0
  -27.6264  -14.2563   19.4623 H   0  0  0  0  0  0
  -28.7272  -12.1997   21.4364 H   0  0  0  0  0  0
  -28.4149  -13.8814   21.7863 H   0  0  0  0  0  0
  -25.2770   -9.5692   22.4766 H   0  0  0  0  0  0
  -24.0015   -7.4634   22.7464 H   0  0  0  0  0  0
  -21.0857   -8.8780   19.8941 H   0  0  0  0  0  0
  -22.3713  -10.9683   19.6170 H   0  0  0  0  0  0
  -21.1997   -7.6148   23.9725 H   0  0  0  0  0  0
  -21.1485   -6.0526   25.9083 H   0  0  0  0  0  0
  -22.0590   -2.7615   23.2852 H   0  0  0  0  0  0
  -22.4093  -11.9845   22.4797 H   0  0  0  0  0  0
  -21.1083  -13.1203   22.2654 H   0  0  0  0  0  0
  -24.6445  -15.8433   20.5149 H   0  0  0  0  0  0
  -26.2598  -15.6344   20.0675 H   0  0  0  0  0  0
  -26.7219  -32.5380   23.1053 H   0  0  0  0  0  0
  -25.0142  -33.9682   25.0413 H   0  0  0  0  0  0
  -22.7283  -31.2991   21.3898 H   0  0  0  0  0  0
  -23.3749  -35.9603   23.3302 H   0  0  0  0  0  0
  -24.3576  -36.8870   22.2049 H   0  0  0  0  0  0
  -23.7250  -37.6474   23.6650 H   0  0  0  0  0  0
  -26.1250  -31.5170   20.6131 H   0  0  0  0  0  0
  -26.8548  -30.8060   22.0197 H   0  0  0  0  0  0
  -28.1144  -28.8881   21.2478 H   0  0  0  0  0  0
  -25.9728  -25.9097   18.9741 H   0  0  0  0  0  0
  -23.9879  -27.3216   18.9661 H   0  0  0  0  0  0
  -23.7775  -30.5877   19.3988 H   0  0  0  0  0  0
  -22.7715  -29.2442   19.8464 H   0  0  0  0  0  0
  -25.1286  -36.1881   25.0809 H   0  0  0  0  0  0
  -20.9996  -28.3286   24.1375 H   0  0  0  0  0  0
  -20.5679  -26.2307   23.3607 H   0  0  0  0  0  0
  -21.6648  -26.7427   22.1203 H   0  0  0  0  0  0
  -19.6927  -25.6285   21.1246 H   0  0  0  0  0  0
  -19.6709  -27.3185   20.6741 H   0  0  0  0  0  0
  -17.4205  -26.6677   21.4017 H   0  0  0  0  0  0
  -18.0332  -26.0063   22.9002 H   0  0  0  0  0  0
  -19.7953  -30.7287   24.2228 H   0  0  0  0  0  0
  -17.5032  -31.6274   24.5168 H   0  0  0  0  0  0
  -15.5371  -30.2996   23.7682 H   0  0  0  0  0  0
  -15.8663  -28.0832   22.7084 H   0  0  0  0  0  0
  -24.5923  -30.7059   25.7792 H   0  0  0  0  0  0
  -24.8879  -32.2936   26.4784 H   0  0  0  0  0  0
  -25.8027  -30.9014   27.0260 H   0  0  0  0  0  0
  -26.2986  -29.6722   24.1230 H   0  0  0  0  0  0
  -27.3995  -29.7254   25.4790 H   0  0  0  0  0  0
  -27.8870  -30.4238   23.9534 H   0  0  0  0  0  0
  -27.2641  -33.3642   26.2038 H   0  0  0  0  0  0
  -28.3881  -32.6883   25.0345 H   0  0  0  0  0  0
  -28.0689  -31.8482   26.5445 H   0  0  0  0  0  0
  -28.2547  -38.0135   24.7574 H   0  0  0  0  0  0
  -28.1136  -36.2666   24.6164 H   0  0  0  0  0  0
  -27.2317  -37.1282   25.8857 H   0  0  0  0  0  0
  -20.9385  -29.8782   21.6859 H   0  0  0  0  0  0
  -26.0137  -38.2816   24.1490 H   0  0  0  0  0  0
  -30.8289  -21.3620   18.9694 H   0  0  0  0  0  0
  -27.1617  -21.0974   22.9417 H   0  0  0  0  0  0
  -26.0819  -19.7047   23.0800 H   0  0  0  0  0  0
  -26.3243  -20.4689   21.5053 H   0  0  0  0  0  0
  -30.6153  -17.3220   22.1396 H   0  0  0  0  0  0
  -31.5249  -17.3033   20.6960 H   0  0  0  0  0  0
  -27.9236  -24.9223   21.7764 H   0  0  0  0  0  0
  -26.9209  -24.6004   20.4094 H   0  0  0  0  0  0
  -27.7411  -22.3062   21.3065 H   0  0  0  0  0  0
  -28.9244  -15.8212   20.9085 H   0  0  0  0  0  0
  1 25  1  0  0  0
  1 30  2  0  0  0
  1 81  1  0  0  0
  2  3  1  0  0  0
  2 25  1  0  0  0
  2 85  1  0  0  0
  2 86  1  0  0  0
  3  4  1  0  0  0
  3 87  1  0  0  0
  3 88  1  0  0  0
  4  5  1  0  0  0
  4 89  1  0  0  0
  4 90  1  0  0  0
  5  6  1  0  0  0
  5 26  1  0  0  0
  5 91  1  0  0  0
  6 25  1  0  0  0
  6 92  1  0  0  0
  6 93  1  0  0  0
  7  8  2  0  0  0
  7 26  1  0  0  0
  7 29  1  0  0  0
  8  9  1  0  0  0
  8 22  1  0  0  0
  9 10  1  0  0  0
  9 27  2  0  0  0
 10 11  2  0  0  0
 10 15  1  0  0  0
 11 12  1  0  0  0
 11 94  1  0  0  0
 12 13  2  0  0  0
 12 95  1  0  0  0
 13 14  1  0  0  0
 13 31  1  0  0  0
 14 15  2  0  0  0
 14 96  1  0  0  0
 15 97  1  0  0  0
 16 17  2  0  0  0
 16 21  1  0  0  0
 16 31  1  0  0  0
 17 18  1  0  0  0
 17 98  1  0  0  0
 18 19  2  0  0  0
 18 99  1  0  0  0
 19 20  1  0  0  0
 19 24  1  0  0  0
 20 21  2  0  0  0
 20100  1  0  0  0
 21 23  1  0  0  0
 22 28  1  0  0  0
 22 32  2  0  0  0
 26 27  1  0  0  0
 28101  1  0  0  0
 28102  1  0  0  0
 29103  1  0  0  0
 29104  1  0  0  0
 33 34  1  0  0  0
 33 66  1  0  0  0
 33 70  2  0  0  0
 34 36  1  0  0  0
 34 59  1  0  0  0
 34105  1  0  0  0
 35 44  2  0  0  0
 35 45  1  0  0  0
 35 68  1  0  0  0
 36 56  1  0  0  0
 36106  1  0  0  0
 37 39  1  0  0  0
 37 47  1  0  0  0
 37 66  1  0  0  0
 37107  1  0  0  0
 38 43  2  0  0  0
 38 46  1  0  0  0
 38 47  1  0  0  0
 39 64  1  0  0  0
 39 67  2  0  0  0
 40 52  1  0  0  0
 40 53  2  0  0  0
 40 58  1  0  0  0
 41108  1  0  0  0
 41109  1  0  0  0
 41110  1  0  0  0
 41 48  1  0  0  0
 42 43  1  0  0  0
 42 66  1  0  0  0
 42111  1  0  0  0
 42112  1  0  0  0
 43 44  1  0  0  0
 44113  1  0  0  0
 45 46  2  0  0  0
 45114  1  0  0  0
 46115  1  0  0  0
 47116  1  0  0  0
 47117  1  0  0  0
 48 56  1  0  0  0
 48 65  1  0  0  0
 48118  1  0  0  0
 49 50  1  0  0  0
 49 53  1  0  0  0
 49 64  1  0  0  0
 49119  1  0  0  0
 50 51  1  0  0  0
 50120  1  0  0  0
 50121  1  0  0  0
 51 52  1  0  0  0
 51122  1  0  0  0
 51123  1  0  0  0
 52124  1  0  0  0
 52125  1  0  0  0
 53 54  1  0  0  0
 54 55  2  0  0  0
 54126  1  0  0  0
 55 57  1  0  0  0
 55127  1  0  0  0
 56 69  2  0  0  0
 57 58  2  0  0  0
 57128  1  0  0  0
 58129  1  0  0  0
 59 60  1  0  0  0
 59 61  1  0  0  0
 59 62  1  0  0  0
 60130  1  0  0  0
 60131  1  0  0  0
 60132  1  0  0  0
 61133  1  0  0  0
 61134  1  0  0  0
 61135  1  0  0  0
 62136  1  0  0  0
 62137  1  0  0  0
 62138  1  0  0  0
 63 65  1  0  0  0
 63139  1  0  0  0
 63140  1  0  0  0
 63141  1  0  0  0
 64142  1  0  0  0
 65143  1  0  0  0
 68 79  1  0  0  0
 71 73  2  0  0  0
 71 84  1  0  0  0
 71144  1  0  0  0
 72 73  1  0  0  0
 72 74  2  0  0  0
 72 75  1  0  0  0
 73 80  1  0  0  0
 74 78  1  0  0  0
 74 84  1  0  0  0
 75 77  1  0  0  0
 75 82  2  0  0  0
 76 79  1  0  0  0
 76 80  1  0  0  0
 76 83  2  0  0  0
 77145  1  0  0  0
 77146  1  0  0  0
 77147  1  0  0  0
 78 81  1  0  0  0
 78148  1  0  0  0
 78149  1  0  0  0
 79150  1  0  0  0
 79151  1  0  0  0
 80152  1  0  0  0
 81153  1  0  0  0
M  ISO  4   1 100  68 101  79 101  81 100
M  END
> <chiral flag>
0

> <version>
0

> <s_m_source_file>
/data/baiqing/PycharmProjects/Reinvent-master-3.2/result/LINK_invent/BTK/process_docking_weight1_custom_product_contain_oxygen_bond_distance_aromatic_linkinvent_7_9_3/rearranged_h_0152.sdf

> <i_m_source_file_index>
6

> <r_mmod_Potential_Energy-OPLS-2005>
142.2705078125

> <r_mmod_Stretch_Energy-OPLS-2005>
140.34587097168

> <r_mmod_Bend_Energy-OPLS-2005>
192.400115966797

> <r_mmod_Torsional_Energy-OPLS-2005>
254.511047363281

> <r_mmod_Improper_Torsional_Energy-OPLS-2005>
5.32624816894531

> <r_mmod_Van_der_Waal_Energy-OPLS-2005>
117.259323120117

> <r_mmod_Electrostatic_Energy-OPLS-2005>
-415.220092773438

> <r_mmod_Solvation_Energy-OPLS-2005>
-255.166305541992

> <b_mmod_Minimization_Converged-OPLS-2005>
0

> <r_mmod_RMS_Derivative-OPLS-2005>
1.39272463321686

$$$$
6
                    3D
 Structure written by MMmdl.
160169  0  0  1  0            999 V2000
  -30.5935  -14.6171   20.5402 C   0  0  0  0  0  0
  -30.4529  -12.3876   19.4372 C   0  0  0  0  0  0
  -29.5096  -12.5149   18.2182 C   0  0  0  0  0  0
  -28.0310  -12.3515   18.6294 C   0  0  0  0  0  0
  -27.6616  -13.2029   19.8719 C   0  0  2  0  0  0
  -28.7058  -13.0010   20.9935 C   0  0  0  0  0  0
  -25.2604  -13.8142   20.5650 C   0  0  0  0  0  0
  -24.1860  -13.0437   20.9188 C   0  0  0  0  0  0
  -24.6406  -11.6901   20.8757 C   0  0  0  0  0  0
  -23.9068  -10.4292   21.0420 C   0  0  0  0  0  0
  -24.3617   -9.4202   21.9187 C   0  0  0  0  0  0
  -23.6292   -8.2242   22.0755 C   0  0  0  0  0  0
  -22.4272   -8.0287   21.3545 C   0  0  0  0  0  0
  -21.9912   -9.0264   20.4652 C   0  0  0  0  0  0
  -22.7244  -10.2143   20.3068 C   0  0  0  0  0  0
  -21.6849   -6.0742   22.5281 C   0  0  0  0  0  0
  -21.4014   -6.5647   23.8216 C   0  0  0  0  0  0
  -21.3655   -5.6797   24.9176 C   0  0  0  0  0  0
  -21.6041   -4.3058   24.7228 C   0  0  0  0  0  0
  -21.8817   -3.8156   23.4348 C   0  0  0  0  0  0
  -21.9192   -4.6973   22.3404 C   0  0  0  0  0  0
  -22.7882  -13.5248   21.1846 C   0  0  0  0  0  0
  -22.1661   -4.2157   21.0983 F   0  0  0  0  0  0
  -21.5629   -3.4541   25.7740 F   0  0  0  0  0  0
  -30.0254  -13.3737   20.4473 N   0  0  0  0  0  0
  -26.3029  -12.9294   20.3334 N   0  0  0  0  0  0
  -25.9331  -11.6469   20.5772 N   0  0  0  0  0  0
  -22.0517  -12.8250   22.0401 N   0  0  0  0  0  0
  -25.4335  -15.1846   20.3977 N   0  0  0  0  0  0
  -31.7225  -14.8590   20.0980 O   0  0  0  0  0  0
  -21.6638   -6.8885   21.4241 O   0  0  0  0  0  0
  -22.3576  -14.5550   20.6681 O   0  0  0  0  0  0
  -24.6238  -31.8611   23.2030 C   0  0  0  0  0  0
  -25.9094  -32.4785   23.8353 C   0  0  1  0  0  0
  -27.2326  -27.3386   20.1138 C   0  0  0  0  0  0
  -25.5917  -33.8586   24.2280 N   0  0  0  0  0  0
  -23.4171  -30.4836   21.5451 C   0  0  2  0  0  0
  -24.8642  -28.9381   20.1129 C   0  0  0  0  0  0
  -22.7462  -29.4631   22.4947 C   0  0  0  0  0  0
  -18.0283  -28.1383   22.8488 C   0  0  0  0  0  0
  -24.1490  -36.7304   23.2638 C   0  0  0  0  0  0
  -25.9555  -30.7974   21.3708 C   0  0  0  0  0  0
  -26.0303  -29.4253   20.7149 C   0  0  0  0  0  0
  -27.2152  -28.6364   20.7056 C   0  0  0  0  0  0
  -26.0408  -26.8947   19.4934 C   0  0  0  0  0  0
  -24.8704  -27.6776   19.4949 C   0  0  0  0  0  0
  -23.6310  -29.8159   20.1609 C   0  0  0  0  0  0
  -25.4116  -36.3092   24.0327 C   0  0  1  0  0  0
  -20.5879  -28.3687   23.1288 C   0  0  2  0  0  0
  -20.6771  -26.9412   22.5413 C   0  0  0  0  0  0
  -19.5751  -26.6387   21.5210 C   0  0  0  0  0  0
  -18.1930  -26.7926   22.1622 C   0  0  0  0  0  0
  -19.1534  -28.8852   23.2884 C   0  0  0  0  0  0
  -18.9455  -30.1453   23.8900 C   0  0  0  0  0  0
  -17.6458  -30.6589   24.0563 C   0  0  0  0  0  0
  -25.9048  -34.9458   23.5107 C   0  0  0  0  0  0
  -16.5350  -29.9088   23.6327 C   0  0  0  0  0  0
  -16.7273  -28.6506   23.0349 C   0  0  0  0  0  0
  -26.4487  -31.6594   25.0719 C   0  0  0  0  0  0
  -25.3732  -31.3737   26.1458 C   0  0  0  0  0  0
  -27.0323  -30.3018   24.6162 C   0  0  0  0  0  0
  -27.6054  -32.4328   25.7480 C   0  0  0  0  0  0
  -27.5577  -37.1813   24.8468 C   0  0  0  0  0  0
  -21.4177  -29.3045   22.3689 N   0  0  0  0  0  0
  -26.4301  -37.3778   23.9396 N   0  0  0  0  0  0
  -24.6843  -31.0637   22.0968 N   0  0  0  0  0  0
  -23.4195  -28.8171   23.3018 O   0  0  0  0  0  0
  -28.3764  -26.5311   20.1643 O   0  0  0  0  0  0
  -26.5615  -34.8922   22.4671 O   0  0  0  0  0  0
  -23.5408  -32.1392   23.7373 O   0  0  0  0  0  0
  -28.3056  -18.9422   21.0571 C   0  0  0  0  0  0
  -28.3558  -17.5167   21.2000 C   0  0  0  0  0  0
  -29.4923  -19.5220   20.6875 C   0  0  0  0  0  0
  -29.5665  -16.9214   20.9243 C   0  0  0  0  0  0
  -29.4590  -21.6961   19.1978 C   0  0  0  0  0  0
  -29.0285  -21.9453   21.5831 C   0  0  0  0  0  0
  -29.9702  -23.1717   19.0969 C   0  0  0  0  0  0
  -29.5080  -23.4343   21.5889 C   0  0  0  0  0  0
  -29.7754  -21.0405   20.5627 C   0  0  1  0  0  0
  -29.5632  -24.2088   20.2186 C   0  0  2  0  0  0
  -28.2676  -25.0820   19.8892 C   0  0  0  0  0  0
  -29.7589  -15.5578   21.0695 N   0  0  0  0  0  0
  -30.6577  -25.2043   20.3122 N   0  3  0  0  0  0
  -30.6922  -18.2162   20.4525 S   0  0  0  0  0  0
  -31.4894  -12.5410   19.1318 H   0  0  0  0  0  0
  -30.4115  -11.3797   19.8524 H   0  0  0  0  0  0
  -29.7693  -11.7709   17.4639 H   0  0  0  0  0  0
  -29.6502  -13.4882   17.7462 H   0  0  0  0  0  0
  -27.8630  -11.2955   18.8442 H   0  0  0  0  0  0
  -27.3748  -12.5979   17.7940 H   0  0  0  0  0  0
  -27.6965  -14.2465   19.5584 H   0  0  0  0  0  0
  -28.7198  -11.9585   21.3157 H   0  0  0  0  0  0
  -28.4408  -13.5690   21.8864 H   0  0  0  0  0  0
  -25.2763   -9.5673   22.4760 H   0  0  0  0  0  0
  -24.0003   -7.4631   22.7472 H   0  0  0  0  0  0
  -21.0842   -8.8789   19.8955 H   0  0  0  0  0  0
  -22.3703  -10.9690   19.6187 H   0  0  0  0  0  0
  -21.2008   -7.6153   23.9723 H   0  0  0  0  0  0
  -21.1473   -6.0525   25.9075 H   0  0  0  0  0  0
  -22.0598   -2.7622   23.2841 H   0  0  0  0  0  0
  -22.4126  -11.9909   22.4787 H   0  0  0  0  0  0
  -21.1135  -13.1284   22.2604 H   0  0  0  0  0  0
  -24.6567  -15.8327   20.4694 H   0  0  0  0  0  0
  -26.2629  -15.6039   19.9973 H   0  0  0  0  0  0
  -26.7164  -32.5458   23.1106 H   0  0  0  0  0  0
  -25.0067  -33.9730   25.0427 H   0  0  0  0  0  0
  -22.7103  -31.3032   21.4013 H   0  0  0  0  0  0
  -23.3738  -35.9655   23.3336 H   0  0  0  0  0  0
  -24.3572  -36.8890   22.2045 H   0  0  0  0  0  0
  -23.7269  -37.6529   23.6635 H   0  0  0  0  0  0
  -26.0825  -31.5611   20.6021 H   0  0  0  0  0  0
  -26.8375  -30.8471   21.9981 H   0  0  0  0  0  0
  -28.1112  -29.0084   21.1822 H   0  0  0  0  0  0
  -25.9832  -25.9326   19.0071 H   0  0  0  0  0  0
  -23.9751  -27.2989   19.0213 H   0  0  0  0  0  0
  -23.7486  -30.5909   19.4027 H   0  0  0  0  0  0
  -22.7520  -29.2433   19.8594 H   0  0  0  0  0  0
  -25.1304  -36.1953   25.0822 H   0  0  0  0  0  0
  -20.9969  -28.3260   24.1409 H   0  0  0  0  0  0
  -20.5665  -26.2299   23.3612 H   0  0  0  0  0  0
  -21.6642  -26.7440   22.1209 H   0  0  0  0  0  0
  -19.6914  -25.6299   21.1239 H   0  0  0  0  0  0
  -19.6692  -27.3198   20.6740 H   0  0  0  0  0  0
  -17.4198  -26.6668   21.4026 H   0  0  0  0  0  0
  -18.0341  -26.0068   22.9022 H   0  0  0  0  0  0
  -19.7932  -30.7265   24.2275 H   0  0  0  0  0  0
  -17.5014  -31.6268   24.5168 H   0  0  0  0  0  0
  -15.5353  -30.2992   23.7651 H   0  0  0  0  0  0
  -15.8671  -28.0831   22.7058 H   0  0  0  0  0  0
  -24.5896  -30.7096   25.7797 H   0  0  0  0  0  0
  -24.8937  -32.2909   26.4888 H   0  0  0  0  0  0
  -25.8063  -30.8911   27.0229 H   0  0  0  0  0  0
  -26.2890  -29.6773   24.1191 H   0  0  0  0  0  0
  -27.4031  -29.7270   25.4659 H   0  0  0  0  0  0
  -27.8757  -30.4308   23.9375 H   0  0  0  0  0  0
  -27.2668  -33.3626   26.2062 H   0  0  0  0  0  0
  -28.3854  -32.6891   25.0300 H   0  0  0  0  0  0
  -28.0732  -31.8452   26.5389 H   0  0  0  0  0  0
  -28.2626  -38.0076   24.7468 H   0  0  0  0  0  0
  -28.1043  -36.2608   24.6359 H   0  0  0  0  0  0
  -27.2290  -37.1547   25.8870 H   0  0  0  0  0  0
  -20.9354  -29.8776   21.6906 H   0  0  0  0  0  0
  -26.0192  -38.2865   24.1359 H   0  0  0  0  0  0
  -27.3988  -19.4924   21.2661 H   0  0  0  0  0  0
  -27.4770  -16.9751   21.5213 H   0  0  0  0  0  0
  -29.9272  -21.1115   18.4043 H   0  0  0  0  0  0
  -28.3862  -21.6569   19.0025 H   0  0  0  0  0  0
  -27.9549  -21.9122   21.3905 H   0  0  0  0  0  0
  -29.1602  -21.5377   22.5868 H   0  0  0  0  0  0
  -29.7209  -23.5693   18.1121 H   0  0  0  0  0  0
  -31.0585  -23.0880   19.0848 H   0  0  0  0  0  0
  -30.5100  -23.4075   22.0204 H   0  0  0  0  0  0
  -28.9135  -24.0013   22.3075 H   0  0  0  0  0  0
  -30.8444  -21.1645   20.7444 H   0  0  0  0  0  0
  -27.4112  -24.6616   20.4189 H   0  0  0  0  0  0
  -28.0435  -24.9804   18.8269 H   0  0  0  0  0  0
  -28.9547  -15.0965   21.4666 H   0  0  0  0  0  0
  -31.5235  -24.7942   20.6158 H   0  0  0  0  0  0
  -30.3999  -25.9276   20.9641 H   0  0  0  0  0  0
  -30.8114  -25.6533   19.4248 H   0  0  0  0  0  0
  1 25  1  0  0  0
  1 30  2  0  0  0
  1 82  1  0  0  0
  2  3  1  0  0  0
  2 25  1  0  0  0
  2 85  1  0  0  0
  2 86  1  0  0  0
  3  4  1  0  0  0
  3 87  1  0  0  0
  3 88  1  0  0  0
  4  5  1  0  0  0
  4 89  1  0  0  0
  4 90  1  0  0  0
  5  6  1  0  0  0
  5 26  1  0  0  0
  5 91  1  0  0  0
  6 25  1  0  0  0
  6 92  1  0  0  0
  6 93  1  0  0  0
  7  8  2  0  0  0
  7 26  1  0  0  0
  7 29  1  0  0  0
  8  9  1  0  0  0
  8 22  1  0  0  0
  9 10  1  0  0  0
  9 27  2  0  0  0
 10 11  2  0  0  0
 10 15  1  0  0  0
 11 12  1  0  0  0
 11 94  1  0  0  0
 12 13  2  0  0  0
 12 95  1  0  0  0
 13 14  1  0  0  0
 13 31  1  0  0  0
 14 15  2  0  0  0
 14 96  1  0  0  0
 15 97  1  0  0  0
 16 17  2  0  0  0
 16 21  1  0  0  0
 16 31  1  0  0  0
 17 18  1  0  0  0
 17 98  1  0  0  0
 18 19  2  0  0  0
 18 99  1  0  0  0
 19 20  1  0  0  0
 19 24  1  0  0  0
 20 21  2  0  0  0
 20100  1  0  0  0
 21 23  1  0  0  0
 22 28  1  0  0  0
 22 32  2  0  0  0
 26 27  1  0  0  0
 28101  1  0  0  0
 28102  1  0  0  0
 29103  1  0  0  0
 29104  1  0  0  0
 33 34  1  0  0  0
 33 66  1  0  0  0
 33 70  2  0  0  0
 34 36  1  0  0  0
 34 59  1  0  0  0
 34105  1  0  0  0
 35 44  2  0  0  0
 35 45  1  0  0  0
 35 68  1  0  0  0
 36 56  1  0  0  0
 36106  1  0  0  0
 37 39  1  0  0  0
 37 47  1  0  0  0
 37 66  1  0  0  0
 37107  1  0  0  0
 38 43  2  0  0  0
 38 46  1  0  0  0
 38 47  1  0  0  0
 39 64  1  0  0  0
 39 67  2  0  0  0
 40 52  1  0  0  0
 40 53  2  0  0  0
 40 58  1  0  0  0
 41108  1  0  0  0
 41109  1  0  0  0
 41110  1  0  0  0
 41 48  1  0  0  0
 42 43  1  0  0  0
 42 66  1  0  0  0
 42111  1  0  0  0
 42112  1  0  0  0
 43 44  1  0  0  0
 44113  1  0  0  0
 45 46  2  0  0  0
 45114  1  0  0  0
 46115  1  0  0  0
 47116  1  0  0  0
 47117  1  0  0  0
 48 56  1  0  0  0
 48 65  1  0  0  0
 48118  1  0  0  0
 49 50  1  0  0  0
 49 53  1  0  0  0
 49 64  1  0  0  0
 49119  1  0  0  0
 50 51  1  0  0  0
 50120  1  0  0  0
 50121  1  0  0  0
 51 52  1  0  0  0
 51122  1  0  0  0
 51123  1  0  0  0
 52124  1  0  0  0
 52125  1  0  0  0
 53 54  1  0  0  0
 54 55  2  0  0  0
 54126  1  0  0  0
 55 57  1  0  0  0
 55127  1  0  0  0
 56 69  2  0  0  0
 57 58  2  0  0  0
 57128  1  0  0  0
 58129  1  0  0  0
 59 60  1  0  0  0
 59 61  1  0  0  0
 59 62  1  0  0  0
 60130  1  0  0  0
 60131  1  0  0  0
 60132  1  0  0  0
 61133  1  0  0  0
 61134  1  0  0  0
 61135  1  0  0  0
 62136  1  0  0  0
 62137  1  0  0  0
 62138  1  0  0  0
 63 65  1  0  0  0
 63139  1  0  0  0
 63140  1  0  0  0
 63141  1  0  0  0
 64142  1  0  0  0
 65143  1  0  0  0
 68 81  1  0  0  0
 71 72  1  0  0  0
 71 73  2  0  0  0
 71144  1  0  0  0
 72 74  2  0  0  0
 72145  1  0  0  0
 73 84  1  0  0  0
 73 79  1  0  0  0
 74 82  1  0  0  0
 74 84  1  0  0  0
 75 77  1  0  0  0
 75 79  1  0  0  0
 75146  1  0  0  0
 75147  1  0  0  0
 76 78  1  0  0  0
 76 79  1  0  0  0
 76148  1  0  0  0
 76149  1  0  0  0
 77 80  1  0  0  0
 77150  1  0  0  0
 77151  1  0  0  0
 78 80  1  0  0  0
 78152  1  0  0  0
 78153  1  0  0  0
 79154  1  0  0  0
 80 81  1  0  0  0
 80 83  1  0  0  0
 81155  1  0  0  0
 81156  1  0  0  0
 82157  1  0  0  0
 83158  1  0  0  0
 83159  1  0  0  0
 83160  1  0  0  0
M  CHG  1  83   1
M  ISO  4   1 100  68 101  81 101  82 100
M  END
> <chiral flag>
0

> <version>
0

> <s_m_source_file>
/data/baiqing/PycharmProjects/Reinvent-master-3.2/result/LINK_invent/BTK/process_docking_weight1_custom_product_contain_oxygen_bond_distance_aromatic_linkinvent_7_9_3/rearranged_h_0152.sdf

> <i_m_source_file_index>
7

> <r_mmod_Potential_Energy-OPLS-2005>
-104.154304504395

> <r_mmod_Stretch_Energy-OPLS-2005>
70.6144943237305

> <r_mmod_Bend_Energy-OPLS-2005>
166.543029785156

> <r_mmod_Torsional_Energy-OPLS-2005>
248.06657409668

> <r_mmod_Improper_Torsional_Energy-OPLS-2005>
4.28639984130859

> <r_mmod_Van_der_Waal_Energy-OPLS-2005>
128.177276611328

> <r_mmod_Electrostatic_Energy-OPLS-2005>
-304.315765380859

> <r_mmod_Solvation_Energy-OPLS-2005>
-458.416168212891

> <b_mmod_Minimization_Converged-OPLS-2005>
0

> <r_mmod_RMS_Derivative-OPLS-2005>
1.02883660793304

$$$$
7
                    3D
 Structure written by MMmdl.
159168  0  0  1  0            999 V2000
  -30.4877  -15.0238   20.3873 C   0  0  0  0  0  0
  -30.4338  -12.6217   19.5317 C   0  0  0  0  0  0
  -29.5306  -12.5357   18.2769 C   0  0  0  0  0  0
  -28.0666  -12.3008   18.6874 C   0  0  0  0  0  0
  -27.6228  -13.2496   19.8301 C   0  0  2  0  0  0
  -28.6524  -13.3126   20.9786 C   0  0  0  0  0  0
  -25.2436  -13.8213   20.5705 C   0  0  0  0  0  0
  -24.1758  -13.0439   20.9198 C   0  0  0  0  0  0
  -24.6378  -11.6921   20.8731 C   0  0  0  0  0  0
  -23.9077  -10.4295   21.0396 C   0  0  0  0  0  0
  -24.3639   -9.4201   21.9171 C   0  0  0  0  0  0
  -23.6306   -8.2242   22.0740 C   0  0  0  0  0  0
  -22.4276   -8.0286   21.3537 C   0  0  0  0  0  0
  -21.9918   -9.0249   20.4637 C   0  0  0  0  0  0
  -22.7249  -10.2128   20.3040 C   0  0  0  0  0  0
  -21.6846   -6.0749   22.5280 C   0  0  0  0  0  0
  -21.4015   -6.5658   23.8217 C   0  0  0  0  0  0
  -21.3652   -5.6803   24.9174 C   0  0  0  0  0  0
  -21.6026   -4.3058   24.7216 C   0  0  0  0  0  0
  -21.8816   -3.8160   23.4338 C   0  0  0  0  0  0
  -21.9201   -4.6983   22.3399 C   0  0  0  0  0  0
  -22.7787  -13.5192   21.1886 C   0  0  0  0  0  0
  -22.1669   -4.2178   21.0970 F   0  0  0  0  0  0
  -21.5626   -3.4533   25.7727 F   0  0  0  0  0  0
  -29.9250  -13.7401   20.3868 N   0  0  0  0  0  0
  -26.2837  -12.9446   20.3161 N   0  0  0  0  0  0
  -25.9291  -11.6581   20.5676 N   0  0  0  0  0  0
  -22.0481  -12.8152   22.0458 N   0  0  0  0  0  0
  -25.4148  -15.1955   20.4188 N   0  0  0  0  0  0
  -31.6900  -15.0755   20.1008 O   0  0  0  0  0  0
  -21.6633   -6.8884   21.4236 O   0  0  0  0  0  0
  -22.3463  -14.5505   20.6754 O   0  0  0  0  0  0
  -24.6495  -31.8353   23.1802 C   0  0  0  0  0  0
  -25.9223  -32.4665   23.8226 C   0  0  1  0  0  0
  -27.2161  -27.0529   20.1690 C   0  0  0  0  0  0
  -25.5945  -33.8474   24.2150 N   0  0  0  0  0  0
  -23.4590  -30.4488   21.5268 C   0  0  2  0  0  0
  -24.9094  -28.8579   20.1110 C   0  0  0  0  0  0
  -22.7593  -29.4496   22.4832 C   0  0  0  0  0  0
  -18.0291  -28.1393   22.8467 C   0  0  0  0  0  0
  -24.1505  -36.7242   23.2644 C   0  0  0  0  0  0
  -26.0190  -30.6835   21.3893 C   0  0  0  0  0  0
  -26.0885  -29.2844   20.7353 C   0  0  0  0  0  0
  -27.2397  -28.3978   20.7463 C   0  0  0  0  0  0
  -26.0121  -26.7427   19.5036 C   0  0  0  0  0  0
  -24.8893  -27.6039   19.4798 C   0  0  0  0  0  0
  -23.6905  -29.7695   20.1492 C   0  0  0  0  0  0
  -25.4135  -36.3018   24.0312 C   0  0  1  0  0  0
  -20.5905  -28.3770   23.1226 C   0  0  2  0  0  0
  -20.6781  -26.9455   22.5443 C   0  0  0  0  0  0
  -19.5778  -26.6324   21.5266 C   0  0  0  0  0  0
  -18.1954  -26.7906   22.1670 C   0  0  0  0  0  0
  -19.1546  -28.8910   23.2813 C   0  0  0  0  0  0
  -18.9452  -30.1511   23.8806 C   0  0  0  0  0  0
  -17.6453  -30.6635   24.0488 C   0  0  0  0  0  0
  -25.9078  -34.9401   23.5040 C   0  0  0  0  0  0
  -16.5347  -29.9103   23.6309 C   0  0  0  0  0  0
  -16.7275  -28.6505   23.0346 C   0  0  0  0  0  0
  -26.4536  -31.6554   25.0694 C   0  0  0  0  0  0
  -25.3703  -31.3755   26.1372 C   0  0  0  0  0  0
  -27.0397  -30.2939   24.6309 C   0  0  0  0  0  0
  -27.6063  -32.4329   25.7480 C   0  0  0  0  0  0
  -27.5575  -37.1783   24.8460 C   0  0  0  0  0  0
  -21.4270  -29.3090   22.3620 N   0  0  0  0  0  0
  -26.4293  -37.3733   23.9397 N   0  0  0  0  0  0
  -24.7294  -31.0141   22.0867 N   0  0  0  0  0  0
  -23.4188  -28.8008   23.2986 O   0  0  0  0  0  0
  -28.2534  -26.0304   20.2495 O   0  0  0  0  0  0
  -26.5691  -34.8893   22.4646 O   0  0  0  0  0  0
  -23.5598  -32.1262   23.6971 O   0  0  0  0  0  0
  -30.2355  -20.4969   19.2009 C   0  0  0  0  0  0
  -29.0585  -18.9352   20.6220 C   0  0  0  0  0  0
  -30.8131  -18.0671   19.2089 C   0  0  0  0  0  0
  -29.2299  -20.3784   20.1860 C   0  0  0  0  0  0
  -30.9875  -19.3888   18.7228 C   0  0  0  0  0  0
  -29.8432  -17.7290   20.1808 C   0  0  0  0  0  0
  -29.9237  -23.4238   21.4365 C   0  0  0  0  0  0
  -28.9172  -23.1261   20.5836 C   0  0  0  0  0  0
  -30.4897  -22.4084   22.4206 C   0  0  0  0  0  0
  -29.3883  -21.4283   22.9258 C   0  0  0  0  0  0
  -28.1309  -21.3943   22.0144 C   0  0  0  0  0  0
  -28.0505  -24.4648   20.0172 C   0  0  0  0  0  0
  -28.5295  -21.6577   20.6294 N   0  0  0  0  0  0
  -31.9435  -19.5963   17.7269 N   0  0  0  0  0  0
  -29.6958  -16.2190   20.5684 N   0  0  0  0  0  0
  -31.4744  -12.7697   19.2410 H   0  0  0  0  0  0
  -30.4183  -11.6776   20.0805 H   0  0  0  0  0  0
  -29.8665  -11.7400   17.6106 H   0  0  0  0  0  0
  -29.6038  -13.4644   17.7108 H   0  0  0  0  0  0
  -27.9848  -11.2655   19.0207 H   0  0  0  0  0  0
  -27.4077  -12.3932   17.8229 H   0  0  0  0  0  0
  -27.5765  -14.2417   19.3780 H   0  0  0  0  0  0
  -28.7460  -12.3471   21.4773 H   0  0  0  0  0  0
  -28.3308  -14.0270   21.7381 H   0  0  0  0  0  0
  -25.2789   -9.5683   22.4731 H   0  0  0  0  0  0
  -24.0028   -7.4628   22.7444 H   0  0  0  0  0  0
  -21.0860   -8.8735   19.8940 H   0  0  0  0  0  0
  -22.3689  -10.9655   19.6140 H   0  0  0  0  0  0
  -21.1999   -7.6166   23.9719 H   0  0  0  0  0  0
  -21.1479   -6.0539   25.9079 H   0  0  0  0  0  0
  -22.0607   -2.7631   23.2814 H   0  0  0  0  0  0
  -22.4145  -11.9784   22.4772 H   0  0  0  0  0  0
  -21.1088  -13.1127   22.2700 H   0  0  0  0  0  0
  -24.6547  -15.8543   20.5421 H   0  0  0  0  0  0
  -26.2641  -15.6308   20.0853 H   0  0  0  0  0  0
  -26.7287  -32.5235   23.0953 H   0  0  0  0  0  0
  -25.0026  -33.9580   25.0250 H   0  0  0  0  0  0
  -22.7643  -31.2748   21.3620 H   0  0  0  0  0  0
  -23.3775  -35.9567   23.3302 H   0  0  0  0  0  0
  -24.3579  -36.8882   22.2057 H   0  0  0  0  0  0
  -23.7267  -37.6432   23.6691 H   0  0  0  0  0  0
  -26.1756  -31.4312   20.6105 H   0  0  0  0  0  0
  -26.8864  -30.7438   22.0341 H   0  0  0  0  0  0
  -28.1350  -28.7132   21.2619 H   0  0  0  0  0  0
  -25.9089  -25.7787   19.0276 H   0  0  0  0  0  0
  -23.9891  -27.2726   18.9826 H   0  0  0  0  0  0
  -23.8334  -30.5380   19.3883 H   0  0  0  0  0  0
  -22.8064  -29.2097   19.8402 H   0  0  0  0  0  0
  -25.1345  -36.1841   25.0805 H   0  0  0  0  0  0
  -20.9969  -28.3402   24.1360 H   0  0  0  0  0  0
  -21.6642  -26.7426   22.1273 H   0  0  0  0  0  0
  -20.5679  -26.2401   23.3699 H   0  0  0  0  0  0
  -19.6952  -25.6176   21.1416 H   0  0  0  0  0  0
  -19.6705  -27.3023   20.6701 H   0  0  0  0  0  0
  -18.0398  -26.0117   22.9150 H   0  0  0  0  0  0
  -17.4218  -26.6543   21.4093 H   0  0  0  0  0  0
  -19.7932  -30.7348   24.2111 H   0  0  0  0  0  0
  -17.4999  -31.6339   24.5030 H   0  0  0  0  0  0
  -15.5345  -30.2972   23.7681 H   0  0  0  0  0  0
  -15.8659  -28.0818   22.7097 H   0  0  0  0  0  0
  -24.5901  -30.7092   25.7674 H   0  0  0  0  0  0
  -24.8871  -32.2935   26.4717 H   0  0  0  0  0  0
  -25.7968  -30.8970   27.0188 H   0  0  0  0  0  0
  -26.3015  -29.6647   24.1319 H   0  0  0  0  0  0
  -27.3983  -29.7263   25.4898 H   0  0  0  0  0  0
  -27.8934  -30.4150   23.9639 H   0  0  0  0  0  0
  -27.2662  -33.3650   26.1993 H   0  0  0  0  0  0
  -28.3901  -32.6855   25.0331 H   0  0  0  0  0  0
  -28.0687  -31.8488   26.5437 H   0  0  0  0  0  0
  -28.2598  -38.0073   24.7496 H   0  0  0  0  0  0
  -28.1073  -36.2608   24.6326 H   0  0  0  0  0  0
  -27.2272  -37.1453   25.8853 H   0  0  0  0  0  0
  -20.9492  -29.8927   21.6899 H   0  0  0  0  0  0
  -26.0163  -38.2796   24.1409 H   0  0  0  0  0  0
  -30.4363  -21.4803   18.8007 H   0  0  0  0  0  0
  -28.2877  -18.7225   21.3444 H   0  0  0  0  0  0
  -31.4314  -17.2823   18.7946 H   0  0  0  0  0  0
  -30.2388  -24.4494   21.5759 H   0  0  0  0  0  0
  -30.9373  -22.9310   23.2659 H   0  0  0  0  0  0
  -31.2988  -21.8652   21.9288 H   0  0  0  0  0  0
  -29.0704  -21.7123   23.9289 H   0  0  0  0  0  0
  -29.8139  -20.4289   23.0285 H   0  0  0  0  0  0
  -27.4476  -22.1858   22.3328 H   0  0  0  0  0  0
  -27.5521  -20.4810   22.1398 H   0  0  0  0  0  0
  -28.9707  -24.6439   19.4602 H   0  0  0  0  0  0
  -27.7714  -24.5521   21.0677 H   0  0  0  0  0  0
  -31.9094  -20.4541   17.1846 H   0  0  0  0  0  0
  -32.2437  -18.7984   17.1756 H   0  0  0  0  0  0
  -28.7924  -15.9970   20.9642 H   0  0  0  0  0  0
  1 25  1  0  0  0
  1 30  2  0  0  0
  1 85  1  0  0  0
  2  3  1  0  0  0
  2 25  1  0  0  0
  2 86  1  0  0  0
  2 87  1  0  0  0
  3  4  1  0  0  0
  3 88  1  0  0  0
  3 89  1  0  0  0
  4  5  1  0  0  0
  4 90  1  0  0  0
  4 91  1  0  0  0
  5  6  1  0  0  0
  5 26  1  0  0  0
  5 92  1  0  0  0
  6 25  1  0  0  0
  6 93  1  0  0  0
  6 94  1  0  0  0
  7  8  2  0  0  0
  7 26  1  0  0  0
  7 29  1  0  0  0
  8  9  1  0  0  0
  8 22  1  0  0  0
  9 10  1  0  0  0
  9 27  2  0  0  0
 10 11  2  0  0  0
 10 15  1  0  0  0
 11 12  1  0  0  0
 11 95  1  0  0  0
 12 13  2  0  0  0
 12 96  1  0  0  0
 13 14  1  0  0  0
 13 31  1  0  0  0
 14 15  2  0  0  0
 14 97  1  0  0  0
 15 98  1  0  0  0
 16 17  2  0  0  0
 16 21  1  0  0  0
 16 31  1  0  0  0
 17 18  1  0  0  0
 17 99  1  0  0  0
 18 19  2  0  0  0
 18100  1  0  0  0
 19 20  1  0  0  0
 19 24  1  0  0  0
 20 21  2  0  0  0
 20101  1  0  0  0
 21 23  1  0  0  0
 22 28  1  0  0  0
 22 32  2  0  0  0
 26 27  1  0  0  0
 28102  1  0  0  0
 28103  1  0  0  0
 29104  1  0  0  0
 29105  1  0  0  0
 33 34  1  0  0  0
 33 66  1  0  0  0
 33 70  2  0  0  0
 34 36  1  0  0  0
 34 59  1  0  0  0
 34106  1  0  0  0
 35 44  2  0  0  0
 35 45  1  0  0  0
 35 68  1  0  0  0
 36 56  1  0  0  0
 36107  1  0  0  0
 37 39  1  0  0  0
 37 47  1  0  0  0
 37 66  1  0  0  0
 37108  1  0  0  0
 38 43  2  0  0  0
 38 46  1  0  0  0
 38 47  1  0  0  0
 39 64  1  0  0  0
 39 67  2  0  0  0
 40 52  1  0  0  0
 40 53  2  0  0  0
 40 58  1  0  0  0
 41109  1  0  0  0
 41110  1  0  0  0
 41111  1  0  0  0
 41 48  1  0  0  0
 42 43  1  0  0  0
 42 66  1  0  0  0
 42112  1  0  0  0
 42113  1  0  0  0
 43 44  1  0  0  0
 44114  1  0  0  0
 45 46  2  0  0  0
 45115  1  0  0  0
 46116  1  0  0  0
 47117  1  0  0  0
 47118  1  0  0  0
 48 56  1  0  0  0
 48 65  1  0  0  0
 48119  1  0  0  0
 49 50  1  0  0  0
 49 53  1  0  0  0
 49 64  1  0  0  0
 49120  1  0  0  0
 50 51  1  0  0  0
 50121  1  0  0  0
 50122  1  0  0  0
 51 52  1  0  0  0
 51123  1  0  0  0
 51124  1  0  0  0
 52125  1  0  0  0
 52126  1  0  0  0
 53 54  1  0  0  0
 54 55  2  0  0  0
 54127  1  0  0  0
 55 57  1  0  0  0
 55128  1  0  0  0
 56 69  2  0  0  0
 57 58  2  0  0  0
 57129  1  0  0  0
 58130  1  0  0  0
 59 60  1  0  0  0
 59 61  1  0  0  0
 59 62  1  0  0  0
 60131  1  0  0  0
 60132  1  0  0  0
 60133  1  0  0  0
 61134  1  0  0  0
 61135  1  0  0  0
 61136  1  0  0  0
 62137  1  0  0  0
 62138  1  0  0  0
 62139  1  0  0  0
 63 65  1  0  0  0
 63140  1  0  0  0
 63141  1  0  0  0
 63142  1  0  0  0
 64143  1  0  0  0
 65144  1  0  0  0
 68 82  1  0  0  0
 71 74  2  0  0  0
 71 75  1  0  0  0
 71145  1  0  0  0
 72 74  1  0  0  0
 72 76  2  0  0  0
 72146  1  0  0  0
 73 75  2  0  0  0
 73 76  1  0  0  0
 73147  1  0  0  0
 74 83  1  0  0  0
 75 84  1  0  0  0
 76 85  1  0  0  0
 77 78  2  0  0  0
 77 79  1  0  0  0
 77148  1  0  0  0
 78 82  1  0  0  0
 78 83  1  0  0  0
 79 80  1  0  0  0
 79149  1  0  0  0
 79150  1  0  0  0
 80 81  1  0  0  0
 80151  1  0  0  0
 80152  1  0  0  0
 81 83  1  0  0  0
 81153  1  0  0  0
 81154  1  0  0  0
 82155  1  0  0  0
 82156  1  0  0  0
 84157  1  0  0  0
 84158  1  0  0  0
 85159  1  0  0  0
M  ISO  4   1 100  68 101  82 101  85 100
M  END
> <chiral flag>
0

> <version>
0

> <s_m_source_file>
/data/baiqing/PycharmProjects/Reinvent-master-3.2/result/LINK_invent/BTK/process_docking_weight1_custom_product_contain_oxygen_bond_distance_aromatic_linkinvent_7_9_3/rearranged_h_0152.sdf

> <i_m_source_file_index>
8

> <r_mmod_Potential_Energy-OPLS-2005>
1037.05676269531

> <r_mmod_Stretch_Energy-OPLS-2005>
353.907165527344

> <r_mmod_Bend_Energy-OPLS-2005>
498.606475830078

> <r_mmod_Torsional_Energy-OPLS-2005>
279.407501220703

> <r_mmod_Improper_Torsional_Energy-OPLS-2005>
12.7972745895386

> <r_mmod_Van_der_Waal_Energy-OPLS-2005>
153.884490966797

> <r_mmod_Electrostatic_Energy-OPLS-2005>
-298.5185546875

> <r_mmod_Solvation_Energy-OPLS-2005>
-224.607406616211

> <b_mmod_Minimization_Converged-OPLS-2005>
0

> <r_mmod_RMS_Derivative-OPLS-2005>
3.44899010658264

$$$$
8
                    3D
 Structure written by MMmdl.
167176  0  0  1  0            999 V2000
  -30.6871  -14.4491   20.5504 C   0  0  0  0  0  0
  -30.4184  -12.2748   19.4361 C   0  0  0  0  0  0
  -29.4974  -12.5025   18.2179 C   0  0  0  0  0  0
  -28.0193  -12.3584   18.6277 C   0  0  0  0  0  0
  -27.6640  -13.1963   19.8849 C   0  0  2  0  0  0
  -28.7024  -12.9664   21.0122 C   0  0  0  0  0  0
  -25.2593  -13.8144   20.5669 C   0  0  0  0  0  0
  -24.1832  -13.0429   20.9169 C   0  0  0  0  0  0
  -24.6373  -11.6899   20.8737 C   0  0  0  0  0  0
  -23.9042  -10.4295   21.0415 C   0  0  0  0  0  0
  -24.3595   -9.4214   21.9198 C   0  0  0  0  0  0
  -23.6280   -8.2252   22.0770 C   0  0  0  0  0  0
  -22.4275   -8.0285   21.3544 C   0  0  0  0  0  0
  -21.9898   -9.0257   20.4652 C   0  0  0  0  0  0
  -22.7218  -10.2136   20.3063 C   0  0  0  0  0  0
  -21.6845   -6.0730   22.5281 C   0  0  0  0  0  0
  -21.4012   -6.5637   23.8213 C   0  0  0  0  0  0
  -21.3657   -5.6799   24.9183 C   0  0  0  0  0  0
  -21.6046   -4.3062   24.7233 C   0  0  0  0  0  0
  -21.8815   -3.8143   23.4355 C   0  0  0  0  0  0
  -21.9194   -4.6959   22.3411 C   0  0  0  0  0  0
  -22.7863  -13.5232   21.1849 C   0  0  0  0  0  0
  -22.1659   -4.2142   21.0983 F   0  0  0  0  0  0
  -21.5630   -3.4548   25.7750 F   0  0  0  0  0  0
  -30.0433  -13.2550   20.4681 N   0  0  0  0  0  0
  -26.3022  -12.9291   20.3402 N   0  0  0  0  0  0
  -25.9302  -11.6448   20.5798 N   0  0  0  0  0  0
  -22.0503  -12.8222   22.0403 N   0  0  0  0  0  0
  -25.4300  -15.1870   20.4064 N   0  0  0  0  0  0
  -31.7990  -14.6596   20.0587 O   0  0  0  0  0  0
  -21.6635   -6.8872   21.4247 O   0  0  0  0  0  0
  -22.3569  -14.5556   20.6722 O   0  0  0  0  0  0
  -24.6145  -31.8708   23.2116 C   0  0  0  0  0  0
  -25.9058  -32.4826   23.8402 C   0  0  1  0  0  0
  -27.2337  -27.4386   20.1023 C   0  0  0  0  0  0
  -25.5898  -33.8620   24.2306 N   0  0  0  0  0  0
  -23.4001  -30.4961   21.5540 C   0  0  2  0  0  0
  -24.8475  -28.9574   20.1193 C   0  0  0  0  0  0
  -22.7389  -29.4718   22.5039 C   0  0  0  0  0  0
  -18.0260  -28.1370   22.8509 C   0  0  0  0  0  0
  -24.1491  -36.7354   23.2648 C   0  0  0  0  0  0
  -25.9274  -30.8335   21.3652 C   0  0  0  0  0  0
  -26.0082  -29.4678   20.7178 C   0  0  0  0  0  0
  -27.2048  -28.7131   20.7145 C   0  0  0  0  0  0
  -26.0630  -26.9461   19.4885 C   0  0  0  0  0  0
  -24.8673  -27.6897   19.5101 C   0  0  0  0  0  0
  -23.6078  -29.8244   20.1711 C   0  0  0  0  0  0
  -25.4116  -36.3100   24.0312 C   0  0  1  0  0  0
  -20.5854  -28.3684   23.1308 C   0  0  2  0  0  0
  -20.6779  -26.9426   22.5424 C   0  0  0  0  0  0
  -19.5758  -26.6389   21.5222 C   0  0  0  0  0  0
  -18.1918  -26.7935   22.1612 C   0  0  0  0  0  0
  -19.1517  -28.8842   23.2903 C   0  0  0  0  0  0
  -18.9464  -30.1444   23.8923 C   0  0  0  0  0  0
  -17.6479  -30.6606   24.0564 C   0  0  0  0  0  0
  -25.9048  -34.9473   23.5111 C   0  0  0  0  0  0
  -16.5353  -29.9120   23.6333 C   0  0  0  0  0  0
  -16.7257  -28.6515   23.0387 C   0  0  0  0  0  0
  -26.4489  -31.6630   25.0741 C   0  0  0  0  0  0
  -25.3737  -31.3708   26.1465 C   0  0  0  0  0  0
  -27.0378  -30.3075   24.6177 C   0  0  0  0  0  0
  -27.6060  -32.4381   25.7477 C   0  0  0  0  0  0
  -27.5579  -37.1806   24.8464 C   0  0  0  0  0  0
  -21.4125  -29.3048   22.3715 N   0  0  0  0  0  0
  -26.4308  -37.3790   23.9381 N   0  0  0  0  0  0
  -24.6653  -31.0809   22.1027 N   0  0  0  0  0  0
  -23.4155  -28.8280   23.3092 O   0  0  0  0  0  0
  -28.3776  -26.6715   20.0817 O   0  0  0  0  0  0
  -26.5641  -34.8942   22.4694 O   0  0  0  0  0  0
  -23.5333  -32.1477   23.7527 O   0  0  0  0  0  0
  -31.1852  -18.2375   21.8125 C   0  0  0  0  0  0
  -31.3929  -19.6488   21.7787 C   0  0  0  0  0  0
  -30.3245  -17.9502   20.7900 C   0  0  0  0  0  0
  -30.6277  -20.1428   20.7549 C   0  0  0  0  0  0
  -28.6318  -23.7429   22.6064 C   0  0  0  0  0  0
  -29.4210  -22.4761   22.2394 C   0  0  0  0  0  0
  -29.0246  -23.6330   20.2089 C   0  0  0  0  0  0
  -28.2694  -24.4519   21.2826 C   0  0  2  0  0  0
  -30.3246  -21.4606   18.6202 C   0  0  0  0  0  0
  -26.1328  -23.2388   20.9540 C   0  0  0  0  0  0
  -29.7501  -16.6973   20.1939 C   0  0  0  0  0  0
  -28.6633  -25.9627   21.3038 C   0  0  0  0  0  0
  -30.4296  -21.5231   20.1598 C   0  0  1  0  0  0
  -29.9136  -15.4627   20.9675 N   0  0  0  0  0  0
  -29.2955  -22.2798   20.7779 N   0  3  1  0  0  0
  -29.9448  -19.1112   20.1728 O   0  0  0  0  0  0
  -26.8464  -24.4655   21.0852 O   0  0  0  0  0  0
  -31.4677  -12.3508   19.1447 H   0  0  0  0  0  0
  -30.2864  -11.2617   19.8195 H   0  0  0  0  0  0
  -29.7376  -11.7934   17.4238 H   0  0  0  0  0  0
  -29.6707  -13.4965   17.8024 H   0  0  0  0  0  0
  -27.8365  -11.3018   18.8304 H   0  0  0  0  0  0
  -27.3673  -12.6263   17.7960 H   0  0  0  0  0  0
  -27.7120  -14.2439   19.5883 H   0  0  0  0  0  0
  -28.6622  -11.9336   21.3652 H   0  0  0  0  0  0
  -28.4695  -13.5777   21.8854 H   0  0  0  0  0  0
  -25.2739   -9.5703   22.4779 H   0  0  0  0  0  0
  -23.9992   -7.4639   22.7496 H   0  0  0  0  0  0
  -21.0834   -8.8760   19.8958 H   0  0  0  0  0  0
  -22.3672  -10.9669   19.6176 H   0  0  0  0  0  0
  -21.2000   -7.6157   23.9710 H   0  0  0  0  0  0
  -21.1488   -6.0540   25.9083 H   0  0  0  0  0  0
  -22.0598   -2.7608   23.2866 H   0  0  0  0  0  0
  -22.4109  -11.9856   22.4747 H   0  0  0  0  0  0
  -21.1139  -13.1275   22.2632 H   0  0  0  0  0  0
  -24.6593  -15.8388   20.5027 H   0  0  0  0  0  0
  -26.2831  -15.6286   20.0871 H   0  0  0  0  0  0
  -26.7125  -32.5541   23.1162 H   0  0  0  0  0  0
  -24.9940  -33.9763   25.0362 H   0  0  0  0  0  0
  -22.6888  -31.3137   21.4141 H   0  0  0  0  0  0
  -23.3728  -35.9714   23.3330 H   0  0  0  0  0  0
  -24.3594  -36.9019   22.2071 H   0  0  0  0  0  0
  -23.7301  -37.6569   23.6701 H   0  0  0  0  0  0
  -26.0344  -31.5916   20.5886 H   0  0  0  0  0  0
  -26.8133  -30.8926   21.9854 H   0  0  0  0  0  0
  -28.1005  -29.1035   21.1801 H   0  0  0  0  0  0
  -26.0714  -25.9754   19.0144 H   0  0  0  0  0  0
  -23.9698  -27.2848   19.0624 H   0  0  0  0  0  0
  -23.7123  -30.5971   19.4079 H   0  0  0  0  0  0
  -22.7270  -29.2467   19.8831 H   0  0  0  0  0  0
  -25.1294  -36.1971   25.0806 H   0  0  0  0  0  0
  -20.9932  -28.3294   24.1435 H   0  0  0  0  0  0
  -20.5704  -26.2310   23.3623 H   0  0  0  0  0  0
  -21.6645  -26.7511   22.1208 H   0  0  0  0  0  0
  -19.6941  -25.6300   21.1280 H   0  0  0  0  0  0
  -19.6714  -27.3170   20.6737 H   0  0  0  0  0  0
  -17.4209  -26.6724   21.3982 H   0  0  0  0  0  0
  -18.0278  -26.0022   22.8948 H   0  0  0  0  0  0
  -19.7942  -30.7225   24.2338 H   0  0  0  0  0  0
  -17.5055  -31.6302   24.5145 H   0  0  0  0  0  0
  -15.5353  -30.3051   23.7673 H   0  0  0  0  0  0
  -15.8642  -28.0848   22.7150 H   0  0  0  0  0  0
  -24.6046  -30.6889   25.7822 H   0  0  0  0  0  0
  -24.8719  -32.2808   26.4757 H   0  0  0  0  0  0
  -25.8089  -30.9055   27.0325 H   0  0  0  0  0  0
  -26.2943  -29.6724   24.1341 H   0  0  0  0  0  0
  -27.4273  -29.7433   25.4677 H   0  0  0  0  0  0
  -27.8710  -30.4408   23.9270 H   0  0  0  0  0  0
  -27.2716  -33.3723   26.2011 H   0  0  0  0  0  0
  -28.3850  -32.6909   25.0264 H   0  0  0  0  0  0
  -28.0750  -31.8550   26.5416 H   0  0  0  0  0  0
  -28.2594  -38.0099   24.7495 H   0  0  0  0  0  0
  -28.1065  -36.2629   24.6302 H   0  0  0  0  0  0
  -27.2287  -37.1506   25.8867 H   0  0  0  0  0  0
  -20.9311  -29.8692   21.6864 H   0  0  0  0  0  0
  -26.0207  -38.2877   24.1359 H   0  0  0  0  0  0
  -31.6383  -17.5124   22.4770 H   0  0  0  0  0  0
  -32.0420  -20.2301   22.4180 H   0  0  0  0  0  0
  -29.2477  -24.3768   23.2458 H   0  0  0  0  0  0
  -27.7463  -23.4912   23.1898 H   0  0  0  0  0  0
  -29.0712  -21.5995   22.7856 H   0  0  0  0  0  0
  -30.4706  -22.6274   22.5052 H   0  0  0  0  0  0
  -29.9793  -24.1216   20.0014 H   0  0  0  0  0  0
  -28.4785  -23.5934   19.2677 H   0  0  0  0  0  0
  -31.1719  -20.9178   18.2030 H   0  0  0  0  0  0
  -30.3363  -22.4504   18.1655 H   0  0  0  0  0  0
  -29.4147  -20.9547   18.2931 H   0  0  0  0  0  0
  -26.1844  -22.6238   21.8510 H   0  0  0  0  0  0
  -26.4683  -22.6500   20.0994 H   0  0  0  0  0  0
  -25.0800  -23.4659   20.7842 H   0  0  0  0  0  0
  -30.1567  -16.5685   19.1879 H   0  0  0  0  0  0
  -28.6796  -16.8377   20.0435 H   0  0  0  0  0  0
  -29.7338  -26.0578   21.4935 H   0  0  0  0  0  0
  -28.1785  -26.4487   22.1513 H   0  0  0  0  0  0
  -31.3339  -22.0960   20.3751 H   0  0  0  0  0  0
  -29.0951  -15.1782   21.4822 H   0  0  0  0  0  0
  -28.4724  -21.7127   20.6370 H   0  0  0  0  0  0
  1 25  1  0  0  0
  1 30  2  0  0  0
  1 84  1  0  0  0
  2  3  1  0  0  0
  2 25  1  0  0  0
  2 88  1  0  0  0
  2 89  1  0  0  0
  3  4  1  0  0  0
  3 90  1  0  0  0
  3 91  1  0  0  0
  4  5  1  0  0  0
  4 92  1  0  0  0
  4 93  1  0  0  0
  5  6  1  0  0  0
  5 26  1  0  0  0
  5 94  1  0  0  0
  6 25  1  0  0  0
  6 95  1  0  0  0
  6 96  1  0  0  0
  7  8  2  0  0  0
  7 26  1  0  0  0
  7 29  1  0  0  0
  8  9  1  0  0  0
  8 22  1  0  0  0
  9 10  1  0  0  0
  9 27  2  0  0  0
 10 11  2  0  0  0
 10 15  1  0  0  0
 11 12  1  0  0  0
 11 97  1  0  0  0
 12 13  2  0  0  0
 12 98  1  0  0  0
 13 14  1  0  0  0
 13 31  1  0  0  0
 14 15  2  0  0  0
 14 99  1  0  0  0
 15100  1  0  0  0
 16 17  2  0  0  0
 16 21  1  0  0  0
 16 31  1  0  0  0
 17 18  1  0  0  0
 17101  1  0  0  0
 18 19  2  0  0  0
 18102  1  0  0  0
 19 20  1  0  0  0
 19 24  1  0  0  0
 20 21  2  0  0  0
 20103  1  0  0  0
 21 23  1  0  0  0
 22 28  1  0  0  0
 22 32  2  0  0  0
 26 27  1  0  0  0
 28104  1  0  0  0
 28105  1  0  0  0
 29106  1  0  0  0
 29107  1  0  0  0
 33 34  1  0  0  0
 33 66  1  0  0  0
 33 70  2  0  0  0
 34 36  1  0  0  0
 34 59  1  0  0  0
 34108  1  0  0  0
 35 44  2  0  0  0
 35 45  1  0  0  0
 35 68  1  0  0  0
 36 56  1  0  0  0
 36109  1  0  0  0
 37 39  1  0  0  0
 37 47  1  0  0  0
 37 66  1  0  0  0
 37110  1  0  0  0
 38 43  2  0  0  0
 38 46  1  0  0  0
 38 47  1  0  0  0
 39 64  1  0  0  0
 39 67  2  0  0  0
 40 52  1  0  0  0
 40 53  2  0  0  0
 40 58  1  0  0  0
 41111  1  0  0  0
 41112  1  0  0  0
 41113  1  0  0  0
 41 48  1  0  0  0
 42 43  1  0  0  0
 42 66  1  0  0  0
 42114  1  0  0  0
 42115  1  0  0  0
 43 44  1  0  0  0
 44116  1  0  0  0
 45 46  2  0  0  0
 45117  1  0  0  0
 46118  1  0  0  0
 47119  1  0  0  0
 47120  1  0  0  0
 48 56  1  0  0  0
 48 65  1  0  0  0
 48121  1  0  0  0
 49 50  1  0  0  0
 49 53  1  0  0  0
 49 64  1  0  0  0
 49122  1  0  0  0
 50 51  1  0  0  0
 50123  1  0  0  0
 50124  1  0  0  0
 51 52  1  0  0  0
 51125  1  0  0  0
 51126  1  0  0  0
 52127  1  0  0  0
 52128  1  0  0  0
 53 54  1  0  0  0
 54 55  2  0  0  0
 54129  1  0  0  0
 55 57  1  0  0  0
 55130  1  0  0  0
 56 69  2  0  0  0
 57 58  2  0  0  0
 57131  1  0  0  0
 58132  1  0  0  0
 59 60  1  0  0  0
 59 61  1  0  0  0
 59 62  1  0  0  0
 60133  1  0  0  0
 60134  1  0  0  0
 60135  1  0  0  0
 61136  1  0  0  0
 61137  1  0  0  0
 61138  1  0  0  0
 62139  1  0  0  0
 62140  1  0  0  0
 62141  1  0  0  0
 63 65  1  0  0  0
 63142  1  0  0  0
 63143  1  0  0  0
 63144  1  0  0  0
 64145  1  0  0  0
 65146  1  0  0  0
 68 82  1  0  0  0
 71 72  1  0  0  0
 71 73  2  0  0  0
 71147  1  0  0  0
 72 74  2  0  0  0
 72148  1  0  0  0
 73 81  1  0  0  0
 73 86  1  0  0  0
 74 83  1  0  0  0
 74 86  1  0  0  0
 75 76  1  0  0  0
 75 78  1  0  0  0
 75149  1  0  0  0
 75150  1  0  0  0
 76151  1  0  0  0
 76152  1  0  0  0
 76 85  1  0  0  0
 77 78  1  0  0  0
 77 85  1  0  0  0
 77153  1  0  0  0
 77154  1  0  0  0
 78 82  1  0  0  0
 78 87  1  0  0  0
 79155  1  0  0  0
 79156  1  0  0  0
 79157  1  0  0  0
 79 83  1  0  0  0
 80 87  1  0  0  0
 80158  1  0  0  0
 80159  1  0  0  0
 80160  1  0  0  0
 81 84  1  0  0  0
 81161  1  0  0  0
 81162  1  0  0  0
 82163  1  0  0  0
 82164  1  0  0  0
 83 85  1  0  0  0
 83165  1  0  0  0
 84166  1  0  0  0
 85167  1  0  0  0
M  CHG  1  85   1
M  ISO  4   1 100  68 101  82 101  84 100
M  END
> <chiral flag>
0

> <version>
0

> <s_m_source_file>
/data/baiqing/PycharmProjects/Reinvent-master-3.2/result/LINK_invent/BTK/process_docking_weight1_custom_product_contain_oxygen_bond_distance_aromatic_linkinvent_7_9_3/rearranged_h_0152.sdf

> <i_m_source_file_index>
9

> <r_mmod_Potential_Energy-OPLS-2005>
-155.120956420898

> <r_mmod_Stretch_Energy-OPLS-2005>
37.8876914978027

> <r_mmod_Bend_Energy-OPLS-2005>
121.393058776855

> <r_mmod_Torsional_Energy-OPLS-2005>
323.646667480469

> <r_mmod_Improper_Torsional_Energy-OPLS-2005>
9.18319988250732

> <r_mmod_Van_der_Waal_Energy-OPLS-2005>
122.116760253906

> <r_mmod_Electrostatic_Energy-OPLS-2005>
-346.671661376953

> <r_mmod_Solvation_Energy-OPLS-2005>
-434.000152587891

> <b_mmod_Minimization_Converged-OPLS-2005>
0

> <r_mmod_RMS_Derivative-OPLS-2005>
3.80571627616882

$$$$
9
                    3D
 Structure written by MMmdl.
154163  0  0  1  0            999 V2000
  -30.5798  -14.7709   20.4610 C   0  0  0  0  0  0
  -30.4556  -12.4721   19.4729 C   0  0  0  0  0  0
  -29.5235  -12.5028   18.2402 C   0  0  0  0  0  0
  -28.0499  -12.3166   18.6572 C   0  0  0  0  0  0
  -27.6490  -13.2223   19.8516 C   0  0  2  0  0  0
  -28.6949  -13.1539   20.9865 C   0  0  0  0  0  0
  -25.2566  -13.8178   20.5669 C   0  0  0  0  0  0
  -24.1838  -13.0441   20.9183 C   0  0  0  0  0  0
  -24.6408  -11.6913   20.8736 C   0  0  0  0  0  0
  -23.9075  -10.4295   21.0405 C   0  0  0  0  0  0
  -24.3622   -9.4211   21.9185 C   0  0  0  0  0  0
  -23.6287   -8.2259   22.0768 C   0  0  0  0  0  0
  -22.4278   -8.0290   21.3551 C   0  0  0  0  0  0
  -21.9910   -9.0266   20.4650 C   0  0  0  0  0  0
  -22.7255  -10.2137   20.3050 C   0  0  0  0  0  0
  -21.6855   -6.0732   22.5275 C   0  0  0  0  0  0
  -21.4021   -6.5637   23.8209 C   0  0  0  0  0  0
  -21.3650   -5.6789   24.9165 C   0  0  0  0  0  0
  -21.6045   -4.3053   24.7220 C   0  0  0  0  0  0
  -21.8824   -3.8142   23.4342 C   0  0  0  0  0  0
  -21.9198   -4.6957   22.3398 C   0  0  0  0  0  0
  -22.7858  -13.5232   21.1829 C   0  0  0  0  0  0
  -22.1664   -4.2147   21.0972 F   0  0  0  0  0  0
  -21.5620   -3.4528   25.7727 F   0  0  0  0  0  0
  -29.9944  -13.5243   20.4073 N   0  0  0  0  0  0
  -26.2981  -12.9359   20.3274 N   0  0  0  0  0  0
  -25.9339  -11.6515   20.5753 N   0  0  0  0  0  0
  -22.0482  -12.8237   22.0375 N   0  0  0  0  0  0
  -25.4289  -15.1908   20.4071 N   0  0  0  0  0  0
  -31.7691  -14.9073   20.1544 O   0  0  0  0  0  0
  -21.6645   -6.8889   21.4242 O   0  0  0  0  0  0
  -22.3559  -14.5546   20.6684 O   0  0  0  0  0  0
  -24.6337  -31.8525   23.1925 C   0  0  0  0  0  0
  -25.9130  -32.4753   23.8301 C   0  0  1  0  0  0
  -27.2314  -27.2480   20.1483 C   0  0  0  0  0  0
  -25.5931  -33.8552   24.2251 N   0  0  0  0  0  0
  -23.4338  -30.4719   21.5357 C   0  0  2  0  0  0
  -24.8858  -28.9080   20.1161 C   0  0  0  0  0  0
  -22.7509  -29.4606   22.4888 C   0  0  0  0  0  0
  -18.0295  -28.1427   22.8495 C   0  0  0  0  0  0
  -24.1474  -36.7255   23.2636 C   0  0  0  0  0  0
  -25.9790  -30.7644   21.3717 C   0  0  0  0  0  0
  -26.0571  -29.3807   20.7236 C   0  0  0  0  0  0
  -27.2368  -28.5648   20.7230 C   0  0  0  0  0  0
  -26.0383  -26.8371   19.5213 C   0  0  0  0  0  0
  -24.8817  -27.6458   19.5005 C   0  0  0  0  0  0
  -23.6547  -29.7959   20.1565 C   0  0  0  0  0  0
  -25.4114  -36.3063   24.0323 C   0  0  1  0  0  0
  -20.5897  -28.3726   23.1262 C   0  0  2  0  0  0
  -20.6794  -26.9447   22.5406 C   0  0  0  0  0  0
  -19.5762  -26.6410   21.5219 C   0  0  0  0  0  0
  -18.1932  -26.7990   22.1615 C   0  0  0  0  0  0
  -19.1547  -28.8899   23.2877 C   0  0  0  0  0  0
  -18.9484  -30.1505   23.8884 C   0  0  0  0  0  0
  -17.6477  -30.6623   24.0587 C   0  0  0  0  0  0
  -25.9053  -34.9443   23.5093 C   0  0  0  0  0  0
  -16.5362  -29.9130   23.6349 C   0  0  0  0  0  0
  -16.7277  -28.6554   23.0354 C   0  0  0  0  0  0
  -26.4508  -31.6576   25.0680 C   0  0  0  0  0  0
  -25.3721  -31.3750   26.1390 C   0  0  0  0  0  0
  -27.0343  -30.2998   24.6156 C   0  0  0  0  0  0
  -27.6077  -32.4301   25.7463 C   0  0  0  0  0  0
  -27.5584  -37.1779   24.8472 C   0  0  0  0  0  0
  -21.4221  -29.3052   22.3633 N   0  0  0  0  0  0
  -26.4293  -37.3761   23.9421 N   0  0  0  0  0  0
  -24.7009  -31.0479   22.0912 N   0  0  0  0  0  0
  -23.4190  -28.8157   23.3006 O   0  0  0  0  0  0
  -28.3204  -26.3452   20.1307 O   0  0  0  0  0  0
  -26.5609  -34.8931   22.4659 O   0  0  0  0  0  0
  -23.5475  -32.1360   23.7206 O   0  0  0  0  0  0
  -30.7369  -19.5074   20.8388 C   0  0  0  0  0  0
  -30.9692  -18.0666   20.8827 C   0  0  0  0  0  0
  -29.4686  -19.9212   20.4743 C   0  0  0  0  0  0
  -29.8827  -17.2600   20.5951 C   0  0  0  0  0  0
  -28.4480  -23.5980   20.3952 C   0  0  0  0  0  0
  -29.2049  -22.5488   20.8685 C   0  0  0  0  0  0
  -27.5257  -23.0335   19.3425 C   0  0  0  0  0  0
  -27.8372  -21.5005   19.3285 C   0  0  0  0  0  0
  -30.1785  -22.6080   22.0302 C   0  0  0  0  0  0
  -28.2359  -25.0925   20.9582 C   0  0  0  0  0  0
  -28.9196  -21.2719   20.2895 N   0  0  0  0  0  0
  -29.7276  -15.8574   20.6371 N   0  0  0  0  0  0
  -28.5485  -18.4032   20.2042 S   0  0  0  0  0  0
  -31.4896  -12.6307   19.1616 H   0  0  0  0  0  0
  -30.4363  -11.4961   19.9605 H   0  0  0  0  0  0
  -29.8161  -11.7247   17.5342 H   0  0  0  0  0  0
  -29.6411  -13.4530   17.7172 H   0  0  0  0  0  0
  -27.9191  -11.2692   18.9314 H   0  0  0  0  0  0
  -27.3918  -12.4943   17.8068 H   0  0  0  0  0  0
  -27.6440  -14.2413   19.4649 H   0  0  0  0  0  0
  -28.7409  -12.1522   21.4171 H   0  0  0  0  0  0
  -28.4226  -13.8226   21.8051 H   0  0  0  0  0  0
  -25.2767   -9.5678   22.4753 H   0  0  0  0  0  0
  -23.9980   -7.4651   22.7496 H   0  0  0  0  0  0
  -21.0844   -8.8792   19.8951 H   0  0  0  0  0  0
  -22.3731  -10.9668   19.6141 H   0  0  0  0  0  0
  -21.2025   -7.6146   23.9712 H   0  0  0  0  0  0
  -21.1459   -6.0512   25.9069 H   0  0  0  0  0  0
  -22.0614   -2.7605   23.2838 H   0  0  0  0  0  0
  -22.4057  -11.9851   22.4709 H   0  0  0  0  0  0
  -21.1118  -13.1311   22.2599 H   0  0  0  0  0  0
  -24.6623  -15.8451   20.5215 H   0  0  0  0  0  0
  -26.2666  -15.6266   20.0439 H   0  0  0  0  0  0
  -26.7210  -32.5406   23.1058 H   0  0  0  0  0  0
  -25.0145  -33.9698   25.0450 H   0  0  0  0  0  0
  -22.7334  -31.2957   21.3843 H   0  0  0  0  0  0
  -23.3765  -35.9552   23.3287 H   0  0  0  0  0  0
  -24.3588  -36.8879   22.2056 H   0  0  0  0  0  0
  -23.7200  -37.6447   23.6660 H   0  0  0  0  0  0
  -26.1089  -31.5170   20.5919 H   0  0  0  0  0  0
  -26.8617  -30.8282   21.9975 H   0  0  0  0  0  0
  -28.1410  -28.9318   21.1919 H   0  0  0  0  0  0
  -26.0002  -25.8620   19.0567 H   0  0  0  0  0  0
  -23.9865  -27.2836   19.0148 H   0  0  0  0  0  0
  -23.7790  -30.5677   19.3965 H   0  0  0  0  0  0
  -22.7729  -29.2254   19.8572 H   0  0  0  0  0  0
  -25.1300  -36.1899   25.0812 H   0  0  0  0  0  0
  -21.0001  -28.3327   24.1375 H   0  0  0  0  0  0
  -20.5715  -26.2342   23.3618 H   0  0  0  0  0  0
  -21.6665  -26.7494   22.1179 H   0  0  0  0  0  0
  -19.6925  -25.6313   21.1259 H   0  0  0  0  0  0
  -19.6717  -27.3226   20.6758 H   0  0  0  0  0  0
  -17.4220  -26.6751   21.3996 H   0  0  0  0  0  0
  -18.0314  -26.0157   22.9025 H   0  0  0  0  0  0
  -19.7951  -30.7342   24.2228 H   0  0  0  0  0  0
  -17.5031  -31.6295   24.5218 H   0  0  0  0  0  0
  -15.5363  -30.3035   23.7691 H   0  0  0  0  0  0
  -15.8679  -28.0881   22.7041 H   0  0  0  0  0  0
  -24.5940  -30.7038   25.7736 H   0  0  0  0  0  0
  -24.8846  -32.2916   26.4700 H   0  0  0  0  0  0
  -25.8022  -30.9031   27.0225 H   0  0  0  0  0  0
  -26.2915  -29.6745   24.1190 H   0  0  0  0  0  0
  -27.4067  -29.7244   25.4637 H   0  0  0  0  0  0
  -27.8762  -30.4288   23.9362 H   0  0  0  0  0  0
  -27.2742  -33.3662   26.1951 H   0  0  0  0  0  0
  -28.3954  -32.6746   25.0322 H   0  0  0  0  0  0
  -28.0669  -31.8456   26.5449 H   0  0  0  0  0  0
  -28.2578  -38.0088   24.7546 H   0  0  0  0  0  0
  -28.1092  -36.2633   24.6257 H   0  0  0  0  0  0
  -27.2311  -37.1380   25.8869 H   0  0  0  0  0  0
  -20.9409  -29.8732   21.6803 H   0  0  0  0  0  0
  -26.0158  -38.2814   24.1460 H   0  0  0  0  0  0
  -31.5407  -20.1934   21.0620 H   0  0  0  0  0  0
  -31.9404  -17.6803   21.1590 H   0  0  0  0  0  0
  -27.7241  -23.4991   18.3777 H   0  0  0  0  0  0
  -26.4853  -23.2171   19.6126 H   0  0  0  0  0  0
  -28.1476  -21.1743   18.3352 H   0  0  0  0  0  0
  -26.9516  -20.9283   19.6091 H   0  0  0  0  0  0
  -29.8736  -23.3550   22.7634 H   0  0  0  0  0  0
  -31.1762  -22.8682   21.6737 H   0  0  0  0  0  0
  -30.2427  -21.6540   22.5546 H   0  0  0  0  0  0
  -28.9603  -25.2328   21.7599 H   0  0  0  0  0  0
  -27.2681  -25.0824   21.4627 H   0  0  0  0  0  0
  -28.7729  -15.5593   20.7628 H   0  0  0  0  0  0
  1 25  1  0  0  0
  1 30  2  0  0  0
  1 82  1  0  0  0
  2  3  1  0  0  0
  2 25  1  0  0  0
  2 84  1  0  0  0
  2 85  1  0  0  0
  3  4  1  0  0  0
  3 86  1  0  0  0
  3 87  1  0  0  0
  4  5  1  0  0  0
  4 88  1  0  0  0
  4 89  1  0  0  0
  5  6  1  0  0  0
  5 26  1  0  0  0
  5 90  1  0  0  0
  6 25  1  0  0  0
  6 91  1  0  0  0
  6 92  1  0  0  0
  7  8  2  0  0  0
  7 26  1  0  0  0
  7 29  1  0  0  0
  8  9  1  0  0  0
  8 22  1  0  0  0
  9 10  1  0  0  0
  9 27  2  0  0  0
 10 11  2  0  0  0
 10 15  1  0  0  0
 11 12  1  0  0  0
 11 93  1  0  0  0
 12 13  2  0  0  0
 12 94  1  0  0  0
 13 14  1  0  0  0
 13 31  1  0  0  0
 14 15  2  0  0  0
 14 95  1  0  0  0
 15 96  1  0  0  0
 16 17  2  0  0  0
 16 21  1  0  0  0
 16 31  1  0  0  0
 17 18  1  0  0  0
 17 97  1  0  0  0
 18 19  2  0  0  0
 18 98  1  0  0  0
 19 20  1  0  0  0
 19 24  1  0  0  0
 20 21  2  0  0  0
 20 99  1  0  0  0
 21 23  1  0  0  0
 22 28  1  0  0  0
 22 32  2  0  0  0
 26 27  1  0  0  0
 28100  1  0  0  0
 28101  1  0  0  0
 29102  1  0  0  0
 29103  1  0  0  0
 33 34  1  0  0  0
 33 66  1  0  0  0
 33 70  2  0  0  0
 34 36  1  0  0  0
 34 59  1  0  0  0
 34104  1  0  0  0
 35 44  2  0  0  0
 35 45  1  0  0  0
 35 68  1  0  0  0
 36 56  1  0  0  0
 36105  1  0  0  0
 37 39  1  0  0  0
 37 47  1  0  0  0
 37 66  1  0  0  0
 37106  1  0  0  0
 38 43  2  0  0  0
 38 46  1  0  0  0
 38 47  1  0  0  0
 39 64  1  0  0  0
 39 67  2  0  0  0
 40 52  1  0  0  0
 40 53  2  0  0  0
 40 58  1  0  0  0
 41107  1  0  0  0
 41108  1  0  0  0
 41109  1  0  0  0
 41 48  1  0  0  0
 42 43  1  0  0  0
 42 66  1  0  0  0
 42110  1  0  0  0
 42111  1  0  0  0
 43 44  1  0  0  0
 44112  1  0  0  0
 45 46  2  0  0  0
 45113  1  0  0  0
 46114  1  0  0  0
 47115  1  0  0  0
 47116  1  0  0  0
 48 56  1  0  0  0
 48 65  1  0  0  0
 48117  1  0  0  0
 49 50  1  0  0  0
 49 53  1  0  0  0
 49 64  1  0  0  0
 49118  1  0  0  0
 50 51  1  0  0  0
 50119  1  0  0  0
 50120  1  0  0  0
 51 52  1  0  0  0
 51121  1  0  0  0
 51122  1  0  0  0
 52123  1  0  0  0
 52124  1  0  0  0
 53 54  1  0  0  0
 54 55  2  0  0  0
 54125  1  0  0  0
 55 57  1  0  0  0
 55126  1  0  0  0
 56 69  2  0  0  0
 57 58  2  0  0  0
 57127  1  0  0  0
 58128  1  0  0  0
 59 60  1  0  0  0
 59 61  1  0  0  0
 59 62  1  0  0  0
 60129  1  0  0  0
 60130  1  0  0  0
 60131  1  0  0  0
 61132  1  0  0  0
 61133  1  0  0  0
 61134  1  0  0  0
 62135  1  0  0  0
 62136  1  0  0  0
 62137  1  0  0  0
 63 65  1  0  0  0
 63138  1  0  0  0
 63139  1  0  0  0
 63140  1  0  0  0
 64141  1  0  0  0
 65142  1  0  0  0
 68 80  1  0  0  0
 71 72  1  0  0  0
 71 73  2  0  0  0
 71143  1  0  0  0
 72 74  2  0  0  0
 72144  1  0  0  0
 73 81  1  0  0  0
 73 83  1  0  0  0
 74 82  1  0  0  0
 74 83  1  0  0  0
 75 76  2  0  0  0
 75 77  1  0  0  0
 75 80  1  0  0  0
 76 79  1  0  0  0
 76 81  1  0  0  0
 77 78  1  0  0  0
 77145  1  0  0  0
 77146  1  0  0  0
 78 81  1  0  0  0
 78147  1  0  0  0
 78148  1  0  0  0
 79149  1  0  0  0
 79150  1  0  0  0
 79151  1  0  0  0
 80152  1  0  0  0
 80153  1  0  0  0
 82154  1  0  0  0
M  ISO  4   1 100  68 101  80 101  82 100
M  END
> <chiral flag>
0

> <version>
0

> <s_m_source_file>
/data/baiqing/PycharmProjects/Reinvent-master-3.2/result/LINK_invent/BTK/process_docking_weight1_custom_product_contain_oxygen_bond_distance_aromatic_linkinvent_7_9_3/rearranged_h_0152.sdf

> <i_m_source_file_index>
10

> <r_mmod_Potential_Energy-OPLS-2005>
239.289566040039

> <r_mmod_Stretch_Energy-OPLS-2005>
115.714683532715

> <r_mmod_Bend_Energy-OPLS-2005>
233.708297729492

> <r_mmod_Torsional_Energy-OPLS-2005>
246.955917358398

> <r_mmod_Improper_Torsional_Energy-OPLS-2005>
6.1264796257019

> <r_mmod_Van_der_Waal_Energy-OPLS-2005>
105.927131652832

> <r_mmod_Electrostatic_Energy-OPLS-2005>
-355.921966552734

> <r_mmod_Solvation_Energy-OPLS-2005>
-208.265853881836

> <b_mmod_Minimization_Converged-OPLS-2005>
0

> <r_mmod_RMS_Derivative-OPLS-2005>
2.99454069137573

$$$$
10
                    3D
 Structure written by MMmdl.
149158  0  0  1  0            999 V2000
  -30.4880  -15.1207   20.3395 C   0  0  0  0  0  0
  -30.4483  -12.6954   19.4914 C   0  0  0  0  0  0
  -29.5226  -12.4663   18.2688 C   0  0  0  0  0  0
  -28.0584  -12.2727   18.7011 C   0  0  0  0  0  0
  -27.6176  -13.2536   19.8177 C   0  0  2  0  0  0
  -28.6660  -13.3816   20.9402 C   0  0  0  0  0  0
  -25.2450  -13.8235   20.5751 C   0  0  0  0  0  0
  -24.1764  -13.0451   20.9249 C   0  0  0  0  0  0
  -24.6384  -11.6937   20.8779 C   0  0  0  0  0  0
  -23.9073  -10.4299   21.0419 C   0  0  0  0  0  0
  -24.3624   -9.4210   21.9192 C   0  0  0  0  0  0
  -23.6300   -8.2244   22.0754 C   0  0  0  0  0  0
  -22.4282   -8.0282   21.3543 C   0  0  0  0  0  0
  -21.9919   -9.0257   20.4647 C   0  0  0  0  0  0
  -22.7247  -10.2138   20.3063 C   0  0  0  0  0  0
  -21.6855   -6.0736   22.5279 C   0  0  0  0  0  0
  -21.4015   -6.5640   23.8212 C   0  0  0  0  0  0
  -21.3660   -5.6793   24.9174 C   0  0  0  0  0  0
  -21.6043   -4.3054   24.7225 C   0  0  0  0  0  0
  -21.8818   -3.8147   23.4345 C   0  0  0  0  0  0
  -21.9192   -4.6964   22.3403 C   0  0  0  0  0  0
  -22.7783  -13.5216   21.1893 C   0  0  0  0  0  0
  -22.1661   -4.2150   21.0981 F   0  0  0  0  0  0
  -21.5630   -3.4538   25.7738 F   0  0  0  0  0  0
  -29.9064  -13.8362   20.2965 N   0  0  0  0  0  0
  -26.2855  -12.9467   20.3244 N   0  0  0  0  0  0
  -25.9316  -11.6596   20.5774 N   0  0  0  0  0  0
  -22.0429  -12.8200   22.0440 N   0  0  0  0  0  0
  -25.4149  -15.1962   20.4201 N   0  0  0  0  0  0
  -31.7260  -15.1228   20.2780 O   0  0  0  0  0  0
  -21.6642   -6.8880   21.4240 O   0  0  0  0  0  0
  -22.3468  -14.5520   20.6733 O   0  0  0  0  0  0
  -24.6525  -31.8356   23.1805 C   0  0  0  0  0  0
  -25.9260  -32.4648   23.8228 C   0  0  1  0  0  0
  -27.2163  -27.0393   20.1763 C   0  0  0  0  0  0
  -25.5974  -33.8459   24.2139 N   0  0  0  0  0  0
  -23.4614  -30.4516   21.5276 C   0  0  2  0  0  0
  -24.9135  -28.8590   20.1151 C   0  0  0  0  0  0
  -22.7616  -29.4507   22.4822 C   0  0  0  0  0  0
  -18.0317  -28.1402   22.8473 C   0  0  0  0  0  0
  -24.1492  -36.7228   23.2634 C   0  0  0  0  0  0
  -26.0244  -30.6782   21.3953 C   0  0  0  0  0  0
  -26.0948  -29.2789   20.7404 C   0  0  0  0  0  0
  -27.2471  -28.3891   20.7469 C   0  0  0  0  0  0
  -26.0097  -26.7468   19.5041 C   0  0  0  0  0  0
  -24.8896  -27.6096   19.4775 C   0  0  0  0  0  0
  -23.6950  -29.7739   20.1508 C   0  0  0  0  0  0
  -25.4122  -36.2999   24.0306 C   0  0  1  0  0  0
  -20.5934  -28.3742   23.1210 C   0  0  2  0  0  0
  -20.6798  -26.9435   22.5399 C   0  0  0  0  0  0
  -19.5769  -26.6383   21.5212 C   0  0  0  0  0  0
  -18.1953  -26.7940   22.1624 C   0  0  0  0  0  0
  -19.1575  -28.8891   23.2832 C   0  0  0  0  0  0
  -18.9487  -30.1482   23.8865 C   0  0  0  0  0  0
  -17.6481  -30.6595   24.0559 C   0  0  0  0  0  0
  -25.9092  -34.9383   23.5037 C   0  0  0  0  0  0
  -16.5372  -29.9086   23.6339 C   0  0  0  0  0  0
  -16.7299  -28.6503   23.0362 C   0  0  0  0  0  0
  -26.4548  -31.6549   25.0711 C   0  0  0  0  0  0
  -25.3700  -31.3769   26.1382 C   0  0  0  0  0  0
  -27.0433  -30.2929   24.6372 C   0  0  0  0  0  0
  -27.6056  -32.4340   25.7508 C   0  0  0  0  0  0
  -27.5593  -37.1739   24.8438 C   0  0  0  0  0  0
  -21.4299  -29.3051   22.3569 N   0  0  0  0  0  0
  -26.4262  -37.3740   23.9443 N   0  0  0  0  0  0
  -24.7330  -31.0124   22.0886 N   0  0  0  0  0  0
  -23.4213  -28.8067   23.3019 O   0  0  0  0  0  0
  -28.2437  -25.9953   20.2057 O   0  0  0  0  0  0
  -26.5690  -34.8900   22.4624 O   0  0  0  0  0  0
  -23.5620  -32.1277   23.6964 O   0  0  0  0  0  0
  -29.2121  -19.0593   20.7635 C   0  0  0  0  0  0
  -29.7683  -17.8716   19.9671 C   0  0  0  0  0  0
  -30.1043  -18.3856   18.7611 C   0  0  0  0  0  0
  -29.2319  -20.4052   20.1686 C   0  0  0  0  0  0
  -28.8422  -23.0988   20.0504 C   0  0  0  0  0  0
  -30.3209  -17.3789   17.7260 C   0  0  0  0  0  0
  -29.6952  -16.1268   18.3787 C   0  0  0  0  0  0
  -27.9267  -24.4559   20.5185 C   0  0  0  0  0  0
  -29.7422  -16.2890   19.8656 N   0  0  0  0  0  0
  -28.7184  -21.7353   20.5447 N   0  0  0  0  0  0
  -29.7011  -23.3212   19.1931 O   0  0  0  0  0  0
  -29.9665  -20.1425   18.5825 S   0  0  0  0  0  0
  -31.4626  -12.8982   19.1442 H   0  0  0  0  0  0
  -30.5165  -11.7938   20.1021 H   0  0  0  0  0  0
  -29.8577  -11.5898   17.7127 H   0  0  0  0  0  0
  -29.5842  -13.2901   17.5633 H   0  0  0  0  0  0
  -27.9681  -11.2483   19.0633 H   0  0  0  0  0  0
  -27.3930  -12.3477   17.8402 H   0  0  0  0  0  0
  -27.5472  -14.2278   19.3338 H   0  0  0  0  0  0
  -28.8050  -12.4375   21.4689 H   0  0  0  0  0  0
  -28.3425  -14.1154   21.6805 H   0  0  0  0  0  0
  -25.2763   -9.5688   22.4773 H   0  0  0  0  0  0
  -24.0007   -7.4632   22.7472 H   0  0  0  0  0  0
  -21.0851   -8.8776   19.8952 H   0  0  0  0  0  0
  -22.3701  -10.9680   19.6176 H   0  0  0  0  0  0
  -21.2008   -7.6149   23.9718 H   0  0  0  0  0  0
  -21.1484   -6.0522   25.9078 H   0  0  0  0  0  0
  -22.0596   -2.7610   23.2845 H   0  0  0  0  0  0
  -22.4048  -11.9862   22.4832 H   0  0  0  0  0  0
  -21.1040  -13.1214   22.2639 H   0  0  0  0  0  0
  -24.6534  -15.8546   20.5440 H   0  0  0  0  0  0
  -26.2774  -15.6379   20.1275 H   0  0  0  0  0  0
  -26.7327  -32.5227   23.0950 H   0  0  0  0  0  0
  -25.0089  -33.9559   25.0266 H   0  0  0  0  0  0
  -22.7691  -31.2801   21.3649 H   0  0  0  0  0  0
  -23.3790  -35.9517   23.3199 H   0  0  0  0  0  0
  -24.3596  -36.8967   22.2069 H   0  0  0  0  0  0
  -23.7193  -37.6367   23.6742 H   0  0  0  0  0  0
  -26.1941  -31.4266   20.6200 H   0  0  0  0  0  0
  -26.8887  -30.7302   22.0457 H   0  0  0  0  0  0
  -28.1468  -28.7097   21.2531 H   0  0  0  0  0  0
  -25.9079  -25.7983   18.9983 H   0  0  0  0  0  0
  -23.9929  -27.2854   18.9675 H   0  0  0  0  0  0
  -23.8417  -30.5450   19.3936 H   0  0  0  0  0  0
  -22.8078  -29.2217   19.8360 H   0  0  0  0  0  0
  -25.1301  -36.1791   25.0792 H   0  0  0  0  0  0
  -21.0030  -28.3340   24.1330 H   0  0  0  0  0  0
  -20.5691  -26.2360   23.3630 H   0  0  0  0  0  0
  -21.6663  -26.7431   22.1198 H   0  0  0  0  0  0
  -19.6933  -25.6285   21.1264 H   0  0  0  0  0  0
  -19.6703  -27.3176   20.6727 H   0  0  0  0  0  0
  -17.4223  -26.6683   21.4027 H   0  0  0  0  0  0
  -18.0352  -26.0087   22.9027 H   0  0  0  0  0  0
  -19.7961  -30.7309   24.2221 H   0  0  0  0  0  0
  -17.5031  -31.6271   24.5167 H   0  0  0  0  0  0
  -15.5371  -30.2976   23.7679 H   0  0  0  0  0  0
  -15.8699  -28.0806   22.7100 H   0  0  0  0  0  0
  -24.5895  -30.7106   25.7690 H   0  0  0  0  0  0
  -24.8874  -32.2960   26.4712 H   0  0  0  0  0  0
  -25.7950  -30.8998   27.0222 H   0  0  0  0  0  0
  -26.3080  -29.6628   24.1358 H   0  0  0  0  0  0
  -27.3981  -29.7261   25.4989 H   0  0  0  0  0  0
  -27.9014  -30.4135   23.9758 H   0  0  0  0  0  0
  -27.2630  -33.3663   26.2012 H   0  0  0  0  0  0
  -28.3907  -32.6870   25.0369 H   0  0  0  0  0  0
  -28.0688  -31.8521   26.5488 H   0  0  0  0  0  0
  -28.2485  -38.0159   24.7657 H   0  0  0  0  0  0
  -28.1216  -36.2701   24.6038 H   0  0  0  0  0  0
  -27.2345  -37.1100   25.8839 H   0  0  0  0  0  0
  -20.9533  -29.8738   21.6710 H   0  0  0  0  0  0
  -26.0109  -38.2776   24.1553 H   0  0  0  0  0  0
  -28.7507  -18.8706   21.7221 H   0  0  0  0  0  0
  -31.3886  -17.2454   17.5460 H   0  0  0  0  0  0
  -29.8387  -17.6400   16.7831 H   0  0  0  0  0  0
  -30.1985  -15.2595   17.9534 H   0  0  0  0  0  0
  -28.6448  -16.0517   18.0937 H   0  0  0  0  0  0
  -27.8470  -24.3924   21.6036 H   0  0  0  0  0  0
  -26.9214  -24.2413   20.1613 H   0  0  0  0  0  0
  -28.0748  -21.6982   21.3247 H   0  0  0  0  0  0
  1 25  1  0  0  0
  1 30  2  0  0  0
  1 79  1  0  0  0
  2  3  1  0  0  0
  2 25  1  0  0  0
  2 83  1  0  0  0
  2 84  1  0  0  0
  3  4  1  0  0  0
  3 85  1  0  0  0
  3 86  1  0  0  0
  4  5  1  0  0  0
  4 87  1  0  0  0
  4 88  1  0  0  0
  5  6  1  0  0  0
  5 26  1  0  0  0
  5 89  1  0  0  0
  6 25  1  0  0  0
  6 90  1  0  0  0
  6 91  1  0  0  0
  7  8  2  0  0  0
  7 26  1  0  0  0
  7 29  1  0  0  0
  8  9  1  0  0  0
  8 22  1  0  0  0
  9 10  1  0  0  0
  9 27  2  0  0  0
 10 11  2  0  0  0
 10 15  1  0  0  0
 11 12  1  0  0  0
 11 92  1  0  0  0
 12 13  2  0  0  0
 12 93  1  0  0  0
 13 14  1  0  0  0
 13 31  1  0  0  0
 14 15  2  0  0  0
 14 94  1  0  0  0
 15 95  1  0  0  0
 16 17  2  0  0  0
 16 21  1  0  0  0
 16 31  1  0  0  0
 17 18  1  0  0  0
 17 96  1  0  0  0
 18 19  2  0  0  0
 18 97  1  0  0  0
 19 20  1  0  0  0
 19 24  1  0  0  0
 20 21  2  0  0  0
 20 98  1  0  0  0
 21 23  1  0  0  0
 22 28  1  0  0  0
 22 32  2  0  0  0
 26 27  1  0  0  0
 28 99  1  0  0  0
 28100  1  0  0  0
 29101  1  0  0  0
 29102  1  0  0  0
 33 34  1  0  0  0
 33 66  1  0  0  0
 33 70  2  0  0  0
 34 36  1  0  0  0
 34 59  1  0  0  0
 34103  1  0  0  0
 35 44  2  0  0  0
 35 45  1  0  0  0
 35 68  1  0  0  0
 36 56  1  0  0  0
 36104  1  0  0  0
 37 39  1  0  0  0
 37 47  1  0  0  0
 37 66  1  0  0  0
 37105  1  0  0  0
 38 43  2  0  0  0
 38 46  1  0  0  0
 38 47  1  0  0  0
 39 64  1  0  0  0
 39 67  2  0  0  0
 40 52  1  0  0  0
 40 53  2  0  0  0
 40 58  1  0  0  0
 41106  1  0  0  0
 41107  1  0  0  0
 41108  1  0  0  0
 41 48  1  0  0  0
 42 43  1  0  0  0
 42 66  1  0  0  0
 42109  1  0  0  0
 42110  1  0  0  0
 43 44  1  0  0  0
 44111  1  0  0  0
 45 46  2  0  0  0
 45112  1  0  0  0
 46113  1  0  0  0
 47114  1  0  0  0
 47115  1  0  0  0
 48 56  1  0  0  0
 48 65  1  0  0  0
 48116  1  0  0  0
 49 50  1  0  0  0
 49 53  1  0  0  0
 49 64  1  0  0  0
 49117  1  0  0  0
 50 51  1  0  0  0
 50118  1  0  0  0
 50119  1  0  0  0
 51 52  1  0  0  0
 51120  1  0  0  0
 51121  1  0  0  0
 52122  1  0  0  0
 52123  1  0  0  0
 53 54  1  0  0  0
 54 55  2  0  0  0
 54124  1  0  0  0
 55 57  1  0  0  0
 55125  1  0  0  0
 56 69  2  0  0  0
 57 58  2  0  0  0
 57126  1  0  0  0
 58127  1  0  0  0
 59 60  1  0  0  0
 59 61  1  0  0  0
 59 62  1  0  0  0
 60128  1  0  0  0
 60129  1  0  0  0
 60130  1  0  0  0
 61131  1  0  0  0
 61132  1  0  0  0
 61133  1  0  0  0
 62134  1  0  0  0
 62135  1  0  0  0
 62136  1  0  0  0
 63 65  1  0  0  0
 63137  1  0  0  0
 63138  1  0  0  0
 63139  1  0  0  0
 64140  1  0  0  0
 65141  1  0  0  0
 68 78  1  0  0  0
 71 72  1  0  0  0
 71 74  2  0  0  0
 71142  1  0  0  0
 72 73  2  0  0  0
 72 79  1  0  0  0
 73 76  1  0  0  0
 73 82  1  0  0  0
 74 80  1  0  0  0
 74 82  1  0  0  0
 75 78  1  0  0  0
 75 80  1  0  0  0
 75 81  2  0  0  0
 76 77  1  0  0  0
 76143  1  0  0  0
 76144  1  0  0  0
 77 79  1  0  0  0
 77145  1  0  0  0
 77146  1  0  0  0
 78147  1  0  0  0
 78148  1  0  0  0
 80149  1  0  0  0
M  ISO  4   1 100  68 101  78 101  79 100
M  END
> <chiral flag>
0

> <version>
0

> <s_m_source_file>
/data/baiqing/PycharmProjects/Reinvent-master-3.2/result/LINK_invent/BTK/process_docking_weight1_custom_product_contain_oxygen_bond_distance_aromatic_linkinvent_7_9_3/rearranged_h_0152.sdf

> <i_m_source_file_index>
11

> <r_mmod_Potential_Energy-OPLS-2005>
1071.09448242188

> <r_mmod_Stretch_Energy-OPLS-2005>
371.865356445312

> <r_mmod_Bend_Energy-OPLS-2005>
431.023590087891

> <r_mmod_Torsional_Energy-OPLS-2005>
333.284790039062

> <r_mmod_Improper_Torsional_Energy-OPLS-2005>
33.6517562866211

> <r_mmod_Van_der_Waal_Energy-OPLS-2005>
110.938140869141

> <r_mmod_Electrostatic_Energy-OPLS-2005>
-290.664459228516

> <r_mmod_Solvation_Energy-OPLS-2005>
-237.80859375

> <b_mmod_Minimization_Converged-OPLS-2005>
0

> <r_mmod_RMS_Derivative-OPLS-2005>
0.452613532543182

$$$$
11
                    3D
 Structure written by MMmdl.
155164  0  0  1  0            999 V2000
  -30.6424  -14.7580   20.4585 C   0  0  0  0  0  0
  -30.4265  -12.4682   19.4794 C   0  0  0  0  0  0
  -29.5087  -12.5074   18.2388 C   0  0  0  0  0  0
  -28.0361  -12.3315   18.6541 C   0  0  0  0  0  0
  -27.6392  -13.2397   19.8484 C   0  0  2  0  0  0
  -28.6856  -13.2044   20.9844 C   0  0  0  0  0  0
  -25.2498  -13.8216   20.5710 C   0  0  0  0  0  0
  -24.1800  -13.0448   20.9216 C   0  0  0  0  0  0
  -24.6404  -11.6929   20.8755 C   0  0  0  0  0  0
  -23.9086  -10.4298   21.0406 C   0  0  0  0  0  0
  -24.3632   -9.4210   21.9184 C   0  0  0  0  0  0
  -23.6299   -8.2250   22.0757 C   0  0  0  0  0  0
  -22.4281   -8.0289   21.3547 C   0  0  0  0  0  0
  -21.9922   -9.0265   20.4649 C   0  0  0  0  0  0
  -22.7258  -10.2140   20.3056 C   0  0  0  0  0  0
  -21.6856   -6.0740   22.5277 C   0  0  0  0  0  0
  -21.4017   -6.5642   23.8211 C   0  0  0  0  0  0
  -21.3658   -5.6792   24.9170 C   0  0  0  0  0  0
  -21.6043   -4.3056   24.7219 C   0  0  0  0  0  0
  -21.8820   -3.8150   23.4340 C   0  0  0  0  0  0
  -21.9194   -4.6968   22.3397 C   0  0  0  0  0  0
  -22.7817  -13.5220   21.1862 C   0  0  0  0  0  0
  -22.1662   -4.2154   21.0976 F   0  0  0  0  0  0
  -21.5626   -3.4541   25.7731 F   0  0  0  0  0  0
  -29.9834  -13.5485   20.3931 N   0  0  0  0  0  0
  -26.2932  -12.9439   20.3292 N   0  0  0  0  0  0
  -25.9340  -11.6575   20.5769 N   0  0  0  0  0  0
  -22.0467  -12.8211   22.0418 N   0  0  0  0  0  0
  -25.4167  -15.1944   20.4134 N   0  0  0  0  0  0
  -31.8379  -14.8015   20.1584 O   0  0  0  0  0  0
  -21.6645   -6.8886   21.4240 O   0  0  0  0  0  0
  -22.3499  -14.5523   20.6701 O   0  0  0  0  0  0
  -24.6336  -31.8542   23.1995 C   0  0  0  0  0  0
  -25.9156  -32.4751   23.8338 C   0  0  1  0  0  0
  -27.2123  -27.2422   20.1261 C   0  0  0  0  0  0
  -25.5942  -33.8555   24.2255 N   0  0  0  0  0  0
  -23.4304  -30.4795   21.5435 C   0  0  2  0  0  0
  -24.8772  -28.9304   20.1071 C   0  0  0  0  0  0
  -22.7514  -29.4605   22.4908 C   0  0  0  0  0  0
  -18.0296  -28.1387   22.8479 C   0  0  0  0  0  0
  -24.1489  -36.7276   23.2638 C   0  0  0  0  0  0
  -25.9799  -30.7609   21.3839 C   0  0  0  0  0  0
  -26.0513  -29.3840   20.7219 C   0  0  0  0  0  0
  -27.2208  -28.5520   20.7225 C   0  0  0  0  0  0
  -26.0163  -26.8762   19.4630 C   0  0  0  0  0  0
  -24.8664  -27.6854   19.4662 C   0  0  0  0  0  0
  -23.6486  -29.8188   20.1583 C   0  0  0  0  0  0
  -25.4121  -36.3064   24.0322 C   0  0  1  0  0  0
  -20.5900  -28.3702   23.1259 C   0  0  2  0  0  0
  -20.6781  -26.9416   22.5403 C   0  0  0  0  0  0
  -19.5758  -26.6377   21.5208 C   0  0  0  0  0  0
  -18.1937  -26.7926   22.1621 C   0  0  0  0  0  0
  -19.1548  -28.8863   23.2860 C   0  0  0  0  0  0
  -18.9469  -30.1460   23.8885 C   0  0  0  0  0  0
  -17.6469  -30.6586   24.0558 C   0  0  0  0  0  0
  -25.9066  -34.9436   23.5091 C   0  0  0  0  0  0
  -16.5359  -29.9080   23.6334 C   0  0  0  0  0  0
  -16.7282  -28.6498   23.0358 C   0  0  0  0  0  0
  -26.4513  -31.6587   25.0740 C   0  0  0  0  0  0
  -25.3719  -31.3747   26.1450 C   0  0  0  0  0  0
  -27.0368  -30.2999   24.6253 C   0  0  0  0  0  0
  -27.6063  -32.4334   25.7518 C   0  0  0  0  0  0
  -27.5580  -37.1792   24.8467 C   0  0  0  0  0  0
  -21.4219  -29.3046   22.3647 N   0  0  0  0  0  0
  -26.4290  -37.3767   23.9414 N   0  0  0  0  0  0
  -24.7007  -31.0495   22.0982 N   0  0  0  0  0  0
  -23.4209  -28.8130   23.2999 O   0  0  0  0  0  0
  -28.2811  -26.3086   20.2092 O   0  0  0  0  0  0
  -26.5636  -34.8909   22.4659 O   0  0  0  0  0  0
  -23.5484  -32.1378   23.7280 O   0  0  0  0  0  0
  -29.1494  -19.8656   19.7674 C   0  0  0  0  0  0
  -29.8545  -18.7588   20.4146 C   0  0  0  0  0  0
  -30.4075  -19.1759   21.6400 C   0  0  0  0  0  0
  -29.2391  -21.1092   20.4684 C   0  0  0  0  0  0
  -28.9253  -23.6755   20.4782 C   0  0  0  0  0  0
  -30.5484  -17.3446   20.5569 C   0  0  1  0  0  0
  -31.0693  -17.8838   21.9970 C   0  0  0  0  0  0
  -32.5764  -18.0437   22.1773 C   0  0  0  0  0  0
  -30.4602  -17.2811   23.2638 C   0  0  0  0  0  0
  -27.9851  -24.8513   19.9136 C   0  0  0  0  0  0
  -28.7018  -22.3566   20.0826 N   0  0  0  0  0  0
  -29.9371  -15.9429   20.6424 N   0  0  0  0  0  0
  -29.8357  -23.9725   21.2572 O   0  0  0  0  0  0
  -30.1535  -20.8622   22.0064 S   0  0  0  0  0  0
  -31.4683  -12.5793   19.1744 H   0  0  0  0  0  0
  -30.3657  -11.4993   19.9773 H   0  0  0  0  0  0
  -29.7942  -11.7275   17.5314 H   0  0  0  0  0  0
  -29.6330  -13.4570   17.7158 H   0  0  0  0  0  0
  -27.8957  -11.2842   18.9236 H   0  0  0  0  0  0
  -27.3788  -12.5164   17.8037 H   0  0  0  0  0  0
  -27.6250  -14.2564   19.4556 H   0  0  0  0  0  0
  -28.7253  -12.2196   21.4526 H   0  0  0  0  0  0
  -28.4209  -13.9108   21.7734 H   0  0  0  0  0  0
  -25.2774   -9.5682   22.4764 H   0  0  0  0  0  0
  -24.0002   -7.4641   22.7479 H   0  0  0  0  0  0
  -21.0853   -8.8791   19.8953 H   0  0  0  0  0  0
  -22.3720  -10.9683   19.6167 H   0  0  0  0  0  0
  -21.2016   -7.6151   23.9713 H   0  0  0  0  0  0
  -21.1477   -6.0524   25.9071 H   0  0  0  0  0  0
  -22.0602   -2.7614   23.2839 H   0  0  0  0  0  0
  -22.4092  -11.9876   22.4806 H   0  0  0  0  0  0
  -21.1084  -13.1231   22.2621 H   0  0  0  0  0  0
  -24.6472  -15.8457   20.5252 H   0  0  0  0  0  0
  -26.2618  -15.6375   20.0766 H   0  0  0  0  0  0
  -26.7219  -32.5392   23.1074 H   0  0  0  0  0  0
  -25.0090  -33.9691   25.0402 H   0  0  0  0  0  0
  -22.7276  -31.3027   21.3993 H   0  0  0  0  0  0
  -23.3752  -35.9605   23.3305 H   0  0  0  0  0  0
  -24.3572  -36.8902   22.2049 H   0  0  0  0  0  0
  -23.7243  -37.6474   23.6671 H   0  0  0  0  0  0
  -26.1236  -31.5223   20.6156 H   0  0  0  0  0  0
  -26.8552  -30.8069   22.0203 H   0  0  0  0  0  0
  -28.1152  -28.8892   21.2275 H   0  0  0  0  0  0
  -25.9242  -25.9332   18.9468 H   0  0  0  0  0  0
  -23.9704  -27.3366   18.9715 H   0  0  0  0  0  0
  -23.7734  -30.5979   19.4051 H   0  0  0  0  0  0
  -22.7654  -29.2546   19.8522 H   0  0  0  0  0  0
  -25.1300  -36.1907   25.0811 H   0  0  0  0  0  0
  -20.9990  -28.3282   24.1382 H   0  0  0  0  0  0
  -20.5676  -26.2313   23.3611 H   0  0  0  0  0  0
  -21.6648  -26.7432   22.1198 H   0  0  0  0  0  0
  -19.6921  -25.6284   21.1246 H   0  0  0  0  0  0
  -19.6698  -27.3180   20.6731 H   0  0  0  0  0  0
  -17.4203  -26.6675   21.4022 H   0  0  0  0  0  0
  -18.0336  -26.0067   22.9017 H   0  0  0  0  0  0
  -19.7948  -30.7271   24.2252 H   0  0  0  0  0  0
  -17.5027  -31.6265   24.5157 H   0  0  0  0  0  0
  -15.5362  -30.2979   23.7666 H   0  0  0  0  0  0
  -15.8683  -28.0809   22.7093 H   0  0  0  0  0  0
  -24.5907  -30.7088   25.7775 H   0  0  0  0  0  0
  -24.8892  -32.2914   26.4844 H   0  0  0  0  0  0
  -25.8009  -30.8946   27.0252 H   0  0  0  0  0  0
  -26.2968  -29.6735   24.1257 H   0  0  0  0  0  0
  -27.4015  -29.7282   25.4796 H   0  0  0  0  0  0
  -27.8860  -30.4267   23.9536 H   0  0  0  0  0  0
  -27.2681  -33.3655   26.2059 H   0  0  0  0  0  0
  -28.3894  -32.6859   25.0356 H   0  0  0  0  0  0
  -28.0708  -31.8479   26.5462 H   0  0  0  0  0  0
  -28.2588  -38.0093   24.7510 H   0  0  0  0  0  0
  -28.1077  -36.2620   24.6296 H   0  0  0  0  0  0
  -27.2290  -37.1448   25.8865 H   0  0  0  0  0  0
  -20.9412  -29.8779   21.6855 H   0  0  0  0  0  0
  -26.0164  -38.2839   24.1412 H   0  0  0  0  0  0
  -28.6910  -19.7455   18.7959 H   0  0  0  0  0  0
  -31.3818  -17.3346   19.8517 H   0  0  0  0  0  0
  -33.0480  -18.4604   21.2864 H   0  0  0  0  0  0
  -33.0544  -17.0838   22.3764 H   0  0  0  0  0  0
  -32.8132  -18.7083   23.0094 H   0  0  0  0  0  0
  -29.3865  -17.1226   23.1587 H   0  0  0  0  0  0
  -30.6047  -17.9318   24.1268 H   0  0  0  0  0  0
  -30.9075  -16.3159   23.5028 H   0  0  0  0  0  0
  -27.0029  -24.6043   20.3189 H   0  0  0  0  0  0
  -27.9222  -24.7310   18.8313 H   0  0  0  0  0  0
  -27.9891  -22.2898   19.3682 H   0  0  0  0  0  0
  -28.9483  -15.8789   20.8250 H   0  0  0  0  0  0
  1 25  1  0  0  0
  1 30  2  0  0  0
  1 82  1  0  0  0
  2  3  1  0  0  0
  2 25  1  0  0  0
  2 85  1  0  0  0
  2 86  1  0  0  0
  3  4  1  0  0  0
  3 87  1  0  0  0
  3 88  1  0  0  0
  4  5  1  0  0  0
  4 89  1  0  0  0
  4 90  1  0  0  0
  5  6  1  0  0  0
  5 26  1  0  0  0
  5 91  1  0  0  0
  6 25  1  0  0  0
  6 92  1  0  0  0
  6 93  1  0  0  0
  7  8  2  0  0  0
  7 26  1  0  0  0
  7 29  1  0  0  0
  8  9  1  0  0  0
  8 22  1  0  0  0
  9 10  1  0  0  0
  9 27  2  0  0  0
 10 11  2  0  0  0
 10 15  1  0  0  0
 11 12  1  0  0  0
 11 94  1  0  0  0
 12 13  2  0  0  0
 12 95  1  0  0  0
 13 14  1  0  0  0
 13 31  1  0  0  0
 14 15  2  0  0  0
 14 96  1  0  0  0
 15 97  1  0  0  0
 16 17  2  0  0  0
 16 21  1  0  0  0
 16 31  1  0  0  0
 17 18  1  0  0  0
 17 98  1  0  0  0
 18 19  2  0  0  0
 18 99  1  0  0  0
 19 20  1  0  0  0
 19 24  1  0  0  0
 20 21  2  0  0  0
 20100  1  0  0  0
 21 23  1  0  0  0
 22 28  1  0  0  0
 22 32  2  0  0  0
 26 27  1  0  0  0
 28101  1  0  0  0
 28102  1  0  0  0
 29103  1  0  0  0
 29104  1  0  0  0
 33 34  1  0  0  0
 33 66  1  0  0  0
 33 70  2  0  0  0
 34 36  1  0  0  0
 34 59  1  0  0  0
 34105  1  0  0  0
 35 44  2  0  0  0
 35 45  1  0  0  0
 35 68  1  0  0  0
 36 56  1  0  0  0
 36106  1  0  0  0
 37 39  1  0  0  0
 37 47  1  0  0  0
 37 66  1  0  0  0
 37107  1  0  0  0
 38 43  2  0  0  0
 38 46  1  0  0  0
 38 47  1  0  0  0
 39 64  1  0  0  0
 39 67  2  0  0  0
 40 52  1  0  0  0
 40 53  2  0  0  0
 40 58  1  0  0  0
 41108  1  0  0  0
 41109  1  0  0  0
 41110  1  0  0  0
 41 48  1  0  0  0
 42 43  1  0  0  0
 42 66  1  0  0  0
 42111  1  0  0  0
 42112  1  0  0  0
 43 44  1  0  0  0
 44113  1  0  0  0
 45 46  2  0  0  0
 45114  1  0  0  0
 46115  1  0  0  0
 47116  1  0  0  0
 47117  1  0  0  0
 48 56  1  0  0  0
 48 65  1  0  0  0
 48118  1  0  0  0
 49 50  1  0  0  0
 49 53  1  0  0  0
 49 64  1  0  0  0
 49119  1  0  0  0
 50 51  1  0  0  0
 50120  1  0  0  0
 50121  1  0  0  0
 51 52  1  0  0  0
 51122  1  0  0  0
 51123  1  0  0  0
 52124  1  0  0  0
 52125  1  0  0  0
 53 54  1  0  0  0
 54 55  2  0  0  0
 54126  1  0  0  0
 55 57  1  0  0  0
 55127  1  0  0  0
 56 69  2  0  0  0
 57 58  2  0  0  0
 57128  1  0  0  0
 58129  1  0  0  0
 59 60  1  0  0  0
 59 61  1  0  0  0
 59 62  1  0  0  0
 60130  1  0  0  0
 60131  1  0  0  0
 60132  1  0  0  0
 61133  1  0  0  0
 61134  1  0  0  0
 61135  1  0  0  0
 62136  1  0  0  0
 62137  1  0  0  0
 62138  1  0  0  0
 63 65  1  0  0  0
 63139  1  0  0  0
 63140  1  0  0  0
 63141  1  0  0  0
 64142  1  0  0  0
 65143  1  0  0  0
 68 80  1  0  0  0
 71 72  1  0  0  0
 71 74  2  0  0  0
 71144  1  0  0  0
 72 73  2  0  0  0
 72 76  1  0  0  0
 73 77  1  0  0  0
 73 84  1  0  0  0
 74 81  1  0  0  0
 74 84  1  0  0  0
 75 80  1  0  0  0
 75 81  1  0  0  0
 75 83  2  0  0  0
 76 77  1  0  0  0
 76 82  1  0  0  0
 76145  1  0  0  0
 77 78  1  0  0  0
 77 79  1  0  0  0
 78146  1  0  0  0
 78147  1  0  0  0
 78148  1  0  0  0
 79149  1  0  0  0
 79150  1  0  0  0
 79151  1  0  0  0
 80152  1  0  0  0
 80153  1  0  0  0
 81154  1  0  0  0
 82155  1  0  0  0
M  ISO  4   1 100  68 101  80 101  82 100
M  END
> <chiral flag>
0

> <version>
0

> <s_m_source_file>
/data/baiqing/PycharmProjects/Reinvent-master-3.2/result/LINK_invent/BTK/process_docking_weight1_custom_product_contain_oxygen_bond_distance_aromatic_linkinvent_7_9_3/rearranged_h_0152.sdf

> <i_m_source_file_index>
12

> <r_mmod_Potential_Energy-OPLS-2005>
490.168701171875

> <r_mmod_Stretch_Energy-OPLS-2005>
149.777572631836

> <r_mmod_Bend_Energy-OPLS-2005>
604.631958007812

> <r_mmod_Torsional_Energy-OPLS-2005>
194.5224609375

> <r_mmod_Improper_Torsional_Energy-OPLS-2005>
7.12372446060181

> <r_mmod_Van_der_Waal_Energy-OPLS-2005>
119.594589233398

> <r_mmod_Electrostatic_Energy-OPLS-2005>
-438.056304931641

> <r_mmod_Solvation_Energy-OPLS-2005>
-246.119277954102

> <b_mmod_Minimization_Converged-OPLS-2005>
0

> <r_mmod_RMS_Derivative-OPLS-2005>
1.083571434021

$$$$
12
                    3D
 Structure written by MMmdl.
162171  0  0  1  0            999 V2000
  -30.5935  -14.7509   20.4556 C   0  0  0  0  0  0
  -30.4381  -12.4594   19.4679 C   0  0  0  0  0  0
  -29.5105  -12.5090   18.2336 C   0  0  0  0  0  0
  -28.0384  -12.3237   18.6518 C   0  0  0  0  0  0
  -27.6420  -13.2258   19.8509 C   0  0  2  0  0  0
  -28.6874  -13.1576   20.9847 C   0  0  0  0  0  0
  -25.2536  -13.8146   20.5757 C   0  0  0  0  0  0
  -24.1796  -13.0411   20.9199 C   0  0  0  0  0  0
  -24.6382  -11.6890   20.8730 C   0  0  0  0  0  0
  -23.9057  -10.4279   21.0403 C   0  0  0  0  0  0
  -24.3608   -9.4197   21.9181 C   0  0  0  0  0  0
  -23.6282   -8.2239   22.0759 C   0  0  0  0  0  0
  -22.4263   -8.0283   21.3551 C   0  0  0  0  0  0
  -21.9897   -9.0256   20.4650 C   0  0  0  0  0  0
  -22.7232  -10.2129   20.3052 C   0  0  0  0  0  0
  -21.6852   -6.0734   22.5279 C   0  0  0  0  0  0
  -21.4015   -6.5635   23.8213 C   0  0  0  0  0  0
  -21.3657   -5.6788   24.9175 C   0  0  0  0  0  0
  -21.6043   -4.3051   24.7225 C   0  0  0  0  0  0
  -21.8818   -3.8143   23.4344 C   0  0  0  0  0  0
  -21.9189   -4.6962   22.3402 C   0  0  0  0  0  0
  -22.7821  -13.5219   21.1854 C   0  0  0  0  0  0
  -22.1655   -4.2152   21.0979 F   0  0  0  0  0  0
  -21.5634   -3.4530   25.7732 F   0  0  0  0  0  0
  -29.9878  -13.5148   20.4034 N   0  0  0  0  0  0
  -26.2941  -12.9353   20.3286 N   0  0  0  0  0  0
  -25.9312  -11.6498   20.5732 N   0  0  0  0  0  0
  -22.0459  -12.8229   22.0421 N   0  0  0  0  0  0
  -25.4267  -15.1859   20.4338 N   0  0  0  0  0  0
  -31.7800  -14.8700   20.1403 O   0  0  0  0  0  0
  -21.6634   -6.8877   21.4242 O   0  0  0  0  0  0
  -22.3517  -14.5538   20.6709 O   0  0  0  0  0  0
  -24.6331  -31.8559   23.1999 C   0  0  0  0  0  0
  -25.9154  -32.4766   23.8345 C   0  0  1  0  0  0
  -27.2173  -27.2508   20.1215 C   0  0  0  0  0  0
  -25.5953  -33.8568   24.2268 N   0  0  0  0  0  0
  -23.4297  -30.4804   21.5447 C   0  0  2  0  0  0
  -24.8765  -28.9316   20.1099 C   0  0  0  0  0  0
  -22.7512  -29.4613   22.4920 C   0  0  0  0  0  0
  -18.0298  -28.1394   22.8490 C   0  0  0  0  0  0
  -24.1490  -36.7274   23.2639 C   0  0  0  0  0  0
  -25.9794  -30.7651   21.3843 C   0  0  0  0  0  0
  -26.0511  -29.3887   20.7211 C   0  0  0  0  0  0
  -27.2233  -28.5617   20.7158 C   0  0  0  0  0  0
  -26.0144  -26.8724   19.4778 C   0  0  0  0  0  0
  -24.8643  -27.6815   19.4787 C   0  0  0  0  0  0
  -23.6491  -29.8207   20.1590 C   0  0  0  0  0  0
  -25.4117  -36.3071   24.0329 C   0  0  1  0  0  0
  -20.5904  -28.3708   23.1271 C   0  0  2  0  0  0
  -20.6785  -26.9427   22.5411 C   0  0  0  0  0  0
  -19.5756  -26.6386   21.5223 C   0  0  0  0  0  0
  -18.1937  -26.7937   22.1632 C   0  0  0  0  0  0
  -19.1548  -28.8869   23.2875 C   0  0  0  0  0  0
  -18.9471  -30.1469   23.8896 C   0  0  0  0  0  0
  -17.6466  -30.6594   24.0565 C   0  0  0  0  0  0
  -25.9059  -34.9446   23.5096 C   0  0  0  0  0  0
  -16.5359  -29.9088   23.6339 C   0  0  0  0  0  0
  -16.7283  -28.6508   23.0362 C   0  0  0  0  0  0
  -26.4515  -31.6588   25.0736 C   0  0  0  0  0  0
  -25.3732  -31.3747   26.1455 C   0  0  0  0  0  0
  -27.0365  -30.2999   24.6242 C   0  0  0  0  0  0
  -27.6065  -32.4338   25.7511 C   0  0  0  0  0  0
  -27.5581  -37.1795   24.8468 C   0  0  0  0  0  0
  -21.4219  -29.3051   22.3654 N   0  0  0  0  0  0
  -26.4289  -37.3769   23.9416 N   0  0  0  0  0  0
  -24.6999  -31.0508   22.0994 N   0  0  0  0  0  0
  -23.4206  -28.8152   23.3022 O   0  0  0  0  0  0
  -28.3007  -26.3330   20.1899 O   0  0  0  0  0  0
  -26.5620  -34.8917   22.4661 O   0  0  0  0  0  0
  -23.5478  -32.1398   23.7280 O   0  0  0  0  0  0
  -27.2076  -19.6308   19.3626 C   0  0  0  0  0  0
  -28.5158  -19.6883   19.9419 C   0  0  0  0  0  0
  -28.9132  -18.3207   20.1364 C   0  0  0  0  0  0
  -26.8986  -18.3174   19.2618 C   0  0  0  0  0  0
  -29.1408  -23.0042   21.5624 C   0  0  0  0  0  0
  -29.5067  -21.4794   21.4572 C   0  0  0  0  0  0
  -28.5146  -22.2232   19.4783 C   0  0  0  0  0  0
  -29.0225  -23.5804   20.1283 C   0  0  1  0  0  0
  -31.0437  -24.9095   19.9248 C   0  0  0  0  0  0
  -30.0855  -17.3691   20.5769 C   0  0  0  0  0  0
  -28.0476  -24.8760   19.8694 C   0  0  0  0  0  0
  -29.1192  -21.0037   20.1288 N   0  0  0  0  0  0
  -25.7389  -17.7855   18.7256 N   0  0  0  0  0  0
  -29.7914  -15.8610   20.6639 N   0  0  0  0  0  0
  -27.8732  -17.5206   19.7263 O   0  0  0  0  0  0
  -30.3094  -23.7583   19.5282 O   0  0  0  0  0  0
  -31.4766  -12.5973   19.1625 H   0  0  0  0  0  0
  -30.3947  -11.4811   19.9487 H   0  0  0  0  0  0
  -29.7946  -11.7400   17.5138 H   0  0  0  0  0  0
  -29.6280  -13.4656   17.7216 H   0  0  0  0  0  0
  -27.9037  -11.2756   18.9209 H   0  0  0  0  0  0
  -27.3768  -12.5061   17.8039 H   0  0  0  0  0  0
  -27.6340  -14.2466   19.4680 H   0  0  0  0  0  0
  -28.7245  -12.1579   21.4194 H   0  0  0  0  0  0
  -28.4201  -13.8337   21.7989 H   0  0  0  0  0  0
  -25.2756   -9.5680   22.4748 H   0  0  0  0  0  0
  -23.9992   -7.4636   22.7481 H   0  0  0  0  0  0
  -21.0826   -8.8775   19.8959 H   0  0  0  0  0  0
  -22.3691  -10.9668   19.6159 H   0  0  0  0  0  0
  -21.2005   -7.6142   23.9716 H   0  0  0  0  0  0
  -21.1480   -6.0517   25.9078 H   0  0  0  0  0  0
  -22.0597   -2.7605   23.2841 H   0  0  0  0  0  0
  -22.4060  -11.9892   22.4829 H   0  0  0  0  0  0
  -21.1079  -13.1277   22.2609 H   0  0  0  0  0  0
  -24.6766  -15.8433   20.6180 H   0  0  0  0  0  0
  -26.3003  -15.6404   20.2011 H   0  0  0  0  0  0
  -26.7220  -32.5409   23.1084 H   0  0  0  0  0  0
  -25.0121  -33.9707   25.0428 H   0  0  0  0  0  0
  -22.7269  -31.3035   21.4004 H   0  0  0  0  0  0
  -23.3763  -35.9594   23.3298 H   0  0  0  0  0  0
  -24.3575  -36.8897   22.2051 H   0  0  0  0  0  0
  -23.7230  -37.6471   23.6663 H   0  0  0  0  0  0
  -26.1232  -31.5292   20.6187 H   0  0  0  0  0  0
  -26.8544  -30.8082   22.0217 H   0  0  0  0  0  0
  -28.1211  -28.9042   21.2117 H   0  0  0  0  0  0
  -25.9166  -25.9211   18.9784 H   0  0  0  0  0  0
  -23.9650  -27.3254   18.9954 H   0  0  0  0  0  0
  -23.7787  -30.6013   19.4083 H   0  0  0  0  0  0
  -22.7664  -29.2594   19.8489 H   0  0  0  0  0  0
  -25.1298  -36.1916   25.0819 H   0  0  0  0  0  0
  -20.9999  -28.3291   24.1392 H   0  0  0  0  0  0
  -20.5701  -26.2320   23.3615 H   0  0  0  0  0  0
  -21.6649  -26.7458   22.1196 H   0  0  0  0  0  0
  -19.6912  -25.6297   21.1256 H   0  0  0  0  0  0
  -19.6688  -27.3195   20.6751 H   0  0  0  0  0  0
  -17.4208  -26.6704   21.4032 H   0  0  0  0  0  0
  -18.0327  -26.0079   22.9027 H   0  0  0  0  0  0
  -19.7944  -30.7289   24.2266 H   0  0  0  0  0  0
  -17.5020  -31.6274   24.5164 H   0  0  0  0  0  0
  -15.5359  -30.2985   23.7661 H   0  0  0  0  0  0
  -15.8689  -28.0814   22.7086 H   0  0  0  0  0  0
  -24.5912  -30.7093   25.7785 H   0  0  0  0  0  0
  -24.8925  -32.2923   26.4860 H   0  0  0  0  0  0
  -25.8046  -30.8941   27.0243 H   0  0  0  0  0  0
  -26.2960  -29.6745   24.1249 H   0  0  0  0  0  0
  -27.4015  -29.7267   25.4773 H   0  0  0  0  0  0
  -27.8851  -30.4261   23.9514 H   0  0  0  0  0  0
  -27.2669  -33.3646   26.2065 H   0  0  0  0  0  0
  -28.3887  -32.6890   25.0351 H   0  0  0  0  0  0
  -28.0723  -31.8487   26.5449 H   0  0  0  0  0  0
  -28.2597  -38.0092   24.7519 H   0  0  0  0  0  0
  -28.1077  -36.2628   24.6292 H   0  0  0  0  0  0
  -27.2301  -37.1440   25.8869 H   0  0  0  0  0  0
  -20.9410  -29.8756   21.6842 H   0  0  0  0  0  0
  -26.0171  -38.2842   24.1421 H   0  0  0  0  0  0
  -26.5586  -20.4293   19.0393 H   0  0  0  0  0  0
  -29.8395  -23.5507   22.1962 H   0  0  0  0  0  0
  -28.1668  -23.0841   22.0477 H   0  0  0  0  0  0
  -29.0330  -20.9012   22.2526 H   0  0  0  0  0  0
  -30.5852  -21.3525   21.5637 H   0  0  0  0  0  0
  -28.6908  -22.2139   18.4020 H   0  0  0  0  0  0
  -27.4342  -22.2121   19.6176 H   0  0  0  0  0  0
  -30.6325  -25.8157   19.4814 H   0  0  0  0  0  0
  -32.0695  -24.8194   19.5669 H   0  0  0  0  0  0
  -31.0826  -25.0302   21.0073 H   0  0  0  0  0  0
  -30.9185  -17.5099   19.8877 H   0  0  0  0  0  0
  -30.4510  -17.6926   21.5510 H   0  0  0  0  0  0
  -27.1075  -24.6109   20.3540 H   0  0  0  0  0  0
  -27.8448  -24.8595   18.7985 H   0  0  0  0  0  0
  -24.9814  -18.3530   18.3602 H   0  0  0  0  0  0
  -25.5190  -16.7940   18.7170 H   0  0  0  0  0  0
  -28.8286  -15.6416   20.8657 H   0  0  0  0  0  0
  1 25  1  0  0  0
  1 30  2  0  0  0
  1 84  1  0  0  0
  2  3  1  0  0  0
  2 25  1  0  0  0
  2 87  1  0  0  0
  2 88  1  0  0  0
  3  4  1  0  0  0
  3 89  1  0  0  0
  3 90  1  0  0  0
  4  5  1  0  0  0
  4 91  1  0  0  0
  4 92  1  0  0  0
  5  6  1  0  0  0
  5 26  1  0  0  0
  5 93  1  0  0  0
  6 25  1  0  0  0
  6 94  1  0  0  0
  6 95  1  0  0  0
  7  8  2  0  0  0
  7 26  1  0  0  0
  7 29  1  0  0  0
  8  9  1  0  0  0
  8 22  1  0  0  0
  9 10  1  0  0  0
  9 27  2  0  0  0
 10 11  2  0  0  0
 10 15  1  0  0  0
 11 12  1  0  0  0
 11 96  1  0  0  0
 12 13  2  0  0  0
 12 97  1  0  0  0
 13 14  1  0  0  0
 13 31  1  0  0  0
 14 15  2  0  0  0
 14 98  1  0  0  0
 15 99  1  0  0  0
 16 17  2  0  0  0
 16 21  1  0  0  0
 16 31  1  0  0  0
 17 18  1  0  0  0
 17100  1  0  0  0
 18 19  2  0  0  0
 18101  1  0  0  0
 19 20  1  0  0  0
 19 24  1  0  0  0
 20 21  2  0  0  0
 20102  1  0  0  0
 21 23  1  0  0  0
 22 28  1  0  0  0
 22 32  2  0  0  0
 26 27  1  0  0  0
 28103  1  0  0  0
 28104  1  0  0  0
 29105  1  0  0  0
 29106  1  0  0  0
 33 34  1  0  0  0
 33 66  1  0  0  0
 33 70  2  0  0  0
 34 36  1  0  0  0
 34 59  1  0  0  0
 34107  1  0  0  0
 35 44  2  0  0  0
 35 45  1  0  0  0
 35 68  1  0  0  0
 36 56  1  0  0  0
 36108  1  0  0  0
 37 39  1  0  0  0
 37 47  1  0  0  0
 37 66  1  0  0  0
 37109  1  0  0  0
 38 43  2  0  0  0
 38 46  1  0  0  0
 38 47  1  0  0  0
 39 64  1  0  0  0
 39 67  2  0  0  0
 40 52  1  0  0  0
 40 53  2  0  0  0
 40 58  1  0  0  0
 41110  1  0  0  0
 41111  1  0  0  0
 41112  1  0  0  0
 41 48  1  0  0  0
 42 43  1  0  0  0
 42 66  1  0  0  0
 42113  1  0  0  0
 42114  1  0  0  0
 43 44  1  0  0  0
 44115  1  0  0  0
 45 46  2  0  0  0
 45116  1  0  0  0
 46117  1  0  0  0
 47118  1  0  0  0
 47119  1  0  0  0
 48 56  1  0  0  0
 48 65  1  0  0  0
 48120  1  0  0  0
 49 50  1  0  0  0
 49 53  1  0  0  0
 49 64  1  0  0  0
 49121  1  0  0  0
 50 51  1  0  0  0
 50122  1  0  0  0
 50123  1  0  0  0
 51 52  1  0  0  0
 51124  1  0  0  0
 51125  1  0  0  0
 52126  1  0  0  0
 52127  1  0  0  0
 53 54  1  0  0  0
 54 55  2  0  0  0
 54128  1  0  0  0
 55 57  1  0  0  0
 55129  1  0  0  0
 56 69  2  0  0  0
 57 58  2  0  0  0
 57130  1  0  0  0
 58131  1  0  0  0
 59 60  1  0  0  0
 59 61  1  0  0  0
 59 62  1  0  0  0
 60132  1  0  0  0
 60133  1  0  0  0
 60134  1  0  0  0
 61135  1  0  0  0
 61136  1  0  0  0
 61137  1  0  0  0
 62138  1  0  0  0
 62139  1  0  0  0
 62140  1  0  0  0
 63 65  1  0  0  0
 63141  1  0  0  0
 63142  1  0  0  0
 63143  1  0  0  0
 64144  1  0  0  0
 65145  1  0  0  0
 68 81  1  0  0  0
 71 72  1  0  0  0
 71 74  2  0  0  0
 71146  1  0  0  0
 72 73  2  0  0  0
 72 82  1  0  0  0
 73 80  1  0  0  0
 73 85  1  0  0  0
 74 83  1  0  0  0
 74 85  1  0  0  0
 75 76  1  0  0  0
 75 78  1  0  0  0
 75147  1  0  0  0
 75148  1  0  0  0
 76 82  1  0  0  0
 76149  1  0  0  0
 76150  1  0  0  0
 77 78  1  0  0  0
 77 82  1  0  0  0
 77151  1  0  0  0
 77152  1  0  0  0
 78 81  1  0  0  0
 78 86  1  0  0  0
 79 86  1  0  0  0
 79153  1  0  0  0
 79154  1  0  0  0
 79155  1  0  0  0
 80 84  1  0  0  0
 80156  1  0  0  0
 80157  1  0  0  0
 81158  1  0  0  0
 81159  1  0  0  0
 83160  1  0  0  0
 83161  1  0  0  0
 84162  1  0  0  0
M  ISO  4   1 100  68 101  81 101  84 100
M  END
> <chiral flag>
0

> <version>
0

> <s_m_source_file>
/data/baiqing/PycharmProjects/Reinvent-master-3.2/result/LINK_invent/BTK/process_docking_weight1_custom_product_contain_oxygen_bond_distance_aromatic_linkinvent_7_9_3/rearranged_h_0152.sdf

> <i_m_source_file_index>
13

> <r_mmod_Potential_Energy-OPLS-2005>
241.019515991211

> <r_mmod_Stretch_Energy-OPLS-2005>
133.677062988281

> <r_mmod_Bend_Energy-OPLS-2005>
253.512893676758

> <r_mmod_Torsional_Energy-OPLS-2005>
284.778961181641

> <r_mmod_Improper_Torsional_Energy-OPLS-2005>
9.20907974243164

> <r_mmod_Van_der_Waal_Energy-OPLS-2005>
123.726776123047

> <r_mmod_Electrostatic_Energy-OPLS-2005>
-414.384490966797

> <r_mmod_Solvation_Energy-OPLS-2005>
-241.367523193359

> <b_mmod_Minimization_Converged-OPLS-2005>
0

> <r_mmod_RMS_Derivative-OPLS-2005>
1.48021268844604

$$$$
13
                    3D
 Structure written by MMmdl.
157166  0  0  1  0            999 V2000
  -30.6273  -14.6024   20.5297 C   0  0  0  0  0  0
  -30.4313  -12.3521   19.4931 C   0  0  0  0  0  0
  -29.5277  -12.5173   18.2478 C   0  0  0  0  0  0
  -28.0309  -12.4058   18.6173 C   0  0  0  0  0  0
  -27.6586  -13.2299   19.8786 C   0  0  2  0  0  0
  -28.6937  -13.0341   21.0150 C   0  0  0  0  0  0
  -25.2521  -13.8214   20.5689 C   0  0  0  0  0  0
  -24.1808  -13.0448   20.9178 C   0  0  0  0  0  0
  -24.6400  -11.6931   20.8700 C   0  0  0  0  0  0
  -23.9072  -10.4305   21.0369 C   0  0  0  0  0  0
  -24.3620   -9.4224   21.9137 C   0  0  0  0  0  0
  -23.6302   -8.2268   22.0740 C   0  0  0  0  0  0
  -22.4249   -8.0319   21.3559 C   0  0  0  0  0  0
  -21.9876   -9.0273   20.4643 C   0  0  0  0  0  0
  -22.7226  -10.2131   20.3020 C   0  0  0  0  0  0
  -21.6854   -6.0738   22.5260 C   0  0  0  0  0  0
  -21.4037   -6.5627   23.8198 C   0  0  0  0  0  0
  -21.3665   -5.6778   24.9147 C   0  0  0  0  0  0
  -21.6052   -4.3042   24.7181 C   0  0  0  0  0  0
  -21.8820   -3.8128   23.4298 C   0  0  0  0  0  0
  -21.9190   -4.6962   22.3354 C   0  0  0  0  0  0
  -22.7809  -13.5237   21.1837 C   0  0  0  0  0  0
  -22.1672   -4.2190   21.0928 F   0  0  0  0  0  0
  -21.5609   -3.4533   25.7701 F   0  0  0  0  0  0
  -30.0248  -13.3708   20.4825 N   0  0  0  0  0  0
  -26.3000  -12.9429   20.3330 N   0  0  0  0  0  0
  -25.9338  -11.6557   20.5695 N   0  0  0  0  0  0
  -22.0470  -12.8232   22.0406 N   0  0  0  0  0  0
  -25.4218  -15.1949   20.4160 N   0  0  0  0  0  0
  -31.7407  -14.7982   20.0388 O   0  0  0  0  0  0
  -21.6667   -6.8888   21.4225 O   0  0  0  0  0  0
  -22.3474  -14.5539   20.6706 O   0  0  0  0  0  0
  -24.6226  -31.8573   23.2050 C   0  0  0  0  0  0
  -25.9055  -32.4793   23.8359 C   0  0  1  0  0  0
  -27.2187  -27.3391   20.1016 C   0  0  0  0  0  0
  -25.5870  -33.8593   24.2284 N   0  0  0  0  0  0
  -23.4170  -30.4814   21.5507 C   0  0  2  0  0  0
  -24.8568  -28.9406   20.1169 C   0  0  0  0  0  0
  -22.7458  -29.4597   22.4975 C   0  0  0  0  0  0
  -18.0280  -28.1404   22.8509 C   0  0  0  0  0  0
  -24.1491  -36.7316   23.2628 C   0  0  0  0  0  0
  -25.9550  -30.7934   21.3726 C   0  0  0  0  0  0
  -26.0277  -29.4239   20.7129 C   0  0  0  0  0  0
  -27.2136  -28.6374   20.6945 C   0  0  0  0  0  0
  -26.0207  -26.8970   19.4938 C   0  0  0  0  0  0
  -24.8509  -27.6787   19.5025 C   0  0  0  0  0  0
  -23.6268  -29.8191   20.1646 C   0  0  0  0  0  0
  -25.4108  -36.3110   24.0333 C   0  0  1  0  0  0
  -20.5876  -28.3679   23.1312 C   0  0  2  0  0  0
  -20.6789  -26.9410   22.5409 C   0  0  0  0  0  0
  -19.5756  -26.6410   21.5226 C   0  0  0  0  0  0
  -18.1942  -26.7952   22.1645 C   0  0  0  0  0  0
  -19.1540  -28.8862   23.2910 C   0  0  0  0  0  0
  -18.9452  -30.1475   23.8927 C   0  0  0  0  0  0
  -17.6454  -30.6592   24.0578 C   0  0  0  0  0  0
  -25.9040  -34.9466   23.5121 C   0  0  0  0  0  0
  -16.5343  -29.9105   23.6329 C   0  0  0  0  0  0
  -16.7274  -28.6520   23.0349 C   0  0  0  0  0  0
  -26.4452  -31.6587   25.0707 C   0  0  0  0  0  0
  -25.3700  -31.3696   26.1446 C   0  0  0  0  0  0
  -27.0247  -30.3011   24.6121 C   0  0  0  0  0  0
  -27.6044  -32.4303   25.7456 C   0  0  0  0  0  0
  -27.5608  -37.1796   24.8459 C   0  0  0  0  0  0
  -21.4180  -29.3022   22.3709 N   0  0  0  0  0  0
  -26.4310  -37.3793   23.9427 N   0  0  0  0  0  0
  -24.6847  -31.0588   22.1018 N   0  0  0  0  0  0
  -23.4179  -28.8108   23.3037 O   0  0  0  0  0  0
  -28.3522  -26.5210   20.1345 O   0  0  0  0  0  0
  -26.5640  -34.8933   22.4708 O   0  0  0  0  0  0
  -23.5382  -32.1380   23.7375 O   0  0  0  0  0  0
  -31.6766  -18.4047   21.1182 C   0  0  0  0  0  0
  -31.8919  -19.8105   21.2440 C   0  0  0  0  0  0
  -30.3872  -18.2161   20.6980 C   0  0  0  0  0  0
  -30.7157  -20.4417   20.9141 C   0  0  0  0  0  0
  -30.5426  -24.7832   20.7853 C   0  0  0  0  0  0
  -29.3932  -24.1806   20.4419 C   0  0  0  0  0  0
  -31.7517  -24.0269   21.2854 C   0  0  0  0  0  0
  -29.2935  -22.6009   20.4523 C   0  0  0  0  0  0
  -31.3532  -22.6578   21.8606 C   0  0  0  0  0  0
  -29.6031  -16.9550   20.2912 C   0  0  0  0  0  0
  -28.1608  -25.0565   20.0637 C   0  0  0  0  0  0
  -30.5029  -21.8699   20.9538 N   0  0  0  0  0  0
  -29.8483  -15.6335   20.9645 N   0  0  0  0  0  0
  -29.7810  -19.4791   20.5563 O   0  0  0  0  0  0
  -31.4884  -12.4302   19.2357 H   0  0  0  0  0  0
  -30.3064  -11.3565   19.9196 H   0  0  0  0  0  0
  -29.7841  -11.7723   17.4924 H   0  0  0  0  0  0
  -29.7236  -13.4878   17.7944 H   0  0  0  0  0  0
  -27.7934  -11.3511   18.7655 H   0  0  0  0  0  0
  -27.4180  -12.7319   17.7749 H   0  0  0  0  0  0
  -27.6899  -14.2789   19.5817 H   0  0  0  0  0  0
  -28.6748  -11.9960   21.3537 H   0  0  0  0  0  0
  -28.4443  -13.6346   21.8903 H   0  0  0  0  0  0
  -25.2765   -9.5696   22.4700 H   0  0  0  0  0  0
  -24.0015   -7.4622   22.7407 H   0  0  0  0  0  0
  -21.0812   -8.8767   19.8925 H   0  0  0  0  0  0
  -22.3692  -10.9653   19.6110 H   0  0  0  0  0  0
  -21.2102   -7.6146   23.9713 H   0  0  0  0  0  0
  -21.1482   -6.0506   25.9060 H   0  0  0  0  0  0
  -22.0618   -2.7598   23.2774 H   0  0  0  0  0  0
  -22.4103  -11.9888   22.4749 H   0  0  0  0  0  0
  -21.1088  -13.1224   22.2648 H   0  0  0  0  0  0
  -24.6478  -15.8470   20.5070 H   0  0  0  0  0  0
  -26.2689  -15.6241   20.0643 H   0  0  0  0  0  0
  -26.7104  -32.5446   23.1078 H   0  0  0  0  0  0
  -24.9938  -33.9745   25.0383 H   0  0  0  0  0  0
  -22.7110  -31.3006   21.4101 H   0  0  0  0  0  0
  -23.3771  -35.9630   23.3246 H   0  0  0  0  0  0
  -24.3588  -36.8986   22.2057 H   0  0  0  0  0  0
  -23.7222  -37.6501   23.6663 H   0  0  0  0  0  0
  -26.0774  -31.5529   20.6000 H   0  0  0  0  0  0
  -26.8394  -30.8392   21.9953 H   0  0  0  0  0  0
  -28.1198  -28.9993   21.1594 H   0  0  0  0  0  0
  -25.9591  -25.9337   19.0076 H   0  0  0  0  0  0
  -23.9490  -27.3006   19.0387 H   0  0  0  0  0  0
  -23.7533  -30.5964   19.4107 H   0  0  0  0  0  0
  -22.7452  -29.2514   19.8631 H   0  0  0  0  0  0
  -25.1269  -36.1986   25.0827 H   0  0  0  0  0  0
  -20.9978  -28.3256   24.1432 H   0  0  0  0  0  0
  -20.5754  -26.2262   23.3584 H   0  0  0  0  0  0
  -21.6649  -26.7495   22.1147 H   0  0  0  0  0  0
  -19.6905  -25.6339   21.1233 H   0  0  0  0  0  0
  -19.6693  -27.3245   20.6778 H   0  0  0  0  0  0
  -17.4197  -26.6710   21.4061 H   0  0  0  0  0  0
  -18.0335  -26.0100   22.9046 H   0  0  0  0  0  0
  -19.7920  -30.7300   24.2313 H   0  0  0  0  0  0
  -17.4989  -31.6281   24.5164 H   0  0  0  0  0  0
  -15.5345  -30.2998   23.7641 H   0  0  0  0  0  0
  -15.8681  -28.0845   22.7036 H   0  0  0  0  0  0
  -24.5882  -30.7038   25.7770 H   0  0  0  0  0  0
  -24.8874  -32.2837   26.4912 H   0  0  0  0  0  0
  -25.8020  -30.8845   27.0203 H   0  0  0  0  0  0
  -26.2769  -29.6810   24.1167 H   0  0  0  0  0  0
  -27.3963  -29.7220   25.4580 H   0  0  0  0  0  0
  -27.8644  -30.4287   23.9292 H   0  0  0  0  0  0
  -27.2680  -33.3599   26.2046 H   0  0  0  0  0  0
  -28.3818  -32.6864   25.0250 H   0  0  0  0  0  0
  -28.0737  -31.8425   26.5349 H   0  0  0  0  0  0
  -28.2588  -38.0136   24.7568 H   0  0  0  0  0  0
  -28.1148  -36.2672   24.6187 H   0  0  0  0  0  0
  -27.2328  -37.1340   25.8862 H   0  0  0  0  0  0
  -20.9356  -29.8695   21.6882 H   0  0  0  0  0  0
  -26.0200  -38.2871   24.1455 H   0  0  0  0  0  0
  -32.4048  -17.6221   21.2866 H   0  0  0  0  0  0
  -32.8232  -20.2743   21.5366 H   0  0  0  0  0  0
  -30.6324  -25.8607   20.7443 H   0  0  0  0  0  0
  -32.2316  -24.6153   22.0699 H   0  0  0  0  0  0
  -32.4755  -23.9323   20.4753 H   0  0  0  0  0  0
  -29.0868  -22.2686   19.4339 H   0  0  0  0  0  0
  -28.4335  -22.3013   21.0575 H   0  0  0  0  0  0
  -30.7767  -22.8244   22.7704 H   0  0  0  0  0  0
  -32.2532  -22.1415   22.1877 H   0  0  0  0  0  0
  -29.7167  -16.8135   19.2152 H   0  0  0  0  0  0
  -28.5379  -17.1622   20.4254 H   0  0  0  0  0  0
  -27.3645  -24.7797   20.7580 H   0  0  0  0  0  0
  -27.8354  -24.7711   19.0638 H   0  0  0  0  0  0
  -29.0605  -15.3203   21.5140 H   0  0  0  0  0  0
  1 25  1  0  0  0
  1 30  2  0  0  0
  1 83  1  0  0  0
  2  3  1  0  0  0
  2 25  1  0  0  0
  2 85  1  0  0  0
  2 86  1  0  0  0
  3  4  1  0  0  0
  3 87  1  0  0  0
  3 88  1  0  0  0
  4  5  1  0  0  0
  4 89  1  0  0  0
  4 90  1  0  0  0
  5  6  1  0  0  0
  5 26  1  0  0  0
  5 91  1  0  0  0
  6 25  1  0  0  0
  6 92  1  0  0  0
  6 93  1  0  0  0
  7  8  2  0  0  0
  7 26  1  0  0  0
  7 29  1  0  0  0
  8  9  1  0  0  0
  8 22  1  0  0  0
  9 10  1  0  0  0
  9 27  2  0  0  0
 10 11  2  0  0  0
 10 15  1  0  0  0
 11 12  1  0  0  0
 11 94  1  0  0  0
 12 13  2  0  0  0
 12 95  1  0  0  0
 13 14  1  0  0  0
 13 31  1  0  0  0
 14 15  2  0  0  0
 14 96  1  0  0  0
 15 97  1  0  0  0
 16 17  2  0  0  0
 16 21  1  0  0  0
 16 31  1  0  0  0
 17 18  1  0  0  0
 17 98  1  0  0  0
 18 19  2  0  0  0
 18 99  1  0  0  0
 19 20  1  0  0  0
 19 24  1  0  0  0
 20 21  2  0  0  0
 20100  1  0  0  0
 21 23  1  0  0  0
 22 28  1  0  0  0
 22 32  2  0  0  0
 26 27  1  0  0  0
 28101  1  0  0  0
 28102  1  0  0  0
 29103  1  0  0  0
 29104  1  0  0  0
 33 34  1  0  0  0
 33 66  1  0  0  0
 33 70  2  0  0  0
 34 36  1  0  0  0
 34 59  1  0  0  0
 34105  1  0  0  0
 35 44  2  0  0  0
 35 45  1  0  0  0
 35 68  1  0  0  0
 36 56  1  0  0  0
 36106  1  0  0  0
 37 39  1  0  0  0
 37 47  1  0  0  0
 37 66  1  0  0  0
 37107  1  0  0  0
 38 43  2  0  0  0
 38 46  1  0  0  0
 38 47  1  0  0  0
 39 64  1  0  0  0
 39 67  2  0  0  0
 40 52  1  0  0  0
 40 53  2  0  0  0
 40 58  1  0  0  0
 41108  1  0  0  0
 41109  1  0  0  0
 41110  1  0  0  0
 41 48  1  0  0  0
 42 43  1  0  0  0
 42 66  1  0  0  0
 42111  1  0  0  0
 42112  1  0  0  0
 43 44  1  0  0  0
 44113  1  0  0  0
 45 46  2  0  0  0
 45114  1  0  0  0
 46115  1  0  0  0
 47116  1  0  0  0
 47117  1  0  0  0
 48 56  1  0  0  0
 48 65  1  0  0  0
 48118  1  0  0  0
 49 50  1  0  0  0
 49 53  1  0  0  0
 49 64  1  0  0  0
 49119  1  0  0  0
 50 51  1  0  0  0
 50120  1  0  0  0
 50121  1  0  0  0
 51 52  1  0  0  0
 51122  1  0  0  0
 51123  1  0  0  0
 52124  1  0  0  0
 52125  1  0  0  0
 53 54  1  0  0  0
 54 55  2  0  0  0
 54126  1  0  0  0
 55 57  1  0  0  0
 55127  1  0  0  0
 56 69  2  0  0  0
 57 58  2  0  0  0
 57128  1  0  0  0
 58129  1  0  0  0
 59 60  1  0  0  0
 59 61  1  0  0  0
 59 62  1  0  0  0
 60130  1  0  0  0
 60131  1  0  0  0
 60132  1  0  0  0
 61133  1  0  0  0
 61134  1  0  0  0
 61135  1  0  0  0
 62136  1  0  0  0
 62137  1  0  0  0
 62138  1  0  0  0
 63 65  1  0  0  0
 63139  1  0  0  0
 63140  1  0  0  0
 63141  1  0  0  0
 64142  1  0  0  0
 65143  1  0  0  0
 68 81  1  0  0  0
 71 72  1  0  0  0
 71 73  2  0  0  0
 71144  1  0  0  0
 72 74  2  0  0  0
 72145  1  0  0  0
 73 80  1  0  0  0
 73 84  1  0  0  0
 74 82  1  0  0  0
 74 84  1  0  0  0
 75 76  2  0  0  0
 75 77  1  0  0  0
 75146  1  0  0  0
 76 78  1  0  0  0
 76 81  1  0  0  0
 77 79  1  0  0  0
 77147  1  0  0  0
 77148  1  0  0  0
 78 82  1  0  0  0
 78149  1  0  0  0
 78150  1  0  0  0
 79 82  1  0  0  0
 79151  1  0  0  0
 79152  1  0  0  0
 80 83  1  0  0  0
 80153  1  0  0  0
 80154  1  0  0  0
 81155  1  0  0  0
 81156  1  0  0  0
 83157  1  0  0  0
M  ISO  4   1 100  68 101  81 101  83 100
M  END
> <chiral flag>
0

> <version>
0

> <s_m_source_file>
/data/baiqing/PycharmProjects/Reinvent-master-3.2/result/LINK_invent/BTK/process_docking_weight1_custom_product_contain_oxygen_bond_distance_aromatic_linkinvent_7_9_3/rearranged_h_0152.sdf

> <i_m_source_file_index>
14

> <r_mmod_Potential_Energy-OPLS-2005>
-42.5876617431641

> <r_mmod_Stretch_Energy-OPLS-2005>
77.7037124633789

> <r_mmod_Bend_Energy-OPLS-2005>
141.549789428711

> <r_mmod_Torsional_Energy-OPLS-2005>
219.009719848633

> <r_mmod_Improper_Torsional_Energy-OPLS-2005>
8.09211254119873

> <r_mmod_Van_der_Waal_Energy-OPLS-2005>
135.731536865234

> <r_mmod_Electrostatic_Energy-OPLS-2005>
-423.908355712891

> <r_mmod_Solvation_Energy-OPLS-2005>
-238.713073730469

> <b_mmod_Minimization_Converged-OPLS-2005>
0

> <r_mmod_RMS_Derivative-OPLS-2005>
5.51588296890259

$$$$
14
                    3D
 Structure written by MMmdl.
157165  0  0  1  0            999 V2000
  -29.8114  -16.8965   20.2530 C   0  0  0  0  0  0
  -30.2677  -14.0418   19.5329 C   0  0  0  0  0  0
  -29.5785  -13.0791   18.4556 C   0  0  0  0  0  0
  -28.2784  -12.4474   18.9528 C   0  0  0  0  0  0
  -27.5731  -13.4864   19.8307 C   0  0  2  0  0  0
  -28.4795  -14.3008   20.8529 C   0  0  0  0  0  0
  -25.2099  -13.8583   20.6010 C   0  0  0  0  0  0
  -24.1667  -13.0488   20.9364 C   0  0  0  0  0  0
  -24.6619  -11.7081   20.8726 C   0  0  0  0  0  0
  -23.9337  -10.4340   21.0308 C   0  0  0  0  0  0
  -24.3792   -9.4244   21.9132 C   0  0  0  0  0  0
  -23.6399   -8.2305   22.0737 C   0  0  0  0  0  0
  -22.4370   -8.0343   21.3539 C   0  0  0  0  0  0
  -22.0062   -9.0329   20.4626 C   0  0  0  0  0  0
  -22.7459  -10.2176   20.2999 C   0  0  0  0  0  0
  -21.6891   -6.0781   22.5274 C   0  0  0  0  0  0
  -21.4049   -6.5667   23.8214 C   0  0  0  0  0  0
  -21.3665   -5.6807   24.9168 C   0  0  0  0  0  0
  -21.6042   -4.3068   24.7213 C   0  0  0  0  0  0
  -21.8813   -3.8170   23.4328 C   0  0  0  0  0  0
  -21.9204   -4.7000   22.3391 C   0  0  0  0  0  0
  -22.7616  -13.5045   21.1946 C   0  0  0  0  0  0
  -22.1662   -4.2185   21.0968 F   0  0  0  0  0  0
  -21.5621   -3.4540   25.7719 F   0  0  0  0  0  0
  -29.4336  -15.3046   20.1443 N   0  0  0  0  0  0
  -26.2848  -13.0318   20.3589 N   0  0  0  0  0  0
  -25.9662  -11.7169   20.5673 N   0  0  0  0  0  0
  -22.0356  -12.7975   22.0510 N   0  0  0  0  0  0
  -25.3327  -15.2355   20.4402 N   0  0  0  0  0  0
  -31.0633  -16.6294   20.1944 O   0  0  0  0  0  0
  -21.6688   -6.8957   21.4251 O   0  0  0  0  0  0
  -22.3214  -14.5321   20.6787 O   0  0  0  0  0  0
  -24.7674  -31.6907   23.0841 C   0  0  0  0  0  0
  -25.9811  -32.3959   23.7720 C   0  0  1  0  0  0
  -27.2941  -25.8284   20.2748 C   0  0  0  0  0  0
  -25.6008  -33.7839   24.1481 N   0  0  0  0  0  0
  -23.6358  -30.2490   21.4579 C   0  0  2  0  0  0
  -25.1147  -28.4099   20.1458 C   0  0  0  0  0  0
  -22.8155  -29.3707   22.4496 C   0  0  0  0  0  0
  -18.0392  -28.1462   22.8411 C   0  0  0  0  0  0
  -24.1499  -36.6939   23.2675 C   0  0  0  0  0  0
  -26.2399  -30.1236   21.4974 C   0  0  0  0  0  0
  -26.3026  -28.5897   20.8638 C   0  0  0  0  0  0
  -27.3230  -27.3560   20.8963 C   0  0  0  0  0  0
  -26.0924  -26.1072   19.4766 C   0  0  0  0  0  0
  -25.1003  -27.1931   19.4277 C   0  0  0  0  0  0
  -23.9436  -29.4635   20.1332 C   0  0  0  0  0  0
  -25.4180  -36.2612   24.0229 C   0  0  1  0  0  0
  -20.6070  -28.3849   23.0991 C   0  0  2  0  0  0
  -20.6810  -26.9429   22.5429 C   0  0  0  0  0  0
  -19.5805  -26.6333   21.5231 C   0  0  0  0  0  0
  -18.1985  -26.7972   22.1600 C   0  0  0  0  0  0
  -19.1681  -28.9001   23.2653 C   0  0  0  0  0  0
  -18.9569  -30.1562   23.8739 C   0  0  0  0  0  0
  -17.6549  -30.6622   24.0529 C   0  0  0  0  0  0
  -25.9204  -34.9018   23.4771 C   0  0  0  0  0  0
  -16.5434  -29.9091   23.6367 C   0  0  0  0  0  0
  -16.7365  -28.6515   23.0385 C   0  0  0  0  0  0
  -26.4721  -31.6387   25.0694 C   0  0  0  0  0  0
  -25.3562  -31.3924   26.1141 C   0  0  0  0  0  0
  -27.0808  -30.2654   24.7233 C   0  0  0  0  0  0
  -27.6010  -32.4472   25.7525 C   0  0  0  0  0  0
  -27.5545  -37.1622   24.8468 C   0  0  0  0  0  0
  -21.4729  -29.2905   22.3215 N   0  0  0  0  0  0
  -26.4240  -37.3466   23.9409 N   0  0  0  0  0  0
  -24.9160  -30.7435   22.0639 N   0  0  0  0  0  0
  -23.4167  -28.7464   23.3254 O   0  0  0  0  0  0
  -27.9929  -24.1222   20.2222 O   0  0  0  0  0  0
  -26.5978  -34.8758   22.4480 O   0  0  0  0  0  0
  -23.6512  -32.0403   23.5193 O   0  0  0  0  0  0
  -27.4896  -23.1845   22.0745 C   0  0  0  0  0  0
  -28.9473  -24.3452   22.0452 C   0  0  0  0  0  0
  -27.5252  -21.6821   21.0917 C   0  0  0  0  0  0
  -29.7122  -22.1418   19.8872 C   0  0  0  0  0  0
  -30.0428  -23.7352   20.6663 C   0  0  0  0  0  0
  -28.7889  -20.7229   20.3370 C   0  0  0  0  0  0
  -31.9918  -23.3007   21.7244 C   0  0  0  0  0  0
  -31.4793  -22.2562   23.9496 C   0  0  0  0  0  0
  -31.7310  -20.8168   21.9584 C   0  0  0  0  0  0
  -29.5158  -22.2192   22.2180 C   0  0  0  0  0  0
  -31.1510  -22.1762   22.4332 C   0  0  0  0  0  0
  -31.3746  -24.0493   20.8143 N   0  0  0  0  0  0
  -29.0450  -18.5968   20.2804 N   0  0  0  0  0  0
  -33.1857  -23.4675   21.9858 O   0  0  0  0  0  0
  -31.1366  -14.4618   19.0256 H   0  0  0  0  0  0
  -30.7184  -13.4469   20.3304 H   0  0  0  0  0  0
  -30.2731  -12.3019   18.1354 H   0  0  0  0  0  0
  -29.3585  -13.6698   17.5663 H   0  0  0  0  0  0
  -28.5106  -11.5657   19.5509 H   0  0  0  0  0  0
  -27.6502  -12.1177   18.1240 H   0  0  0  0  0  0
  -27.2894  -14.2381   19.0913 H   0  0  0  0  0  0
  -28.9797  -13.6379   21.5623 H   0  0  0  0  0  0
  -27.8345  -14.9137   21.4827 H   0  0  0  0  0  0
  -25.2931   -9.5689   22.4732 H   0  0  0  0  0  0
  -24.0072   -7.4702   22.7484 H   0  0  0  0  0  0
  -21.0984   -8.8886   19.8936 H   0  0  0  0  0  0
  -22.3926  -10.9712   19.6096 H   0  0  0  0  0  0
  -21.2057   -7.6175   23.9733 H   0  0  0  0  0  0
  -21.1485   -6.0530   25.9076 H   0  0  0  0  0  0
  -22.0585   -2.7632   23.2814 H   0  0  0  0  0  0
  -22.4080  -11.9688   22.4906 H   0  0  0  0  0  0
  -21.0931  -13.0864   22.2700 H   0  0  0  0  0  0
  -24.5428  -15.8632   20.5459 H   0  0  0  0  0  0
  -26.1703  -15.6996   20.1145 H   0  0  0  0  0  0
  -26.8023  -32.4304   23.0546 H   0  0  0  0  0  0
  -24.9922  -33.8743   24.9477 H   0  0  0  0  0  0
  -23.0140  -31.1063   21.1901 H   0  0  0  0  0  0
  -23.3812  -35.9213   23.3209 H   0  0  0  0  0  0
  -24.3541  -36.8778   22.2117 H   0  0  0  0  0  0
  -23.7214  -37.6029   23.6903 H   0  0  0  0  0  0
  -26.5354  -30.7854   20.6825 H   0  0  0  0  0  0
  -27.0618  -30.2169   22.1912 H   0  0  0  0  0  0
  -28.1793  -27.5342   21.5307 H   0  0  0  0  0  0
  -25.8082  -25.2661   18.8598 H   0  0  0  0  0  0
  -24.2440  -27.0209   18.7901 H   0  0  0  0  0  0
  -24.1849  -30.1877   19.3545 H   0  0  0  0  0  0
  -23.0359  -28.9677   19.7855 H   0  0  0  0  0  0
  -25.1429  -36.1273   25.0717 H   0  0  0  0  0  0
  -21.0110  -28.3543   24.1136 H   0  0  0  0  0  0
  -20.5594  -26.2504   23.3773 H   0  0  0  0  0  0
  -21.6668  -26.7238   22.1306 H   0  0  0  0  0  0
  -19.6952  -25.6202   21.1368 H   0  0  0  0  0  0
  -19.6782  -27.3061   20.6703 H   0  0  0  0  0  0
  -17.4272  -26.6731   21.3986 H   0  0  0  0  0  0
  -18.0323  -26.0149   22.9020 H   0  0  0  0  0  0
  -19.8047  -30.7406   24.2060 H   0  0  0  0  0  0
  -17.5097  -31.6287   24.5163 H   0  0  0  0  0  0
  -15.5431  -30.2947   23.7772 H   0  0  0  0  0  0
  -15.8763  -28.0774   22.7202 H   0  0  0  0  0  0
  -24.5835  -30.7193   25.7396 H   0  0  0  0  0  0
  -24.8663  -32.3205   26.4101 H   0  0  0  0  0  0
  -25.7538  -30.9378   27.0226 H   0  0  0  0  0  0
  -26.3669  -29.5957   24.2433 H   0  0  0  0  0  0
  -27.4079  -29.7497   25.6272 H   0  0  0  0  0  0
  -27.9704  -30.3612   24.1011 H   0  0  0  0  0  0
  -27.2459  -33.3971   26.1540 H   0  0  0  0  0  0
  -28.4071  -32.6718   25.0524 H   0  0  0  0  0  0
  -28.0403  -31.9001   26.5878 H   0  0  0  0  0  0
  -28.2478  -37.9990   24.7529 H   0  0  0  0  0  0
  -28.1123  -36.2505   24.6287 H   0  0  0  0  0  0
  -27.2257  -37.1225   25.8865 H   0  0  0  0  0  0
  -21.0261  -29.8413   21.6013 H   0  0  0  0  0  0
  -26.0003  -38.2481   24.1424 H   0  0  0  0  0  0
  -26.6296  -23.4084   22.6890 H   0  0  0  0  0  0
  -29.1022  -25.2137   22.6708 H   0  0  0  0  0  0
  -26.6473  -21.0874   21.3015 H   0  0  0  0  0  0
  -30.5498  -21.8551   19.2677 H   0  0  0  0  0  0
  -32.5514  -22.2125   24.1477 H   0  0  0  0  0  0
  -31.0297  -21.4262   24.4964 H   0  0  0  0  0  0
  -31.1118  -23.1837   24.3906 H   0  0  0  0  0  0
  -32.7784  -20.7077   22.2429 H   0  0  0  0  0  0
  -31.6952  -20.6990   20.8771 H   0  0  0  0  0  0
  -31.1952  -19.9727   22.3915 H   0  0  0  0  0  0
  -29.2781  -22.4483   23.2741 H   0  0  0  0  0  0
  -29.2340  -21.1967   22.5032 H   0  0  0  0  0  0
  -31.8102  -24.8119   20.3139 H   0  0  0  0  0  0
  -28.0893  -18.2699   20.3344 H   0  0  0  0  0  0
  1 25  1  0  0  0
  1 30  2  0  0  0
  1 83  1  0  0  0
  2  3  1  0  0  0
  2 25  1  0  0  0
  2 85  1  0  0  0
  2 86  1  0  0  0
  3  4  1  0  0  0
  3 87  1  0  0  0
  3 88  1  0  0  0
  4  5  1  0  0  0
  4 89  1  0  0  0
  4 90  1  0  0  0
  5  6  1  0  0  0
  5 26  1  0  0  0
  5 91  1  0  0  0
  6 25  1  0  0  0
  6 92  1  0  0  0
  6 93  1  0  0  0
  7  8  2  0  0  0
  7 26  1  0  0  0
  7 29  1  0  0  0
  8  9  1  0  0  0
  8 22  1  0  0  0
  9 10  1  0  0  0
  9 27  2  0  0  0
 10 11  2  0  0  0
 10 15  1  0  0  0
 11 12  1  0  0  0
 11 94  1  0  0  0
 12 13  2  0  0  0
 12 95  1  0  0  0
 13 14  1  0  0  0
 13 31  1  0  0  0
 14 15  2  0  0  0
 14 96  1  0  0  0
 15 97  1  0  0  0
 16 17  2  0  0  0
 16 21  1  0  0  0
 16 31  1  0  0  0
 17 18  1  0  0  0
 17 98  1  0  0  0
 18 19  2  0  0  0
 18 99  1  0  0  0
 19 20  1  0  0  0
 19 24  1  0  0  0
 20 21  2  0  0  0
 20100  1  0  0  0
 21 23  1  0  0  0
 22 28  1  0  0  0
 22 32  2  0  0  0
 26 27  1  0  0  0
 28101  1  0  0  0
 28102  1  0  0  0
 29103  1  0  0  0
 29104  1  0  0  0
 33 34  1  0  0  0
 33 66  1  0  0  0
 33 70  2  0  0  0
 34 36  1  0  0  0
 34 59  1  0  0  0
 34105  1  0  0  0
 35 44  2  0  0  0
 35 45  1  0  0  0
 35 68  1  0  0  0
 36 56  1  0  0  0
 36106  1  0  0  0
 37 39  1  0  0  0
 37 47  1  0  0  0
 37 66  1  0  0  0
 37107  1  0  0  0
 38 43  2  0  0  0
 38 46  1  0  0  0
 38 47  1  0  0  0
 39 64  1  0  0  0
 39 67  2  0  0  0
 40 52  1  0  0  0
 40 53  2  0  0  0
 40 58  1  0  0  0
 41108  1  0  0  0
 41109  1  0  0  0
 41110  1  0  0  0
 41 48  1  0  0  0
 42 43  1  0  0  0
 42 66  1  0  0  0
 42111  1  0  0  0
 42112  1  0  0  0
 43 44  1  0  0  0
 44113  1  0  0  0
 45 46  2  0  0  0
 45114  1  0  0  0
 46115  1  0  0  0
 47116  1  0  0  0
 47117  1  0  0  0
 48 56  1  0  0  0
 48 65  1  0  0  0
 48118  1  0  0  0
 49 50  1  0  0  0
 49 53  1  0  0  0
 49 64  1  0  0  0
 49119  1  0  0  0
 50 51  1  0  0  0
 50120  1  0  0  0
 50121  1  0  0  0
 51 52  1  0  0  0
 51122  1  0  0  0
 51123  1  0  0  0
 52124  1  0  0  0
 52125  1  0  0  0
 53 54  1  0  0  0
 54 55  2  0  0  0
 54126  1  0  0  0
 55 57  1  0  0  0
 55127  1  0  0  0
 56 69  2  0  0  0
 57 58  2  0  0  0
 57128  1  0  0  0
 58129  1  0  0  0
 59 60  1  0  0  0
 59 61  1  0  0  0
 59 62  1  0  0  0
 60130  1  0  0  0
 60131  1  0  0  0
 60132  1  0  0  0
 61133  1  0  0  0
 61134  1  0  0  0
 61135  1  0  0  0
 62136  1  0  0  0
 62137  1  0  0  0
 62138  1  0  0  0
 63 65  1  0  0  0
 63139  1  0  0  0
 63140  1  0  0  0
 63141  1  0  0  0
 64142  1  0  0  0
 65143  1  0  0  0
 68 80  1  0  0  0
 71 72  2  0  0  0
 71 73  1  0  0  0
 71144  1  0  0  0
 72 75  1  0  0  0
 72145  1  0  0  0
 73 76  2  0  0  0
 73146  1  0  0  0
 74 75  2  0  0  0
 74 76  1  0  0  0
 74147  1  0  0  0
 75 82  1  0  0  0
 76 83  1  0  0  0
 77 81  1  0  0  0
 77 82  1  0  0  0
 77 84  2  0  0  0
 78148  1  0  0  0
 78149  1  0  0  0
 78150  1  0  0  0
 78 81  1  0  0  0
 79 81  1  0  0  0
 79151  1  0  0  0
 79152  1  0  0  0
 79153  1  0  0  0
 80 81  1  0  0  0
 80154  1  0  0  0
 80155  1  0  0  0
 82156  1  0  0  0
 83157  1  0  0  0
M  ISO  4   1 100  68 101  80 101  83 100
M  END
> <chiral flag>
0

> <version>
0

> <s_m_source_file>
/data/baiqing/PycharmProjects/Reinvent-master-3.2/result/LINK_invent/BTK/process_docking_weight1_custom_product_contain_oxygen_bond_distance_aromatic_linkinvent_7_9_3/rearranged_h_0152.sdf

> <i_m_source_file_index>
15

> <r_mmod_Potential_Energy-OPLS-2005>
15340.49609375

> <r_mmod_Stretch_Energy-OPLS-2005>
8459.3388671875

> <r_mmod_Bend_Energy-OPLS-2005>
1145.12719726562

> <r_mmod_Torsional_Energy-OPLS-2005>
418.028900146484

> <r_mmod_Improper_Torsional_Energy-OPLS-2005>
18.8183708190918

> <r_mmod_Van_der_Waal_Energy-OPLS-2005>
2070.40502929688

> <r_mmod_Electrostatic_Energy-OPLS-2005>
-377.385528564453

> <r_mmod_Solvation_Energy-OPLS-2005>
-240.677597045898

> <b_mmod_Minimization_Converged-OPLS-2005>
0

> <r_mmod_RMS_Derivative-OPLS-2005>
2.19997715950012

$$$$
15
                    3D
 Structure written by MMmdl.
154163  0  0  1  0            999 V2000
  -30.6326  -14.7682   20.4426 C   0  0  0  0  0  0
  -30.4579  -12.4621   19.4639 C   0  0  0  0  0  0
  -29.5211  -12.4903   18.2334 C   0  0  0  0  0  0
  -28.0571  -12.3000   18.6685 C   0  0  0  0  0  0
  -27.6607  -13.2209   19.8497 C   0  0  2  0  0  0
  -28.7138  -13.1855   20.9822 C   0  0  0  0  0  0
  -25.2674  -13.8150   20.5698 C   0  0  0  0  0  0
  -24.1932  -13.0441   20.9179 C   0  0  0  0  0  0
  -24.6482  -11.6892   20.8733 C   0  0  0  0  0  0
  -23.9118  -10.4288   21.0389 C   0  0  0  0  0  0
  -24.3644   -9.4207   21.9173 C   0  0  0  0  0  0
  -23.6299   -8.2258   22.0771 C   0  0  0  0  0  0
  -22.4275   -8.0291   21.3562 C   0  0  0  0  0  0
  -21.9908   -9.0281   20.4668 C   0  0  0  0  0  0
  -22.7269  -10.2145   20.3063 C   0  0  0  0  0  0
  -21.6867   -6.0734   22.5266 C   0  0  0  0  0  0
  -21.4020   -6.5645   23.8198 C   0  0  0  0  0  0
  -21.3665   -5.6800   24.9165 C   0  0  0  0  0  0
  -21.6037   -4.3059   24.7214 C   0  0  0  0  0  0
  -21.8830   -3.8153   23.4339 C   0  0  0  0  0  0
  -21.9215   -4.6960   22.3399 C   0  0  0  0  0  0
  -22.7953  -13.5241   21.1822 C   0  0  0  0  0  0
  -22.1690   -4.2159   21.0968 F   0  0  0  0  0  0
  -21.5614   -3.4541   25.7728 F   0  0  0  0  0  0
  -30.0193  -13.5309   20.3962 N   0  0  0  0  0  0
  -26.3103  -12.9350   20.3287 N   0  0  0  0  0  0
  -25.9431  -11.6508   20.5790 N   0  0  0  0  0  0
  -22.0601  -12.8241   22.0349 N   0  0  0  0  0  0
  -25.4396  -15.1876   20.4109 N   0  0  0  0  0  0
  -31.8074  -14.8800   20.0799 O   0  0  0  0  0  0
  -21.6642   -6.8879   21.4234 O   0  0  0  0  0  0
  -22.3650  -14.5585   20.6700 O   0  0  0  0  0  0
  -24.6289  -31.8551   23.1964 C   0  0  0  0  0  0
  -25.9122  -32.4762   23.8318 C   0  0  1  0  0  0
  -27.2459  -27.2501   20.1429 C   0  0  0  0  0  0
  -25.5934  -33.8564   24.2244 N   0  0  0  0  0  0
  -23.4288  -30.4740   21.5361 C   0  0  2  0  0  0
  -24.8929  -28.9252   20.1015 C   0  0  0  0  0  0
  -22.7523  -29.4593   22.4886 C   0  0  0  0  0  0
  -18.0353  -28.1352   22.8460 C   0  0  0  0  0  0
  -24.1500  -36.7273   23.2638 C   0  0  0  0  0  0
  -25.9766  -30.7619   21.3865 C   0  0  0  0  0  0
  -26.0557  -29.3811   20.7363 C   0  0  0  0  0  0
  -27.2268  -28.5492   20.7630 C   0  0  0  0  0  0
  -26.0718  -26.8953   19.4357 C   0  0  0  0  0  0
  -24.9115  -27.6923   19.4347 C   0  0  0  0  0  0
  -23.6513  -29.7975   20.1548 C   0  0  0  0  0  0
  -25.4119  -36.3062   24.0324 C   0  0  1  0  0  0
  -20.5940  -28.3707   23.1246 C   0  0  2  0  0  0
  -20.6871  -26.9449   22.5315 C   0  0  0  0  0  0
  -19.5834  -26.6412   21.5126 C   0  0  0  0  0  0
  -18.2004  -26.7930   22.1529 C   0  0  0  0  0  0
  -19.1583  -28.8822   23.2896 C   0  0  0  0  0  0
  -18.9486  -30.1429   23.8903 C   0  0  0  0  0  0
  -17.6473  -30.6561   24.0534 C   0  0  0  0  0  0
  -25.9051  -34.9443   23.5090 C   0  0  0  0  0  0
  -16.5392  -29.9018   23.6300 C   0  0  0  0  0  0
  -16.7347  -28.6447   23.0338 C   0  0  0  0  0  0
  -26.4518  -31.6591   25.0704 C   0  0  0  0  0  0
  -25.3725  -31.3802   26.1417 C   0  0  0  0  0  0
  -27.0364  -30.2993   24.6234 C   0  0  0  0  0  0
  -27.6073  -32.4327   25.7482 C   0  0  0  0  0  0
  -27.5579  -37.1775   24.8449 C   0  0  0  0  0  0
  -21.4222  -29.3067   22.3643 N   0  0  0  0  0  0
  -26.4287  -37.3751   23.9420 N   0  0  0  0  0  0
  -24.6952  -31.0506   22.0947 N   0  0  0  0  0  0
  -23.4236  -28.8102   23.2950 O   0  0  0  0  0  0
  -28.3276  -26.3267   20.2413 O   0  0  0  0  0  0
  -26.5619  -34.8898   22.4653 O   0  0  0  0  0  0
  -23.5424  -32.1390   23.7234 O   0  0  0  0  0  0
  -29.2545  -18.3260   21.1272 C   0  0  0  0  0  0
  -29.5524  -19.7034   20.6603 C   0  0  0  0  0  0
  -29.9838  -17.2643   20.5723 C   0  0  0  0  0  0
  -28.9447  -23.6608   20.5366 C   0  0  0  0  0  0
  -26.6775  -20.9032   20.3710 C   0  0  0  0  0  0
  -27.4849  -20.7992   21.6634 C   0  0  0  0  0  0
  -27.4441  -21.9238   19.5174 C   0  0  0  0  0  0
  -28.9181  -21.0820   21.1916 C   0  0  2  0  0  0
  -28.0937  -24.8711   19.8749 C   0  0  0  0  0  0
  -30.5130  -19.6852   19.7529 N   0  0  0  0  0  0
  -28.6279  -22.3075   20.3051 N   0  0  0  0  0  0
  -29.8593  -15.8727   20.7790 N   0  0  0  0  0  0
  -29.8739  -23.9603   21.2959 O   0  0  0  0  0  0
  -31.0585  -18.0850   19.4665 S   0  0  0  0  0  0
  -31.4945  -12.5858   19.1431 H   0  0  0  0  0  0
  -30.4173  -11.4889   19.9552 H   0  0  0  0  0  0
  -29.7996  -11.7052   17.5272 H   0  0  0  0  0  0
  -29.6329  -13.4380   17.7045 H   0  0  0  0  0  0
  -27.9464  -11.2583   18.9775 H   0  0  0  0  0  0
  -27.3837  -12.4455   17.8224 H   0  0  0  0  0  0
  -27.6477  -14.2307   19.4401 H   0  0  0  0  0  0
  -28.7594  -12.2099   21.4666 H   0  0  0  0  0  0
  -28.4493  -13.8975   21.7643 H   0  0  0  0  0  0
  -25.2805   -9.5674   22.4717 H   0  0  0  0  0  0
  -24.0015   -7.4663   22.7508 H   0  0  0  0  0  0
  -21.0825   -8.8826   19.8977 H   0  0  0  0  0  0
  -22.3747  -10.9690   19.6160 H   0  0  0  0  0  0
  -21.2006   -7.6153   23.9686 H   0  0  0  0  0  0
  -21.1462   -6.0536   25.9057 H   0  0  0  0  0  0
  -22.0600   -2.7610   23.2845 H   0  0  0  0  0  0
  -22.4252  -11.9886   22.4699 H   0  0  0  0  0  0
  -21.1242  -13.1308   22.2596 H   0  0  0  0  0  0
  -24.6749  -15.8441   20.5275 H   0  0  0  0  0  0
  -26.2817  -15.6176   20.0499 H   0  0  0  0  0  0
  -26.7194  -32.5438   23.1057 H   0  0  0  0  0  0
  -25.0099  -33.9727   25.0406 H   0  0  0  0  0  0
  -22.7199  -31.2925   21.3848 H   0  0  0  0  0  0
  -23.3755  -35.9607   23.3274 H   0  0  0  0  0  0
  -24.3583  -36.8918   22.2052 H   0  0  0  0  0  0
  -23.7242  -37.6465   23.6673 H   0  0  0  0  0  0
  -26.1082  -31.5180   20.6110 H   0  0  0  0  0  0
  -26.8545  -30.8190   22.0183 H   0  0  0  0  0  0
  -28.1028  -28.8793   21.3075 H   0  0  0  0  0  0
  -26.0231  -25.9763   18.8744 H   0  0  0  0  0  0
  -24.0394  -27.3454   18.8983 H   0  0  0  0  0  0
  -23.7427  -30.5655   19.3878 H   0  0  0  0  0  0
  -22.7780  -29.2103   19.8659 H   0  0  0  0  0  0
  -25.1283  -36.1896   25.0806 H   0  0  0  0  0  0
  -21.0048  -28.3244   24.1356 H   0  0  0  0  0  0
  -20.5867  -26.2288   23.3500 H   0  0  0  0  0  0
  -21.6738  -26.7528   22.1070 H   0  0  0  0  0  0
  -19.7039  -25.6325   21.1153 H   0  0  0  0  0  0
  -19.6837  -27.3192   20.6638 H   0  0  0  0  0  0
  -17.4305  -26.6740   21.3885 H   0  0  0  0  0  0
  -18.0374  -26.0021   22.8878 H   0  0  0  0  0  0
  -19.7953  -30.7280   24.2222 H   0  0  0  0  0  0
  -17.4983  -31.6268   24.5051 H   0  0  0  0  0  0
  -15.5380  -30.2878   23.7564 H   0  0  0  0  0  0
  -15.8767  -28.0737   22.7041 H   0  0  0  0  0  0
  -24.5867  -30.7187   25.7756 H   0  0  0  0  0  0
  -24.8961  -32.3016   26.4796 H   0  0  0  0  0  0
  -25.8019  -30.8997   27.0217 H   0  0  0  0  0  0
  -26.2959  -29.6725   24.1247 H   0  0  0  0  0  0
  -27.4010  -29.7284   25.4786 H   0  0  0  0  0  0
  -27.8863  -30.4236   23.9505 H   0  0  0  0  0  0
  -27.2676  -33.3606   26.2095 H   0  0  0  0  0  0
  -28.3892  -32.6921   25.0328 H   0  0  0  0  0  0
  -28.0739  -31.8414   26.5371 H   0  0  0  0  0  0
  -28.2568  -38.0099   24.7494 H   0  0  0  0  0  0
  -28.1094  -36.2611   24.6258 H   0  0  0  0  0  0
  -27.2290  -37.1407   25.8851 H   0  0  0  0  0  0
  -20.9386  -29.8802   21.6873 H   0  0  0  0  0  0
  -26.0159  -38.2822   24.1430 H   0  0  0  0  0  0
  -28.5032  -18.1511   21.8822 H   0  0  0  0  0  0
  -25.6441  -21.2054   20.5473 H   0  0  0  0  0  0
  -26.6517  -19.9399   19.8584 H   0  0  0  0  0  0
  -27.3413  -19.8642   22.1973 H   0  0  0  0  0  0
  -27.1567  -21.5766   22.3531 H   0  0  0  0  0  0
  -26.7772  -22.7460   19.2679 H   0  0  0  0  0  0
  -27.7531  -21.4827   18.5687 H   0  0  0  0  0  0
  -29.5003  -21.4171   22.0532 H   0  0  0  0  0  0
  -27.0689  -24.6388   20.1534 H   0  0  0  0  0  0
  -28.1894  -24.7807   18.7897 H   0  0  0  0  0  0
  -28.9707  -15.6002   21.1673 H   0  0  0  0  0  0
  1 25  1  0  0  0
  1 30  2  0  0  0
  1 82  1  0  0  0
  2  3  1  0  0  0
  2 25  1  0  0  0
  2 85  1  0  0  0
  2 86  1  0  0  0
  3  4  1  0  0  0
  3 87  1  0  0  0
  3 88  1  0  0  0
  4  5  1  0  0  0
  4 89  1  0  0  0
  4 90  1  0  0  0
  5  6  1  0  0  0
  5 26  1  0  0  0
  5 91  1  0  0  0
  6 25  1  0  0  0
  6 92  1  0  0  0
  6 93  1  0  0  0
  7  8  2  0  0  0
  7 26  1  0  0  0
  7 29  1  0  0  0
  8  9  1  0  0  0
  8 22  1  0  0  0
  9 10  1  0  0  0
  9 27  2  0  0  0
 10 11  2  0  0  0
 10 15  1  0  0  0
 11 12  1  0  0  0
 11 94  1  0  0  0
 12 13  2  0  0  0
 12 95  1  0  0  0
 13 14  1  0  0  0
 13 31  1  0  0  0
 14 15  2  0  0  0
 14 96  1  0  0  0
 15 97  1  0  0  0
 16 17  2  0  0  0
 16 21  1  0  0  0
 16 31  1  0  0  0
 17 18  1  0  0  0
 17 98  1  0  0  0
 18 19  2  0  0  0
 18 99  1  0  0  0
 19 20  1  0  0  0
 19 24  1  0  0  0
 20 21  2  0  0  0
 20100  1  0  0  0
 21 23  1  0  0  0
 22 28  1  0  0  0
 22 32  2  0  0  0
 26 27  1  0  0  0
 28101  1  0  0  0
 28102  1  0  0  0
 29103  1  0  0  0
 29104  1  0  0  0
 33 34  1  0  0  0
 33 66  1  0  0  0
 33 70  2  0  0  0
 34 36  1  0  0  0
 34 59  1  0  0  0
 34105  1  0  0  0
 35 44  2  0  0  0
 35 45  1  0  0  0
 35 68  1  0  0  0
 36 56  1  0  0  0
 36106  1  0  0  0
 37 39  1  0  0  0
 37 47  1  0  0  0
 37 66  1  0  0  0
 37107  1  0  0  0
 38 43  2  0  0  0
 38 46  1  0  0  0
 38 47  1  0  0  0
 39 64  1  0  0  0
 39 67  2  0  0  0
 40 52  1  0  0  0
 40 53  2  0  0  0
 40 58  1  0  0  0
 41108  1  0  0  0
 41109  1  0  0  0
 41110  1  0  0  0
 41 48  1  0  0  0
 42 43  1  0  0  0
 42 66  1  0  0  0
 42111  1  0  0  0
 42112  1  0  0  0
 43 44  1  0  0  0
 44113  1  0  0  0
 45 46  2  0  0  0
 45114  1  0  0  0
 46115  1  0  0  0
 47116  1  0  0  0
 47117  1  0  0  0
 48 56  1  0  0  0
 48 65  1  0  0  0
 48118  1  0  0  0
 49 50  1  0  0  0
 49 53  1  0  0  0
 49 64  1  0  0  0
 49119  1  0  0  0
 50 51  1  0  0  0
 50120  1  0  0  0
 50121  1  0  0  0
 51 52  1  0  0  0
 51122  1  0  0  0
 51123  1  0  0  0
 52124  1  0  0  0
 52125  1  0  0  0
 53 54  1  0  0  0
 54 55  2  0  0  0
 54126  1  0  0  0
 55 57  1  0  0  0
 55127  1  0  0  0
 56 69  2  0  0  0
 57 58  2  0  0  0
 57128  1  0  0  0
 58129  1  0  0  0
 59 60  1  0  0  0
 59 61  1  0  0  0
 59 62  1  0  0  0
 60130  1  0  0  0
 60131  1  0  0  0
 60132  1  0  0  0
 61133  1  0  0  0
 61134  1  0  0  0
 61135  1  0  0  0
 62136  1  0  0  0
 62137  1  0  0  0
 62138  1  0  0  0
 63 65  1  0  0  0
 63139  1  0  0  0
 63140  1  0  0  0
 63141  1  0  0  0
 64142  1  0  0  0
 65143  1  0  0  0
 68 79  1  0  0  0
 71 72  1  0  0  0
 71 73  2  0  0  0
 71144  1  0  0  0
 72 80  2  0  0  0
 72 78  1  0  0  0
 73 82  1  0  0  0
 73 84  1  0  0  0
 74 79  1  0  0  0
 74 81  1  0  0  0
 74 83  2  0  0  0
 75 76  1  0  0  0
 75 77  1  0  0  0
 75145  1  0  0  0
 75146  1  0  0  0
 76 78  1  0  0  0
 76147  1  0  0  0
 76148  1  0  0  0
 77 81  1  0  0  0
 77149  1  0  0  0
 77150  1  0  0  0
 78 81  1  0  0  0
 78151  1  0  0  0
 79152  1  0  0  0
 79153  1  0  0  0
 80 84  1  0  0  0
 82154  1  0  0  0
M  ISO  4   1 100  68 101  79 101  82 100
M  END
> <chiral flag>
0

> <version>
0

> <s_m_source_file>
/data/baiqing/PycharmProjects/Reinvent-master-3.2/result/LINK_invent/BTK/process_docking_weight1_custom_product_contain_oxygen_bond_distance_aromatic_linkinvent_7_9_3/rearranged_h_0152.sdf

> <i_m_source_file_index>
16

> <r_mmod_Potential_Energy-OPLS-2005>
273.633972167969

> <r_mmod_Stretch_Energy-OPLS-2005>
142.111694335938

> <r_mmod_Bend_Energy-OPLS-2005>
222.053802490234

> <r_mmod_Torsional_Energy-OPLS-2005>
291.826721191406

> <r_mmod_Improper_Torsional_Energy-OPLS-2005>
5.6007227897644

> <r_mmod_Van_der_Waal_Energy-OPLS-2005>
125.293296813965

> <r_mmod_Electrostatic_Energy-OPLS-2005>
-353.464324951172

> <r_mmod_Solvation_Energy-OPLS-2005>
-258.70947265625

> <b_mmod_Minimization_Converged-OPLS-2005>
0

> <r_mmod_RMS_Derivative-OPLS-2005>
5.02405738830566

$$$$
16
                    3D
 Structure written by MMmdl.
160169  0  0  1  0            999 V2000
  -30.6056  -14.8086   20.4387 C   0  0  0  0  0  0
  -30.4284  -12.4897   19.4968 C   0  0  0  0  0  0
  -29.5212  -12.5342   18.2482 C   0  0  0  0  0  0
  -28.0433  -12.3555   18.6431 C   0  0  0  0  0  0
  -27.6384  -13.2471   19.8475 C   0  0  2  0  0  0
  -28.6793  -13.2204   20.9883 C   0  0  0  0  0  0
  -25.2475  -13.8194   20.5653 C   0  0  0  0  0  0
  -24.1782  -13.0422   20.9194 C   0  0  0  0  0  0
  -24.6397  -11.6909   20.8709 C   0  0  0  0  0  0
  -23.9056  -10.4295   21.0390 C   0  0  0  0  0  0
  -24.3602   -9.4217   21.9180 C   0  0  0  0  0  0
  -23.6290   -8.2233   22.0743 C   0  0  0  0  0  0
  -22.4273   -8.0265   21.3531 C   0  0  0  0  0  0
  -21.9908   -9.0243   20.4643 C   0  0  0  0  0  0
  -22.7225  -10.2125   20.3051 C   0  0  0  0  0  0
  -21.6854   -6.0730   22.5285 C   0  0  0  0  0  0
  -21.4030   -6.5637   23.8222 C   0  0  0  0  0  0
  -21.3678   -5.6789   24.9185 C   0  0  0  0  0  0
  -21.6040   -4.3047   24.7226 C   0  0  0  0  0  0
  -21.8823   -3.8136   23.4346 C   0  0  0  0  0  0
  -21.9196   -4.6954   22.3405 C   0  0  0  0  0  0
  -22.7805  -13.5212   21.1874 C   0  0  0  0  0  0
  -22.1655   -4.2134   21.0976 F   0  0  0  0  0  0
  -21.5620   -3.4544   25.7743 F   0  0  0  0  0  0
  -29.9780  -13.5758   20.4057 N   0  0  0  0  0  0
  -26.2922  -12.9433   20.3238 N   0  0  0  0  0  0
  -25.9339  -11.6554   20.5707 N   0  0  0  0  0  0
  -22.0442  -12.8225   22.0432 N   0  0  0  0  0  0
  -25.4110  -15.1931   20.4066 N   0  0  0  0  0  0
  -31.8030  -14.8550   20.1411 O   0  0  0  0  0  0
  -21.6619   -6.8874   21.4241 O   0  0  0  0  0  0
  -22.3505  -14.5529   20.6729 O   0  0  0  0  0  0
  -24.6365  -31.8510   23.1969 C   0  0  0  0  0  0
  -25.9171  -32.4721   23.8309 C   0  0  1  0  0  0
  -27.2221  -27.2167   20.1322 C   0  0  0  0  0  0
  -25.5959  -33.8524   24.2233 N   0  0  0  0  0  0
  -23.4367  -30.4731   21.5405 C   0  0  2  0  0  0
  -24.8842  -28.9135   20.1144 C   0  0  0  0  0  0
  -22.7531  -29.4565   22.4886 C   0  0  0  0  0  0
  -18.0298  -28.1383   22.8467 C   0  0  0  0  0  0
  -24.1493  -36.7262   23.2638 C   0  0  0  0  0  0
  -25.9871  -30.7485   21.3847 C   0  0  0  0  0  0
  -26.0586  -29.3656   20.7282 C   0  0  0  0  0  0
  -27.2321  -28.5329   20.7230 C   0  0  0  0  0  0
  -26.0258  -26.8533   19.4731 C   0  0  0  0  0  0
  -24.8764  -27.6671   19.4721 C   0  0  0  0  0  0
  -23.6595  -29.8089   20.1569 C   0  0  0  0  0  0
  -25.4112  -36.3038   24.0319 C   0  0  1  0  0  0
  -20.5911  -28.3687   23.1255 C   0  0  2  0  0  0
  -20.6782  -26.9402   22.5404 C   0  0  0  0  0  0
  -19.5763  -26.6378   21.5200 C   0  0  0  0  0  0
  -18.1941  -26.7926   22.1604 C   0  0  0  0  0  0
  -19.1559  -28.8856   23.2848 C   0  0  0  0  0  0
  -18.9462  -30.1448   23.8881 C   0  0  0  0  0  0
  -17.6463  -30.6573   24.0565 C   0  0  0  0  0  0
  -25.9067  -34.9413   23.5082 C   0  0  0  0  0  0
  -16.5357  -29.9070   23.6338 C   0  0  0  0  0  0
  -16.7281  -28.6493   23.0346 C   0  0  0  0  0  0
  -26.4530  -31.6544   25.0705 C   0  0  0  0  0  0
  -25.3745  -31.3709   26.1427 C   0  0  0  0  0  0
  -27.0382  -30.2950   24.6232 C   0  0  0  0  0  0
  -27.6086  -32.4294   25.7481 C   0  0  0  0  0  0
  -27.5588  -37.1767   24.8442 C   0  0  0  0  0  0
  -21.4234  -29.3028   22.3632 N   0  0  0  0  0  0
  -26.4267  -37.3757   23.9434 N   0  0  0  0  0  0
  -24.7061  -31.0432   22.0969 N   0  0  0  0  0  0
  -23.4206  -28.8119   23.3015 O   0  0  0  0  0  0
  -28.2994  -26.2831   20.1521 O   0  0  0  0  0  0
  -26.5635  -34.8907   22.4650 O   0  0  0  0  0  0
  -23.5497  -32.1354   23.7231 O   0  0  0  0  0  0
  -31.2645  -19.2567   19.8320 C   0  0  0  0  0  0
  -31.3664  -17.8336   19.9914 C   0  0  0  0  0  0
  -29.9936  -19.6557   20.1610 C   0  0  0  0  0  0
  -30.1504  -17.3519   20.4060 C   0  0  0  0  0  0
  -29.3257  -23.1900   18.7539 C   0  0  0  0  0  0
  -29.9362  -21.7588   18.7295 C   0  0  0  0  0  0
  -29.0261  -23.5262   20.2232 C   0  0  2  0  0  0
  -28.6853  -22.0018   20.7468 C   0  0  0  0  0  0
  -27.2051  -21.6766   20.4715 C   0  0  0  0  0  0
  -28.9434  -21.8208   22.2588 C   0  0  0  0  0  0
  -28.0206  -24.8151   20.4812 C   0  0  0  0  0  0
  -29.5323  -21.0432   19.9442 N   0  0  0  0  0  0
  -29.8442  -15.9782   20.6173 N   0  0  0  0  0  0
  -29.2686  -18.4842   20.5281 O   0  0  0  0  0  0
  -30.2569  -23.8574   20.8399 O   0  0  0  0  0  0
  -31.4751  -12.5981   19.2056 H   0  0  0  0  0  0
  -30.3571  -11.5182   19.9903 H   0  0  0  0  0  0
  -29.8183  -11.7688   17.5314 H   0  0  0  0  0  0
  -29.6444  -13.4924   17.7429 H   0  0  0  0  0  0
  -27.8899  -11.3048   18.8880 H   0  0  0  0  0  0
  -27.3958  -12.5704   17.7896 H   0  0  0  0  0  0
  -27.6218  -14.2646   19.4555 H   0  0  0  0  0  0
  -28.7237  -12.2414   21.4694 H   0  0  0  0  0  0
  -28.4049  -13.9324   21.7669 H   0  0  0  0  0  0
  -25.2726   -9.5697   22.4774 H   0  0  0  0  0  0
  -24.0004   -7.4628   22.7454 H   0  0  0  0  0  0
  -21.0834   -8.8781   19.8964 H   0  0  0  0  0  0
  -22.3673  -10.9675   19.6176 H   0  0  0  0  0  0
  -21.2034   -7.6157   23.9727 H   0  0  0  0  0  0
  -21.1502   -6.0508   25.9094 H   0  0  0  0  0  0
  -22.0586   -2.7600   23.2832 H   0  0  0  0  0  0
  -22.4036  -11.9878   22.4818 H   0  0  0  0  0  0
  -21.1080  -13.1302   22.2644 H   0  0  0  0  0  0
  -24.6256  -15.8305   20.4896 H   0  0  0  0  0  0
  -26.2520  -15.6463   20.0707 H   0  0  0  0  0  0
  -26.7237  -32.5372   23.1039 H   0  0  0  0  0  0
  -25.0112  -33.9654   25.0386 H   0  0  0  0  0  0
  -22.7332  -31.2957   21.3922 H   0  0  0  0  0  0
  -23.3784  -35.9563   23.3229 H   0  0  0  0  0  0
  -24.3605  -36.8972   22.2069 H   0  0  0  0  0  0
  -23.7216  -37.6421   23.6724 H   0  0  0  0  0  0
  -26.1338  -31.5092   20.6169 H   0  0  0  0  0  0
  -26.8606  -30.7953   22.0223 H   0  0  0  0  0  0
  -28.1297  -28.8785   21.2168 H   0  0  0  0  0  0
  -25.9609  -25.9171   18.9405 H   0  0  0  0  0  0
  -23.9841  -27.3202   18.9684 H   0  0  0  0  0  0
  -23.7941  -30.5879   19.4044 H   0  0  0  0  0  0
  -22.7775  -29.2461   19.8452 H   0  0  0  0  0  0
  -25.1299  -36.1851   25.0809 H   0  0  0  0  0  0
  -20.9983  -28.3273   24.1384 H   0  0  0  0  0  0
  -20.5659  -26.2308   23.3606 H   0  0  0  0  0  0
  -21.6655  -26.7406   22.1231 H   0  0  0  0  0  0
  -19.6932  -25.6282   21.1246 H   0  0  0  0  0  0
  -19.6726  -27.3180   20.6718 H   0  0  0  0  0  0
  -17.4222  -26.6661   21.3996 H   0  0  0  0  0  0
  -18.0342  -26.0063   22.8993 H   0  0  0  0  0  0
  -19.7939  -30.7259   24.2258 H   0  0  0  0  0  0
  -17.5019  -31.6246   24.5158 H   0  0  0  0  0  0
  -15.5359  -30.2955   23.7670 H   0  0  0  0  0  0
  -15.8678  -28.0797   22.7058 H   0  0  0  0  0  0
  -24.5943  -30.7028   25.7758 H   0  0  0  0  0  0
  -24.8904  -32.2872   26.4814 H   0  0  0  0  0  0
  -25.8065  -30.8921   27.0222 H   0  0  0  0  0  0
  -26.2954  -29.6674   24.1297 H   0  0  0  0  0  0
  -27.4075  -29.7252   25.4764 H   0  0  0  0  0  0
  -27.8841  -30.4196   23.9473 H   0  0  0  0  0  0
  -27.2696  -33.3609   26.2035 H   0  0  0  0  0  0
  -28.3915  -32.6831   25.0315 H   0  0  0  0  0  0
  -28.0742  -31.8428   26.5416 H   0  0  0  0  0  0
  -28.2535  -38.0134   24.7594 H   0  0  0  0  0  0
  -28.1161  -36.2676   24.6129 H   0  0  0  0  0  0
  -27.2339  -37.1249   25.8849 H   0  0  0  0  0  0
  -20.9422  -29.8723   21.6812 H   0  0  0  0  0  0
  -26.0133  -38.2813   24.1504 H   0  0  0  0  0  0
  -32.0530  -19.9085   19.4838 H   0  0  0  0  0  0
  -32.2502  -17.2446   19.7891 H   0  0  0  0  0  0
  -28.3878  -23.1759   18.1999 H   0  0  0  0  0  0
  -29.9654  -23.9246   18.2610 H   0  0  0  0  0  0
  -31.0249  -21.8282   18.6973 H   0  0  0  0  0  0
  -29.6265  -21.2080   17.8407 H   0  0  0  0  0  0
  -26.5433  -22.3690   20.9915 H   0  0  0  0  0  0
  -26.9516  -20.6721   20.8096 H   0  0  0  0  0  0
  -26.9625  -21.7265   19.4110 H   0  0  0  0  0  0
  -28.3917  -22.5606   22.8412 H   0  0  0  0  0  0
  -29.9987  -21.9236   22.5187 H   0  0  0  0  0  0
  -28.6305  -20.8349   22.6036 H   0  0  0  0  0  0
  -27.7742  -24.8107   21.5436 H   0  0  0  0  0  0
  -27.0911  -24.5271   19.9979 H   0  0  0  0  0  0
  -28.8887  -15.7952   20.8801 H   0  0  0  0  0  0
  -30.7673  -23.0539   20.8173 H   0  0  0  0  0  0
  1 25  1  0  0  0
  1 30  2  0  0  0
  1 83  1  0  0  0
  2  3  1  0  0  0
  2 25  1  0  0  0
  2 86  1  0  0  0
  2 87  1  0  0  0
  3  4  1  0  0  0
  3 88  1  0  0  0
  3 89  1  0  0  0
  4  5  1  0  0  0
  4 90  1  0  0  0
  4 91  1  0  0  0
  5  6  1  0  0  0
  5 26  1  0  0  0
  5 92  1  0  0  0
  6 25  1  0  0  0
  6 93  1  0  0  0
  6 94  1  0  0  0
  7  8  2  0  0  0
  7 26  1  0  0  0
  7 29  1  0  0  0
  8  9  1  0  0  0
  8 22  1  0  0  0
  9 10  1  0  0  0
  9 27  2  0  0  0
 10 11  2  0  0  0
 10 15  1  0  0  0
 11 12  1  0  0  0
 11 95  1  0  0  0
 12 13  2  0  0  0
 12 96  1  0  0  0
 13 14  1  0  0  0
 13 31  1  0  0  0
 14 15  2  0  0  0
 14 97  1  0  0  0
 15 98  1  0  0  0
 16 17  2  0  0  0
 16 21  1  0  0  0
 16 31  1  0  0  0
 17 18  1  0  0  0
 17 99  1  0  0  0
 18 19  2  0  0  0
 18100  1  0  0  0
 19 20  1  0  0  0
 19 24  1  0  0  0
 20 21  2  0  0  0
 20101  1  0  0  0
 21 23  1  0  0  0
 22 28  1  0  0  0
 22 32  2  0  0  0
 26 27  1  0  0  0
 28102  1  0  0  0
 28103  1  0  0  0
 29104  1  0  0  0
 29105  1  0  0  0
 33 34  1  0  0  0
 33 66  1  0  0  0
 33 70  2  0  0  0
 34 36  1  0  0  0
 34 59  1  0  0  0
 34106  1  0  0  0
 35 44  2  0  0  0
 35 45  1  0  0  0
 35 68  1  0  0  0
 36 56  1  0  0  0
 36107  1  0  0  0
 37 39  1  0  0  0
 37 47  1  0  0  0
 37 66  1  0  0  0
 37108  1  0  0  0
 38 43  2  0  0  0
 38 46  1  0  0  0
 38 47  1  0  0  0
 39 64  1  0  0  0
 39 67  2  0  0  0
 40 52  1  0  0  0
 40 53  2  0  0  0
 40 58  1  0  0  0
 41109  1  0  0  0
 41110  1  0  0  0
 41111  1  0  0  0
 41 48  1  0  0  0
 42 43  1  0  0  0
 42 66  1  0  0  0
 42112  1  0  0  0
 42113  1  0  0  0
 43 44  1  0  0  0
 44114  1  0  0  0
 45 46  2  0  0  0
 45115  1  0  0  0
 46116  1  0  0  0
 47117  1  0  0  0
 47118  1  0  0  0
 48 56  1  0  0  0
 48 65  1  0  0  0
 48119  1  0  0  0
 49 50  1  0  0  0
 49 53  1  0  0  0
 49 64  1  0  0  0
 49120  1  0  0  0
 50 51  1  0  0  0
 50121  1  0  0  0
 50122  1  0  0  0
 51 52  1  0  0  0
 51123  1  0  0  0
 51124  1  0  0  0
 52125  1  0  0  0
 52126  1  0  0  0
 53 54  1  0  0  0
 54 55  2  0  0  0
 54127  1  0  0  0
 55 57  1  0  0  0
 55128  1  0  0  0
 56 69  2  0  0  0
 57 58  2  0  0  0
 57129  1  0  0  0
 58130  1  0  0  0
 59 60  1  0  0  0
 59 61  1  0  0  0
 59 62  1  0  0  0
 60131  1  0  0  0
 60132  1  0  0  0
 60133  1  0  0  0
 61134  1  0  0  0
 61135  1  0  0  0
 61136  1  0  0  0
 62137  1  0  0  0
 62138  1  0  0  0
 62139  1  0  0  0
 63 65  1  0  0  0
 63140  1  0  0  0
 63141  1  0  0  0
 63142  1  0  0  0
 64143  1  0  0  0
 65144  1  0  0  0
 68 81  1  0  0  0
 71 72  1  0  0  0
 71 73  2  0  0  0
 71145  1  0  0  0
 72 74  2  0  0  0
 72146  1  0  0  0
 73 82  1  0  0  0
 73 84  1  0  0  0
 74 83  1  0  0  0
 74 84  1  0  0  0
 75 76  1  0  0  0
 75 77  1  0  0  0
 75147  1  0  0  0
 75148  1  0  0  0
 76 82  1  0  0  0
 76149  1  0  0  0
 76150  1  0  0  0
 77 78  1  0  0  0
 77 81  1  0  0  0
 77 85  1  0  0  0
 78 79  1  0  0  0
 78 80  1  0  0  0
 78 82  1  0  0  0
 79151  1  0  0  0
 79152  1  0  0  0
 79153  1  0  0  0
 80154  1  0  0  0
 80155  1  0  0  0
 80156  1  0  0  0
 81157  1  0  0  0
 81158  1  0  0  0
 83159  1  0  0  0
 85160  1  0  0  0
M  ISO  4   1 100  68 101  81 101  83 100
M  END
> <chiral flag>
0

> <version>
0

> <s_m_source_file>
/data/baiqing/PycharmProjects/Reinvent-master-3.2/result/LINK_invent/BTK/process_docking_weight1_custom_product_contain_oxygen_bond_distance_aromatic_linkinvent_7_9_3/rearranged_h_0152.sdf

> <i_m_source_file_index>
17

> <r_mmod_Potential_Energy-OPLS-2005>
341.196319580078

> <r_mmod_Stretch_Energy-OPLS-2005>
163.962875366211

> <r_mmod_Bend_Energy-OPLS-2005>
254.84342956543

> <r_mmod_Torsional_Energy-OPLS-2005>
356.041107177734

> <r_mmod_Improper_Torsional_Energy-OPLS-2005>
4.96322059631348

> <r_mmod_Van_der_Waal_Energy-OPLS-2005>
123.396980285645

> <r_mmod_Electrostatic_Energy-OPLS-2005>
-454.907470703125

> <r_mmod_Solvation_Energy-OPLS-2005>
-221.167190551758

> <b_mmod_Minimization_Converged-OPLS-2005>
0

> <r_mmod_RMS_Derivative-OPLS-2005>
3.72704005241394

$$$$
17
                    3D
 Structure written by MMmdl.
163172  0  0  1  0            999 V2000
  -30.7038  -14.4987   20.5703 C   0  0  0  0  0  0
  -30.4228  -12.3294   19.4179 C   0  0  0  0  0  0
  -29.4892  -12.5200   18.2042 C   0  0  0  0  0  0
  -28.0123  -12.3734   18.6210 C   0  0  0  0  0  0
  -27.6603  -13.2139   19.8782 C   0  0  2  0  0  0
  -28.7080  -13.0074   20.9957 C   0  0  0  0  0  0
  -25.2560  -13.8182   20.5710 C   0  0  0  0  0  0
  -24.1826  -13.0451   20.9199 C   0  0  0  0  0  0
  -24.6393  -11.6918   20.8768 C   0  0  0  0  0  0
  -23.9073  -10.4301   21.0434 C   0  0  0  0  0  0
  -24.3626   -9.4207   21.9208 C   0  0  0  0  0  0
  -23.6291   -8.2248   22.0780 C   0  0  0  0  0  0
  -22.4272   -8.0290   21.3568 C   0  0  0  0  0  0
  -21.9929   -9.0262   20.4664 C   0  0  0  0  0  0
  -22.7255  -10.2138   20.3065 C   0  0  0  0  0  0
  -21.6841   -6.0742   22.5288 C   0  0  0  0  0  0
  -21.4012   -6.5644   23.8221 C   0  0  0  0  0  0
  -21.3660   -5.6792   24.9184 C   0  0  0  0  0  0
  -21.6040   -4.3058   24.7226 C   0  0  0  0  0  0
  -21.8816   -3.8148   23.4351 C   0  0  0  0  0  0
  -21.9195   -4.6974   22.3412 C   0  0  0  0  0  0
  -22.7841  -13.5244   21.1841 C   0  0  0  0  0  0
  -22.1664   -4.2158   21.0993 F   0  0  0  0  0  0
  -21.5629   -3.4545   25.7740 F   0  0  0  0  0  0
  -30.0344  -13.3194   20.4363 N   0  0  0  0  0  0
  -26.3026  -12.9369   20.3439 N   0  0  0  0  0  0
  -25.9330  -11.6518   20.5831 N   0  0  0  0  0  0
  -22.0453  -12.8259   22.0384 N   0  0  0  0  0  0
  -25.4205  -15.1908   20.4050 N   0  0  0  0  0  0
  -31.8364  -14.6763   20.1106 O   0  0  0  0  0  0
  -21.6633   -6.8895   21.4254 O   0  0  0  0  0  0
  -22.3533  -14.5537   20.6646 O   0  0  0  0  0  0
  -24.6187  -31.8650   23.2106 C   0  0  0  0  0  0
  -25.9071  -32.4804   23.8396 C   0  0  1  0  0  0
  -27.2420  -27.3980   20.0750 C   0  0  0  0  0  0
  -25.5917  -33.8604   24.2320 N   0  0  0  0  0  0
  -23.4085  -30.4893   21.5535 C   0  0  2  0  0  0
  -24.8542  -28.9553   20.1154 C   0  0  0  0  0  0
  -22.7428  -29.4636   22.4996 C   0  0  0  0  0  0
  -18.0266  -28.1383   22.8497 C   0  0  0  0  0  0
  -24.1490  -36.7310   23.2638 C   0  0  0  0  0  0
  -25.9439  -30.8121   21.3757 C   0  0  0  0  0  0
  -26.0177  -29.4450   20.7201 C   0  0  0  0  0  0
  -27.2060  -28.6698   20.7079 C   0  0  0  0  0  0
  -26.0498  -26.9436   19.4561 C   0  0  0  0  0  0
  -24.8664  -27.7027   19.4856 C   0  0  0  0  0  0
  -23.6182  -29.8256   20.1677 C   0  0  0  0  0  0
  -25.4111  -36.3099   24.0332 C   0  0  1  0  0  0
  -20.5857  -28.3673   23.1317 C   0  0  2  0  0  0
  -20.6762  -26.9406   22.5417 C   0  0  0  0  0  0
  -19.5734  -26.6385   21.5223 C   0  0  0  0  0  0
  -18.1911  -26.7935   22.1620 C   0  0  0  0  0  0
  -19.1515  -28.8847   23.2899 C   0  0  0  0  0  0
  -18.9442  -30.1460   23.8898 C   0  0  0  0  0  0
  -17.6443  -30.6593   24.0560 C   0  0  0  0  0  0
  -25.9046  -34.9463   23.5123 C   0  0  0  0  0  0
  -16.5333  -29.9088   23.6336 C   0  0  0  0  0  0
  -16.7252  -28.6505   23.0358 C   0  0  0  0  0  0
  -26.4478  -31.6590   25.0739 C   0  0  0  0  0  0
  -25.3737  -31.3706   26.1484 C   0  0  0  0  0  0
  -27.0308  -30.3021   24.6157 C   0  0  0  0  0  0
  -27.6053  -32.4304   25.7503 C   0  0  0  0  0  0
  -27.5588  -37.1801   24.8452 C   0  0  0  0  0  0
  -21.4150  -29.3039   22.3736 N   0  0  0  0  0  0
  -26.4289  -37.3795   23.9415 N   0  0  0  0  0  0
  -24.6757  -31.0702   22.1042 N   0  0  0  0  0  0
  -23.4181  -28.8164   23.3039 O   0  0  0  0  0  0
  -28.4142  -26.6426   20.1002 O   0  0  0  0  0  0
  -26.5606  -34.8917   22.4684 O   0  0  0  0  0  0
  -23.5367  -32.1423   23.7470 O   0  0  0  0  0  0
  -31.5922  -18.4416   22.8063 C   0  0  0  0  0  0
  -31.5023  -19.4448   21.8205 C   0  0  0  0  0  0
  -31.0864  -17.1510   22.5604 C   0  0  0  0  0  0
  -30.3373  -17.8832   20.3563 C   0  0  0  0  0  0
  -30.8625  -19.1910   20.5871 C   0  0  0  0  0  0
  -30.4810  -16.8497   21.3229 C   0  0  0  0  0  0
  -30.8884  -20.2123   19.5052 C   0  0  0  0  0  0
  -30.0227  -23.6273   18.3401 C   0  0  0  0  0  0
  -29.2995  -23.4076   20.7109 C   0  0  0  0  0  0
  -31.0895  -22.5419   18.5779 C   0  0  0  0  0  0
  -30.3239  -22.2522   20.9118 C   0  0  0  0  0  0
  -29.6633  -24.4355   19.6058 C   0  0  0  0  0  0
  -28.5036  -25.4427   19.2896 C   0  0  0  0  0  0
  -30.6914  -21.5690   19.6388 N   0  0  0  0  0  0
  -29.9966  -15.5230   21.0926 N   0  0  0  0  0  0
  -31.1727  -19.7420   18.2916 N   0  3  0  0  0  0
  -30.7454  -25.1286   19.9691 F   0  0  0  0  0  0
  -31.4649  -12.4351   19.1096 H   0  0  0  0  0  0
  -30.3310  -11.3192   19.8201 H   0  0  0  0  0  0
  -29.7309  -11.7996   17.4216 H   0  0  0  0  0  0
  -29.6475  -13.5073   17.7673 H   0  0  0  0  0  0
  -27.8251  -11.3162   18.8155 H   0  0  0  0  0  0
  -27.3586  -12.6498   17.7928 H   0  0  0  0  0  0
  -27.6997  -14.2608   19.5763 H   0  0  0  0  0  0
  -28.6935  -11.9731   21.3421 H   0  0  0  0  0  0
  -28.4737  -13.6116   21.8741 H   0  0  0  0  0  0
  -25.2783   -9.5676   22.4782 H   0  0  0  0  0  0
  -23.9991   -7.4638   22.7506 H   0  0  0  0  0  0
  -21.0875   -8.8788   19.8960 H   0  0  0  0  0  0
  -22.3735  -10.9684   19.6166 H   0  0  0  0  0  0
  -21.1989   -7.6144   23.9734 H   0  0  0  0  0  0
  -21.1489   -6.0526   25.9095 H   0  0  0  0  0  0
  -22.0590   -2.7611   23.2853 H   0  0  0  0  0  0
  -22.4027  -11.9909   22.4785 H   0  0  0  0  0  0
  -21.1068  -13.1319   22.2551 H   0  0  0  0  0  0
  -24.6388  -15.8338   20.4742 H   0  0  0  0  0  0
  -26.2592  -15.6303   20.0469 H   0  0  0  0  0  0
  -26.7142  -32.5499   23.1152 H   0  0  0  0  0  0
  -25.0071  -33.9766   25.0469 H   0  0  0  0  0  0
  -22.6990  -31.3084   21.4156 H   0  0  0  0  0  0
  -23.3755  -35.9635   23.3267 H   0  0  0  0  0  0
  -24.3592  -36.8962   22.2056 H   0  0  0  0  0  0
  -23.7231  -37.6500   23.6675 H   0  0  0  0  0  0
  -26.0668  -31.5767   20.6070 H   0  0  0  0  0  0
  -26.8284  -30.8609   21.9986 H   0  0  0  0  0  0
  -28.0996  -29.0434   21.1888 H   0  0  0  0  0  0
  -25.9824  -26.0023   18.9364 H   0  0  0  0  0  0
  -23.9737  -27.3192   19.0094 H   0  0  0  0  0  0
  -23.7280  -30.6028   19.4105 H   0  0  0  0  0  0
  -22.7406  -29.2480   19.8707 H   0  0  0  0  0  0
  -25.1283  -36.1956   25.0826 H   0  0  0  0  0  0
  -20.9938  -28.3233   24.1442 H   0  0  0  0  0  0
  -20.5679  -26.2272   23.3605 H   0  0  0  0  0  0
  -21.6628  -26.7458   22.1200 H   0  0  0  0  0  0
  -19.6895  -25.6298   21.1247 H   0  0  0  0  0  0
  -19.6681  -27.3200   20.6756 H   0  0  0  0  0  0
  -17.4187  -26.6699   21.4010 H   0  0  0  0  0  0
  -18.0285  -26.0068   22.9004 H   0  0  0  0  0  0
  -19.7918  -30.7286   24.2252 H   0  0  0  0  0  0
  -17.4997  -31.6279   24.5152 H   0  0  0  0  0  0
  -15.5335  -30.2990   23.7672 H   0  0  0  0  0  0
  -15.8648  -28.0835   22.7070 H   0  0  0  0  0  0
  -24.5888  -30.7086   25.7809 H   0  0  0  0  0  0
  -24.8963  -32.2872   26.4964 H   0  0  0  0  0  0
  -25.8083  -30.8833   27.0225 H   0  0  0  0  0  0
  -26.2866  -29.6781   24.1197 H   0  0  0  0  0  0
  -27.4032  -29.7258   25.4638 H   0  0  0  0  0  0
  -27.8723  -30.4307   23.9346 H   0  0  0  0  0  0
  -27.2689  -33.3617   26.2068 H   0  0  0  0  0  0
  -28.3877  -32.6837   25.0337 H   0  0  0  0  0  0
  -28.0701  -31.8428   26.5431 H   0  0  0  0  0  0
  -28.2562  -38.0140   24.7563 H   0  0  0  0  0  0
  -28.1127  -36.2677   24.6196 H   0  0  0  0  0  0
  -27.2312  -37.1347   25.8852 H   0  0  0  0  0  0
  -20.9308  -29.8795   21.6985 H   0  0  0  0  0  0
  -26.0168  -38.2859   24.1452 H   0  0  0  0  0  0
  -32.0789  -18.6549   23.7477 H   0  0  0  0  0  0
  -31.9632  -20.4024   22.0123 H   0  0  0  0  0  0
  -31.1835  -16.3899   23.3206 H   0  0  0  0  0  0
  -29.8620  -17.6515   19.4123 H   0  0  0  0  0  0
  -29.1285  -23.1567   17.9290 H   0  0  0  0  0  0
  -30.3855  -24.3064   17.5677 H   0  0  0  0  0  0
  -29.1742  -23.9405   21.6534 H   0  0  0  0  0  0
  -28.3295  -22.9605   20.4917 H   0  0  0  0  0  0
  -32.0284  -23.0107   18.8799 H   0  0  0  0  0  0
  -31.3030  -22.0673   17.6201 H   0  0  0  0  0  0
  -29.8988  -21.5455   21.6253 H   0  0  0  0  0  0
  -31.2327  -22.6466   21.3697 H   0  0  0  0  0  0
  -27.5943  -24.8488   19.3391 H   0  0  0  0  0  0
  -28.5915  -25.7828   18.2557 H   0  0  0  0  0  0
  -29.0643  -15.3103   21.4125 H   0  0  0  0  0  0
  -31.3895  -18.7626   18.1881 H   0  0  0  0  0  0
  -31.1463  -20.3206   17.4705 H   0  0  0  0  0  0
  1 25  1  0  0  0
  1 30  2  0  0  0
  1 85  1  0  0  0
  2  3  1  0  0  0
  2 25  1  0  0  0
  2 88  1  0  0  0
  2 89  1  0  0  0
  3  4  1  0  0  0
  3 90  1  0  0  0
  3 91  1  0  0  0
  4  5  1  0  0  0
  4 92  1  0  0  0
  4 93  1  0  0  0
  5  6  1  0  0  0
  5 26  1  0  0  0
  5 94  1  0  0  0
  6 25  1  0  0  0
  6 95  1  0  0  0
  6 96  1  0  0  0
  7  8  2  0  0  0
  7 26  1  0  0  0
  7 29  1  0  0  0
  8  9  1  0  0  0
  8 22  1  0  0  0
  9 10  1  0  0  0
  9 27  2  0  0  0
 10 11  2  0  0  0
 10 15  1  0  0  0
 11 12  1  0  0  0
 11 97  1  0  0  0
 12 13  2  0  0  0
 12 98  1  0  0  0
 13 14  1  0  0  0
 13 31  1  0  0  0
 14 15  2  0  0  0
 14 99  1  0  0  0
 15100  1  0  0  0
 16 17  2  0  0  0
 16 21  1  0  0  0
 16 31  1  0  0  0
 17 18  1  0  0  0
 17101  1  0  0  0
 18 19  2  0  0  0
 18102  1  0  0  0
 19 20  1  0  0  0
 19 24  1  0  0  0
 20 21  2  0  0  0
 20103  1  0  0  0
 21 23  1  0  0  0
 22 28  1  0  0  0
 22 32  2  0  0  0
 26 27  1  0  0  0
 28104  1  0  0  0
 28105  1  0  0  0
 29106  1  0  0  0
 29107  1  0  0  0
 33 34  1  0  0  0
 33 66  1  0  0  0
 33 70  2  0  0  0
 34 36  1  0  0  0
 34 59  1  0  0  0
 34108  1  0  0  0
 35 44  2  0  0  0
 35 45  1  0  0  0
 35 68  1  0  0  0
 36 56  1  0  0  0
 36109  1  0  0  0
 37 39  1  0  0  0
 37 47  1  0  0  0
 37 66  1  0  0  0
 37110  1  0  0  0
 38 43  2  0  0  0
 38 46  1  0  0  0
 38 47  1  0  0  0
 39 64  1  0  0  0
 39 67  2  0  0  0
 40 52  1  0  0  0
 40 53  2  0  0  0
 40 58  1  0  0  0
 41111  1  0  0  0
 41112  1  0  0  0
 41113  1  0  0  0
 41 48  1  0  0  0
 42 43  1  0  0  0
 42 66  1  0  0  0
 42114  1  0  0  0
 42115  1  0  0  0
 43 44  1  0  0  0
 44116  1  0  0  0
 45 46  2  0  0  0
 45117  1  0  0  0
 46118  1  0  0  0
 47119  1  0  0  0
 47120  1  0  0  0
 48 56  1  0  0  0
 48 65  1  0  0  0
 48121  1  0  0  0
 49 50  1  0  0  0
 49 53  1  0  0  0
 49 64  1  0  0  0
 49122  1  0  0  0
 50 51  1  0  0  0
 50123  1  0  0  0
 50124  1  0  0  0
 51 52  1  0  0  0
 51125  1  0  0  0
 51126  1  0  0  0
 52127  1  0  0  0
 52128  1  0  0  0
 53 54  1  0  0  0
 54 55  2  0  0  0
 54129  1  0  0  0
 55 57  1  0  0  0
 55130  1  0  0  0
 56 69  2  0  0  0
 57 58  2  0  0  0
 57131  1  0  0  0
 58132  1  0  0  0
 59 60  1  0  0  0
 59 61  1  0  0  0
 59 62  1  0  0  0
 60133  1  0  0  0
 60134  1  0  0  0
 60135  1  0  0  0
 61136  1  0  0  0
 61137  1  0  0  0
 61138  1  0  0  0
 62139  1  0  0  0
 62140  1  0  0  0
 62141  1  0  0  0
 63 65  1  0  0  0
 63142  1  0  0  0
 63143  1  0  0  0
 63144  1  0  0  0
 64145  1  0  0  0
 65146  1  0  0  0
 68 83  1  0  0  0
 71 72  2  0  0  0
 71 73  1  0  0  0
 71147  1  0  0  0
 72 75  1  0  0  0
 72148  1  0  0  0
 73 76  2  0  0  0
 73149  1  0  0  0
 74 75  2  0  0  0
 74 76  1  0  0  0
 74150  1  0  0  0
 75 77  1  0  0  0
 76 85  1  0  0  0
 77 84  1  0  0  0
 77 86  2  0  0  0
 78 80  1  0  0  0
 78 82  1  0  0  0
 78151  1  0  0  0
 78152  1  0  0  0
 79 81  1  0  0  0
 79 82  1  0  0  0
 79153  1  0  0  0
 79154  1  0  0  0
 80 84  1  0  0  0
 80155  1  0  0  0
 80156  1  0  0  0
 81 84  1  0  0  0
 81157  1  0  0  0
 81158  1  0  0  0
 82 83  1  0  0  0
 82 87  1  0  0  0
 83159  1  0  0  0
 83160  1  0  0  0
 85161  1  0  0  0
 86162  1  0  0  0
 86163  1  0  0  0
M  CHG  1  86   1
M  ISO  4   1 100  68 101  83 101  85 100
M  END
> <chiral flag>
0

> <version>
0

> <s_m_source_file>
/data/baiqing/PycharmProjects/Reinvent-master-3.2/result/LINK_invent/BTK/process_docking_weight1_custom_product_contain_oxygen_bond_distance_aromatic_linkinvent_7_9_3/rearranged_h_0152.sdf

> <i_m_source_file_index>
18

> <r_mmod_Potential_Energy-OPLS-2005>
-172.699920654297

> <r_mmod_Stretch_Energy-OPLS-2005>
50.6791305541992

> <r_mmod_Bend_Energy-OPLS-2005>
118.441436767578

> <r_mmod_Torsional_Energy-OPLS-2005>
277.714050292969

> <r_mmod_Improper_Torsional_Energy-OPLS-2005>
4.85115242004395

> <r_mmod_Van_der_Waal_Energy-OPLS-2005>
170.316604614258

> <r_mmod_Electrostatic_Energy-OPLS-2005>
-407.072357177734

> <r_mmod_Solvation_Energy-OPLS-2005>
-405.100830078125

> <b_mmod_Minimization_Converged-OPLS-2005>
0

> <r_mmod_RMS_Derivative-OPLS-2005>
2.11598134040833

$$$$
18
                    3D
 Structure written by MMmdl.
162172  0  0  1  0            999 V2000
  -30.7484  -14.3869   20.5947 C   0  0  0  0  0  0
  -30.4153  -12.2603   19.4115 C   0  0  0  0  0  0
  -29.4929  -12.4989   18.2009 C   0  0  0  0  0  0
  -28.0138  -12.3693   18.6124 C   0  0  0  0  0  0
  -27.6681  -13.2016   19.8776 C   0  0  2  0  0  0
  -28.7073  -12.9548   20.9949 C   0  0  0  0  0  0
  -25.2618  -13.8160   20.5659 C   0  0  0  0  0  0
  -24.1855  -13.0446   20.9156 C   0  0  0  0  0  0
  -24.6398  -11.6908   20.8721 C   0  0  0  0  0  0
  -23.9058  -10.4295   21.0391 C   0  0  0  0  0  0
  -24.3609   -9.4208   21.9166 C   0  0  0  0  0  0
  -23.6280   -8.2245   22.0751 C   0  0  0  0  0  0
  -22.4256   -8.0289   21.3554 C   0  0  0  0  0  0
  -21.9897   -9.0262   20.4657 C   0  0  0  0  0  0
  -22.7233  -10.2128   20.3047 C   0  0  0  0  0  0
  -21.6858   -6.0728   22.5276 C   0  0  0  0  0  0
  -21.4017   -6.5628   23.8211 C   0  0  0  0  0  0
  -21.3653   -5.6778   24.9174 C   0  0  0  0  0  0
  -21.6046   -4.3045   24.7230 C   0  0  0  0  0  0
  -21.8819   -3.8139   23.4347 C   0  0  0  0  0  0
  -21.9195   -4.6953   22.3396 C   0  0  0  0  0  0
  -22.7875  -13.5250   21.1816 C   0  0  0  0  0  0
  -22.1663   -4.2136   21.0974 F   0  0  0  0  0  0
  -21.5625   -3.4528   25.7740 F   0  0  0  0  0  0
  -30.0485  -13.2318   20.4507 N   0  0  0  0  0  0
  -26.3054  -12.9323   20.3356 N   0  0  0  0  0  0
  -25.9320  -11.6486   20.5738 N   0  0  0  0  0  0
  -22.0504  -12.8264   22.0380 N   0  0  0  0  0  0
  -25.4389  -15.1872   20.4048 N   0  0  0  0  0  0
  -31.8487  -14.5706   20.0652 O   0  0  0  0  0  0
  -21.6643   -6.8870   21.4239 O   0  0  0  0  0  0
  -22.3554  -14.5545   20.6650 O   0  0  0  0  0  0
  -24.6100  -31.8720   23.2136 C   0  0  0  0  0  0
  -25.9009  -32.4850   23.8419 C   0  0  1  0  0  0
  -27.2375  -27.4879   20.0676 C   0  0  0  0  0  0
  -25.5858  -33.8645   24.2350 N   0  0  0  0  0  0
  -23.3953  -30.4955   21.5540 C   0  0  2  0  0  0
  -24.8398  -28.9618   20.1206 C   0  0  0  0  0  0
  -22.7382  -29.4675   22.5020 C   0  0  0  0  0  0
  -18.0261  -28.1375   22.8497 C   0  0  0  0  0  0
  -24.1473  -36.7330   23.2632 C   0  0  0  0  0  0
  -25.9195  -30.8472   21.3620 C   0  0  0  0  0  0
  -25.9958  -29.4817   20.7169 C   0  0  0  0  0  0
  -27.1959  -28.7433   20.7041 C   0  0  0  0  0  0
  -26.0628  -26.9581   19.4939 C   0  0  0  0  0  0
  -24.8626  -27.6924   19.5165 C   0  0  0  0  0  0
  -23.6014  -29.8261   20.1683 C   0  0  0  0  0  0
  -25.4081  -36.3134   24.0354 C   0  0  1  0  0  0
  -20.5848  -28.3657   23.1326 C   0  0  2  0  0  0
  -20.6749  -26.9399   22.5416 C   0  0  0  0  0  0
  -19.5728  -26.6387   21.5204 C   0  0  0  0  0  0
  -18.1905  -26.7921   22.1612 C   0  0  0  0  0  0
  -19.1509  -28.8832   23.2911 C   0  0  0  0  0  0
  -18.9439  -30.1429   23.8935 C   0  0  0  0  0  0
  -17.6448  -30.6586   24.0563 C   0  0  0  0  0  0
  -25.9020  -34.9498   23.5161 C   0  0  0  0  0  0
  -16.5342  -29.9096   23.6309 C   0  0  0  0  0  0
  -16.7254  -28.6499   23.0359 C   0  0  0  0  0  0
  -26.4447  -31.6619   25.0733 C   0  0  0  0  0  0
  -25.3733  -31.3708   26.1498 C   0  0  0  0  0  0
  -27.0271  -30.3076   24.6077 C   0  0  0  0  0  0
  -27.6060  -32.4322   25.7459 C   0  0  0  0  0  0
  -27.5596  -37.1780   24.8432 C   0  0  0  0  0  0
  -21.4117  -29.3038   22.3756 N   0  0  0  0  0  0
  -26.4264  -37.3827   23.9450 N   0  0  0  0  0  0
  -24.6599  -31.0854   22.1023 N   0  0  0  0  0  0
  -23.4173  -28.8207   23.3041 O   0  0  0  0  0  0
  -28.4188  -26.7988   20.0182 O   0  0  0  0  0  0
  -26.5596  -34.8952   22.4732 O   0  0  0  0  0  0
  -23.5308  -32.1448   23.7560 O   0  0  0  0  0  0
  -28.2811  -19.6895   20.0472 C   0  0  0  0  0  0
  -28.4545  -21.0179   19.6169 C   0  0  0  0  0  0
  -30.8621  -20.7865   19.8664 C   0  0  0  0  0  0
  -29.2178  -17.5545   20.7561 C   0  0  0  0  0  0
  -31.6250  -17.3214   21.0620 C   0  0  0  0  0  0
  -29.3992  -18.9014   20.3837 C   0  0  0  0  0  0
  -30.7027  -19.4571   20.3195 C   0  0  0  0  0  0
  -29.7470  -21.5736   19.4995 C   0  0  0  0  0  0
  -30.3336  -16.7439   21.0431 C   0  0  0  0  0  0
  -31.8188  -18.6689   20.6972 C   0  0  0  0  0  0
  -30.8833  -24.9249   18.4842 C   0  0  0  0  0  0
  -29.5938  -25.1568   18.7301 C   0  0  0  0  0  0
  -31.2135  -23.4702   18.6701 C   0  0  0  0  0  0
  -28.8638  -23.8924   19.0891 C   0  0  0  0  0  0
  -28.8775  -26.4826   18.7061 C   0  0  0  0  0  0
  -29.9164  -22.8806   19.0110 N   0  0  0  0  0  0
  -33.1189  -19.1852   20.7070 N   0  0  0  0  0  0
  -30.1249  -15.3585   21.2786 N   0  0  0  0  0  0
  -31.4622  -12.3312   19.1107 H   0  0  0  0  0  0
  -30.2895  -11.2456   19.7922 H   0  0  0  0  0  0
  -29.7234  -11.7866   17.4074 H   0  0  0  0  0  0
  -29.6790  -13.4909   17.7855 H   0  0  0  0  0  0
  -27.8181  -11.3127   18.7994 H   0  0  0  0  0  0
  -27.3651  -12.6573   17.7849 H   0  0  0  0  0  0
  -27.7258  -14.2523   19.5920 H   0  0  0  0  0  0
  -28.6638  -11.9149   21.3206 H   0  0  0  0  0  0
  -28.4741  -13.5427   21.8830 H   0  0  0  0  0  0
  -25.2761   -9.5685   22.4732 H   0  0  0  0  0  0
  -24.0004   -7.4638   22.7465 H   0  0  0  0  0  0
  -21.0828   -8.8788   19.8960 H   0  0  0  0  0  0
  -22.3706  -10.9665   19.6146 H   0  0  0  0  0  0
  -21.2013   -7.6137   23.9712 H   0  0  0  0  0  0
  -21.1468   -6.0510   25.9076 H   0  0  0  0  0  0
  -22.0602   -2.7603   23.2857 H   0  0  0  0  0  0
  -22.4090  -11.9932   22.4810 H   0  0  0  0  0  0
  -21.1124  -13.1316   22.2548 H   0  0  0  0  0  0
  -24.6776  -15.8501   20.5065 H   0  0  0  0  0  0
  -26.2923  -15.6160   20.0714 H   0  0  0  0  0  0
  -26.7087  -32.5581   23.1195 H   0  0  0  0  0  0
  -24.9973  -33.9808   25.0472 H   0  0  0  0  0  0
  -22.6820  -31.3103   21.4157 H   0  0  0  0  0  0
  -23.3765  -35.9624   23.3230 H   0  0  0  0  0  0
  -24.3601  -36.9013   22.2062 H   0  0  0  0  0  0
  -23.7180  -37.6498   23.6691 H   0  0  0  0  0  0
  -26.0242  -31.6095   20.5886 H   0  0  0  0  0  0
  -26.8113  -30.9073   21.9736 H   0  0  0  0  0  0
  -28.0925  -29.1448   21.1550 H   0  0  0  0  0  0
  -26.0771  -25.9840   19.0262 H   0  0  0  0  0  0
  -23.9721  -27.2791   19.0633 H   0  0  0  0  0  0
  -23.7077  -30.5983   19.4052 H   0  0  0  0  0  0
  -22.7264  -29.2437   19.8752 H   0  0  0  0  0  0
  -25.1235  -36.2001   25.0840 H   0  0  0  0  0  0
  -20.9935  -28.3225   24.1447 H   0  0  0  0  0  0
  -20.5638  -26.2271   23.3602 H   0  0  0  0  0  0
  -21.6628  -26.7446   22.1225 H   0  0  0  0  0  0
  -19.6893  -25.6300   21.1224 H   0  0  0  0  0  0
  -19.6662  -27.3199   20.6736 H   0  0  0  0  0  0
  -17.4183  -26.6696   21.4007 H   0  0  0  0  0  0
  -18.0284  -26.0050   22.8986 H   0  0  0  0  0  0
  -19.7923  -30.7214   24.2344 H   0  0  0  0  0  0
  -17.5017  -31.6277   24.5140 H   0  0  0  0  0  0
  -15.5347  -30.3023   23.7592 H   0  0  0  0  0  0
  -15.8647  -28.0812   22.7096 H   0  0  0  0  0  0
  -24.5880  -30.7081   25.7836 H   0  0  0  0  0  0
  -24.8934  -32.2851   26.4998 H   0  0  0  0  0  0
  -25.8085  -30.8834   27.0228 H   0  0  0  0  0  0
  -26.2792  -29.6841   24.1163 H   0  0  0  0  0  0
  -27.4097  -29.7312   25.4508 H   0  0  0  0  0  0
  -27.8601  -30.4422   23.9175 H   0  0  0  0  0  0
  -27.2717  -33.3604   26.2100 H   0  0  0  0  0  0
  -28.3799  -32.6910   25.0225 H   0  0  0  0  0  0
  -28.0803  -31.8408   26.5298 H   0  0  0  0  0  0
  -28.2527  -38.0170   24.7660 H   0  0  0  0  0  0
  -28.1184  -36.2727   24.6011 H   0  0  0  0  0  0
  -27.2364  -37.1142   25.8839 H   0  0  0  0  0  0
  -20.9275  -29.8792   21.7009 H   0  0  0  0  0  0
  -26.0159  -38.2887   24.1551 H   0  0  0  0  0  0
  -27.2837  -19.2760   20.0982 H   0  0  0  0  0  0
  -27.5769  -21.5882   19.3476 H   0  0  0  0  0  0
  -31.8545  -21.1989   19.7962 H   0  0  0  0  0  0
  -28.2233  -17.1305   20.7663 H   0  0  0  0  0  0
  -32.4796  -16.7136   21.3248 H   0  0  0  0  0  0
  -31.6222  -25.6646   18.2130 H   0  0  0  0  0  0
  -31.9437  -23.3628   19.4730 H   0  0  0  0  0  0
  -31.6185  -23.0429   17.7513 H   0  0  0  0  0  0
  -28.0590  -23.6979   18.3785 H   0  0  0  0  0  0
  -28.4463  -23.9662   20.0943 H   0  0  0  0  0  0
  -28.0848  -26.4290   17.9582 H   0  0  0  0  0  0
  -29.5652  -27.2623   18.3766 H   0  0  0  0  0  0
  -33.9081  -18.5496   20.7636 H   0  0  0  0  0  0
  -33.3263  -20.0433   20.2075 H   0  0  0  0  0  0
  -29.2261  -15.0938   21.6528 H   0  0  0  0  0  0
  1 25  1  0  0  0
  1 30  2  0  0  0
  1 88  1  0  0  0
  2  3  1  0  0  0
  2 25  1  0  0  0
  2 89  1  0  0  0
  2 90  1  0  0  0
  3  4  1  0  0  0
  3 91  1  0  0  0
  3 92  1  0  0  0
  4  5  1  0  0  0
  4 93  1  0  0  0
  4 94  1  0  0  0
  5  6  1  0  0  0
  5 26  1  0  0  0
  5 95  1  0  0  0
  6 25  1  0  0  0
  6 96  1  0  0  0
  6 97  1  0  0  0
  7  8  2  0  0  0
  7 26  1  0  0  0
  7 29  1  0  0  0
  8  9  1  0  0  0
  8 22  1  0  0  0
  9 10  1  0  0  0
  9 27  2  0  0  0
 10 11  2  0  0  0
 10 15  1  0  0  0
 11 12  1  0  0  0
 11 98  1  0  0  0
 12 13  2  0  0  0
 12 99  1  0  0  0
 13 14  1  0  0  0
 13 31  1  0  0  0
 14 15  2  0  0  0
 14100  1  0  0  0
 15101  1  0  0  0
 16 17  2  0  0  0
 16 21  1  0  0  0
 16 31  1  0  0  0
 17 18  1  0  0  0
 17102  1  0  0  0
 18 19  2  0  0  0
 18103  1  0  0  0
 19 20  1  0  0  0
 19 24  1  0  0  0
 20 21  2  0  0  0
 20104  1  0  0  0
 21 23  1  0  0  0
 22 28  1  0  0  0
 22 32  2  0  0  0
 26 27  1  0  0  0
 28105  1  0  0  0
 28106  1  0  0  0
 29107  1  0  0  0
 29108  1  0  0  0
 33 34  1  0  0  0
 33 66  1  0  0  0
 33 70  2  0  0  0
 34 36  1  0  0  0
 34 59  1  0  0  0
 34109  1  0  0  0
 35 44  2  0  0  0
 35 45  1  0  0  0
 35 68  1  0  0  0
 36 56  1  0  0  0
 36110  1  0  0  0
 37 39  1  0  0  0
 37 47  1  0  0  0
 37 66  1  0  0  0
 37111  1  0  0  0
 38 43  2  0  0  0
 38 46  1  0  0  0
 38 47  1  0  0  0
 39 64  1  0  0  0
 39 67  2  0  0  0
 40 52  1  0  0  0
 40 53  2  0  0  0
 40 58  1  0  0  0
 41112  1  0  0  0
 41113  1  0  0  0
 41114  1  0  0  0
 41 48  1  0  0  0
 42 43  1  0  0  0
 42 66  1  0  0  0
 42115  1  0  0  0
 42116  1  0  0  0
 43 44  1  0  0  0
 44117  1  0  0  0
 45 46  2  0  0  0
 45118  1  0  0  0
 46119  1  0  0  0
 47120  1  0  0  0
 47121  1  0  0  0
 48 56  1  0  0  0
 48 65  1  0  0  0
 48122  1  0  0  0
 49 50  1  0  0  0
 49 53  1  0  0  0
 49 64  1  0  0  0
 49123  1  0  0  0
 50 51  1  0  0  0
 50124  1  0  0  0
 50125  1  0  0  0
 51 52  1  0  0  0
 51126  1  0  0  0
 51127  1  0  0  0
 52128  1  0  0  0
 52129  1  0  0  0
 53 54  1  0  0  0
 54 55  2  0  0  0
 54130  1  0  0  0
 55 57  1  0  0  0
 55131  1  0  0  0
 56 69  2  0  0  0
 57 58  2  0  0  0
 57132  1  0  0  0
 58133  1  0  0  0
 59 60  1  0  0  0
 59 61  1  0  0  0
 59 62  1  0  0  0
 60134  1  0  0  0
 60135  1  0  0  0
 60136  1  0  0  0
 61137  1  0  0  0
 61138  1  0  0  0
 61139  1  0  0  0
 62140  1  0  0  0
 62141  1  0  0  0
 62142  1  0  0  0
 63 65  1  0  0  0
 63143  1  0  0  0
 63144  1  0  0  0
 63145  1  0  0  0
 64146  1  0  0  0
 65147  1  0  0  0
 68 85  1  0  0  0
 71 72  2  0  0  0
 71 76  1  0  0  0
 71148  1  0  0  0
 72 78  1  0  0  0
 72149  1  0  0  0
 73 77  1  0  0  0
 73 78  2  0  0  0
 73150  1  0  0  0
 74 76  2  0  0  0
 74 79  1  0  0  0
 74151  1  0  0  0
 75 79  2  0  0  0
 75 80  1  0  0  0
 75152  1  0  0  0
 76 77  1  0  0  0
 77 80  2  0  0  0
 78 86  1  0  0  0
 79 88  1  0  0  0
 80 87  1  0  0  0
 81 82  2  0  0  0
 81 83  1  0  0  0
 81153  1  0  0  0
 82 84  1  0  0  0
 82 85  1  0  0  0
 83 86  1  0  0  0
 83154  1  0  0  0
 83155  1  0  0  0
 84 86  1  0  0  0
 84156  1  0  0  0
 84157  1  0  0  0
 85158  1  0  0  0
 85159  1  0  0  0
 87160  1  0  0  0
 87161  1  0  0  0
 88162  1  0  0  0
M  ISO  4   1 100  68 101  85 101  88 100
M  END
> <chiral flag>
0

> <version>
0

> <s_m_source_file>
/data/baiqing/PycharmProjects/Reinvent-master-3.2/result/LINK_invent/BTK/process_docking_weight1_custom_product_contain_oxygen_bond_distance_aromatic_linkinvent_7_9_3/rearranged_h_0152.sdf

> <i_m_source_file_index>
19

> <r_mmod_Potential_Energy-OPLS-2005>
10.133490562439

> <r_mmod_Stretch_Energy-OPLS-2005>
33.6721649169922

> <r_mmod_Bend_Energy-OPLS-2005>
165.265533447266

> <r_mmod_Torsional_Energy-OPLS-2005>
223.126312255859

> <r_mmod_Improper_Torsional_Energy-OPLS-2005>
7.15214443206787

> <r_mmod_Van_der_Waal_Energy-OPLS-2005>
178.302947998047

> <r_mmod_Electrostatic_Energy-OPLS-2005>
-357.974517822266

> <r_mmod_Solvation_Energy-OPLS-2005>
-248.239440917969

> <b_mmod_Minimization_Converged-OPLS-2005>
0

> <r_mmod_RMS_Derivative-OPLS-2005>
2.06695485115051

$$$$
19
                    3D
 Structure written by MMmdl.
153162  0  0  1  0            999 V2000
  -30.5001  -14.9871   20.4613 C   0  0  0  0  0  0
  -30.4538  -12.6146   19.5009 C   0  0  0  0  0  0
  -29.5282  -12.5459   18.2614 C   0  0  0  0  0  0
  -28.0627  -12.3180   18.6789 C   0  0  0  0  0  0
  -27.6358  -13.2461   19.8445 C   0  0  2  0  0  0
  -28.6782  -13.2589   20.9820 C   0  0  0  0  0  0
  -25.2493  -13.8207   20.5719 C   0  0  0  0  0  0
  -24.1796  -13.0438   20.9215 C   0  0  0  0  0  0
  -24.6404  -11.6921   20.8743 C   0  0  0  0  0  0
  -23.9080  -10.4294   21.0401 C   0  0  0  0  0  0
  -24.3625   -9.4209   21.9182 C   0  0  0  0  0  0
  -23.6294   -8.2249   22.0755 C   0  0  0  0  0  0
  -22.4278   -8.0285   21.3544 C   0  0  0  0  0  0
  -21.9918   -9.0260   20.4646 C   0  0  0  0  0  0
  -22.7251  -10.2136   20.3053 C   0  0  0  0  0  0
  -21.6854   -6.0736   22.5274 C   0  0  0  0  0  0
  -21.4016   -6.5639   23.8207 C   0  0  0  0  0  0
  -21.3661   -5.6794   24.9171 C   0  0  0  0  0  0
  -21.6044   -4.3056   24.7222 C   0  0  0  0  0  0
  -21.8819   -3.8147   23.4343 C   0  0  0  0  0  0
  -21.9193   -4.6964   22.3398 C   0  0  0  0  0  0
  -22.7816  -13.5210   21.1872 C   0  0  0  0  0  0
  -22.1661   -4.2149   21.0977 F   0  0  0  0  0  0
  -21.5630   -3.4539   25.7736 F   0  0  0  0  0  0
  -29.9549  -13.6977   20.3996 N   0  0  0  0  0  0
  -26.2923  -12.9436   20.3268 N   0  0  0  0  0  0
  -25.9343  -11.6566   20.5740 N   0  0  0  0  0  0
  -22.0464  -12.8201   22.0428 N   0  0  0  0  0  0
  -25.4170  -15.1937   20.4161 N   0  0  0  0  0  0
  -31.6681  -15.0937   20.0642 O   0  0  0  0  0  0
  -21.6642   -6.8881   21.4238 O   0  0  0  0  0  0
  -22.3500  -14.5517   20.6716 O   0  0  0  0  0  0
  -24.6469  -31.8409   23.1845 C   0  0  0  0  0  0
  -25.9227  -32.4678   23.8247 C   0  0  1  0  0  0
  -27.2201  -27.1024   20.1527 C   0  0  0  0  0  0
  -25.5958  -33.8487   24.2163 N   0  0  0  0  0  0
  -23.4530  -30.4591   21.5304 C   0  0  2  0  0  0
  -24.9037  -28.8790   20.1093 C   0  0  0  0  0  0
  -22.7586  -29.4532   22.4836 C   0  0  0  0  0  0
  -18.0311  -28.1400   22.8470 C   0  0  0  0  0  0
  -24.1491  -36.7246   23.2646 C   0  0  0  0  0  0
  -26.0112  -30.7029   21.3892 C   0  0  0  0  0  0
  -26.0826  -29.3105   20.7305 C   0  0  0  0  0  0
  -27.2408  -28.4391   20.7343 C   0  0  0  0  0  0
  -26.0147  -26.7826   19.4885 C   0  0  0  0  0  0
  -24.8842  -27.6294   19.4723 C   0  0  0  0  0  0
  -23.6823  -29.7861   20.1510 C   0  0  0  0  0  0
  -25.4127  -36.3023   24.0310 C   0  0  1  0  0  0
  -20.5924  -28.3736   23.1215 C   0  0  2  0  0  0
  -20.6796  -26.9436   22.5395 C   0  0  0  0  0  0
  -19.5768  -26.6385   21.5203 C   0  0  0  0  0  0
  -18.1951  -26.7937   22.1616 C   0  0  0  0  0  0
  -19.1569  -28.8884   23.2836 C   0  0  0  0  0  0
  -18.9488  -30.1475   23.8870 C   0  0  0  0  0  0
  -17.6487  -30.6597   24.0556 C   0  0  0  0  0  0
  -25.9082  -34.9400   23.5049 C   0  0  0  0  0  0
  -16.5375  -29.9091   23.6337 C   0  0  0  0  0  0
  -16.7296  -28.6507   23.0357 C   0  0  0  0  0  0
  -26.4539  -31.6561   25.0706 C   0  0  0  0  0  0
  -25.3704  -31.3751   26.1384 C   0  0  0  0  0  0
  -27.0425  -30.2961   24.6311 C   0  0  0  0  0  0
  -27.6060  -32.4340   25.7492 C   0  0  0  0  0  0
  -27.5576  -37.1781   24.8469 C   0  0  0  0  0  0
  -21.4274  -29.3056   22.3583 N   0  0  0  0  0  0
  -26.4288  -37.3739   23.9408 N   0  0  0  0  0  0
  -24.7236  -31.0231   22.0896 N   0  0  0  0  0  0
  -23.4212  -28.8087   23.3006 O   0  0  0  0  0  0
  -28.2589  -26.0912   20.2316 O   0  0  0  0  0  0
  -26.5676  -34.8904   22.4634 O   0  0  0  0  0  0
  -23.5578  -32.1301   23.7044 O   0  0  0  0  0  0
  -31.2535  -19.6620   22.2023 C   0  0  0  0  0  0
  -30.6133  -20.7625   21.5902 C   0  0  0  0  0  0
  -29.2657  -19.1766   20.3273 C   0  0  0  0  0  0
  -30.8921  -18.3351   21.8977 C   0  0  0  0  0  0
  -29.9780  -17.9848   20.9007 C   0  0  0  0  0  0
  -29.5453  -20.6188   20.6679 C   0  0  0  0  0  0
  -29.0062  -23.3288   20.4360 C   0  0  0  0  0  0
  -31.2074  -17.1684   22.7916 C   0  0  0  0  0  0
  -30.0095  -16.2265   22.5515 C   0  0  0  0  0  0
  -29.6790  -16.3408   21.0390 C   0  0  2  0  0  0
  -27.9594  -24.5607   20.0097 C   0  0  0  0  0  0
  -28.7974  -21.9146   20.2365 N   0  0  0  0  0  0
  -30.0585  -23.7132   20.9515 O   0  0  0  0  0  0
  -31.4834  -12.7893   19.1861 H   0  0  0  0  0  0
  -30.4653  -11.6586   20.0268 H   0  0  0  0  0  0
  -29.8543  -11.7508   17.5895 H   0  0  0  0  0  0
  -29.6067  -13.4766   17.6970 H   0  0  0  0  0  0
  -27.9670  -11.2761   18.9872 H   0  0  0  0  0  0
  -27.3968  -12.4452   17.8247 H   0  0  0  0  0  0
  -27.6038  -14.2518   19.4246 H   0  0  0  0  0  0
  -28.7737  -12.2721   21.4376 H   0  0  0  0  0  0
  -28.3627  -13.9319   21.7798 H   0  0  0  0  0  0
  -25.2767   -9.5688   22.4764 H   0  0  0  0  0  0
  -23.9999   -7.4644   22.7483 H   0  0  0  0  0  0
  -21.0848   -8.8781   19.8955 H   0  0  0  0  0  0
  -22.3705  -10.9676   19.6166 H   0  0  0  0  0  0
  -21.2008   -7.6149   23.9710 H   0  0  0  0  0  0
  -21.1485   -6.0525   25.9074 H   0  0  0  0  0  0
  -22.0595   -2.7609   23.2842 H   0  0  0  0  0  0
  -22.4086  -11.9861   22.4809 H   0  0  0  0  0  0
  -21.1083  -13.1230   22.2640 H   0  0  0  0  0  0
  -24.6486  -15.8456   20.5312 H   0  0  0  0  0  0
  -26.2652  -15.6372   20.0877 H   0  0  0  0  0  0
  -26.7292  -32.5274   23.0970 H   0  0  0  0  0  0
  -25.0066  -33.9586   25.0285 H   0  0  0  0  0  0
  -22.7572  -31.2860   21.3728 H   0  0  0  0  0  0
  -23.3761  -35.9572   23.3293 H   0  0  0  0  0  0
  -24.3573  -36.8903   22.2065 H   0  0  0  0  0  0
  -23.7241  -37.6432   23.6699 H   0  0  0  0  0  0
  -26.1708  -31.4556   20.6160 H   0  0  0  0  0  0
  -26.8797  -30.7545   22.0342 H   0  0  0  0  0  0
  -28.1370  -28.7637   21.2443 H   0  0  0  0  0  0
  -25.9083  -25.8285   18.9944 H   0  0  0  0  0  0
  -23.9851  -27.2938   18.9740 H   0  0  0  0  0  0
  -23.8229  -30.5601   19.3953 H   0  0  0  0  0  0
  -22.7957  -29.2316   19.8390 H   0  0  0  0  0  0
  -25.1317  -36.1845   25.0800 H   0  0  0  0  0  0
  -21.0012  -28.3338   24.1335 H   0  0  0  0  0  0
  -20.5696  -26.2352   23.3622 H   0  0  0  0  0  0
  -21.6662  -26.7444   22.1191 H   0  0  0  0  0  0
  -19.6935  -25.6286   21.1258 H   0  0  0  0  0  0
  -19.6705  -27.3173   20.6713 H   0  0  0  0  0  0
  -17.4219  -26.6678   21.4021 H   0  0  0  0  0  0
  -18.0354  -26.0085   22.9016 H   0  0  0  0  0  0
  -19.7968  -30.7288   24.2236 H   0  0  0  0  0  0
  -17.5047  -31.6274   24.5164 H   0  0  0  0  0  0
  -15.5376  -30.2988   23.7678 H   0  0  0  0  0  0
  -15.8695  -28.0820   22.7091 H   0  0  0  0  0  0
  -24.5900  -30.7089   25.7684 H   0  0  0  0  0  0
  -24.8868  -32.2929   26.4738 H   0  0  0  0  0  0
  -25.7966  -30.8963   27.0209 H   0  0  0  0  0  0
  -26.3059  -29.6655   24.1319 H   0  0  0  0  0  0
  -27.4039  -29.7289   25.4898 H   0  0  0  0  0  0
  -27.8957  -30.4200   23.9642 H   0  0  0  0  0  0
  -27.2664  -33.3682   26.1972 H   0  0  0  0  0  0
  -28.3916  -32.6834   25.0346 H   0  0  0  0  0  0
  -28.0675  -31.8527   26.5483 H   0  0  0  0  0  0
  -28.2580  -38.0091   24.7522 H   0  0  0  0  0  0
  -28.1086  -36.2617   24.6292 H   0  0  0  0  0  0
  -27.2288  -37.1419   25.8871 H   0  0  0  0  0  0
  -20.9497  -29.8768   21.6753 H   0  0  0  0  0  0
  -26.0152  -38.2805   24.1415 H   0  0  0  0  0  0
  -31.9675  -19.8512   22.9925 H   0  0  0  0  0  0
  -30.9177  -21.7375   21.9351 H   0  0  0  0  0  0
  -28.4332  -18.9785   19.6669 H   0  0  0  0  0  0
  -31.2900  -17.4646   23.8382 H   0  0  0  0  0  0
  -32.1495  -16.7117   22.4846 H   0  0  0  0  0  0
  -29.1539  -16.6008   23.1157 H   0  0  0  0  0  0
  -30.1950  -15.2180   22.9262 H   0  0  0  0  0  0
  -28.6159  -16.1743   20.8686 H   0  0  0  0  0  0
  -27.0252  -24.3376   20.5262 H   0  0  0  0  0  0
  -27.7512  -24.4252   18.9483 H   0  0  0  0  0  0
  -27.9399  -21.7335   19.7310 H   0  0  0  0  0  0
  1 25  1  0  0  0
  1 30  2  0  0  0
  1 80  1  0  0  0
  2  3  1  0  0  0
  2 25  1  0  0  0
  2 84  1  0  0  0
  2 85  1  0  0  0
  3  4  1  0  0  0
  3 86  1  0  0  0
  3 87  1  0  0  0
  4  5  1  0  0  0
  4 88  1  0  0  0
  4 89  1  0  0  0
  5  6  1  0  0  0
  5 26  1  0  0  0
  5 90  1  0  0  0
  6 25  1  0  0  0
  6 91  1  0  0  0
  6 92  1  0  0  0
  7  8  2  0  0  0
  7 26  1  0  0  0
  7 29  1  0  0  0
  8  9  1  0  0  0
  8 22  1  0  0  0
  9 10  1  0  0  0
  9 27  2  0  0  0
 10 11  2  0  0  0
 10 15  1  0  0  0
 11 12  1  0  0  0
 11 93  1  0  0  0
 12 13  2  0  0  0
 12 94  1  0  0  0
 13 14  1  0  0  0
 13 31  1  0  0  0
 14 15  2  0  0  0
 14 95  1  0  0  0
 15 96  1  0  0  0
 16 17  2  0  0  0
 16 21  1  0  0  0
 16 31  1  0  0  0
 17 18  1  0  0  0
 17 97  1  0  0  0
 18 19  2  0  0  0
 18 98  1  0  0  0
 19 20  1  0  0  0
 19 24  1  0  0  0
 20 21  2  0  0  0
 20 99  1  0  0  0
 21 23  1  0  0  0
 22 28  1  0  0  0
 22 32  2  0  0  0
 26 27  1  0  0  0
 28100  1  0  0  0
 28101  1  0  0  0
 29102  1  0  0  0
 29103  1  0  0  0
 33 34  1  0  0  0
 33 66  1  0  0  0
 33 70  2  0  0  0
 34 36  1  0  0  0
 34 59  1  0  0  0
 34104  1  0  0  0
 35 44  2  0  0  0
 35 45  1  0  0  0
 35 68  1  0  0  0
 36 56  1  0  0  0
 36105  1  0  0  0
 37 39  1  0  0  0
 37 47  1  0  0  0
 37 66  1  0  0  0
 37106  1  0  0  0
 38 43  2  0  0  0
 38 46  1  0  0  0
 38 47  1  0  0  0
 39 64  1  0  0  0
 39 67  2  0  0  0
 40 52  1  0  0  0
 40 53  2  0  0  0
 40 58  1  0  0  0
 41107  1  0  0  0
 41108  1  0  0  0
 41109  1  0  0  0
 41 48  1  0  0  0
 42 43  1  0  0  0
 42 66  1  0  0  0
 42110  1  0  0  0
 42111  1  0  0  0
 43 44  1  0  0  0
 44112  1  0  0  0
 45 46  2  0  0  0
 45113  1  0  0  0
 46114  1  0  0  0
 47115  1  0  0  0
 47116  1  0  0  0
 48 56  1  0  0  0
 48 65  1  0  0  0
 48117  1  0  0  0
 49 50  1  0  0  0
 49 53  1  0  0  0
 49 64  1  0  0  0
 49118  1  0  0  0
 50 51  1  0  0  0
 50119  1  0  0  0
 50120  1  0  0  0
 51 52  1  0  0  0
 51121  1  0  0  0
 51122  1  0  0  0
 52123  1  0  0  0
 52124  1  0  0  0
 53 54  1  0  0  0
 54 55  2  0  0  0
 54125  1  0  0  0
 55 57  1  0  0  0
 55126  1  0  0  0
 56 69  2  0  0  0
 57 58  2  0  0  0
 57127  1  0  0  0
 58128  1  0  0  0
 59 60  1  0  0  0
 59 61  1  0  0  0
 59 62  1  0  0  0
 60129  1  0  0  0
 60130  1  0  0  0
 60131  1  0  0  0
 61132  1  0  0  0
 61133  1  0  0  0
 61134  1  0  0  0
 62135  1  0  0  0
 62136  1  0  0  0
 62137  1  0  0  0
 63 65  1  0  0  0
 63138  1  0  0  0
 63139  1  0  0  0
 63140  1  0  0  0
 64141  1  0  0  0
 65142  1  0  0  0
 68 81  1  0  0  0
 71 72  2  0  0  0
 71 74  1  0  0  0
 71143  1  0  0  0
 72 76  1  0  0  0
 72144  1  0  0  0
 73 75  1  0  0  0
 73 76  2  0  0  0
 73145  1  0  0  0
 74 75  2  0  0  0
 74 78  1  0  0  0
 75 80  1  0  0  0
 76 82  1  0  0  0
 77 81  1  0  0  0
 77 82  1  0  0  0
 77 83  2  0  0  0
 78 79  1  0  0  0
 78146  1  0  0  0
 78147  1  0  0  0
 79 80  1  0  0  0
 79148  1  0  0  0
 79149  1  0  0  0
 80150  1  0  0  0
 81151  1  0  0  0
 81152  1  0  0  0
 82153  1  0  0  0
M  ISO  4   1 100  68 101  80 100  81 101
M  END
> <chiral flag>
0

> <version>
0

> <s_m_source_file>
/data/baiqing/PycharmProjects/Reinvent-master-3.2/result/LINK_invent/BTK/process_docking_weight1_custom_product_contain_oxygen_bond_distance_aromatic_linkinvent_7_9_3/rearranged_h_0152.sdf

> <i_m_source_file_index>
20

> <r_mmod_Potential_Energy-OPLS-2005>
692.529846191406

> <r_mmod_Stretch_Energy-OPLS-2005>
312.592193603516

> <r_mmod_Bend_Energy-OPLS-2005>
341.175689697266

> <r_mmod_Torsional_Energy-OPLS-2005>
205.626495361328

> <r_mmod_Improper_Torsional_Energy-OPLS-2005>
8.9078950881958

> <r_mmod_Van_der_Waal_Energy-OPLS-2005>
131.397506713867

> <r_mmod_Electrostatic_Energy-OPLS-2005>
-290.859466552734

> <r_mmod_Solvation_Energy-OPLS-2005>
-237.665939331055

> <b_mmod_Minimization_Converged-OPLS-2005>
0

> <r_mmod_RMS_Derivative-OPLS-2005>
0.65490186214447

$$$$
20
                    3D
 Structure written by MMmdl.
153161  0  0  1  0            999 V2000
  -30.2975  -15.6578   20.3263 C   0  0  0  0  0  0
  -30.4199  -13.1001   19.5338 C   0  0  0  0  0  0
  -29.5460  -12.6592   18.3239 C   0  0  0  0  0  0
  -28.1249  -12.2954   18.7750 C   0  0  0  0  0  0
  -27.5936  -13.3093   19.8115 C   0  0  2  0  0  0
  -28.6089  -13.6584   20.9258 C   0  0  0  0  0  0
  -25.2322  -13.8295   20.5802 C   0  0  0  0  0  0
  -24.1709  -13.0440   20.9291 C   0  0  0  0  0  0
  -24.6415  -11.6948   20.8775 C   0  0  0  0  0  0
  -23.9121  -10.4298   21.0408 C   0  0  0  0  0  0
  -24.3654   -9.4208   21.9190 C   0  0  0  0  0  0
  -23.6316   -8.2252   22.0761 C   0  0  0  0  0  0
  -22.4296   -8.0301   21.3549 C   0  0  0  0  0  0
  -21.9939   -9.0275   20.4649 C   0  0  0  0  0  0
  -22.7285  -10.2145   20.3061 C   0  0  0  0  0  0
  -21.6860   -6.0750   22.5284 C   0  0  0  0  0  0
  -21.4018   -6.5651   23.8220 C   0  0  0  0  0  0
  -21.3661   -5.6803   24.9183 C   0  0  0  0  0  0
  -21.6044   -4.3066   24.7229 C   0  0  0  0  0  0
  -21.8813   -3.8156   23.4348 C   0  0  0  0  0  0
  -21.9191   -4.6976   22.3404 C   0  0  0  0  0  0
  -22.7725  -13.5174   21.1931 C   0  0  0  0  0  0
  -22.1660   -4.2159   21.0981 F   0  0  0  0  0  0
  -21.5623   -3.4549   25.7738 F   0  0  0  0  0  0
  -29.7779  -14.2867   20.2653 N   0  0  0  0  0  0
  -26.2764  -12.9621   20.3245 N   0  0  0  0  0  0
  -25.9361  -11.6692   20.5707 N   0  0  0  0  0  0
  -22.0387  -12.8154   22.0486 N   0  0  0  0  0  0
  -25.3925  -15.2037   20.4227 N   0  0  0  0  0  0
  -31.5335  -15.5899   20.1806 O   0  0  0  0  0  0
  -21.6652   -6.8900   21.4250 O   0  0  0  0  0  0
  -22.3400  -14.5477   20.6775 O   0  0  0  0  0  0
  -24.6863  -31.7971   23.1485 C   0  0  0  0  0  0
  -25.9435  -32.4451   23.8045 C   0  0  1  0  0  0
  -27.2278  -26.6750   20.2178 C   0  0  0  0  0  0
  -25.6002  -33.8278   24.1939 N   0  0  0  0  0  0
  -23.5138  -30.3967   21.5044 C   0  0  2  0  0  0
  -24.9703  -28.7303   20.1205 C   0  0  0  0  0  0
  -22.7779  -29.4301   22.4714 C   0  0  0  0  0  0
  -18.0342  -28.1417   22.8449 C   0  0  0  0  0  0
  -24.1500  -36.7149   23.2653 C   0  0  0  0  0  0
  -26.0961  -30.5202   21.4170 C   0  0  0  0  0  0
  -26.1609  -29.0819   20.7676 C   0  0  0  0  0  0
  -27.2741  -28.0842   20.7795 C   0  0  0  0  0  0
  -26.0021  -26.5375   19.5162 C   0  0  0  0  0  0
  -24.9313  -27.4841   19.4716 C   0  0  0  0  0  0
  -23.7683  -29.6895   20.1415 C   0  0  0  0  0  0
  -25.4152  -36.2889   24.0280 C   0  0  1  0  0  0
  -20.5979  -28.3784   23.1135 C   0  0  2  0  0  0
  -20.6811  -26.9440   22.5402 C   0  0  0  0  0  0
  -19.5789  -26.6366   21.5215 C   0  0  0  0  0  0
  -18.1972  -26.7943   22.1615 C   0  0  0  0  0  0
  -19.1609  -28.8927   23.2771 C   0  0  0  0  0  0
  -18.9511  -30.1510   23.8816 C   0  0  0  0  0  0
  -17.6501  -30.6599   24.0550 C   0  0  0  0  0  0
  -25.9132  -34.9279   23.4952 C   0  0  0  0  0  0
  -16.5392  -29.9079   23.6348 C   0  0  0  0  0  0
  -16.7323  -28.6502   23.0365 C   0  0  0  0  0  0
  -26.4603  -31.6494   25.0680 C   0  0  0  0  0  0
  -25.3666  -31.3818   26.1292 C   0  0  0  0  0  0
  -27.0531  -30.2824   24.6597 C   0  0  0  0  0  0
  -27.6048  -32.4362   25.7494 C   0  0  0  0  0  0
  -27.5569  -37.1730   24.8466 C   0  0  0  0  0  0
  -21.4427  -29.3023   22.3451 N   0  0  0  0  0  0
  -26.4280  -37.3649   23.9399 N   0  0  0  0  0  0
  -24.7893  -30.9383   22.0756 N   0  0  0  0  0  0
  -23.4212  -28.7916   23.3079 O   0  0  0  0  0  0
  -28.1995  -25.4533   20.2752 O   0  0  0  0  0  0
  -26.5776  -34.8858   22.4573 O   0  0  0  0  0  0
  -23.5874  -32.1060   23.6422 O   0  0  0  0  0  0
  -29.6025  -21.2771   19.0165 C   0  0  0  0  0  0
  -29.9275  -19.6471   19.0178 C   0  0  0  0  0  0
  -28.9351  -21.9510   20.3038 C   0  0  2  0  0  0
  -29.6638  -18.8206   20.3532 C   0  0  1  0  0  0
  -28.6178  -20.2309   20.8305 C   0  0  0  0  0  0
  -28.6160  -20.2421   22.3664 C   0  0  0  0  0  0
  -27.1895  -19.8843   20.3679 C   0  0  0  0  0  0
  -28.0064  -23.6879   20.2414 C   0  0  0  0  0  0
  -29.5351  -17.0284   20.3640 N   0  0  0  0  0  0
  -31.4085  -13.3678   19.1608 H   0  0  0  0  0  0
  -30.5913  -12.2631   20.2132 H   0  0  0  0  0  0
  -30.0020  -11.8163   17.8035 H   0  0  0  0  0  0
  -29.4964  -13.4768   17.6035 H   0  0  0  0  0  0
  -28.1614  -11.3020   19.2247 H   0  0  0  0  0  0
  -27.4524  -12.2242   17.9190 H   0  0  0  0  0  0
  -27.4510  -14.2239   19.2345 H   0  0  0  0  0  0
  -28.8754  -12.7854   21.5225 H   0  0  0  0  0  0
  -28.1697  -14.3793   21.6171 H   0  0  0  0  0  0
  -25.2789   -9.5686   22.4782 H   0  0  0  0  0  0
  -24.0012   -7.4646   22.7488 H   0  0  0  0  0  0
  -21.0864   -8.8810   19.8956 H   0  0  0  0  0  0
  -22.3742  -10.9697   19.6184 H   0  0  0  0  0  0
  -21.2016   -7.6159   23.9729 H   0  0  0  0  0  0
  -21.1486   -6.0532   25.9087 H   0  0  0  0  0  0
  -22.0584   -2.7617   23.2850 H   0  0  0  0  0  0
  -22.4015  -11.9810   22.4858 H   0  0  0  0  0  0
  -21.1010  -13.1174   22.2710 H   0  0  0  0  0  0
  -24.6205  -15.8525   20.5333 H   0  0  0  0  0  0
  -26.2331  -15.6442   20.0743 H   0  0  0  0  0  0
  -26.7527  -32.4911   23.0764 H   0  0  0  0  0  0
  -25.0045  -33.9312   25.0020 H   0  0  0  0  0  0
  -22.8412  -31.2348   21.3119 H   0  0  0  0  0  0
  -23.3778  -35.9463   23.3269 H   0  0  0  0  0  0
  -24.3567  -36.8855   22.2076 H   0  0  0  0  0  0
  -23.7247  -37.6311   23.6758 H   0  0  0  0  0  0
  -26.3023  -31.2424   20.6260 H   0  0  0  0  0  0
  -26.9462  -30.5886   22.0835 H   0  0  0  0  0  0
  -28.1718  -28.3621   21.3135 H   0  0  0  0  0  0
  -25.8308  -25.5965   19.0134 H   0  0  0  0  0  0
  -24.0329  -27.2046   18.9389 H   0  0  0  0  0  0
  -23.9458  -30.4481   19.3785 H   0  0  0  0  0  0
  -22.8720  -29.1581   19.8174 H   0  0  0  0  0  0
  -25.1362  -36.1654   25.0768 H   0  0  0  0  0  0
  -21.0059  -28.3407   24.1263 H   0  0  0  0  0  0
  -20.5674  -26.2405   23.3665 H   0  0  0  0  0  0
  -21.6671  -26.7378   22.1220 H   0  0  0  0  0  0
  -19.6948  -25.6258   21.1292 H   0  0  0  0  0  0
  -19.6732  -27.3134   20.6712 H   0  0  0  0  0  0
  -17.4242  -26.6684   21.4022 H   0  0  0  0  0  0
  -18.0363  -26.0103   22.9026 H   0  0  0  0  0  0
  -19.7990  -30.7349   24.2146 H   0  0  0  0  0  0
  -17.5051  -31.6266   24.5174 H   0  0  0  0  0  0
  -15.5392  -30.2957   23.7711 H   0  0  0  0  0  0
  -15.8725  -28.0793   22.7125 H   0  0  0  0  0  0
  -24.5867  -30.7157   25.7584 H   0  0  0  0  0  0
  -24.8842  -32.3044   26.4528 H   0  0  0  0  0  0
  -25.7836  -30.9094   27.0195 H   0  0  0  0  0  0
  -26.3244  -29.6434   24.1601 H   0  0  0  0  0  0
  -27.3953  -29.7278   25.5346 H   0  0  0  0  0  0
  -27.9232  -30.3932   24.0124 H   0  0  0  0  0  0
  -27.2584  -33.3729   26.1868 H   0  0  0  0  0  0
  -28.3955  -32.6822   25.0395 H   0  0  0  0  0  0
  -28.0616  -31.8636   26.5575 H   0  0  0  0  0  0
  -28.2557  -38.0052   24.7509 H   0  0  0  0  0  0
  -28.1097  -36.2576   24.6301 H   0  0  0  0  0  0
  -27.2283  -37.1372   25.8867 H   0  0  0  0  0  0
  -20.9744  -29.8652   21.6486 H   0  0  0  0  0  0
  -26.0110  -38.2698   24.1402 H   0  0  0  0  0  0
  -28.9503  -21.4784   18.1662 H   0  0  0  0  0  0
  -30.5230  -21.8162   18.7885 H   0  0  0  0  0  0
  -30.9555  -19.4846   18.6912 H   0  0  0  0  0  0
  -29.3169  -19.1969   18.2339 H   0  0  0  0  0  0
  -29.7764  -22.2166   20.9447 H   0  0  0  0  0  0
  -30.5667  -18.9563   20.9504 H   0  0  0  0  0  0
  -29.6072  -20.4792   22.7551 H   0  0  0  0  0  0
  -28.3314  -19.2712   22.7737 H   0  0  0  0  0  0
  -27.9227  -20.9861   22.7613 H   0  0  0  0  0  0
  -27.1134  -19.8589   19.2808 H   0  0  0  0  0  0
  -26.4670  -20.6187   20.7260 H   0  0  0  0  0  0
  -26.8785  -18.9062   20.7373 H   0  0  0  0  0  0
  -27.3321  -23.5832   21.0914 H   0  0  0  0  0  0
  -27.3443  -23.5652   19.3840 H   0  0  0  0  0  0
  -28.5549  -16.7952   20.4340 H   0  0  0  0  0  0
  1 25  1  0  0  0
  1 30  2  0  0  0
  1 79  1  0  0  0
  2  3  1  0  0  0
  2 25  1  0  0  0
  2 80  1  0  0  0
  2 81  1  0  0  0
  3  4  1  0  0  0
  3 82  1  0  0  0
  3 83  1  0  0  0
  4  5  1  0  0  0
  4 84  1  0  0  0
  4 85  1  0  0  0
  5  6  1  0  0  0
  5 26  1  0  0  0
  5 86  1  0  0  0
  6 25  1  0  0  0
  6 87  1  0  0  0
  6 88  1  0  0  0
  7  8  2  0  0  0
  7 26  1  0  0  0
  7 29  1  0  0  0
  8  9  1  0  0  0
  8 22  1  0  0  0
  9 10  1  0  0  0
  9 27  2  0  0  0
 10 11  2  0  0  0
 10 15  1  0  0  0
 11 12  1  0  0  0
 11 89  1  0  0  0
 12 13  2  0  0  0
 12 90  1  0  0  0
 13 14  1  0  0  0
 13 31  1  0  0  0
 14 15  2  0  0  0
 14 91  1  0  0  0
 15 92  1  0  0  0
 16 17  2  0  0  0
 16 21  1  0  0  0
 16 31  1  0  0  0
 17 18  1  0  0  0
 17 93  1  0  0  0
 18 19  2  0  0  0
 18 94  1  0  0  0
 19 20  1  0  0  0
 19 24  1  0  0  0
 20 21  2  0  0  0
 20 95  1  0  0  0
 21 23  1  0  0  0
 22 28  1  0  0  0
 22 32  2  0  0  0
 26 27  1  0  0  0
 28 96  1  0  0  0
 28 97  1  0  0  0
 29 98  1  0  0  0
 29 99  1  0  0  0
 33 34  1  0  0  0
 33 66  1  0  0  0
 33 70  2  0  0  0
 34 36  1  0  0  0
 34 59  1  0  0  0
 34100  1  0  0  0
 35 44  2  0  0  0
 35 45  1  0  0  0
 35 68  1  0  0  0
 36 56  1  0  0  0
 36101  1  0  0  0
 37 39  1  0  0  0
 37 47  1  0  0  0
 37 66  1  0  0  0
 37102  1  0  0  0
 38 43  2  0  0  0
 38 46  1  0  0  0
 38 47  1  0  0  0
 39 64  1  0  0  0
 39 67  2  0  0  0
 40 52  1  0  0  0
 40 53  2  0  0  0
 40 58  1  0  0  0
 41103  1  0  0  0
 41104  1  0  0  0
 41105  1  0  0  0
 41 48  1  0  0  0
 42 43  1  0  0  0
 42 66  1  0  0  0
 42106  1  0  0  0
 42107  1  0  0  0
 43 44  1  0  0  0
 44108  1  0  0  0
 45 46  2  0  0  0
 45109  1  0  0  0
 46110  1  0  0  0
 47111  1  0  0  0
 47112  1  0  0  0
 48 56  1  0  0  0
 48 65  1  0  0  0
 48113  1  0  0  0
 49 50  1  0  0  0
 49 53  1  0  0  0
 49 64  1  0  0  0
 49114  1  0  0  0
 50 51  1  0  0  0
 50115  1  0  0  0
 50116  1  0  0  0
 51 52  1  0  0  0
 51117  1  0  0  0
 51118  1  0  0  0
 52119  1  0  0  0
 52120  1  0  0  0
 53 54  1  0  0  0
 54 55  2  0  0  0
 54121  1  0  0  0
 55 57  1  0  0  0
 55122  1  0  0  0
 56 69  2  0  0  0
 57 58  2  0  0  0
 57123  1  0  0  0
 58124  1  0  0  0
 59 60  1  0  0  0
 59 61  1  0  0  0
 59 62  1  0  0  0
 60125  1  0  0  0
 60126  1  0  0  0
 60127  1  0  0  0
 61128  1  0  0  0
 61129  1  0  0  0
 61130  1  0  0  0
 62131  1  0  0  0
 62132  1  0  0  0
 62133  1  0  0  0
 63 65  1  0  0  0
 63134  1  0  0  0
 63135  1  0  0  0
 63136  1  0  0  0
 64137  1  0  0  0
 65138  1  0  0  0
 68 78  1  0  0  0
 71 72  1  0  0  0
 71 73  1  0  0  0
 71139  1  0  0  0
 71140  1  0  0  0
 72 74  1  0  0  0
 72141  1  0  0  0
 72142  1  0  0  0
 73 75  1  0  0  0
 73 78  1  0  0  0
 73143  1  0  0  0
 74 75  1  0  0  0
 74 79  1  0  0  0
 74144  1  0  0  0
 75 76  1  0  0  0
 75 77  1  0  0  0
 76145  1  0  0  0
 76146  1  0  0  0
 76147  1  0  0  0
 77148  1  0  0  0
 77149  1  0  0  0
 77150  1  0  0  0
 78151  1  0  0  0
 78152  1  0  0  0
 79153  1  0  0  0
M  ISO  4   1 100  68 101  78 101  79 100
M  END
> <chiral flag>
0

> <version>
0

> <s_m_source_file>
/data/baiqing/PycharmProjects/Reinvent-master-3.2/result/LINK_invent/BTK/process_docking_weight1_custom_product_contain_oxygen_bond_distance_aromatic_linkinvent_7_9_3/rearranged_h_0152.sdf

> <i_m_source_file_index>
21

> <r_mmod_Potential_Energy-OPLS-2005>
2582.236328125

> <r_mmod_Stretch_Energy-OPLS-2005>
1118.09594726562

> <r_mmod_Bend_Energy-OPLS-2005>
726.785461425781

> <r_mmod_Torsional_Energy-OPLS-2005>
281.615325927734

> <r_mmod_Improper_Torsional_Energy-OPLS-2005>
3.66314458847046

> <r_mmod_Van_der_Waal_Energy-OPLS-2005>
105.366958618164

> <r_mmod_Electrostatic_Energy-OPLS-2005>
-390.149353027344

> <r_mmod_Solvation_Energy-OPLS-2005>
-206.56169128418

> <b_mmod_Minimization_Converged-OPLS-2005>
0

> <r_mmod_RMS_Derivative-OPLS-2005>
1.30911219120026

$$$$
21
                    3D
 Structure written by MMmdl.
153161  0  0  1  0            999 V2000
  -30.5992  -14.6743   20.4613 C   0  0  0  0  0  0
  -30.4234  -12.4050   19.4562 C   0  0  0  0  0  0
  -29.4942  -12.4538   18.2237 C   0  0  0  0  0  0
  -28.0281  -12.2754   18.6570 C   0  0  0  0  0  0
  -27.6344  -13.2051   19.8347 C   0  0  2  0  0  0
  -28.6708  -13.1349   20.9748 C   0  0  0  0  0  0
  -25.2526  -13.8154   20.5635 C   0  0  0  0  0  0
  -24.1787  -13.0414   20.9180 C   0  0  0  0  0  0
  -24.6347  -11.6891   20.8747 C   0  0  0  0  0  0
  -23.9022  -10.4270   21.0410 C   0  0  0  0  0  0
  -24.3593   -9.4204   21.9190 C   0  0  0  0  0  0
  -23.6276   -8.2244   22.0775 C   0  0  0  0  0  0
  -22.4275   -8.0267   21.3538 C   0  0  0  0  0  0
  -21.9883   -9.0236   20.4649 C   0  0  0  0  0  0
  -22.7206  -10.2111   20.3047 C   0  0  0  0  0  0
  -21.6834   -6.0716   22.5271 C   0  0  0  0  0  0
  -21.4016   -6.5630   23.8205 C   0  0  0  0  0  0
  -21.3668   -5.6792   24.9167 C   0  0  0  0  0  0
  -21.6016   -4.3053   24.7224 C   0  0  0  0  0  0
  -21.8834   -3.8139   23.4356 C   0  0  0  0  0  0
  -21.9204   -4.6943   22.3402 C   0  0  0  0  0  0
  -22.7828  -13.5233   21.1863 C   0  0  0  0  0  0
  -22.1664   -4.2137   21.0973 F   0  0  0  0  0  0
  -21.5635   -3.4539   25.7740 F   0  0  0  0  0  0
  -29.9782  -13.4590   20.3946 N   0  0  0  0  0  0
  -26.2885  -12.9292   20.3195 N   0  0  0  0  0  0
  -25.9252  -11.6470   20.5718 N   0  0  0  0  0  0
  -22.0478  -12.8194   22.0421 N   0  0  0  0  0  0
  -25.4251  -15.1863   20.4072 N   0  0  0  0  0  0
  -31.7896  -14.7766   20.1456 O   0  0  0  0  0  0
  -21.6635   -6.8863   21.4237 O   0  0  0  0  0  0
  -22.3528  -14.5541   20.6725 O   0  0  0  0  0  0
  -24.6364  -31.8505   23.1999 C   0  0  0  0  0  0
  -25.9210  -32.4707   23.8344 C   0  0  1  0  0  0
  -27.2042  -27.2303   20.1338 C   0  0  0  0  0  0
  -25.6011  -33.8523   24.2264 N   0  0  0  0  0  0
  -23.4392  -30.4762   21.5376 C   0  0  2  0  0  0
  -24.8881  -28.9265   20.0933 C   0  0  0  0  0  0
  -22.7548  -29.4556   22.4806 C   0  0  0  0  0  0
  -18.0308  -28.1381   22.8458 C   0  0  0  0  0  0
  -24.1517  -36.7245   23.2646 C   0  0  0  0  0  0
  -25.9912  -30.7350   21.4080 C   0  0  0  0  0  0
  -26.0537  -29.3638   20.7338 C   0  0  0  0  0  0
  -27.2162  -28.5283   20.7438 C   0  0  0  0  0  0
  -26.0386  -26.8848   19.4188 C   0  0  0  0  0  0
  -24.8915  -27.6980   19.4101 C   0  0  0  0  0  0
  -23.6673  -29.8244   20.1458 C   0  0  0  0  0  0
  -25.4145  -36.3050   24.0343 C   0  0  1  0  0  0
  -20.5921  -28.3714   23.1208 C   0  0  2  0  0  0
  -20.6787  -26.9431   22.5349 C   0  0  0  0  0  0
  -19.5752  -26.6393   21.5159 C   0  0  0  0  0  0
  -18.1942  -26.7932   22.1592 C   0  0  0  0  0  0
  -19.1570  -28.8865   23.2823 C   0  0  0  0  0  0
  -18.9488  -30.1448   23.8875 C   0  0  0  0  0  0
  -17.6507  -30.6568   24.0567 C   0  0  0  0  0  0
  -25.9090  -34.9415   23.5095 C   0  0  0  0  0  0
  -16.5377  -29.9067   23.6357 C   0  0  0  0  0  0
  -16.7300  -28.6494   23.0359 C   0  0  0  0  0  0
  -26.4557  -31.6574   25.0769 C   0  0  0  0  0  0
  -25.3779  -31.3761   26.1507 C   0  0  0  0  0  0
  -27.0507  -30.2990   24.6385 C   0  0  0  0  0  0
  -27.6080  -32.4383   25.7524 C   0  0  0  0  0  0
  -27.5583  -37.1772   24.8462 C   0  0  0  0  0  0
  -21.4249  -29.3077   22.3600 N   0  0  0  0  0  0
  -26.4308  -37.3760   23.9409 N   0  0  0  0  0  0
  -24.7058  -31.0388   22.1031 N   0  0  0  0  0  0
  -23.4210  -28.8061   23.2911 O   0  0  0  0  0  0
  -28.2493  -26.2814   20.1966 O   0  0  0  0  0  0
  -26.5604  -34.8905   22.4634 O   0  0  0  0  0  0
  -23.5494  -32.1398   23.7239 O   0  0  0  0  0  0
  -31.4392  -17.5451   21.2478 C   0  0  0  0  0  0
  -30.9903  -19.9524   21.0472 C   0  0  0  0  0  0
  -29.2765  -18.3305   20.4541 C   0  0  0  0  0  0
  -31.8597  -18.8815   21.3675 C   0  0  0  0  0  0
  -30.1541  -17.2152   20.7670 C   0  0  0  0  0  0
  -29.6701  -19.7255   20.5868 C   0  0  0  0  0  0
  -28.6746  -23.5984   20.0894 C   0  0  0  0  0  0
  -28.7524  -22.2101   20.9116 C   0  0  0  0  0  0
  -27.8609  -24.8786   20.6329 C   0  0  0  0  0  0
  -33.1673  -19.1221   21.7902 N   0  0  0  0  0  0
  -29.7942  -15.7838   20.6527 N   0  0  0  0  0  0
  -28.8289  -20.8499   20.2167 N   0  0  0  0  0  0
  -29.2373  -23.6655   18.9937 O   0  0  0  0  0  0
  -31.4631  -12.5306   19.1456 H   0  0  0  0  0  0
  -30.3723  -11.4276   19.9394 H   0  0  0  0  0  0
  -29.7702  -11.6674   17.5190 H   0  0  0  0  0  0
  -29.6144  -13.3959   17.6908 H   0  0  0  0  0  0
  -27.9112  -11.2369   18.9640 H   0  0  0  0  0  0
  -27.3559  -12.4130   17.8104 H   0  0  0  0  0  0
  -27.6352  -14.2160   19.4315 H   0  0  0  0  0  0
  -28.6932  -12.1446   21.4330 H   0  0  0  0  0  0
  -28.4090  -13.8344   21.7708 H   0  0  0  0  0  0
  -25.2737   -9.5682   22.4756 H   0  0  0  0  0  0
  -23.9980   -7.4637   22.7481 H   0  0  0  0  0  0
  -21.0841   -8.8736   19.8946 H   0  0  0  0  0  0
  -22.3677  -10.9641   19.6154 H   0  0  0  0  0  0
  -21.2007   -7.6139   23.9699 H   0  0  0  0  0  0
  -21.1466   -6.0520   25.9063 H   0  0  0  0  0  0
  -22.0612   -2.7602   23.2851 H   0  0  0  0  0  0
  -22.4110  -11.9817   22.4721 H   0  0  0  0  0  0
  -21.1110  -13.1219   22.2670 H   0  0  0  0  0  0
  -24.6544  -15.8375   20.5126 H   0  0  0  0  0  0
  -26.2653  -15.6284   20.0563 H   0  0  0  0  0  0
  -26.7246  -32.5297   23.1046 H   0  0  0  0  0  0
  -25.0316  -33.9641   25.0515 H   0  0  0  0  0  0
  -22.7397  -31.3016   21.3901 H   0  0  0  0  0  0
  -23.3791  -35.9568   23.3313 H   0  0  0  0  0  0
  -24.3607  -36.8870   22.2060 H   0  0  0  0  0  0
  -23.7231  -37.6434   23.6654 H   0  0  0  0  0  0
  -26.1768  -31.5030   20.6556 H   0  0  0  0  0  0
  -26.8515  -30.7505   22.0683 H   0  0  0  0  0  0
  -28.1019  -28.8449   21.2770 H   0  0  0  0  0  0
  -26.0015  -25.9627   18.8536 H   0  0  0  0  0  0
  -24.0235  -27.3812   18.8470 H   0  0  0  0  0  0
  -23.8172  -30.6117   19.4069 H   0  0  0  0  0  0
  -22.7821  -29.2736   19.8207 H   0  0  0  0  0  0
  -25.1293  -36.1903   25.0834 H   0  0  0  0  0  0
  -21.0007  -28.3298   24.1315 H   0  0  0  0  0  0
  -20.5693  -26.2318   23.3554 H   0  0  0  0  0  0
  -21.6643  -26.7442   22.1104 H   0  0  0  0  0  0
  -19.6937  -25.6306   21.1169 H   0  0  0  0  0  0
  -19.6689  -27.3230   20.6706 H   0  0  0  0  0  0
  -17.4196  -26.6702   21.3982 H   0  0  0  0  0  0
  -18.0317  -26.0055   22.8971 H   0  0  0  0  0  0
  -19.7994  -30.7221   24.2224 H   0  0  0  0  0  0
  -17.5087  -31.6255   24.5162 H   0  0  0  0  0  0
  -15.5385  -30.2959   23.7699 H   0  0  0  0  0  0
  -15.8700  -28.0795   22.7081 H   0  0  0  0  0  0
  -24.5915  -30.7165   25.7841 H   0  0  0  0  0  0
  -24.9026  -32.2948   26.4957 H   0  0  0  0  0  0
  -25.8099  -30.8902   27.0276 H   0  0  0  0  0  0
  -26.3169  -29.6605   24.1471 H   0  0  0  0  0  0
  -27.4227  -29.7392   25.4976 H   0  0  0  0  0  0
  -27.9022  -30.4272   23.9711 H   0  0  0  0  0  0
  -27.2675  -33.3712   26.2065 H   0  0  0  0  0  0
  -28.3897  -32.6955   25.0351 H   0  0  0  0  0  0
  -28.0798  -31.8577   26.5481 H   0  0  0  0  0  0
  -28.2560  -38.0107   24.7539 H   0  0  0  0  0  0
  -28.1130  -36.2627   24.6264 H   0  0  0  0  0  0
  -27.2301  -37.1375   25.8869 H   0  0  0  0  0  0
  -20.9413  -29.8913   21.6926 H   0  0  0  0  0  0
  -26.0191  -38.2832   24.1435 H   0  0  0  0  0  0
  -32.1262  -16.7575   21.5255 H   0  0  0  0  0  0
  -31.3608  -20.9642   21.1240 H   0  0  0  0  0  0
  -28.2789  -18.1082   20.1027 H   0  0  0  0  0  0
  -27.8613  -22.1702   21.5409 H   0  0  0  0  0  0
  -29.5746  -22.3009   21.6164 H   0  0  0  0  0  0
  -27.8947  -24.8362   21.7215 H   0  0  0  0  0  0
  -26.8165  -24.6984   20.3739 H   0  0  0  0  0  0
  -33.7046  -18.3419   22.1621 H   0  0  0  0  0  0
  -33.3948  -20.0068   22.2344 H   0  0  0  0  0  0
  -28.8086  -15.5758   20.7059 H   0  0  0  0  0  0
  -27.9648  -20.5892   19.7508 H   0  0  0  0  0  0
  1 25  1  0  0  0
  1 30  2  0  0  0
  1 81  1  0  0  0
  2  3  1  0  0  0
  2 25  1  0  0  0
  2 84  1  0  0  0
  2 85  1  0  0  0
  3  4  1  0  0  0
  3 86  1  0  0  0
  3 87  1  0  0  0
  4  5  1  0  0  0
  4 88  1  0  0  0
  4 89  1  0  0  0
  5  6  1  0  0  0
  5 26  1  0  0  0
  5 90  1  0  0  0
  6 25  1  0  0  0
  6 91  1  0  0  0
  6 92  1  0  0  0
  7  8  2  0  0  0
  7 26  1  0  0  0
  7 29  1  0  0  0
  8  9  1  0  0  0
  8 22  1  0  0  0
  9 10  1  0  0  0
  9 27  2  0  0  0
 10 11  2  0  0  0
 10 15  1  0  0  0
 11 12  1  0  0  0
 11 93  1  0  0  0
 12 13  2  0  0  0
 12 94  1  0  0  0
 13 14  1  0  0  0
 13 31  1  0  0  0
 14 15  2  0  0  0
 14 95  1  0  0  0
 15 96  1  0  0  0
 16 17  2  0  0  0
 16 21  1  0  0  0
 16 31  1  0  0  0
 17 18  1  0  0  0
 17 97  1  0  0  0
 18 19  2  0  0  0
 18 98  1  0  0  0
 19 20  1  0  0  0
 19 24  1  0  0  0
 20 21  2  0  0  0
 20 99  1  0  0  0
 21 23  1  0  0  0
 22 28  1  0  0  0
 22 32  2  0  0  0
 26 27  1  0  0  0
 28100  1  0  0  0
 28101  1  0  0  0
 29102  1  0  0  0
 29103  1  0  0  0
 33 34  1  0  0  0
 33 66  1  0  0  0
 33 70  2  0  0  0
 34 36  1  0  0  0
 34 59  1  0  0  0
 34104  1  0  0  0
 35 44  2  0  0  0
 35 45  1  0  0  0
 35 68  1  0  0  0
 36 56  1  0  0  0
 36105  1  0  0  0
 37 39  1  0  0  0
 37 47  1  0  0  0
 37 66  1  0  0  0
 37106  1  0  0  0
 38 43  2  0  0  0
 38 46  1  0  0  0
 38 47  1  0  0  0
 39 64  1  0  0  0
 39 67  2  0  0  0
 40 52  1  0  0  0
 40 53  2  0  0  0
 40 58  1  0  0  0
 41107  1  0  0  0
 41108  1  0  0  0
 41109  1  0  0  0
 41 48  1  0  0  0
 42 43  1  0  0  0
 42 66  1  0  0  0
 42110  1  0  0  0
 42111  1  0  0  0
 43 44  1  0  0  0
 44112  1  0  0  0
 45 46  2  0  0  0
 45113  1  0  0  0
 46114  1  0  0  0
 47115  1  0  0  0
 47116  1  0  0  0
 48 56  1  0  0  0
 48 65  1  0  0  0
 48117  1  0  0  0
 49 50  1  0  0  0
 49 53  1  0  0  0
 49 64  1  0  0  0
 49118  1  0  0  0
 50 51  1  0  0  0
 50119  1  0  0  0
 50120  1  0  0  0
 51 52  1  0  0  0
 51121  1  0  0  0
 51122  1  0  0  0
 52123  1  0  0  0
 52124  1  0  0  0
 53 54  1  0  0  0
 54 55  2  0  0  0
 54125  1  0  0  0
 55 57  1  0  0  0
 55126  1  0  0  0
 56 69  2  0  0  0
 57 58  2  0  0  0
 57127  1  0  0  0
 58128  1  0  0  0
 59 60  1  0  0  0
 59 61  1  0  0  0
 59 62  1  0  0  0
 60129  1  0  0  0
 60130  1  0  0  0
 60131  1  0  0  0
 61132  1  0  0  0
 61133  1  0  0  0
 61134  1  0  0  0
 62135  1  0  0  0
 62136  1  0  0  0
 62137  1  0  0  0
 63 65  1  0  0  0
 63138  1  0  0  0
 63139  1  0  0  0
 63140  1  0  0  0
 64141  1  0  0  0
 65142  1  0  0  0
 68 79  1  0  0  0
 71 74  2  0  0  0
 71 75  1  0  0  0
 71143  1  0  0  0
 72 74  1  0  0  0
 72 76  2  0  0  0
 72144  1  0  0  0
 73 75  2  0  0  0
 73 76  1  0  0  0
 73145  1  0  0  0
 74 80  1  0  0  0
 75 81  1  0  0  0
 76 82  1  0  0  0
 77 78  1  0  0  0
 77 79  1  0  0  0
 77 83  2  0  0  0
 78 82  1  0  0  0
 78146  1  0  0  0
 78147  1  0  0  0
 79148  1  0  0  0
 79149  1  0  0  0
 80150  1  0  0  0
 80151  1  0  0  0
 81152  1  0  0  0
 82153  1  0  0  0
M  ISO  4   1 100  68 101  79 101  81 100
M  END
> <chiral flag>
0

> <version>
0

> <s_m_source_file>
/data/baiqing/PycharmProjects/Reinvent-master-3.2/result/LINK_invent/BTK/process_docking_weight1_custom_product_contain_oxygen_bond_distance_aromatic_linkinvent_7_9_3/rearranged_h_0152.sdf

> <i_m_source_file_index>
22

> <r_mmod_Potential_Energy-OPLS-2005>
279.469146728516

> <r_mmod_Stretch_Energy-OPLS-2005>
122.826721191406

> <r_mmod_Bend_Energy-OPLS-2005>
160.768417358398

> <r_mmod_Torsional_Energy-OPLS-2005>
236.988555908203

> <r_mmod_Improper_Torsional_Energy-OPLS-2005>
10.2552585601807

> <r_mmod_Van_der_Waal_Energy-OPLS-2005>
142.457885742188

> <r_mmod_Electrostatic_Energy-OPLS-2005>
-218.080490112305

> <r_mmod_Solvation_Energy-OPLS-2005>
-267.380645751953

> <b_mmod_Minimization_Converged-OPLS-2005>
0

> <r_mmod_RMS_Derivative-OPLS-2005>
7.2057991027832

$$$$
22
                    3D
 Structure written by MMmdl.
182191  0  0  1  0            999 V2000
  -30.6533  -14.5632   20.5150 C   0  0  0  0  0  0
  -30.4312  -12.3458   19.4426 C   0  0  0  0  0  0
  -29.5038  -12.5019   18.2176 C   0  0  0  0  0  0
  -28.0245  -12.3522   18.6269 C   0  0  0  0  0  0
  -27.6567  -13.2102   19.8671 C   0  0  2  0  0  0
  -28.6999  -13.0351   20.9946 C   0  0  0  0  0  0
  -25.2575  -13.8160   20.5676 C   0  0  0  0  0  0
  -24.1834  -13.0435   20.9182 C   0  0  0  0  0  0
  -24.6393  -11.6902   20.8737 C   0  0  0  0  0  0
  -23.9057  -10.4290   21.0406 C   0  0  0  0  0  0
  -24.3612   -9.4206   21.9184 C   0  0  0  0  0  0
  -23.6289   -8.2241   22.0754 C   0  0  0  0  0  0
  -22.4270   -8.0280   21.3546 C   0  0  0  0  0  0
  -21.9902   -9.0252   20.4648 C   0  0  0  0  0  0
  -22.7230  -10.2132   20.3056 C   0  0  0  0  0  0
  -21.6852   -6.0733   22.5279 C   0  0  0  0  0  0
  -21.4013   -6.5637   23.8211 C   0  0  0  0  0  0
  -21.3659   -5.6789   24.9173 C   0  0  0  0  0  0
  -21.6044   -4.3053   24.7224 C   0  0  0  0  0  0
  -21.8820   -3.8144   23.4345 C   0  0  0  0  0  0
  -21.9193   -4.6959   22.3401 C   0  0  0  0  0  0
  -22.7856  -13.5236   21.1844 C   0  0  0  0  0  0
  -22.1663   -4.2145   21.0978 F   0  0  0  0  0  0
  -21.5627   -3.4537   25.7738 F   0  0  0  0  0  0
  -30.0234  -13.3546   20.4363 N   0  0  0  0  0  0
  -26.3002  -12.9331   20.3327 N   0  0  0  0  0  0
  -25.9319  -11.6490   20.5754 N   0  0  0  0  0  0
  -22.0492  -12.8236   22.0402 N   0  0  0  0  0  0
  -25.4297  -15.1877   20.4078 N   0  0  0  0  0  0
  -31.8157  -14.7174   20.1273 O   0  0  0  0  0  0
  -21.6638   -6.8875   21.4240 O   0  0  0  0  0  0
  -22.3544  -14.5543   20.6691 O   0  0  0  0  0  0
  -24.6193  -31.8640   23.2060 C   0  0  0  0  0  0
  -25.9065  -32.4802   23.8374 C   0  0  1  0  0  0
  -27.2324  -27.3869   20.1124 C   0  0  0  0  0  0
  -25.5906  -33.8602   24.2310 N   0  0  0  0  0  0
  -23.4115  -30.4855   21.5468 C   0  0  2  0  0  0
  -24.8610  -28.9447   20.1144 C   0  0  0  0  0  0
  -22.7444  -29.4631   22.4960 C   0  0  0  0  0  0
  -18.0282  -28.1376   22.8486 C   0  0  0  0  0  0
  -24.1488  -36.7305   23.2638 C   0  0  0  0  0  0
  -25.9449  -30.8152   21.3669 C   0  0  0  0  0  0
  -26.0244  -29.4455   20.7147 C   0  0  0  0  0  0
  -27.2172  -28.6754   20.7081 C   0  0  0  0  0  0
  -26.0558  -26.9147   19.4977 C   0  0  0  0  0  0
  -24.8740  -27.6805   19.4999 C   0  0  0  0  0  0
  -23.6247  -29.8169   20.1624 C   0  0  0  0  0  0
  -25.4109  -36.3100   24.0336 C   0  0  1  0  0  0
  -20.5876  -28.3669   23.1300 C   0  0  2  0  0  0
  -20.6769  -26.9398   22.5413 C   0  0  0  0  0  0
  -19.5749  -26.6380   21.5207 C   0  0  0  0  0  0
  -18.1929  -26.7921   22.1621 C   0  0  0  0  0  0
  -19.1533  -28.8839   23.2890 C   0  0  0  0  0  0
  -18.9459  -30.1443   23.8903 C   0  0  0  0  0  0
  -17.6461  -30.6579   24.0564 C   0  0  0  0  0  0
  -25.9039  -34.9466   23.5122 C   0  0  0  0  0  0
  -16.5352  -29.9081   23.6324 C   0  0  0  0  0  0
  -16.7270  -28.6499   23.0343 C   0  0  0  0  0  0
  -26.4479  -31.6588   25.0714 C   0  0  0  0  0  0
  -25.3739  -31.3711   26.1460 C   0  0  0  0  0  0
  -27.0301  -30.3020   24.6109 C   0  0  0  0  0  0
  -27.6057  -32.4302   25.7477 C   0  0  0  0  0  0
  -27.5583  -37.1807   24.8464 C   0  0  0  0  0  0
  -21.4164  -29.3030   22.3701 N   0  0  0  0  0  0
  -26.4294  -37.3786   23.9409 N   0  0  0  0  0  0
  -24.6768  -31.0700   22.0980 N   0  0  0  0  0  0
  -23.4190  -28.8175   23.3025 O   0  0  0  0  0  0
  -28.3508  -26.5684   20.1138 O   0  0  0  0  0  0
  -26.5604  -34.8923   22.4686 O   0  0  0  0  0  0
  -23.5371  -32.1408   23.7424 O   0  0  0  0  0  0
  -28.9668  -17.9735   20.4848 C   0  0  0  0  0  0
  -31.1990  -17.6954   20.3781 C   0  0  0  0  0  0
  -30.0306  -17.0220   20.5993 C   0  0  0  0  0  0
  -29.4992  -19.1993   20.1357 C   0  0  0  0  0  0
  -28.8713  -20.4554   19.6891 C   0  0  0  0  0  0
  -29.2992  -23.3184   22.0453 C   0  0  0  0  0  0
  -29.5456  -21.8497   21.6428 C   0  0  0  0  0  0
  -29.0441  -24.1032   20.7360 C   0  0  2  0  0  0
  -28.2791  -22.9822   19.9155 C   0  0  0  0  0  0
  -30.4238  -24.4547   20.1228 C   0  0  0  0  0  0
  -28.3682  -23.2627   18.3954 C   0  0  0  0  0  0
  -26.7839  -22.8895   20.3091 C   0  0  0  0  0  0
  -33.1937  -18.5600   17.9405 C   0  0  0  0  0  0
  -31.1824  -19.8171   17.1377 C   0  0  0  0  0  0
  -33.2571  -21.0547   17.7899 C   0  0  0  0  0  0
  -28.2814  -25.4609   21.0541 C   0  0  0  0  0  0
  -31.8673  -19.9989   19.5942 C   0  0  0  0  0  0
  -32.3635  -19.8461   18.1272 C   0  0  0  0  0  0
  -30.8827  -19.0094   20.0284 N   0  0  0  0  0  0
  -28.9531  -21.6879   20.3069 N   0  0  0  0  0  0
  -29.8612  -15.6117   20.8726 N   0  0  0  0  0  0
  -28.1256  -20.3156   18.5839 N   0  3  0  0  0  0
  -31.4751  -12.4554   19.1426 H   0  0  0  0  0  0
  -30.3465  -11.3439   19.8662 H   0  0  0  0  0  0
  -29.7575  -11.7631   17.4561 H   0  0  0  0  0  0
  -29.6601  -13.4795   17.7588 H   0  0  0  0  0  0
  -27.8466  -11.2978   18.8412 H   0  0  0  0  0  0
  -27.3743  -12.6038   17.7882 H   0  0  0  0  0  0
  -27.6843  -14.2499   19.5417 H   0  0  0  0  0  0
  -28.6928  -12.0092   21.3653 H   0  0  0  0  0  0
  -28.4573  -13.6608   21.8550 H   0  0  0  0  0  0
  -25.2758   -9.5679   22.4757 H   0  0  0  0  0  0
  -23.9999   -7.4630   22.7470 H   0  0  0  0  0  0
  -21.0831   -8.8767   19.8956 H   0  0  0  0  0  0
  -22.3687  -10.9670   19.6161 H   0  0  0  0  0  0
  -21.2009   -7.6146   23.9714 H   0  0  0  0  0  0
  -21.1478   -6.0520   25.9076 H   0  0  0  0  0  0
  -22.0603   -2.7605   23.2848 H   0  0  0  0  0  0
  -22.4099  -11.9893   22.4790 H   0  0  0  0  0  0
  -21.1111  -13.1271   22.2606 H   0  0  0  0  0  0
  -24.6592  -15.8402   20.5051 H   0  0  0  0  0  0
  -26.2738  -15.6224   20.0587 H   0  0  0  0  0  0
  -26.7135  -32.5502   23.1135 H   0  0  0  0  0  0
  -25.0058  -33.9756   25.0456 H   0  0  0  0  0  0
  -22.7021  -31.3032   21.4043 H   0  0  0  0  0  0
  -23.3745  -35.9644   23.3312 H   0  0  0  0  0  0
  -24.3584  -36.8906   22.2050 H   0  0  0  0  0  0
  -23.7245  -37.6516   23.6642 H   0  0  0  0  0  0
  -26.0633  -31.5788   20.5968 H   0  0  0  0  0  0
  -26.8301  -30.8698   21.9888 H   0  0  0  0  0  0
  -28.1144  -29.0540   21.1777 H   0  0  0  0  0  0
  -26.0522  -25.9432   19.0244 H   0  0  0  0  0  0
  -23.9817  -27.2902   19.0301 H   0  0  0  0  0  0
  -23.7382  -30.5920   19.4035 H   0  0  0  0  0  0
  -22.7474  -29.2405   19.8631 H   0  0  0  0  0  0
  -25.1285  -36.1965   25.0828 H   0  0  0  0  0  0
  -20.9968  -28.3239   24.1421 H   0  0  0  0  0  0
  -20.5660  -26.2278   23.3605 H   0  0  0  0  0  0
  -21.6641  -26.7426   22.1215 H   0  0  0  0  0  0
  -19.6912  -25.6295   21.1226 H   0  0  0  0  0  0
  -19.6688  -27.3198   20.6745 H   0  0  0  0  0  0
  -17.4196  -26.6664   21.4027 H   0  0  0  0  0  0
  -18.0336  -26.0060   22.9016 H   0  0  0  0  0  0
  -19.7934  -30.7258   24.2274 H   0  0  0  0  0  0
  -17.5014  -31.6257   24.5167 H   0  0  0  0  0  0
  -15.5354  -30.2986   23.7641 H   0  0  0  0  0  0
  -15.8671  -28.0822   22.7051 H   0  0  0  0  0  0
  -24.5905  -30.7066   25.7798 H   0  0  0  0  0  0
  -24.8940  -32.2875   26.4909 H   0  0  0  0  0  0
  -25.8086  -30.8876   27.0218 H   0  0  0  0  0  0
  -26.2847  -29.6790   24.1152 H   0  0  0  0  0  0
  -27.4046  -29.7251   25.4575 H   0  0  0  0  0  0
  -27.8697  -30.4325   23.9278 H   0  0  0  0  0  0
  -27.2684  -33.3596   26.2078 H   0  0  0  0  0  0
  -28.3858  -32.6868   25.0297 H   0  0  0  0  0  0
  -28.0732  -31.8406   26.5374 H   0  0  0  0  0  0
  -28.2603  -38.0101   24.7507 H   0  0  0  0  0  0
  -28.1075  -36.2634   24.6291 H   0  0  0  0  0  0
  -27.2304  -37.1458   25.8869 H   0  0  0  0  0  0
  -20.9331  -29.8761   21.6927 H   0  0  0  0  0  0
  -26.0183  -38.2865   24.1407 H   0  0  0  0  0  0
  -27.9080  -17.7797   20.5857 H   0  0  0  0  0  0
  -32.2257  -17.3533   20.3735 H   0  0  0  0  0  0
  -30.1433  -23.7227   22.6054 H   0  0  0  0  0  0
  -28.4372  -23.3717   22.7116 H   0  0  0  0  0  0
  -29.0895  -21.1596   22.3528 H   0  0  0  0  0  0
  -30.6124  -21.6369   21.6125 H   0  0  0  0  0  0
  -31.0217  -23.5704   19.9015 H   0  0  0  0  0  0
  -31.0073  -25.0785   20.8009 H   0  0  0  0  0  0
  -30.3234  -25.0170   19.1944 H   0  0  0  0  0  0
  -28.3004  -24.3318   18.1921 H   0  0  0  0  0  0
  -27.5553  -22.8015   17.8358 H   0  0  0  0  0  0
  -29.3097  -22.9106   17.9715 H   0  0  0  0  0  0
  -26.2180  -23.7448   19.9418 H   0  0  0  0  0  0
  -26.6358  -22.8356   21.3872 H   0  0  0  0  0  0
  -26.3131  -22.0017   19.8871 H   0  0  0  0  0  0
  -33.6450  -18.5192   16.9486 H   0  0  0  0  0  0
  -32.5849  -17.6621   18.0435 H   0  0  0  0  0  0
  -34.0034  -18.4976   18.6685 H   0  0  0  0  0  0
  -31.5312  -19.7621   16.1059 H   0  0  0  0  0  0
  -30.5686  -20.7137   17.2241 H   0  0  0  0  0  0
  -30.5369  -18.9540   17.3026 H   0  0  0  0  0  0
  -33.6384  -20.9992   16.7693 H   0  0  0  0  0  0
  -34.1187  -21.1125   18.4565 H   0  0  0  0  0  0
  -32.7106  -21.9945   17.8801 H   0  0  0  0  0  0
  -28.7237  -25.8670   21.9648 H   0  0  0  0  0  0
  -27.2512  -25.2540   21.3426 H   0  0  0  0  0  0
  -31.4397  -20.9913   19.7080 H   0  0  0  0  0  0
  -32.7113  -19.9618   20.2849 H   0  0  0  0  0  0
  -28.9377  -15.3333   21.1669 H   0  0  0  0  0  0
  -28.0430  -19.4088   18.1499 H   0  0  0  0  0  0
  -27.6531  -21.0959   18.1565 H   0  0  0  0  0  0
  1 25  1  0  0  0
  1 30  2  0  0  0
  1 91  1  0  0  0
  2  3  1  0  0  0
  2 25  1  0  0  0
  2 93  1  0  0  0
  2 94  1  0  0  0
  3  4  1  0  0  0
  3 95  1  0  0  0
  3 96  1  0  0  0
  4  5  1  0  0  0
  4 97  1  0  0  0
  4 98  1  0  0  0
  5  6  1  0  0  0
  5 26  1  0  0  0
  5 99  1  0  0  0
  6 25  1  0  0  0
  6100  1  0  0  0
  6101  1  0  0  0
  7  8  2  0  0  0
  7 26  1  0  0  0
  7 29  1  0  0  0
  8  9  1  0  0  0
  8 22  1  0  0  0
  9 10  1  0  0  0
  9 27  2  0  0  0
 10 11  2  0  0  0
 10 15  1  0  0  0
 11 12  1  0  0  0
 11102  1  0  0  0
 12 13  2  0  0  0
 12103  1  0  0  0
 13 14  1  0  0  0
 13 31  1  0  0  0
 14 15  2  0  0  0
 14104  1  0  0  0
 15105  1  0  0  0
 16 17  2  0  0  0
 16 21  1  0  0  0
 16 31  1  0  0  0
 17 18  1  0  0  0
 17106  1  0  0  0
 18 19  2  0  0  0
 18107  1  0  0  0
 19 20  1  0  0  0
 19 24  1  0  0  0
 20 21  2  0  0  0
 20108  1  0  0  0
 21 23  1  0  0  0
 22 28  1  0  0  0
 22 32  2  0  0  0
 26 27  1  0  0  0
 28109  1  0  0  0
 28110  1  0  0  0
 29111  1  0  0  0
 29112  1  0  0  0
 33 34  1  0  0  0
 33 66  1  0  0  0
 33 70  2  0  0  0
 34 36  1  0  0  0
 34 59  1  0  0  0
 34113  1  0  0  0
 35 44  2  0  0  0
 35 45  1  0  0  0
 35 68  1  0  0  0
 36 56  1  0  0  0
 36114  1  0  0  0
 37 39  1  0  0  0
 37 47  1  0  0  0
 37 66  1  0  0  0
 37115  1  0  0  0
 38 43  2  0  0  0
 38 46  1  0  0  0
 38 47  1  0  0  0
 39 64  1  0  0  0
 39 67  2  0  0  0
 40 52  1  0  0  0
 40 53  2  0  0  0
 40 58  1  0  0  0
 41116  1  0  0  0
 41117  1  0  0  0
 41118  1  0  0  0
 41 48  1  0  0  0
 42 43  1  0  0  0
 42 66  1  0  0  0
 42119  1  0  0  0
 42120  1  0  0  0
 43 44  1  0  0  0
 44121  1  0  0  0
 45 46  2  0  0  0
 45122  1  0  0  0
 46123  1  0  0  0
 47124  1  0  0  0
 47125  1  0  0  0
 48 56  1  0  0  0
 48 65  1  0  0  0
 48126  1  0  0  0
 49 50  1  0  0  0
 49 53  1  0  0  0
 49 64  1  0  0  0
 49127  1  0  0  0
 50 51  1  0  0  0
 50128  1  0  0  0
 50129  1  0  0  0
 51 52  1  0  0  0
 51130  1  0  0  0
 51131  1  0  0  0
 52132  1  0  0  0
 52133  1  0  0  0
 53 54  1  0  0  0
 54 55  2  0  0  0
 54134  1  0  0  0
 55 57  1  0  0  0
 55135  1  0  0  0
 56 69  2  0  0  0
 57 58  2  0  0  0
 57136  1  0  0  0
 58137  1  0  0  0
 59 60  1  0  0  0
 59 61  1  0  0  0
 59 62  1  0  0  0
 60138  1  0  0  0
 60139  1  0  0  0
 60140  1  0  0  0
 61141  1  0  0  0
 61142  1  0  0  0
 61143  1  0  0  0
 62144  1  0  0  0
 62145  1  0  0  0
 62146  1  0  0  0
 63 65  1  0  0  0
 63147  1  0  0  0
 63148  1  0  0  0
 63149  1  0  0  0
 64150  1  0  0  0
 65151  1  0  0  0
 68 86  1  0  0  0
 71 73  1  0  0  0
 71 74  2  0  0  0
 71152  1  0  0  0
 72 73  2  0  0  0
 72 89  1  0  0  0
 72153  1  0  0  0
 73 91  1  0  0  0
 74 75  1  0  0  0
 74 89  1  0  0  0
 75 90  1  0  0  0
 75 92  2  0  0  0
 76 77  1  0  0  0
 76 78  1  0  0  0
 76154  1  0  0  0
 76155  1  0  0  0
 77 90  1  0  0  0
 77156  1  0  0  0
 77157  1  0  0  0
 78 79  1  0  0  0
 78 80  1  0  0  0
 78 86  1  0  0  0
 79 81  1  0  0  0
 79 82  1  0  0  0
 79 90  1  0  0  0
 80158  1  0  0  0
 80159  1  0  0  0
 80160  1  0  0  0
 81161  1  0  0  0
 81162  1  0  0  0
 81163  1  0  0  0
 82164  1  0  0  0
 82165  1  0  0  0
 82166  1  0  0  0
 83167  1  0  0  0
 83168  1  0  0  0
 83169  1  0  0  0
 83 88  1  0  0  0
 84 88  1  0  0  0
 84170  1  0  0  0
 84171  1  0  0  0
 84172  1  0  0  0
 85 88  1  0  0  0
 85173  1  0  0  0
 85174  1  0  0  0
 85175  1  0  0  0
 86176  1  0  0  0
 86177  1  0  0  0
 87 88  1  0  0  0
 87 89  1  0  0  0
 87178  1  0  0  0
 87179  1  0  0  0
 91180  1  0  0  0
 92181  1  0  0  0
 92182  1  0  0  0
M  CHG  1  92   1
M  ISO  4   1 100  68 101  86 101  91 100
M  END
> <chiral flag>
0

> <version>
0

> <s_m_source_file>
/data/baiqing/PycharmProjects/Reinvent-master-3.2/result/LINK_invent/BTK/process_docking_weight1_custom_product_contain_oxygen_bond_distance_aromatic_linkinvent_7_9_3/rearranged_h_0152.sdf

> <i_m_source_file_index>
23

> <r_mmod_Potential_Energy-OPLS-2005>
146.62451171875

> <r_mmod_Stretch_Energy-OPLS-2005>
60.9884185791016

> <r_mmod_Bend_Energy-OPLS-2005>
172.618133544922

> <r_mmod_Torsional_Energy-OPLS-2005>
381.506927490234

> <r_mmod_Improper_Torsional_Energy-OPLS-2005>
6.34652805328369

> <r_mmod_Van_der_Waal_Energy-OPLS-2005>
119.431312561035

> <r_mmod_Electrostatic_Energy-OPLS-2005>
-211.522811889648

> <r_mmod_Solvation_Energy-OPLS-2005>
-409.419372558594

> <b_mmod_Minimization_Converged-OPLS-2005>
0

> <r_mmod_RMS_Derivative-OPLS-2005>
0.546633362770081

$$$$
23
                    3D
 Structure written by MMmdl.
157166  0  0  1  0            999 V2000
  -30.6074  -14.7630   20.4725 C   0  0  0  0  0  0
  -30.4362  -12.4761   19.4739 C   0  0  0  0  0  0
  -29.5129  -12.5079   18.2377 C   0  0  0  0  0  0
  -28.0412  -12.3196   18.6522 C   0  0  0  0  0  0
  -27.6387  -13.2280   19.8435 C   0  0  2  0  0  0
  -28.6803  -13.1758   20.9805 C   0  0  0  0  0  0
  -25.2502  -13.8181   20.5676 C   0  0  0  0  0  0
  -24.1779  -13.0448   20.9191 C   0  0  0  0  0  0
  -24.6360  -11.6926   20.8732 C   0  0  0  0  0  0
  -23.9029  -10.4307   21.0389 C   0  0  0  0  0  0
  -24.3581   -9.4227   21.9151 C   0  0  0  0  0  0
  -23.6275   -8.2252   22.0747 C   0  0  0  0  0  0
  -22.4253   -8.0286   21.3566 C   0  0  0  0  0  0
  -21.9859   -9.0248   20.4645 C   0  0  0  0  0  0
  -22.7197  -10.2118   20.3050 C   0  0  0  0  0  0
  -21.6854   -6.0711   22.5264 C   0  0  0  0  0  0
  -21.4022   -6.5620   23.8201 C   0  0  0  0  0  0
  -21.3657   -5.6775   24.9154 C   0  0  0  0  0  0
  -21.6061   -4.3035   24.7215 C   0  0  0  0  0  0
  -21.8819   -3.8133   23.4339 C   0  0  0  0  0  0
  -21.9199   -4.6951   22.3387 C   0  0  0  0  0  0
  -22.7805  -13.5252   21.1862 C   0  0  0  0  0  0
  -22.1662   -4.2154   21.0969 F   0  0  0  0  0  0
  -21.5618   -3.4518   25.7709 F   0  0  0  0  0  0
  -29.9799  -13.5375   20.3985 N   0  0  0  0  0  0
  -26.2908  -12.9387   20.3219 N   0  0  0  0  0  0
  -25.9283  -11.6527   20.5690 N   0  0  0  0  0  0
  -22.0430  -12.8261   22.0410 N   0  0  0  0  0  0
  -25.4233  -15.1905   20.4127 N   0  0  0  0  0  0
  -31.8010  -14.8422   20.1731 O   0  0  0  0  0  0
  -21.6650   -6.8859   21.4238 O   0  0  0  0  0  0
  -22.3507  -14.5577   20.6718 O   0  0  0  0  0  0
  -24.6368  -31.8521   23.2001 C   0  0  0  0  0  0
  -25.9199  -32.4736   23.8323 C   0  0  1  0  0  0
  -27.2158  -27.2537   20.0980 C   0  0  0  0  0  0
  -25.5987  -33.8544   24.2248 N   0  0  0  0  0  0
  -23.4305  -30.4817   21.5429 C   0  0  2  0  0  0
  -24.8717  -28.9312   20.1084 C   0  0  0  0  0  0
  -22.7513  -29.4594   22.4880 C   0  0  0  0  0  0
  -18.0305  -28.1405   22.8467 C   0  0  0  0  0  0
  -24.1485  -36.7290   23.2633 C   0  0  0  0  0  0
  -25.9788  -30.7644   21.3774 C   0  0  0  0  0  0
  -26.0465  -29.3892   20.7119 C   0  0  0  0  0  0
  -27.2185  -28.5632   20.6948 C   0  0  0  0  0  0
  -26.0010  -26.8592   19.4861 C   0  0  0  0  0  0
  -24.8535  -27.6734   19.4903 C   0  0  0  0  0  0
  -23.6483  -29.8271   20.1548 C   0  0  0  0  0  0
  -25.4104  -36.3049   24.0312 C   0  0  1  0  0  0
  -20.5908  -28.3723   23.1257 C   0  0  2  0  0  0
  -20.6800  -26.9430   22.5403 C   0  0  0  0  0  0
  -19.5771  -26.6390   21.5213 C   0  0  0  0  0  0
  -18.1946  -26.7951   22.1607 C   0  0  0  0  0  0
  -19.1557  -28.8879   23.2866 C   0  0  0  0  0  0
  -18.9472  -30.1471   23.8891 C   0  0  0  0  0  0
  -17.6471  -30.6590   24.0572 C   0  0  0  0  0  0
  -25.9049  -34.9427   23.5071 C   0  0  0  0  0  0
  -16.5368  -29.9083   23.6332 C   0  0  0  0  0  0
  -16.7296  -28.6514   23.0339 C   0  0  0  0  0  0
  -26.4556  -31.6594   25.0741 C   0  0  0  0  0  0
  -25.3781  -31.3843   26.1485 C   0  0  0  0  0  0
  -27.0392  -30.2976   24.6281 C   0  0  0  0  0  0
  -27.6060  -32.4368   25.7550 C   0  0  0  0  0  0
  -27.5566  -37.1794   24.8444 C   0  0  0  0  0  0
  -21.4213  -29.3076   22.3650 N   0  0  0  0  0  0
  -26.4276  -37.3744   23.9405 N   0  0  0  0  0  0
  -24.7013  -31.0496   22.0964 N   0  0  0  0  0  0
  -23.4204  -28.8096   23.2959 O   0  0  0  0  0  0
  -28.3398  -26.3908   20.1541 O   0  0  0  0  0  0
  -26.5578  -34.8902   22.4611 O   0  0  0  0  0  0
  -23.5530  -32.1350   23.7306 O   0  0  0  0  0  0
  -31.8439  -19.0264   21.5122 C   0  0  0  0  0  0
  -30.9784  -20.0989   21.2112 C   0  0  0  0  0  0
  -31.4693  -17.6865   21.2930 C   0  0  0  0  0  0
  -29.3251  -18.4796   20.4657 C   0  0  0  0  0  0
  -29.6936  -19.8771   20.6687 C   0  0  0  0  0  0
  -30.2013  -17.3474   20.7651 C   0  0  0  0  0  0
  -28.1164  -21.7252   21.7174 C   0  0  0  0  0  0
  -27.7108  -23.1846   21.3882 C   0  0  0  0  0  0
  -28.7447  -21.1497   20.4301 C   0  0  1  0  0  0
  -28.8040  -23.6937   20.4384 C   0  0  2  0  0  0
  -28.3935  -25.0016   19.5610 C   0  0  0  0  0  0
  -29.8275  -15.9105   20.6343 N   0  0  0  0  0  0
  -29.2622  -22.4063   19.7364 N   0  3  0  0  0  0
  -31.4735  -12.6233   19.1633 H   0  0  0  0  0  0
  -30.4055  -11.5014   19.9607 H   0  0  0  0  0  0
  -29.7984  -11.7308   17.5272 H   0  0  0  0  0  0
  -29.6323  -13.4571   17.7142 H   0  0  0  0  0  0
  -27.9049  -11.2728   18.9229 H   0  0  0  0  0  0
  -27.3892  -12.5017   17.7992 H   0  0  0  0  0  0
  -27.6272  -14.2431   19.4447 H   0  0  0  0  0  0
  -28.7176  -12.1815   21.4278 H   0  0  0  0  0  0
  -28.4074  -13.8654   21.7827 H   0  0  0  0  0  0
  -25.2707   -9.5702   22.4746 H   0  0  0  0  0  0
  -23.9984   -7.4621   22.7444 H   0  0  0  0  0  0
  -21.0803   -8.8776   19.8918 H   0  0  0  0  0  0
  -22.3664  -10.9663   19.6179 H   0  0  0  0  0  0
  -21.2028   -7.6117   23.9705 H   0  0  0  0  0  0
  -21.1477   -6.0490   25.9054 H   0  0  0  0  0  0
  -22.0607   -2.7601   23.2839 H   0  0  0  0  0  0
  -22.4010  -11.9951   22.4861 H   0  0  0  0  0  0
  -21.1057  -13.1333   22.2563 H   0  0  0  0  0  0
  -24.6626  -15.8513   20.5339 H   0  0  0  0  0  0
  -26.2630  -15.6236   20.0519 H   0  0  0  0  0  0
  -26.7262  -32.5352   23.1055 H   0  0  0  0  0  0
  -25.0231  -33.9666   25.0458 H   0  0  0  0  0  0
  -22.7299  -31.3068   21.4036 H   0  0  0  0  0  0
  -23.3719  -35.9649   23.3300 H   0  0  0  0  0  0
  -24.3573  -36.8913   22.2044 H   0  0  0  0  0  0
  -23.7279  -37.6510   23.6660 H   0  0  0  0  0  0
  -26.1216  -31.5301   20.6135 H   0  0  0  0  0  0
  -26.8531  -30.8040   22.0144 H   0  0  0  0  0  0
  -28.1210  -28.9191   21.1708 H   0  0  0  0  0  0
  -25.8745  -25.9022   19.0087 H   0  0  0  0  0  0
  -23.9456  -27.3174   19.0224 H   0  0  0  0  0  0
  -23.7893  -30.6115   19.4097 H   0  0  0  0  0  0
  -22.7605  -29.2791   19.8358 H   0  0  0  0  0  0
  -25.1284  -36.1879   25.0802 H   0  0  0  0  0  0
  -21.0005  -28.3324   24.1377 H   0  0  0  0  0  0
  -20.5731  -26.2317   23.3607 H   0  0  0  0  0  0
  -21.6672  -26.7452   22.1198 H   0  0  0  0  0  0
  -19.6931  -25.6296   21.1260 H   0  0  0  0  0  0
  -19.6727  -27.3188   20.6739 H   0  0  0  0  0  0
  -17.4215  -26.6710   21.4011 H   0  0  0  0  0  0
  -18.0326  -26.0102   22.9006 H   0  0  0  0  0  0
  -19.7954  -30.7301   24.2250 H   0  0  0  0  0  0
  -17.5027  -31.6273   24.5177 H   0  0  0  0  0  0
  -15.5370  -30.2986   23.7668 H   0  0  0  0  0  0
  -15.8695  -28.0845   22.7034 H   0  0  0  0  0  0
  -24.5852  -30.7287   25.7885 H   0  0  0  0  0  0
  -24.9130  -32.3089   26.4923 H   0  0  0  0  0  0
  -25.8102  -30.9013   27.0257 H   0  0  0  0  0  0
  -26.2997  -29.6727   24.1258 H   0  0  0  0  0  0
  -27.3985  -29.7254   25.4854 H   0  0  0  0  0  0
  -27.8925  -30.4214   23.9597 H   0  0  0  0  0  0
  -27.2567  -33.3612   26.2176 H   0  0  0  0  0  0
  -28.3877  -32.7037   25.0423 H   0  0  0  0  0  0
  -28.0734  -31.8493   26.5467 H   0  0  0  0  0  0
  -28.2565  -38.0101   24.7458 H   0  0  0  0  0  0
  -28.1073  -36.2628   24.6282 H   0  0  0  0  0  0
  -27.2289  -37.1470   25.8847 H   0  0  0  0  0  0
  -20.9377  -29.8849   21.6901 H   0  0  0  0  0  0
  -26.0144  -38.2808   24.1419 H   0  0  0  0  0  0
  -32.8135  -19.2328   21.9460 H   0  0  0  0  0  0
  -31.3031  -21.1047   21.4368 H   0  0  0  0  0  0
  -32.1732  -16.9166   21.5827 H   0  0  0  0  0  0
  -28.3309  -18.2718   20.0919 H   0  0  0  0  0  0
  -27.2774  -21.1262   22.0697 H   0  0  0  0  0  0
  -28.8585  -21.7421   22.5151 H   0  0  0  0  0  0
  -27.6213  -23.8169   22.2716 H   0  0  0  0  0  0
  -26.7446  -23.1947   20.8836 H   0  0  0  0  0  0
  -27.9288  -20.8001   19.7955 H   0  0  0  0  0  0
  -29.6619  -23.9875   21.0430 H   0  0  0  0  0  0
  -27.5039  -24.7434   18.9985 H   0  0  0  0  0  0
  -29.1499  -25.0932   18.7822 H   0  0  0  0  0  0
  -28.8365  -15.7299   20.6647 H   0  0  0  0  0  0
  -28.9262  -22.3769   18.7861 H   0  0  0  0  0  0
  -30.2672  -22.3780   19.6834 H   0  0  0  0  0  0
  1 25  1  0  0  0
  1 30  2  0  0  0
  1 82  1  0  0  0
  2  3  1  0  0  0
  2 25  1  0  0  0
  2 84  1  0  0  0
  2 85  1  0  0  0
  3  4  1  0  0  0
  3 86  1  0  0  0
  3 87  1  0  0  0
  4  5  1  0  0  0
  4 88  1  0  0  0
  4 89  1  0  0  0
  5  6  1  0  0  0
  5 26  1  0  0  0
  5 90  1  0  0  0
  6 25  1  0  0  0
  6 91  1  0  0  0
  6 92  1  0  0  0
  7  8  2  0  0  0
  7 26  1  0  0  0
  7 29  1  0  0  0
  8  9  1  0  0  0
  8 22  1  0  0  0
  9 10  1  0  0  0
  9 27  2  0  0  0
 10 11  2  0  0  0
 10 15  1  0  0  0
 11 12  1  0  0  0
 11 93  1  0  0  0
 12 13  2  0  0  0
 12 94  1  0  0  0
 13 14  1  0  0  0
 13 31  1  0  0  0
 14 15  2  0  0  0
 14 95  1  0  0  0
 15 96  1  0  0  0
 16 17  2  0  0  0
 16 21  1  0  0  0
 16 31  1  0  0  0
 17 18  1  0  0  0
 17 97  1  0  0  0
 18 19  2  0  0  0
 18 98  1  0  0  0
 19 20  1  0  0  0
 19 24  1  0  0  0
 20 21  2  0  0  0
 20 99  1  0  0  0
 21 23  1  0  0  0
 22 28  1  0  0  0
 22 32  2  0  0  0
 26 27  1  0  0  0
 28100  1  0  0  0
 28101  1  0  0  0
 29102  1  0  0  0
 29103  1  0  0  0
 33 34  1  0  0  0
 33 66  1  0  0  0
 33 70  2  0  0  0
 34 36  1  0  0  0
 34 59  1  0  0  0
 34104  1  0  0  0
 35 44  2  0  0  0
 35 45  1  0  0  0
 35 68  1  0  0  0
 36 56  1  0  0  0
 36105  1  0  0  0
 37 39  1  0  0  0
 37 47  1  0  0  0
 37 66  1  0  0  0
 37106  1  0  0  0
 38 43  2  0  0  0
 38 46  1  0  0  0
 38 47  1  0  0  0
 39 64  1  0  0  0
 39 67  2  0  0  0
 40 52  1  0  0  0
 40 53  2  0  0  0
 40 58  1  0  0  0
 41107  1  0  0  0
 41108  1  0  0  0
 41109  1  0  0  0
 41 48  1  0  0  0
 42 43  1  0  0  0
 42 66  1  0  0  0
 42110  1  0  0  0
 42111  1  0  0  0
 43 44  1  0  0  0
 44112  1  0  0  0
 45 46  2  0  0  0
 45113  1  0  0  0
 46114  1  0  0  0
 47115  1  0  0  0
 47116  1  0  0  0
 48 56  1  0  0  0
 48 65  1  0  0  0
 48117  1  0  0  0
 49 50  1  0  0  0
 49 53  1  0  0  0
 49 64  1  0  0  0
 49118  1  0  0  0
 50 51  1  0  0  0
 50119  1  0  0  0
 50120  1  0  0  0
 51 52  1  0  0  0
 51121  1  0  0  0
 51122  1  0  0  0
 52123  1  0  0  0
 52124  1  0  0  0
 53 54  1  0  0  0
 54 55  2  0  0  0
 54125  1  0  0  0
 55 57  1  0  0  0
 55126  1  0  0  0
 56 69  2  0  0  0
 57 58  2  0  0  0
 57127  1  0  0  0
 58128  1  0  0  0
 59 60  1  0  0  0
 59 61  1  0  0  0
 59 62  1  0  0  0
 60129  1  0  0  0
 60130  1  0  0  0
 60131  1  0  0  0
 61132  1  0  0  0
 61133  1  0  0  0
 61134  1  0  0  0
 62135  1  0  0  0
 62136  1  0  0  0
 62137  1  0  0  0
 63 65  1  0  0  0
 63138  1  0  0  0
 63139  1  0  0  0
 63140  1  0  0  0
 64141  1  0  0  0
 65142  1  0  0  0
 68 81  1  0  0  0
 71 72  2  0  0  0
 71 73  1  0  0  0
 71143  1  0  0  0
 72 75  1  0  0  0
 72144  1  0  0  0
 73 76  2  0  0  0
 73145  1  0  0  0
 74 75  2  0  0  0
 74 76  1  0  0  0
 74146  1  0  0  0
 75 79  1  0  0  0
 76 82  1  0  0  0
 77 78  1  0  0  0
 77 79  1  0  0  0
 77147  1  0  0  0
 77148  1  0  0  0
 78 80  1  0  0  0
 78149  1  0  0  0
 78150  1  0  0  0
 79 83  1  0  0  0
 79151  1  0  0  0
 80 81  1  0  0  0
 80 83  1  0  0  0
 80152  1  0  0  0
 81153  1  0  0  0
 81154  1  0  0  0
 82155  1  0  0  0
 83156  1  0  0  0
 83157  1  0  0  0
M  CHG  1  83   1
M  ISO  4   1 100  68 101  81 101  82 100
M  END
> <chiral flag>
0

> <version>
0

> <s_m_source_file>
/data/baiqing/PycharmProjects/Reinvent-master-3.2/result/LINK_invent/BTK/process_docking_weight1_custom_product_contain_oxygen_bond_distance_aromatic_linkinvent_7_9_3/rearranged_h_0152.sdf

> <i_m_source_file_index>
24

> <r_mmod_Potential_Energy-OPLS-2005>
94.3029022216797

> <r_mmod_Stretch_Energy-OPLS-2005>
127.775779724121

> <r_mmod_Bend_Energy-OPLS-2005>
195.599578857422

> <r_mmod_Torsional_Energy-OPLS-2005>
268.154907226562

> <r_mmod_Improper_Torsional_Energy-OPLS-2005>
6.11841869354248

> <r_mmod_Van_der_Waal_Energy-OPLS-2005>
135.142807006836

> <r_mmod_Electrostatic_Energy-OPLS-2005>
-264.539642333984

> <r_mmod_Solvation_Energy-OPLS-2005>
-463.422241210938

> <b_mmod_Minimization_Converged-OPLS-2005>
0

> <r_mmod_RMS_Derivative-OPLS-2005>
4.51741790771484

$$$$
24
                    3D
 Structure written by MMmdl.
160169  0  0  1  0            999 V2000
  -30.5503  -14.9441   20.3502 C   0  0  0  0  0  0
  -30.4462  -12.5660   19.4852 C   0  0  0  0  0  0
  -29.5227  -12.4454   18.2514 C   0  0  0  0  0  0
  -28.0443  -12.2962   18.6710 C   0  0  0  0  0  0
  -27.6245  -13.2374   19.8347 C   0  0  2  0  0  0
  -28.6815  -13.2908   20.9546 C   0  0  0  0  0  0
  -25.2474  -13.8184   20.5767 C   0  0  0  0  0  0
  -24.1761  -13.0418   20.9211 C   0  0  0  0  0  0
  -24.6370  -11.6902   20.8767 C   0  0  0  0  0  0
  -23.9055  -10.4280   21.0414 C   0  0  0  0  0  0
  -24.3611   -9.4198   21.9189 C   0  0  0  0  0  0
  -23.6287   -8.2233   22.0756 C   0  0  0  0  0  0
  -22.4269   -8.0275   21.3544 C   0  0  0  0  0  0
  -21.9905   -9.0247   20.4645 C   0  0  0  0  0  0
  -22.7232  -10.2125   20.3057 C   0  0  0  0  0  0
  -21.6851   -6.0731   22.5279 C   0  0  0  0  0  0
  -21.4012   -6.5636   23.8212 C   0  0  0  0  0  0
  -21.3659   -5.6790   24.9175 C   0  0  0  0  0  0
  -21.6044   -4.3053   24.7227 C   0  0  0  0  0  0
  -21.8820   -3.8143   23.4349 C   0  0  0  0  0  0
  -21.9192   -4.6959   22.3404 C   0  0  0  0  0  0
  -22.7787  -13.5206   21.1864 C   0  0  0  0  0  0
  -22.1661   -4.2146   21.0982 F   0  0  0  0  0  0
  -21.5630   -3.4537   25.7740 F   0  0  0  0  0  0
  -29.9436  -13.6896   20.3191 N   0  0  0  0  0  0
  -26.2889  -12.9385   20.3337 N   0  0  0  0  0  0
  -25.9308  -11.6527   20.5812 N   0  0  0  0  0  0
  -22.0436  -12.8200   22.0426 N   0  0  0  0  0  0
  -25.4166  -15.1918   20.4296 N   0  0  0  0  0  0
  -31.7842  -14.9683   20.2723 O   0  0  0  0  0  0
  -21.6634   -6.8872   21.4240 O   0  0  0  0  0  0
  -22.3472  -14.5513   20.6715 O   0  0  0  0  0  0
  -24.6418  -31.8459   23.1896 C   0  0  0  0  0  0
  -25.9197  -32.4706   23.8280 C   0  0  1  0  0  0
  -27.2176  -27.1540   20.1492 C   0  0  0  0  0  0
  -25.5949  -33.8511   24.2199 N   0  0  0  0  0  0
  -23.4444  -30.4658   21.5354 C   0  0  2  0  0  0
  -24.8930  -28.8947   20.1131 C   0  0  0  0  0  0
  -22.7559  -29.4556   22.4871 C   0  0  0  0  0  0
  -18.0303  -28.1397   22.8476 C   0  0  0  0  0  0
  -24.1492  -36.7260   23.2641 C   0  0  0  0  0  0
  -25.9994  -30.7258   21.3853 C   0  0  0  0  0  0
  -26.0709  -29.3384   20.7276 C   0  0  0  0  0  0
  -27.2354  -28.4850   20.7260 C   0  0  0  0  0  0
  -26.0118  -26.8062   19.5008 C   0  0  0  0  0  0
  -24.8753  -27.6413   19.4848 C   0  0  0  0  0  0
  -23.6695  -29.7953   20.1549 C   0  0  0  0  0  0
  -25.4124  -36.3040   24.0316 C   0  0  1  0  0  0
  -20.5914  -28.3719   23.1241 C   0  0  2  0  0  0
  -20.6788  -26.9425   22.5404 C   0  0  0  0  0  0
  -19.5762  -26.6382   21.5213 C   0  0  0  0  0  0
  -18.1943  -26.7934   22.1624 C   0  0  0  0  0  0
  -19.1559  -28.8876   23.2850 C   0  0  0  0  0  0
  -18.9475  -30.1473   23.8875 C   0  0  0  0  0  0
  -17.6472  -30.6593   24.0559 C   0  0  0  0  0  0
  -25.9072  -34.9414   23.5067 C   0  0  0  0  0  0
  -16.5363  -29.9086   23.6337 C   0  0  0  0  0  0
  -16.7287  -28.6506   23.0354 C   0  0  0  0  0  0
  -26.4521  -31.6567   25.0715 C   0  0  0  0  0  0
  -25.3707  -31.3748   26.1409 C   0  0  0  0  0  0
  -27.0388  -30.2968   24.6285 C   0  0  0  0  0  0
  -27.6051  -32.4331   25.7504 C   0  0  0  0  0  0
  -27.5577  -37.1787   24.8465 C   0  0  0  0  0  0
  -21.4253  -29.3048   22.3616 N   0  0  0  0  0  0
  -26.4289  -37.3751   23.9407 N   0  0  0  0  0  0
  -24.7151  -31.0331   22.0921 N   0  0  0  0  0  0
  -23.4209  -28.8103   23.3015 O   0  0  0  0  0  0
  -28.2835  -26.1885   20.1989 O   0  0  0  0  0  0
  -26.5658  -34.8908   22.4645 O   0  0  0  0  0  0
  -23.5541  -32.1325   23.7126 O   0  0  0  0  0  0
  -30.1258  -20.0510   19.8273 C   0  0  0  0  0  0
  -30.4106  -18.6319   19.6532 C   0  0  0  0  0  0
  -28.4247  -19.4700   21.3490 C   0  0  0  0  0  0
  -29.1098  -20.5651   20.6994 C   0  0  0  0  0  0
  -29.7306  -17.5467   20.3225 C   0  0  0  0  0  0
  -28.7095  -18.0549   21.1859 C   0  0  0  0  0  0
  -28.9123  -22.3478   22.3608 C   0  0  0  0  0  0
  -29.6827  -23.6322   22.6295 C   0  0  0  0  0  0
  -30.2300  -23.9780   21.2525 C   0  0  0  0  0  0
  -29.1429  -23.4218   20.3352 C   0  0  2  0  0  0
  -29.6385  -16.0032   18.4247 C   0  0  0  0  0  0
  -28.0043  -24.6603   20.2478 C   0  0  0  0  0  0
  -28.8334  -22.0465   21.0414 N   0  0  0  0  0  0
  -27.9076  -17.1380   21.8643 N   0  0  0  0  0  0
  -29.8180  -16.0802   19.8866 N   0  0  0  0  0  0
  -28.4454  -21.6928   23.2975 O   0  0  0  0  0  0
  -31.4759  -12.7291   19.1624 H   0  0  0  0  0  0
  -30.4528  -11.6369   20.0572 H   0  0  0  0  0  0
  -29.8197  -11.5828   17.6532 H   0  0  0  0  0  0
  -29.6518  -13.3031   17.5951 H   0  0  0  0  0  0
  -27.9095  -11.2596   18.9812 H   0  0  0  0  0  0
  -27.3889  -12.4392   17.8111 H   0  0  0  0  0  0
  -27.5590  -14.2341   19.4087 H   0  0  0  0  0  0
  -28.7760  -12.3278   21.4581 H   0  0  0  0  0  0
  -28.3957  -14.0185   21.7153 H   0  0  0  0  0  0
  -25.2753   -9.5677   22.4767 H   0  0  0  0  0  0
  -23.9995   -7.4624   22.7474 H   0  0  0  0  0  0
  -21.0838   -8.8765   19.8949 H   0  0  0  0  0  0
  -22.3691  -10.9666   19.6168 H   0  0  0  0  0  0
  -21.2003   -7.6143   23.9716 H   0  0  0  0  0  0
  -21.1481   -6.0520   25.9078 H   0  0  0  0  0  0
  -22.0599   -2.7606   23.2850 H   0  0  0  0  0  0
  -22.4056  -11.9867   22.4822 H   0  0  0  0  0  0
  -21.1053  -13.1225   22.2629 H   0  0  0  0  0  0
  -24.6652  -15.8472   20.6114 H   0  0  0  0  0  0
  -26.3127  -15.6518   20.3083 H   0  0  0  0  0  0
  -26.7263  -32.5317   23.1010 H   0  0  0  0  0  0
  -25.0071  -33.9629   25.0329 H   0  0  0  0  0  0
  -22.7461  -31.2912   21.3822 H   0  0  0  0  0  0
  -23.3760  -35.9585   23.3293 H   0  0  0  0  0  0
  -24.3575  -36.8901   22.2057 H   0  0  0  0  0  0
  -23.7241  -37.6451   23.6683 H   0  0  0  0  0  0
  -26.1528  -31.4809   20.6132 H   0  0  0  0  0  0
  -26.8706  -30.7757   22.0268 H   0  0  0  0  0  0
  -28.1351  -28.8216   21.2217 H   0  0  0  0  0  0
  -25.9121  -25.8534   19.0058 H   0  0  0  0  0  0
  -23.9763  -27.2970   18.9923 H   0  0  0  0  0  0
  -23.8054  -30.5695   19.3989 H   0  0  0  0  0  0
  -22.7846  -29.2364   19.8449 H   0  0  0  0  0  0
  -25.1313  -36.1870   25.0808 H   0  0  0  0  0  0
  -21.0004  -28.3308   24.1363 H   0  0  0  0  0  0
  -20.5687  -26.2332   23.3621 H   0  0  0  0  0  0
  -21.6654  -26.7436   22.1200 H   0  0  0  0  0  0
  -19.6924  -25.6288   21.1257 H   0  0  0  0  0  0
  -19.6701  -27.3181   20.6733 H   0  0  0  0  0  0
  -17.4212  -26.6676   21.4028 H   0  0  0  0  0  0
  -18.0344  -26.0084   22.9029 H   0  0  0  0  0  0
  -19.7951  -30.7296   24.2234 H   0  0  0  0  0  0
  -17.5025  -31.6271   24.5165 H   0  0  0  0  0  0
  -15.5363  -30.2981   23.7675 H   0  0  0  0  0  0
  -15.8687  -28.0819   22.7081 H   0  0  0  0  0  0
  -24.5899  -30.7083   25.7725 H   0  0  0  0  0  0
  -24.8879  -32.2925   26.4777 H   0  0  0  0  0  0
  -25.7990  -30.8959   27.0223 H   0  0  0  0  0  0
  -26.3004  -29.6690   24.1282 H   0  0  0  0  0  0
  -27.3999  -29.7264   25.4854 H   0  0  0  0  0  0
  -27.8912  -30.4211   23.9602 H   0  0  0  0  0  0
  -27.2642  -33.3646   26.2035 H   0  0  0  0  0  0
  -28.3888  -32.6868   25.0353 H   0  0  0  0  0  0
  -28.0691  -31.8488   26.5460 H   0  0  0  0  0  0
  -28.2589  -38.0089   24.7512 H   0  0  0  0  0  0
  -28.1079  -36.2618   24.6296 H   0  0  0  0  0  0
  -27.2291  -37.1438   25.8867 H   0  0  0  0  0  0
  -20.9462  -29.8761   21.6796 H   0  0  0  0  0  0
  -26.0158  -38.2819   24.1410 H   0  0  0  0  0  0
  -30.7279  -20.7587   19.2746 H   0  0  0  0  0  0
  -31.1715  -18.3716   18.9315 H   0  0  0  0  0  0
  -27.6197  -19.7255   22.0227 H   0  0  0  0  0  0
  -30.4758  -23.4819   23.3621 H   0  0  0  0  0  0
  -29.0008  -24.3974   23.0015 H   0  0  0  0  0  0
  -31.1763  -23.4623   21.0793 H   0  0  0  0  0  0
  -30.4097  -25.0456   21.1224 H   0  0  0  0  0  0
  -29.5580  -23.2429   19.3430 H   0  0  0  0  0  0
  -29.2566  -16.9310   17.9974 H   0  0  0  0  0  0
  -28.9087  -15.2532   18.1414 H   0  0  0  0  0  0
  -30.5748  -15.7788   17.9092 H   0  0  0  0  0  0
  -27.3261  -24.5308   21.0919 H   0  0  0  0  0  0
  -27.4047  -24.4103   19.3746 H   0  0  0  0  0  0
  -27.3449  -17.4675   22.6412 H   0  0  0  0  0  0
  -28.2562  -16.1984   22.0008 H   0  0  0  0  0  0
  1 25  1  0  0  0
  1 30  2  0  0  0
  1 85  1  0  0  0
  2  3  1  0  0  0
  2 25  1  0  0  0
  2 87  1  0  0  0
  2 88  1  0  0  0
  3  4  1  0  0  0
  3 89  1  0  0  0
  3 90  1  0  0  0
  4  5  1  0  0  0
  4 91  1  0  0  0
  4 92  1  0  0  0
  5  6  1  0  0  0
  5 26  1  0  0  0
  5 93  1  0  0  0
  6 25  1  0  0  0
  6 94  1  0  0  0
  6 95  1  0  0  0
  7  8  2  0  0  0
  7 26  1  0  0  0
  7 29  1  0  0  0
  8  9  1  0  0  0
  8 22  1  0  0  0
  9 10  1  0  0  0
  9 27  2  0  0  0
 10 11  2  0  0  0
 10 15  1  0  0  0
 11 12  1  0  0  0
 11 96  1  0  0  0
 12 13  2  0  0  0
 12 97  1  0  0  0
 13 14  1  0  0  0
 13 31  1  0  0  0
 14 15  2  0  0  0
 14 98  1  0  0  0
 15 99  1  0  0  0
 16 17  2  0  0  0
 16 21  1  0  0  0
 16 31  1  0  0  0
 17 18  1  0  0  0
 17100  1  0  0  0
 18 19  2  0  0  0
 18101  1  0  0  0
 19 20  1  0  0  0
 19 24  1  0  0  0
 20 21  2  0  0  0
 20102  1  0  0  0
 21 23  1  0  0  0
 22 28  1  0  0  0
 22 32  2  0  0  0
 26 27  1  0  0  0
 28103  1  0  0  0
 28104  1  0  0  0
 29105  1  0  0  0
 29106  1  0  0  0
 33 34  1  0  0  0
 33 66  1  0  0  0
 33 70  2  0  0  0
 34 36  1  0  0  0
 34 59  1  0  0  0
 34107  1  0  0  0
 35 44  2  0  0  0
 35 45  1  0  0  0
 35 68  1  0  0  0
 36 56  1  0  0  0
 36108  1  0  0  0
 37 39  1  0  0  0
 37 47  1  0  0  0
 37 66  1  0  0  0
 37109  1  0  0  0
 38 43  2  0  0  0
 38 46  1  0  0  0
 38 47  1  0  0  0
 39 64  1  0  0  0
 39 67  2  0  0  0
 40 52  1  0  0  0
 40 53  2  0  0  0
 40 58  1  0  0  0
 41110  1  0  0  0
 41111  1  0  0  0
 41112  1  0  0  0
 41 48  1  0  0  0
 42 43  1  0  0  0
 42 66  1  0  0  0
 42113  1  0  0  0
 42114  1  0  0  0
 43 44  1  0  0  0
 44115  1  0  0  0
 45 46  2  0  0  0
 45116  1  0  0  0
 46117  1  0  0  0
 47118  1  0  0  0
 47119  1  0  0  0
 48 56  1  0  0  0
 48 65  1  0  0  0
 48120  1  0  0  0
 49 50  1  0  0  0
 49 53  1  0  0  0
 49 64  1  0  0  0
 49121  1  0  0  0
 50 51  1  0  0  0
 50122  1  0  0  0
 50123  1  0  0  0
 51 52  1  0  0  0
 51124  1  0  0  0
 51125  1  0  0  0
 52126  1  0  0  0
 52127  1  0  0  0
 53 54  1  0  0  0
 54 55  2  0  0  0
 54128  1  0  0  0
 55 57  1  0  0  0
 55129  1  0  0  0
 56 69  2  0  0  0
 57 58  2  0  0  0
 57130  1  0  0  0
 58131  1  0  0  0
 59 60  1  0  0  0
 59 61  1  0  0  0
 59 62  1  0  0  0
 60132  1  0  0  0
 60133  1  0  0  0
 60134  1  0  0  0
 61135  1  0  0  0
 61136  1  0  0  0
 61137  1  0  0  0
 62138  1  0  0  0
 62139  1  0  0  0
 62140  1  0  0  0
 63 65  1  0  0  0
 63141  1  0  0  0
 63142  1  0  0  0
 63143  1  0  0  0
 64144  1  0  0  0
 65145  1  0  0  0
 68 82  1  0  0  0
 71 72  2  0  0  0
 71 74  1  0  0  0
 71146  1  0  0  0
 72 75  1  0  0  0
 72147  1  0  0  0
 73 74  2  0  0  0
 73 76  1  0  0  0
 73148  1  0  0  0
 74 83  1  0  0  0
 75 76  2  0  0  0
 75 85  1  0  0  0
 76 84  1  0  0  0
 77 78  1  0  0  0
 77 83  1  0  0  0
 77 86  2  0  0  0
 78 79  1  0  0  0
 78149  1  0  0  0
 78150  1  0  0  0
 79 80  1  0  0  0
 79151  1  0  0  0
 79152  1  0  0  0
 80 82  1  0  0  0
 80 83  1  0  0  0
 80153  1  0  0  0
 81 85  1  0  0  0
 81154  1  0  0  0
 81155  1  0  0  0
 81156  1  0  0  0
 82157  1  0  0  0
 82158  1  0  0  0
 84159  1  0  0  0
 84160  1  0  0  0
M  ISO  4   1 100  68 101  82 101  85 100
M  END
> <chiral flag>
0

> <version>
0

> <s_m_source_file>
/data/baiqing/PycharmProjects/Reinvent-master-3.2/result/LINK_invent/BTK/process_docking_weight1_custom_product_contain_oxygen_bond_distance_aromatic_linkinvent_7_9_3/rearranged_h_0152.sdf

> <i_m_source_file_index>
25

> <r_mmod_Potential_Energy-OPLS-2005>
746.774780273438

> <r_mmod_Stretch_Energy-OPLS-2005>
235.900634765625

> <r_mmod_Bend_Energy-OPLS-2005>
300.253265380859

> <r_mmod_Torsional_Energy-OPLS-2005>
415.181640625

> <r_mmod_Improper_Torsional_Energy-OPLS-2005>
31.1366348266602

> <r_mmod_Van_der_Waal_Energy-OPLS-2005>
139.35205078125

> <r_mmod_Electrostatic_Energy-OPLS-2005>
-354.936157226562

> <r_mmod_Solvation_Energy-OPLS-2005>
-209.378753662109

> <b_mmod_Minimization_Converged-OPLS-2005>
0

> <r_mmod_RMS_Derivative-OPLS-2005>
0.279085159301758

$$$$
25
                    3D
 Structure written by MMmdl.
154162  0  0  1  0            999 V2000
  -30.6070  -14.6903   20.4929 C   0  0  0  0  0  0
  -30.4395  -12.4205   19.4731 C   0  0  0  0  0  0
  -29.5128  -12.5116   18.2391 C   0  0  0  0  0  0
  -28.0365  -12.3428   18.6476 C   0  0  0  0  0  0
  -27.6525  -13.2228   19.8664 C   0  0  2  0  0  0
  -28.6948  -13.0992   21.0010 C   0  0  0  0  0  0
  -25.2548  -13.8185   20.5695 C   0  0  0  0  0  0
  -24.1819  -13.0440   20.9183 C   0  0  0  0  0  0
  -24.6397  -11.6913   20.8738 C   0  0  0  0  0  0
  -23.9066  -10.4293   21.0405 C   0  0  0  0  0  0
  -24.3616   -9.4209   21.9182 C   0  0  0  0  0  0
  -23.6291   -8.2245   22.0754 C   0  0  0  0  0  0
  -22.4274   -8.0282   21.3546 C   0  0  0  0  0  0
  -21.9913   -9.0256   20.4648 C   0  0  0  0  0  0
  -22.7242  -10.2133   20.3055 C   0  0  0  0  0  0
  -21.6851   -6.0732   22.5278 C   0  0  0  0  0  0
  -21.4015   -6.5636   23.8210 C   0  0  0  0  0  0
  -21.3661   -5.6790   24.9174 C   0  0  0  0  0  0
  -21.6043   -4.3051   24.7225 C   0  0  0  0  0  0
  -21.8821   -3.8144   23.4345 C   0  0  0  0  0  0
  -21.9192   -4.6961   22.3402 C   0  0  0  0  0  0
  -22.7840  -13.5226   21.1847 C   0  0  0  0  0  0
  -22.1659   -4.2145   21.0981 F   0  0  0  0  0  0
  -21.5630   -3.4539   25.7738 F   0  0  0  0  0  0
  -30.0083  -13.4531   20.4419 N   0  0  0  0  0  0
  -26.2987  -12.9377   20.3339 N   0  0  0  0  0  0
  -25.9331  -11.6524   20.5771 N   0  0  0  0  0  0
  -22.0486  -12.8218   22.0408 N   0  0  0  0  0  0
  -25.4270  -15.1909   20.4121 N   0  0  0  0  0  0
  -31.7539  -14.8519   20.0641 O   0  0  0  0  0  0
  -21.6637   -6.8880   21.4242 O   0  0  0  0  0  0
  -22.3524  -14.5534   20.6698 O   0  0  0  0  0  0
  -24.6298  -31.8563   23.2002 C   0  0  0  0  0  0
  -25.9133  -32.4755   23.8336 C   0  0  1  0  0  0
  -27.2202  -27.2724   20.1127 C   0  0  0  0  0  0
  -25.5932  -33.8556   24.2258 N   0  0  0  0  0  0
  -23.4252  -30.4809   21.5437 C   0  0  2  0  0  0
  -24.8695  -28.9327   20.1092 C   0  0  0  0  0  0
  -22.7499  -29.4603   22.4916 C   0  0  0  0  0  0
  -18.0292  -28.1381   22.8473 C   0  0  0  0  0  0
  -24.1493  -36.7279   23.2640 C   0  0  0  0  0  0
  -25.9714  -30.7701   21.3809 C   0  0  0  0  0  0
  -26.0409  -29.3950   20.7202 C   0  0  0  0  0  0
  -27.2133  -28.5754   20.7159 C   0  0  0  0  0  0
  -26.0216  -26.8819   19.4665 C   0  0  0  0  0  0
  -24.8645  -27.6828   19.4752 C   0  0  0  0  0  0
  -23.6415  -29.8194   20.1586 C   0  0  0  0  0  0
  -25.4117  -36.3066   24.0330 C   0  0  1  0  0  0
  -20.5896  -28.3685   23.1263 C   0  0  2  0  0  0
  -20.6777  -26.9402   22.5400 C   0  0  0  0  0  0
  -19.5756  -26.6377   21.5199 C   0  0  0  0  0  0
  -18.1938  -26.7921   22.1614 C   0  0  0  0  0  0
  -19.1545  -28.8851   23.2858 C   0  0  0  0  0  0
  -18.9474  -30.1455   23.8877 C   0  0  0  0  0  0
  -17.6473  -30.6583   24.0558 C   0  0  0  0  0  0
  -25.9058  -34.9438   23.5094 C   0  0  0  0  0  0
  -16.5364  -29.9076   23.6332 C   0  0  0  0  0  0
  -16.7281  -28.6499   23.0342 C   0  0  0  0  0  0
  -26.4497  -31.6584   25.0730 C   0  0  0  0  0  0
  -25.3718  -31.3743   26.1449 C   0  0  0  0  0  0
  -27.0354  -30.3003   24.6221 C   0  0  0  0  0  0
  -27.6048  -32.4332   25.7506 C   0  0  0  0  0  0
  -27.5575  -37.1793   24.8466 C   0  0  0  0  0  0
  -21.4207  -29.3034   22.3657 N   0  0  0  0  0  0
  -26.4290  -37.3765   23.9411 N   0  0  0  0  0  0
  -24.6944  -31.0539   22.0975 N   0  0  0  0  0  0
  -23.4205  -28.8137   23.3005 O   0  0  0  0  0  0
  -28.3443  -26.4163   20.1884 O   0  0  0  0  0  0
  -26.5632  -34.8915   22.4666 O   0  0  0  0  0  0
  -23.5452  -32.1385   23.7306 O   0  0  0  0  0  0
  -30.4870  -17.8010   19.5917 C   0  0  0  0  0  0
  -29.8932  -17.1211   20.6448 C   0  0  0  0  0  0
  -29.5238  -19.7014   20.5349 C   0  0  0  0  0  0
  -27.9331  -23.6644   21.8418 C   0  0  0  0  0  0
  -30.2936  -24.1455   21.1219 C   0  0  0  0  0  0
  -28.9722  -22.3332   19.9024 C   0  0  0  0  0  0
  -28.3414  -24.9909   19.7120 C   0  0  0  0  0  0
  -28.8821  -23.7782   20.6347 C   0  0  0  0  0  0
  -30.2507  -19.2073   19.5235 N   0  0  0  0  0  0
  -29.8396  -15.7495   20.9288 N   0  0  0  0  0  0
  -29.1477  -21.0797   20.7272 N   0  0  0  0  0  0
  -29.0462  -18.3542   21.6245 S   0  0  0  0  0  0
  -31.4810  -12.5461   19.1729 H   0  0  0  0  0  0
  -30.3810  -11.4293   19.9266 H   0  0  0  0  0  0
  -29.7868  -11.7534   17.5041 H   0  0  0  0  0  0
  -29.6491  -13.4756   17.7474 H   0  0  0  0  0  0
  -27.8819  -11.2910   18.8911 H   0  0  0  0  0  0
  -27.3819  -12.5584   17.8027 H   0  0  0  0  0  0
  -27.6661  -14.2550   19.5151 H   0  0  0  0  0  0
  -28.7146  -12.0810   21.3940 H   0  0  0  0  0  0
  -28.4302  -13.7380   21.8445 H   0  0  0  0  0  0
  -25.2764   -9.5675   22.4756 H   0  0  0  0  0  0
  -23.9991   -7.4638   22.7476 H   0  0  0  0  0  0
  -21.0844   -8.8781   19.8957 H   0  0  0  0  0  0
  -22.3707  -10.9670   19.6160 H   0  0  0  0  0  0
  -21.2008   -7.6143   23.9714 H   0  0  0  0  0  0
  -21.1481   -6.0519   25.9076 H   0  0  0  0  0  0
  -22.0599   -2.7607   23.2849 H   0  0  0  0  0  0
  -22.4099  -11.9869   22.4781 H   0  0  0  0  0  0
  -21.1113  -13.1258   22.2631 H   0  0  0  0  0  0
  -24.6618  -15.8480   20.5214 H   0  0  0  0  0  0
  -26.2795  -15.6296   20.0871 H   0  0  0  0  0  0
  -26.7197  -32.5401   23.1079 H   0  0  0  0  0  0
  -25.0071  -33.9695   25.0397 H   0  0  0  0  0  0
  -22.7209  -31.3029   21.4001 H   0  0  0  0  0  0
  -23.3753  -35.9612   23.3307 H   0  0  0  0  0  0
  -24.3583  -36.8899   22.2053 H   0  0  0  0  0  0
  -23.7249  -37.6483   23.6667 H   0  0  0  0  0  0
  -26.1143  -31.5336   20.6143 H   0  0  0  0  0  0
  -26.8474  -30.8127   22.0163 H   0  0  0  0  0  0
  -28.1092  -28.9234   21.2108 H   0  0  0  0  0  0
  -25.9192  -25.9463   18.9442 H   0  0  0  0  0  0
  -23.9683  -27.3258   18.9862 H   0  0  0  0  0  0
  -23.7660  -30.5977   19.4049 H   0  0  0  0  0  0
  -22.7592  -29.2546   19.8528 H   0  0  0  0  0  0
  -25.1297  -36.1911   25.0821 H   0  0  0  0  0  0
  -20.9989  -28.3263   24.1385 H   0  0  0  0  0  0
  -20.5675  -26.2294   23.3604 H   0  0  0  0  0  0
  -21.6646  -26.7420   22.1200 H   0  0  0  0  0  0
  -19.6922  -25.6284   21.1238 H   0  0  0  0  0  0
  -19.6705  -27.3178   20.6723 H   0  0  0  0  0  0
  -17.4208  -26.6659   21.4024 H   0  0  0  0  0  0
  -18.0345  -26.0069   22.9017 H   0  0  0  0  0  0
  -19.7956  -30.7267   24.2239 H   0  0  0  0  0  0
  -17.5034  -31.6265   24.5156 H   0  0  0  0  0  0
  -15.5362  -30.2975   23.7672 H   0  0  0  0  0  0
  -15.8681  -28.0823   22.7053 H   0  0  0  0  0  0
  -24.5903  -30.7076   25.7786 H   0  0  0  0  0  0
  -24.8891  -32.2914   26.4835 H   0  0  0  0  0  0
  -25.8023  -30.8956   27.0251 H   0  0  0  0  0  0
  -26.2943  -29.6744   24.1238 H   0  0  0  0  0  0
  -27.4027  -29.7273   25.4744 H   0  0  0  0  0  0
  -27.8828  -30.4283   23.9478 H   0  0  0  0  0  0
  -27.2652  -33.3647   26.2050 H   0  0  0  0  0  0
  -28.3873  -32.6868   25.0341 H   0  0  0  0  0  0
  -28.0703  -31.8480   26.5448 H   0  0  0  0  0  0
  -28.2586  -38.0094   24.7504 H   0  0  0  0  0  0
  -28.1078  -36.2623   24.6306 H   0  0  0  0  0  0
  -27.2297  -37.1452   25.8870 H   0  0  0  0  0  0
  -20.9394  -29.8771   21.6876 H   0  0  0  0  0  0
  -26.0170  -38.2839   24.1411 H   0  0  0  0  0  0
  -31.0689  -17.3519   18.7987 H   0  0  0  0  0  0
  -28.3008  -22.9577   22.5861 H   0  0  0  0  0  0
  -26.9404  -23.3346   21.5325 H   0  0  0  0  0  0
  -27.8160  -24.6274   22.3406 H   0  0  0  0  0  0
  -30.7038  -23.3789   21.7794 H   0  0  0  0  0  0
  -30.2921  -25.0874   21.6720 H   0  0  0  0  0  0
  -30.9801  -24.2598   20.2821 H   0  0  0  0  0  0
  -29.7679  -22.3605   19.1558 H   0  0  0  0  0  0
  -28.0537  -22.1921   19.3312 H   0  0  0  0  0  0
  -27.3609  -24.6617   19.3893 H   0  0  0  0  0  0
  -28.9342  -24.9955   18.7970 H   0  0  0  0  0  0
  -29.0207  -15.4589   21.4421 H   0  0  0  0  0  0
  -28.7210  -21.1975   21.6407 H   0  0  0  0  0  0
  1 25  1  0  0  0
  1 30  2  0  0  0
  1 80  1  0  0  0
  2  3  1  0  0  0
  2 25  1  0  0  0
  2 83  1  0  0  0
  2 84  1  0  0  0
  3  4  1  0  0  0
  3 85  1  0  0  0
  3 86  1  0  0  0
  4  5  1  0  0  0
  4 87  1  0  0  0
  4 88  1  0  0  0
  5  6  1  0  0  0
  5 26  1  0  0  0
  5 89  1  0  0  0
  6 25  1  0  0  0
  6 90  1  0  0  0
  6 91  1  0  0  0
  7  8  2  0  0  0
  7 26  1  0  0  0
  7 29  1  0  0  0
  8  9  1  0  0  0
  8 22  1  0  0  0
  9 10  1  0  0  0
  9 27  2  0  0  0
 10 11  2  0  0  0
 10 15  1  0  0  0
 11 12  1  0  0  0
 11 92  1  0  0  0
 12 13  2  0  0  0
 12 93  1  0  0  0
 13 14  1  0  0  0
 13 31  1  0  0  0
 14 15  2  0  0  0
 14 94  1  0  0  0
 15 95  1  0  0  0
 16 17  2  0  0  0
 16 21  1  0  0  0
 16 31  1  0  0  0
 17 18  1  0  0  0
 17 96  1  0  0  0
 18 19  2  0  0  0
 18 97  1  0  0  0
 19 20  1  0  0  0
 19 24  1  0  0  0
 20 21  2  0  0  0
 20 98  1  0  0  0
 21 23  1  0  0  0
 22 28  1  0  0  0
 22 32  2  0  0  0
 26 27  1  0  0  0
 28 99  1  0  0  0
 28100  1  0  0  0
 29101  1  0  0  0
 29102  1  0  0  0
 33 34  1  0  0  0
 33 66  1  0  0  0
 33 70  2  0  0  0
 34 36  1  0  0  0
 34 59  1  0  0  0
 34103  1  0  0  0
 35 44  2  0  0  0
 35 45  1  0  0  0
 35 68  1  0  0  0
 36 56  1  0  0  0
 36104  1  0  0  0
 37 39  1  0  0  0
 37 47  1  0  0  0
 37 66  1  0  0  0
 37105  1  0  0  0
 38 43  2  0  0  0
 38 46  1  0  0  0
 38 47  1  0  0  0
 39 64  1  0  0  0
 39 67  2  0  0  0
 40 52  1  0  0  0
 40 53  2  0  0  0
 40 58  1  0  0  0
 41106  1  0  0  0
 41107  1  0  0  0
 41108  1  0  0  0
 41 48  1  0  0  0
 42 43  1  0  0  0
 42 66  1  0  0  0
 42109  1  0  0  0
 42110  1  0  0  0
 43 44  1  0  0  0
 44111  1  0  0  0
 45 46  2  0  0  0
 45112  1  0  0  0
 46113  1  0  0  0
 47114  1  0  0  0
 47115  1  0  0  0
 48 56  1  0  0  0
 48 65  1  0  0  0
 48116  1  0  0  0
 49 50  1  0  0  0
 49 53  1  0  0  0
 49 64  1  0  0  0
 49117  1  0  0  0
 50 51  1  0  0  0
 50118  1  0  0  0
 50119  1  0  0  0
 51 52  1  0  0  0
 51120  1  0  0  0
 51121  1  0  0  0
 52122  1  0  0  0
 52123  1  0  0  0
 53 54  1  0  0  0
 54 55  2  0  0  0
 54124  1  0  0  0
 55 57  1  0  0  0
 55125  1  0  0  0
 56 69  2  0  0  0
 57 58  2  0  0  0
 57126  1  0  0  0
 58127  1  0  0  0
 59 60  1  0  0  0
 59 61  1  0  0  0
 59 62  1  0  0  0
 60128  1  0  0  0
 60129  1  0  0  0
 60130  1  0  0  0
 61131  1  0  0  0
 61132  1  0  0  0
 61133  1  0  0  0
 62134  1  0  0  0
 62135  1  0  0  0
 62136  1  0  0  0
 63 65  1  0  0  0
 63137  1  0  0  0
 63138  1  0  0  0
 63139  1  0  0  0
 64140  1  0  0  0
 65141  1  0  0  0
 68 77  1  0  0  0
 71 72  2  0  0  0
 71 79  1  0  0  0
 71142  1  0  0  0
 72 80  1  0  0  0
 72 82  1  0  0  0
 73 79  2  0  0  0
 73 81  1  0  0  0
 73 82  1  0  0  0
 74143  1  0  0  0
 74144  1  0  0  0
 74145  1  0  0  0
 74 78  1  0  0  0
 75 78  1  0  0  0
 75146  1  0  0  0
 75147  1  0  0  0
 75148  1  0  0  0
 76 78  1  0  0  0
 76 81  1  0  0  0
 76149  1  0  0  0
 76150  1  0  0  0
 77 78  1  0  0  0
 77151  1  0  0  0
 77152  1  0  0  0
 80153  1  0  0  0
 81154  1  0  0  0
M  ISO  4   1 100  68 101  77 101  80 100
M  END
> <chiral flag>
0

> <version>
0

> <s_m_source_file>
/data/baiqing/PycharmProjects/Reinvent-master-3.2/result/LINK_invent/BTK/process_docking_weight1_custom_product_contain_oxygen_bond_distance_aromatic_linkinvent_7_9_3/rearranged_h_0152.sdf

> <i_m_source_file_index>
26

> <r_mmod_Potential_Energy-OPLS-2005>
39.0942535400391

> <r_mmod_Stretch_Energy-OPLS-2005>
100.454521179199

> <r_mmod_Bend_Energy-OPLS-2005>
161.961761474609

> <r_mmod_Torsional_Energy-OPLS-2005>
227.069183349609

> <r_mmod_Improper_Torsional_Energy-OPLS-2005>
3.7486424446106

> <r_mmod_Van_der_Waal_Energy-OPLS-2005>
120.08447265625

> <r_mmod_Electrostatic_Energy-OPLS-2005>
-421.045745849609

> <r_mmod_Solvation_Energy-OPLS-2005>
-220.303970336914

> <b_mmod_Minimization_Converged-OPLS-2005>
0

> <r_mmod_RMS_Derivative-OPLS-2005>
1.03830862045288

$$$$
26
                    3D
 Structure written by MMmdl.
156165  0  0  1  0            999 V2000
  -30.5691  -14.8030   20.4294 C   0  0  0  0  0  0
  -30.4371  -12.4798   19.4904 C   0  0  0  0  0  0
  -29.5150  -12.5120   18.2492 C   0  0  0  0  0  0
  -28.0421  -12.3293   18.6628 C   0  0  0  0  0  0
  -27.6426  -13.2336   19.8580 C   0  0  2  0  0  0
  -28.6873  -13.1698   20.9956 C   0  0  0  0  0  0
  -25.2514  -13.8185   20.5709 C   0  0  0  0  0  0
  -24.1806  -13.0436   20.9226 C   0  0  0  0  0  0
  -24.6395  -11.6917   20.8785 C   0  0  0  0  0  0
  -23.9062  -10.4296   21.0447 C   0  0  0  0  0  0
  -24.3603   -9.4197   21.9215 C   0  0  0  0  0  0
  -23.6269   -8.2234   22.0768 C   0  0  0  0  0  0
  -22.4250   -8.0283   21.3553 C   0  0  0  0  0  0
  -21.9894   -9.0268   20.4662 C   0  0  0  0  0  0
  -22.7234  -10.2147   20.3087 C   0  0  0  0  0  0
  -21.6837   -6.0730   22.5282 C   0  0  0  0  0  0
  -21.4013   -6.5634   23.8217 C   0  0  0  0  0  0
  -21.3662   -5.6793   24.9184 C   0  0  0  0  0  0
  -21.6042   -4.3053   24.7233 C   0  0  0  0  0  0
  -21.8812   -3.8142   23.4356 C   0  0  0  0  0  0
  -21.9184   -4.6959   22.3412 C   0  0  0  0  0  0
  -22.7835  -13.5234   21.1878 C   0  0  0  0  0  0
  -22.1655   -4.2147   21.0990 F   0  0  0  0  0  0
  -21.5633   -3.4533   25.7745 F   0  0  0  0  0  0
  -29.9856  -13.5476   20.4187 N   0  0  0  0  0  0
  -26.2942  -12.9393   20.3325 N   0  0  0  0  0  0
  -25.9327  -11.6536   20.5794 N   0  0  0  0  0  0
  -22.0461  -12.8245   22.0441 N   0  0  0  0  0  0
  -25.4201  -15.1901   20.4101 N   0  0  0  0  0  0
  -31.7380  -14.9193   20.0458 O   0  0  0  0  0  0
  -21.6622   -6.8874   21.4238 O   0  0  0  0  0  0
  -22.3540  -14.5539   20.6716 O   0  0  0  0  0  0
  -24.6354  -31.8505   23.1954 C   0  0  0  0  0  0
  -25.9164  -32.4721   23.8312 C   0  0  1  0  0  0
  -27.2172  -27.2116   20.1270 C   0  0  0  0  0  0
  -25.5932  -33.8528   24.2216 N   0  0  0  0  0  0
  -23.4352  -30.4747   21.5384 C   0  0  2  0  0  0
  -24.8841  -28.9162   20.1088 C   0  0  0  0  0  0
  -22.7529  -29.4587   22.4873 C   0  0  0  0  0  0
  -18.0302  -28.1373   22.8492 C   0  0  0  0  0  0
  -24.1491  -36.7274   23.2649 C   0  0  0  0  0  0
  -25.9871  -30.7455   21.3880 C   0  0  0  0  0  0
  -26.0580  -29.3660   20.7240 C   0  0  0  0  0  0
  -27.2255  -28.5263   20.7234 C   0  0  0  0  0  0
  -26.0169  -26.8485   19.4730 C   0  0  0  0  0  0
  -24.8705  -27.6655   19.4767 C   0  0  0  0  0  0
  -23.6577  -29.8090   20.1553 C   0  0  0  0  0  0
  -25.4119  -36.3037   24.0323 C   0  0  1  0  0  0
  -20.5910  -28.3700   23.1243 C   0  0  2  0  0  0
  -20.6775  -26.9405   22.5399 C   0  0  0  0  0  0
  -19.5746  -26.6370   21.5204 C   0  0  0  0  0  0
  -18.1930  -26.7917   22.1629 C   0  0  0  0  0  0
  -19.1556  -28.8858   23.2863 C   0  0  0  0  0  0
  -18.9477  -30.1454   23.8891 C   0  0  0  0  0  0
  -17.6473  -30.6580   24.0558 C   0  0  0  0  0  0
  -25.9065  -34.9414   23.5074 C   0  0  0  0  0  0
  -16.5366  -29.9070   23.6328 C   0  0  0  0  0  0
  -16.7290  -28.6479   23.0370 C   0  0  0  0  0  0
  -26.4505  -31.6576   25.0734 C   0  0  0  0  0  0
  -25.3703  -31.3771   26.1440 C   0  0  0  0  0  0
  -27.0378  -30.2974   24.6308 C   0  0  0  0  0  0
  -27.6029  -32.4356   25.7506 C   0  0  0  0  0  0
  -27.5574  -37.1793   24.8462 C   0  0  0  0  0  0
  -21.4225  -29.3044   22.3622 N   0  0  0  0  0  0
  -26.4283  -37.3745   23.9406 N   0  0  0  0  0  0
  -24.7046  -31.0441   22.0952 N   0  0  0  0  0  0
  -23.4202  -28.8129   23.3001 O   0  0  0  0  0  0
  -28.2898  -26.2731   20.2015 O   0  0  0  0  0  0
  -26.5643  -34.8907   22.4648 O   0  0  0  0  0  0
  -23.5494  -32.1340   23.7224 O   0  0  0  0  0  0
  -29.2887  -18.3819   21.0747 C   0  0  0  0  0  0
  -29.4895  -19.5515   20.2249 C   0  0  0  0  0  0
  -29.8410  -17.2740   20.4109 C   0  0  0  0  0  0
  -28.8043  -23.0272   21.7510 C   0  0  0  0  0  0
  -29.1210  -21.4946   21.8394 C   0  0  0  0  0  0
  -28.8940  -22.1006   19.5466 C   0  0  0  0  0  0
  -29.0287  -23.5322   20.3010 C   0  0  1  0  0  0
  -31.4867  -23.2979   20.3903 C   0  0  0  0  0  0
  -28.0641  -24.7992   19.8644 C   0  0  0  0  0  0
  -30.0974  -19.1429   19.1131 N   0  0  0  0  0  0
  -29.1178  -20.9438   20.4888 N   0  0  0  0  0  0
  -29.7889  -15.9087   20.7747 N   0  0  0  0  0  0
  -30.3383  -17.7444   19.2247 O   0  0  0  0  0  0
  -30.3373  -24.0863   20.0986 O   0  0  0  0  0  0
  -31.4803  -12.6041   19.1954 H   0  0  0  0  0  0
  -30.3850  -11.5056   19.9794 H   0  0  0  0  0  0
  -29.8011  -11.7282   17.5461 H   0  0  0  0  0  0
  -29.6375  -13.4595   17.7220 H   0  0  0  0  0  0
  -27.9176  -11.2811   18.9372 H   0  0  0  0  0  0
  -27.3767  -12.5031   17.8163 H   0  0  0  0  0  0
  -27.6333  -14.2539   19.4733 H   0  0  0  0  0  0
  -28.7321  -12.1654   21.4215 H   0  0  0  0  0  0
  -28.4102  -13.8322   21.8178 H   0  0  0  0  0  0
  -25.2750   -9.5646   22.4784 H   0  0  0  0  0  0
  -23.9975   -7.4614   22.7473 H   0  0  0  0  0  0
  -21.0831   -8.8789   19.8960 H   0  0  0  0  0  0
  -22.3706  -10.9686   19.6189 H   0  0  0  0  0  0
  -21.2012   -7.6146   23.9718 H   0  0  0  0  0  0
  -21.1488   -6.0533   25.9090 H   0  0  0  0  0  0
  -22.0583   -2.7601   23.2864 H   0  0  0  0  0  0
  -22.4038  -11.9899   22.4840 H   0  0  0  0  0  0
  -21.1097  -13.1309   22.2645 H   0  0  0  0  0  0
  -24.6499  -15.8417   20.5117 H   0  0  0  0  0  0
  -26.2618  -15.6254   20.0547 H   0  0  0  0  0  0
  -26.7233  -32.5352   23.1051 H   0  0  0  0  0  0
  -25.0026  -33.9651   25.0320 H   0  0  0  0  0  0
  -22.7334  -31.2977   21.3873 H   0  0  0  0  0  0
  -23.3745  -35.9614   23.3295 H   0  0  0  0  0  0
  -24.3582  -36.8914   22.2068 H   0  0  0  0  0  0
  -23.7264  -37.6479   23.6690 H   0  0  0  0  0  0
  -26.1452  -31.5104   20.6267 H   0  0  0  0  0  0
  -26.8559  -30.7831   22.0333 H   0  0  0  0  0  0
  -28.1186  -28.8618   21.2322 H   0  0  0  0  0  0
  -25.9206  -25.9012   18.9646 H   0  0  0  0  0  0
  -23.9698  -27.3135   18.9936 H   0  0  0  0  0  0
  -23.7891  -30.5830   19.3980 H   0  0  0  0  0  0
  -22.7734  -29.2465   19.8500 H   0  0  0  0  0  0
  -25.1309  -36.1866   25.0819 H   0  0  0  0  0  0
  -21.0018  -28.3276   24.1358 H   0  0  0  0  0  0
  -20.5632  -26.2325   23.3619 H   0  0  0  0  0  0
  -21.6645  -26.7381   22.1216 H   0  0  0  0  0  0
  -19.6894  -25.6272   21.1247 H   0  0  0  0  0  0
  -19.6677  -27.3171   20.6724 H   0  0  0  0  0  0
  -17.4196  -26.6682   21.4030 H   0  0  0  0  0  0
  -18.0322  -26.0050   22.9021 H   0  0  0  0  0  0
  -19.7955  -30.7268   24.2258 H   0  0  0  0  0  0
  -17.5031  -31.6266   24.5150 H   0  0  0  0  0  0
  -15.5364  -30.2972   23.7660 H   0  0  0  0  0  0
  -15.8689  -28.0792   22.7099 H   0  0  0  0  0  0
  -24.5837  -30.7170   25.7760 H   0  0  0  0  0  0
  -24.8953  -32.2969   26.4868 H   0  0  0  0  0  0
  -25.7988  -30.8921   27.0216 H   0  0  0  0  0  0
  -26.3005  -29.6695   24.1293 H   0  0  0  0  0  0
  -27.3961  -29.7283   25.4897 H   0  0  0  0  0  0
  -27.8917  -30.4215   23.9643 H   0  0  0  0  0  0
  -27.2590  -33.3643   26.2073 H   0  0  0  0  0  0
  -28.3833  -32.6955   25.0340 H   0  0  0  0  0  0
  -28.0699  -31.8504   26.5437 H   0  0  0  0  0  0
  -28.2583  -38.0094   24.7489 H   0  0  0  0  0  0
  -28.1070  -36.2626   24.6290 H   0  0  0  0  0  0
  -27.2292  -37.1435   25.8863 H   0  0  0  0  0  0
  -20.9401  -29.8801   21.6853 H   0  0  0  0  0  0
  -26.0147  -38.2814   24.1396 H   0  0  0  0  0  0
  -28.7963  -18.3622   22.0339 H   0  0  0  0  0  0
  -29.3694  -23.6089   22.4803 H   0  0  0  0  0  0
  -27.7535  -23.1656   22.0064 H   0  0  0  0  0  0
  -28.3924  -20.9788   22.4671 H   0  0  0  0  0  0
  -30.1005  -21.3267   22.2876 H   0  0  0  0  0  0
  -29.5439  -22.0366   18.6726 H   0  0  0  0  0  0
  -27.8759  -21.9997   19.1693 H   0  0  0  0  0  0
  -32.3786  -23.8994   20.2100 H   0  0  0  0  0  0
  -31.5588  -22.4223   19.7466 H   0  0  0  0  0  0
  -31.5199  -22.9779   21.4311 H   0  0  0  0  0  0
  -27.0673  -24.5262   20.2107 H   0  0  0  0  0  0
  -28.0061  -24.7674   18.7761 H   0  0  0  0  0  0
  -28.9564  -15.6562   21.2809 H   0  0  0  0  0  0
  1 25  1  0  0  0
  1 30  2  0  0  0
  1 82  1  0  0  0
  2  3  1  0  0  0
  2 25  1  0  0  0
  2 85  1  0  0  0
  2 86  1  0  0  0
  3  4  1  0  0  0
  3 87  1  0  0  0
  3 88  1  0  0  0
  4  5  1  0  0  0
  4 89  1  0  0  0
  4 90  1  0  0  0
  5  6  1  0  0  0
  5 26  1  0  0  0
  5 91  1  0  0  0
  6 25  1  0  0  0
  6 92  1  0  0  0
  6 93  1  0  0  0
  7  8  2  0  0  0
  7 26  1  0  0  0
  7 29  1  0  0  0
  8  9  1  0  0  0
  8 22  1  0  0  0
  9 10  1  0  0  0
  9 27  2  0  0  0
 10 11  2  0  0  0
 10 15  1  0  0  0
 11 12  1  0  0  0
 11 94  1  0  0  0
 12 13  2  0  0  0
 12 95  1  0  0  0
 13 14  1  0  0  0
 13 31  1  0  0  0
 14 15  2  0  0  0
 14 96  1  0  0  0
 15 97  1  0  0  0
 16 17  2  0  0  0
 16 21  1  0  0  0
 16 31  1  0  0  0
 17 18  1  0  0  0
 17 98  1  0  0  0
 18 19  2  0  0  0
 18 99  1  0  0  0
 19 20  1  0  0  0
 19 24  1  0  0  0
 20 21  2  0  0  0
 20100  1  0  0  0
 21 23  1  0  0  0
 22 28  1  0  0  0
 22 32  2  0  0  0
 26 27  1  0  0  0
 28101  1  0  0  0
 28102  1  0  0  0
 29103  1  0  0  0
 29104  1  0  0  0
 33 34  1  0  0  0
 33 66  1  0  0  0
 33 70  2  0  0  0
 34 36  1  0  0  0
 34 59  1  0  0  0
 34105  1  0  0  0
 35 44  2  0  0  0
 35 45  1  0  0  0
 35 68  1  0  0  0
 36 56  1  0  0  0
 36106  1  0  0  0
 37 39  1  0  0  0
 37 47  1  0  0  0
 37 66  1  0  0  0
 37107  1  0  0  0
 38 43  2  0  0  0
 38 46  1  0  0  0
 38 47  1  0  0  0
 39 64  1  0  0  0
 39 67  2  0  0  0
 40 52  1  0  0  0
 40 53  2  0  0  0
 40 58  1  0  0  0
 41108  1  0  0  0
 41109  1  0  0  0
 41110  1  0  0  0
 41 48  1  0  0  0
 42 43  1  0  0  0
 42 66  1  0  0  0
 42111  1  0  0  0
 42112  1  0  0  0
 43 44  1  0  0  0
 44113  1  0  0  0
 45 46  2  0  0  0
 45114  1  0  0  0
 46115  1  0  0  0
 47116  1  0  0  0
 47117  1  0  0  0
 48 56  1  0  0  0
 48 65  1  0  0  0
 48118  1  0  0  0
 49 50  1  0  0  0
 49 53  1  0  0  0
 49 64  1  0  0  0
 49119  1  0  0  0
 50 51  1  0  0  0
 50120  1  0  0  0
 50121  1  0  0  0
 51 52  1  0  0  0
 51122  1  0  0  0
 51123  1  0  0  0
 52124  1  0  0  0
 52125  1  0  0  0
 53 54  1  0  0  0
 54 55  2  0  0  0
 54126  1  0  0  0
 55 57  1  0  0  0
 55127  1  0  0  0
 56 69  2  0  0  0
 57 58  2  0  0  0
 57128  1  0  0  0
 58129  1  0  0  0
 59 60  1  0  0  0
 59 61  1  0  0  0
 59 62  1  0  0  0
 60130  1  0  0  0
 60131  1  0  0  0
 60132  1  0  0  0
 61133  1  0  0  0
 61134  1  0  0  0
 61135  1  0  0  0
 62136  1  0  0  0
 62137  1  0  0  0
 62138  1  0  0  0
 63 65  1  0  0  0
 63139  1  0  0  0
 63140  1  0  0  0
 63141  1  0  0  0
 64142  1  0  0  0
 65143  1  0  0  0
 68 79  1  0  0  0
 71 72  1  0  0  0
 71 73  2  0  0  0
 71144  1  0  0  0
 72 80  2  0  0  0
 72 81  1  0  0  0
 73 82  1  0  0  0
 73 83  1  0  0  0
 74 75  1  0  0  0
 74 77  1  0  0  0
 74145  1  0  0  0
 74146  1  0  0  0
 75 81  1  0  0  0
 75147  1  0  0  0
 75148  1  0  0  0
 76 77  1  0  0  0
 76 81  1  0  0  0
 76149  1  0  0  0
 76150  1  0  0  0
 77 79  1  0  0  0
 77 84  1  0  0  0
 78 84  1  0  0  0
 78151  1  0  0  0
 78152  1  0  0  0
 78153  1  0  0  0
 79154  1  0  0  0
 79155  1  0  0  0
 80 83  1  0  0  0
 82156  1  0  0  0
M  ISO  4   1 100  68 101  79 101  82 100
M  END
> <chiral flag>
0

> <version>
0

> <s_m_source_file>
/data/baiqing/PycharmProjects/Reinvent-master-3.2/result/LINK_invent/BTK/process_docking_weight1_custom_product_contain_oxygen_bond_distance_aromatic_linkinvent_7_9_3/rearranged_h_0152.sdf

> <i_m_source_file_index>
27

> <r_mmod_Potential_Energy-OPLS-2005>
216.67936706543

> <r_mmod_Stretch_Energy-OPLS-2005>
140.45654296875

> <r_mmod_Bend_Energy-OPLS-2005>
241.234802246094

> <r_mmod_Torsional_Energy-OPLS-2005>
296.032135009766

> <r_mmod_Improper_Torsional_Energy-OPLS-2005>
3.74274086952209

> <r_mmod_Van_der_Waal_Energy-OPLS-2005>
117.603538513184

> <r_mmod_Electrostatic_Energy-OPLS-2005>
-442.703918457031

> <r_mmod_Solvation_Energy-OPLS-2005>
-255.754852294922

> <b_mmod_Minimization_Converged-OPLS-2005>
0

> <r_mmod_RMS_Derivative-OPLS-2005>
2.4353346824646

$$$$
27
                    3D
 Structure written by MMmdl.
149157  0  0  1  0            999 V2000
  -30.5571  -14.7846   20.4823 C   0  0  0  0  0  0
  -30.4617  -12.4841   19.4687 C   0  0  0  0  0  0
  -29.5235  -12.5246   18.2394 C   0  0  0  0  0  0
  -28.0510  -12.3332   18.6534 C   0  0  0  0  0  0
  -27.6531  -13.2211   19.8602 C   0  0  2  0  0  0
  -28.7020  -13.1210   20.9905 C   0  0  0  0  0  0
  -25.2573  -13.8167   20.5697 C   0  0  0  0  0  0
  -24.1838  -13.0428   20.9181 C   0  0  0  0  0  0
  -24.6423  -11.6904   20.8728 C   0  0  0  0  0  0
  -23.9061  -10.4299   21.0407 C   0  0  0  0  0  0
  -24.3615   -9.4214   21.9197 C   0  0  0  0  0  0
  -23.6284   -8.2243   22.0754 C   0  0  0  0  0  0
  -22.4268   -8.0288   21.3547 C   0  0  0  0  0  0
  -21.9907   -9.0254   20.4643 C   0  0  0  0  0  0
  -22.7228  -10.2136   20.3062 C   0  0  0  0  0  0
  -21.6854   -6.0732   22.5281 C   0  0  0  0  0  0
  -21.4016   -6.5639   23.8215 C   0  0  0  0  0  0
  -21.3655   -5.6794   24.9170 C   0  0  0  0  0  0
  -21.6046   -4.3057   24.7223 C   0  0  0  0  0  0
  -21.8819   -3.8140   23.4343 C   0  0  0  0  0  0
  -21.9195   -4.6955   22.3399 C   0  0  0  0  0  0
  -22.7853  -13.5226   21.1841 C   0  0  0  0  0  0
  -22.1663   -4.2146   21.0975 F   0  0  0  0  0  0
  -21.5619   -3.4543   25.7736 F   0  0  0  0  0  0
  -30.0034  -13.5183   20.4244 N   0  0  0  0  0  0
  -26.3000  -12.9353   20.3307 N   0  0  0  0  0  0
  -25.9348  -11.6509   20.5744 N   0  0  0  0  0  0
  -22.0484  -12.8235   22.0404 N   0  0  0  0  0  0
  -25.4284  -15.1894   20.4187 N   0  0  0  0  0  0
  -31.7172  -14.9779   20.1013 O   0  0  0  0  0  0
  -21.6635   -6.8893   21.4249 O   0  0  0  0  0  0
  -22.3557  -14.5544   20.6692 O   0  0  0  0  0  0
  -24.6354  -31.8516   23.1952 C   0  0  0  0  0  0
  -25.9158  -32.4737   23.8321 C   0  0  1  0  0  0
  -27.2376  -27.2209   20.1476 C   0  0  0  0  0  0
  -25.5939  -33.8539   24.2236 N   0  0  0  0  0  0
  -23.4375  -30.4712   21.5370 C   0  0  2  0  0  0
  -24.8910  -28.9095   20.1121 C   0  0  0  0  0  0
  -22.7534  -29.4575   22.4885 C   0  0  0  0  0  0
  -18.0300  -28.1400   22.8488 C   0  0  0  0  0  0
  -24.1491  -36.7277   23.2644 C   0  0  0  0  0  0
  -25.9865  -30.7525   21.3824 C   0  0  0  0  0  0
  -26.0627  -29.3693   20.7270 C   0  0  0  0  0  0
  -27.2369  -28.5406   20.7303 C   0  0  0  0  0  0
  -26.0371  -26.8393   19.5018 C   0  0  0  0  0  0
  -24.8862  -27.6543   19.4866 C   0  0  0  0  0  0
  -23.6632  -29.8011   20.1556 C   0  0  0  0  0  0
  -25.4123  -36.3052   24.0328 C   0  0  1  0  0  0
  -20.5906  -28.3716   23.1258 C   0  0  2  0  0  0
  -20.6793  -26.9430   22.5405 C   0  0  0  0  0  0
  -19.5755  -26.6385   21.5219 C   0  0  0  0  0  0
  -18.1938  -26.7933   22.1634 C   0  0  0  0  0  0
  -19.1558  -28.8867   23.2865 C   0  0  0  0  0  0
  -18.9475  -30.1469   23.8888 C   0  0  0  0  0  0
  -17.6471  -30.6591   24.0560 C   0  0  0  0  0  0
  -25.9063  -34.9427   23.5088 C   0  0  0  0  0  0
  -16.5354  -29.9092   23.6336 C   0  0  0  0  0  0
  -16.7288  -28.6506   23.0355 C   0  0  0  0  0  0
  -26.4506  -31.6573   25.0728 C   0  0  0  0  0  0
  -25.3703  -31.3740   26.1430 C   0  0  0  0  0  0
  -27.0381  -30.2993   24.6249 C   0  0  0  0  0  0
  -27.6051  -32.4324   25.7497 C   0  0  0  0  0  0
  -27.5573  -37.1799   24.8470 C   0  0  0  0  0  0
  -21.4227  -29.3043   22.3632 N   0  0  0  0  0  0
  -26.4290  -37.3762   23.9405 N   0  0  0  0  0  0
  -24.7052  -31.0434   22.0948 N   0  0  0  0  0  0
  -23.4214  -28.8124   23.3005 O   0  0  0  0  0  0
  -28.3270  -26.3026   20.2112 O   0  0  0  0  0  0
  -26.5638  -34.8907   22.4656 O   0  0  0  0  0  0
  -23.5483  -32.1352   23.7208 O   0  0  0  0  0  0
  -30.1613  -18.3994   20.4375 C   0  0  0  0  0  0
  -28.2767  -19.4070   21.4113 C   0  0  0  0  0  0
  -29.4400  -19.6730   20.7476 C   0  0  0  0  0  0
  -29.5230  -17.2038   20.8712 C   0  0  0  0  0  0
  -29.8563  -21.1533   20.5441 C   0  0  0  0  0  0
  -29.2543  -23.7384   20.3636 C   0  0  0  0  0  0
  -28.0458  -24.8024   20.2013 C   0  0  0  0  0  0
  -29.6832  -15.7978   20.8602 N   0  0  0  0  0  0
  -28.9745  -22.2485   20.4096 N   0  0  0  0  0  0
  -31.1810  -21.3779   20.5793 N   0  3  0  0  0  0
  -30.4265  -24.1351   20.4539 O   0  0  0  0  0  0
  -28.0245  -17.6958   21.6455 S   0  0  0  0  0  0
  -31.4960  -12.6505   19.1584 H   0  0  0  0  0  0
  -30.4431  -11.4980   19.9392 H   0  0  0  0  0  0
  -29.8087  -11.7544   17.5212 H   0  0  0  0  0  0
  -29.6343  -13.4773   17.7216 H   0  0  0  0  0  0
  -27.9122  -11.2817   18.9111 H   0  0  0  0  0  0
  -27.3903  -12.5249   17.8052 H   0  0  0  0  0  0
  -27.6538  -14.2476   19.4925 H   0  0  0  0  0  0
  -28.7494  -12.1017   21.3758 H   0  0  0  0  0  0
  -28.4218  -13.7422   21.8421 H   0  0  0  0  0  0
  -25.2774   -9.5678   22.4757 H   0  0  0  0  0  0
  -23.9987   -7.4648   22.7493 H   0  0  0  0  0  0
  -21.0817   -8.8785   19.8966 H   0  0  0  0  0  0
  -22.3695  -10.9677   19.6162 H   0  0  0  0  0  0
  -21.2016   -7.6153   23.9711 H   0  0  0  0  0  0
  -21.1473   -6.0527   25.9080 H   0  0  0  0  0  0
  -22.0601   -2.7598   23.2847 H   0  0  0  0  0  0
  -22.4088  -11.9902   22.4786 H   0  0  0  0  0  0
  -21.1121  -13.1293   22.2611 H   0  0  0  0  0  0
  -24.6614  -15.8416   20.5465 H   0  0  0  0  0  0
  -26.2763  -15.6354   20.0947 H   0  0  0  0  0  0
  -26.7220  -32.5389   23.1061 H   0  0  0  0  0  0
  -25.0072  -33.9665   25.0367 H   0  0  0  0  0  0
  -22.7356  -31.2942   21.3863 H   0  0  0  0  0  0
  -23.3741  -35.9621   23.3320 H   0  0  0  0  0  0
  -24.3572  -36.8887   22.2052 H   0  0  0  0  0  0
  -23.7253  -37.6497   23.6651 H   0  0  0  0  0  0
  -26.1293  -31.5106   20.6109 H   0  0  0  0  0  0
  -26.8611  -30.8042   22.0197 H   0  0  0  0  0  0
  -28.1301  -28.8904   21.2303 H   0  0  0  0  0  0
  -25.9491  -25.8841   19.0070 H   0  0  0  0  0  0
  -23.9900  -27.3015   18.9951 H   0  0  0  0  0  0
  -23.7927  -30.5757   19.4004 H   0  0  0  0  0  0
  -22.7825  -29.2377   19.8459 H   0  0  0  0  0  0
  -25.1291  -36.1914   25.0821 H   0  0  0  0  0  0
  -20.9990  -28.3296   24.1382 H   0  0  0  0  0  0
  -20.5703  -26.2323   23.3609 H   0  0  0  0  0  0
  -21.6663  -26.7454   22.1187 H   0  0  0  0  0  0
  -19.6923  -25.6289   21.1252 H   0  0  0  0  0  0
  -19.6686  -27.3192   20.6737 H   0  0  0  0  0  0
  -17.4204  -26.6667   21.4044 H   0  0  0  0  0  0
  -18.0354  -26.0084   22.9034 H   0  0  0  0  0  0
  -19.7944  -30.7291   24.2257 H   0  0  0  0  0  0
  -17.5019  -31.6271   24.5167 H   0  0  0  0  0  0
  -15.5355  -30.2991   23.7656 H   0  0  0  0  0  0
  -15.8690  -28.0824   22.7075 H   0  0  0  0  0  0
  -24.5890  -30.7083   25.7740 H   0  0  0  0  0  0
  -24.8886  -32.2915   26.4815 H   0  0  0  0  0  0
  -25.7997  -30.8939   27.0224 H   0  0  0  0  0  0
  -26.2993  -29.6727   24.1245 H   0  0  0  0  0  0
  -27.4019  -29.7279   25.4792 H   0  0  0  0  0  0
  -27.8869  -30.4272   23.9538 H   0  0  0  0  0  0
  -27.2655  -33.3618   26.2077 H   0  0  0  0  0  0
  -28.3855  -32.6900   25.0324 H   0  0  0  0  0  0
  -28.0725  -31.8459   26.5415 H   0  0  0  0  0  0
  -28.2598  -38.0089   24.7502 H   0  0  0  0  0  0
  -28.1062  -36.2620   24.6307 H   0  0  0  0  0  0
  -27.2289  -37.1462   25.8874 H   0  0  0  0  0  0
  -20.9433  -29.8771   21.6830 H   0  0  0  0  0  0
  -26.0170  -38.2840   24.1394 H   0  0  0  0  0  0
  -31.1106  -18.4118   19.9231 H   0  0  0  0  0  0
  -27.5558  -20.1036   21.8197 H   0  0  0  0  0  0
  -27.3288  -24.5940   20.9961 H   0  0  0  0  0  0
  -27.5571  -24.5299   19.2682 H   0  0  0  0  0  0
  -28.8528  -15.3445   21.2119 H   0  0  0  0  0  0
  -28.0208  -21.9347   20.3371 H   0  0  0  0  0  0
  -31.8259  -20.6265   20.7751 H   0  0  0  0  0  0
  -31.5452  -22.3194   20.5175 H   0  0  0  0  0  0
  1 25  1  0  0  0
  1 30  2  0  0  0
  1 78  1  0  0  0
  2  3  1  0  0  0
  2 25  1  0  0  0
  2 83  1  0  0  0
  2 84  1  0  0  0
  3  4  1  0  0  0
  3 85  1  0  0  0
  3 86  1  0  0  0
  4  5  1  0  0  0
  4 87  1  0  0  0
  4 88  1  0  0  0
  5  6  1  0  0  0
  5 26  1  0  0  0
  5 89  1  0  0  0
  6 25  1  0  0  0
  6 90  1  0  0  0
  6 91  1  0  0  0
  7  8  2  0  0  0
  7 26  1  0  0  0
  7 29  1  0  0  0
  8  9  1  0  0  0
  8 22  1  0  0  0
  9 10  1  0  0  0
  9 27  2  0  0  0
 10 11  2  0  0  0
 10 15  1  0  0  0
 11 12  1  0  0  0
 11 92  1  0  0  0
 12 13  2  0  0  0
 12 93  1  0  0  0
 13 14  1  0  0  0
 13 31  1  0  0  0
 14 15  2  0  0  0
 14 94  1  0  0  0
 15 95  1  0  0  0
 16 17  2  0  0  0
 16 21  1  0  0  0
 16 31  1  0  0  0
 17 18  1  0  0  0
 17 96  1  0  0  0
 18 19  2  0  0  0
 18 97  1  0  0  0
 19 20  1  0  0  0
 19 24  1  0  0  0
 20 21  2  0  0  0
 20 98  1  0  0  0
 21 23  1  0  0  0
 22 28  1  0  0  0
 22 32  2  0  0  0
 26 27  1  0  0  0
 28 99  1  0  0  0
 28100  1  0  0  0
 29101  1  0  0  0
 29102  1  0  0  0
 33 34  1  0  0  0
 33 66  1  0  0  0
 33 70  2  0  0  0
 34 36  1  0  0  0
 34 59  1  0  0  0
 34103  1  0  0  0
 35 44  2  0  0  0
 35 45  1  0  0  0
 35 68  1  0  0  0
 36 56  1  0  0  0
 36104  1  0  0  0
 37 39  1  0  0  0
 37 47  1  0  0  0
 37 66  1  0  0  0
 37105  1  0  0  0
 38 43  2  0  0  0
 38 46  1  0  0  0
 38 47  1  0  0  0
 39 64  1  0  0  0
 39 67  2  0  0  0
 40 52  1  0  0  0
 40 53  2  0  0  0
 40 58  1  0  0  0
 41106  1  0  0  0
 41107  1  0  0  0
 41108  1  0  0  0
 41 48  1  0  0  0
 42 43  1  0  0  0
 42 66  1  0  0  0
 42109  1  0  0  0
 42110  1  0  0  0
 43 44  1  0  0  0
 44111  1  0  0  0
 45 46  2  0  0  0
 45112  1  0  0  0
 46113  1  0  0  0
 47114  1  0  0  0
 47115  1  0  0  0
 48 56  1  0  0  0
 48 65  1  0  0  0
 48116  1  0  0  0
 49 50  1  0  0  0
 49 53  1  0  0  0
 49 64  1  0  0  0
 49117  1  0  0  0
 50 51  1  0  0  0
 50118  1  0  0  0
 50119  1  0  0  0
 51 52  1  0  0  0
 51120  1  0  0  0
 51121  1  0  0  0
 52122  1  0  0  0
 52123  1  0  0  0
 53 54  1  0  0  0
 54 55  2  0  0  0
 54124  1  0  0  0
 55 57  1  0  0  0
 55125  1  0  0  0
 56 69  2  0  0  0
 57 58  2  0  0  0
 57126  1  0  0  0
 58127  1  0  0  0
 59 60  1  0  0  0
 59 61  1  0  0  0
 59 62  1  0  0  0
 60128  1  0  0  0
 60129  1  0  0  0
 60130  1  0  0  0
 61131  1  0  0  0
 61132  1  0  0  0
 61133  1  0  0  0
 62134  1  0  0  0
 62135  1  0  0  0
 62136  1  0  0  0
 63 65  1  0  0  0
 63137  1  0  0  0
 63138  1  0  0  0
 63139  1  0  0  0
 64140  1  0  0  0
 65141  1  0  0  0
 68 77  1  0  0  0
 71 73  1  0  0  0
 71 74  2  0  0  0
 71142  1  0  0  0
 72 73  2  0  0  0
 72 82  1  0  0  0
 72143  1  0  0  0
 73 75  1  0  0  0
 74 78  1  0  0  0
 74 82  1  0  0  0
 75 79  1  0  0  0
 75 80  2  0  0  0
 76 77  1  0  0  0
 76 79  1  0  0  0
 76 81  2  0  0  0
 77144  1  0  0  0
 77145  1  0  0  0
 78146  1  0  0  0
 79147  1  0  0  0
 80148  1  0  0  0
 80149  1  0  0  0
M  CHG  1  80   1
M  ISO  4   1 100  68 101  77 101  78 100
M  END
> <chiral flag>
0

> <version>
0

> <s_m_source_file>
/data/baiqing/PycharmProjects/Reinvent-master-3.2/result/LINK_invent/BTK/process_docking_weight1_custom_product_contain_oxygen_bond_distance_aromatic_linkinvent_7_9_3/rearranged_h_0152.sdf

> <i_m_source_file_index>
28

> <r_mmod_Potential_Energy-OPLS-2005>
-60.4309043884277

> <r_mmod_Stretch_Energy-OPLS-2005>
148.552200317383

> <r_mmod_Bend_Energy-OPLS-2005>
232.898025512695

> <r_mmod_Torsional_Energy-OPLS-2005>
207.911880493164

> <r_mmod_Improper_Torsional_Energy-OPLS-2005>
4.03350210189819

> <r_mmod_Van_der_Waal_Energy-OPLS-2005>
118.422508239746

> <r_mmod_Electrostatic_Energy-OPLS-2005>
-363.804016113281

> <r_mmod_Solvation_Energy-OPLS-2005>
-516.098754882812

> <b_mmod_Minimization_Converged-OPLS-2005>
0

> <r_mmod_RMS_Derivative-OPLS-2005>
3.42599964141846

$$$$
28
                    3D
 Structure written by MMmdl.
142150  0  0  1  0            999 V2000
  -30.3733  -15.4469   20.3518 C   0  0  0  0  0  0
  -30.4351  -12.9490   19.5082 C   0  0  0  0  0  0
  -29.5369  -12.6099   18.2898 C   0  0  0  0  0  0
  -28.0994  -12.2927   18.7337 C   0  0  0  0  0  0
  -27.6011  -13.2867   19.8088 C   0  0  2  0  0  0
  -28.6332  -13.5459   20.9268 C   0  0  0  0  0  0
  -25.2360  -13.8261   20.5758 C   0  0  0  0  0  0
  -24.1725  -13.0440   20.9270 C   0  0  0  0  0  0
  -24.6391  -11.6940   20.8774 C   0  0  0  0  0  0
  -23.9085  -10.4301   21.0423 C   0  0  0  0  0  0
  -24.3630   -9.4213   21.9201 C   0  0  0  0  0  0
  -23.6295   -8.2251   22.0763 C   0  0  0  0  0  0
  -22.4277   -8.0293   21.3548 C   0  0  0  0  0  0
  -21.9919   -9.0270   20.4650 C   0  0  0  0  0  0
  -22.7258  -10.2146   20.3063 C   0  0  0  0  0  0
  -21.6858   -6.0740   22.5281 C   0  0  0  0  0  0
  -21.4022   -6.5641   23.8218 C   0  0  0  0  0  0
  -21.3658   -5.6792   24.9177 C   0  0  0  0  0  0
  -21.6044   -4.3055   24.7225 C   0  0  0  0  0  0
  -21.8818   -3.8145   23.4346 C   0  0  0  0  0  0
  -21.9193   -4.6968   22.3404 C   0  0  0  0  0  0
  -22.7743  -13.5205   21.1899 C   0  0  0  0  0  0
  -22.1668   -4.2155   21.0980 F   0  0  0  0  0  0
  -21.5620   -3.4531   25.7735 F   0  0  0  0  0  0
  -29.8266  -14.1149   20.2696 N   0  0  0  0  0  0
  -26.2787  -12.9547   20.3205 N   0  0  0  0  0  0
  -25.9329  -11.6647   20.5711 N   0  0  0  0  0  0
  -22.0380  -12.8203   22.0448 N   0  0  0  0  0  0
  -25.3989  -15.1991   20.4175 N   0  0  0  0  0  0
  -31.6108  -15.4062   20.2466 O   0  0  0  0  0  0
  -21.6646   -6.8886   21.4243 O   0  0  0  0  0  0
  -22.3444  -14.5517   20.6742 O   0  0  0  0  0  0
  -24.6721  -31.8126   23.1620 C   0  0  0  0  0  0
  -25.9356  -32.4533   23.8119 C   0  0  1  0  0  0
  -27.2195  -26.8094   20.2111 C   0  0  0  0  0  0
  -25.5992  -33.8354   24.2025 N   0  0  0  0  0  0
  -23.4926  -30.4172   21.5153 C   0  0  2  0  0  0
  -24.9469  -28.7742   20.1272 C   0  0  0  0  0  0
  -22.7705  -29.4381   22.4780 C   0  0  0  0  0  0
  -18.0328  -28.1421   22.8456 C   0  0  0  0  0  0
  -24.1500  -36.7182   23.2644 C   0  0  0  0  0  0
  -26.0667  -30.5774   21.4128 C   0  0  0  0  0  0
  -26.1322  -29.1496   20.7725 C   0  0  0  0  0  0
  -27.2585  -28.1898   20.7890 C   0  0  0  0  0  0
  -26.0052  -26.6164   19.5131 C   0  0  0  0  0  0
  -24.9135  -27.5289   19.4786 C   0  0  0  0  0  0
  -23.7409  -29.7196   20.1485 C   0  0  0  0  0  0
  -25.4146  -36.2935   24.0290 C   0  0  1  0  0  0
  -20.5949  -28.3774   23.1180 C   0  0  2  0  0  0
  -20.6789  -26.9455   22.5412 C   0  0  0  0  0  0
  -19.5777  -26.6389   21.5208 C   0  0  0  0  0  0
  -18.1953  -26.7961   22.1596 C   0  0  0  0  0  0
  -19.1588  -28.8922   23.2805 C   0  0  0  0  0  0
  -18.9506  -30.1503   23.8855 C   0  0  0  0  0  0
  -17.6502  -30.6608   24.0568 C   0  0  0  0  0  0
  -25.9120  -34.9318   23.4989 C   0  0  0  0  0  0
  -16.5389  -29.9099   23.6352 C   0  0  0  0  0  0
  -16.7313  -28.6528   23.0354 C   0  0  0  0  0  0
  -26.4575  -31.6513   25.0690 C   0  0  0  0  0  0
  -25.3671  -31.3802   26.1330 C   0  0  0  0  0  0
  -27.0489  -30.2866   24.6496 C   0  0  0  0  0  0
  -27.6059  -32.4338   25.7496 C   0  0  0  0  0  0
  -27.5573  -37.1754   24.8464 C   0  0  0  0  0  0
  -21.4369  -29.3041   22.3518 N   0  0  0  0  0  0
  -26.4282  -37.3681   23.9401 N   0  0  0  0  0  0
  -24.7660  -30.9661   22.0835 N   0  0  0  0  0  0
  -23.4200  -28.7970   23.3079 O   0  0  0  0  0  0
  -28.2419  -25.6860   20.1352 O   0  0  0  0  0  0
  -26.5744  -34.8870   22.4596 O   0  0  0  0  0  0
  -23.5768  -32.1166   23.6634 O   0  0  0  0  0  0
  -28.8452  -22.0263   18.8887 C   0  0  0  0  0  0
  -28.5915  -22.6064   20.1293 C   0  0  0  0  0  0
  -29.1817  -20.0472   20.1526 C   0  0  0  0  0  0
  -29.8500  -18.4458   20.6647 C   0  0  0  0  0  0
  -29.1705  -20.6048   18.9140 N   0  0  0  0  0  0
  -28.0679  -24.0438   20.6411 N   0  0  0  0  0  0
  -29.6154  -16.7655   20.3588 N   0  0  0  0  0  0
  -28.8311  -21.2872   20.9140 O   0  0  0  0  0  0
  -31.4334  -13.1976   19.1459 H   0  0  0  0  0  0
  -30.5682  -12.0795   20.1540 H   0  0  0  0  0  0
  -29.9502  -11.7744   17.7227 H   0  0  0  0  0  0
  -29.5237  -13.4646   17.6111 H   0  0  0  0  0  0
  -28.0907  -11.2810   19.1413 H   0  0  0  0  0  0
  -27.4278  -12.2876   17.8746 H   0  0  0  0  0  0
  -27.4858  -14.2286   19.2705 H   0  0  0  0  0  0
  -28.8592  -12.6402   21.4911 H   0  0  0  0  0  0
  -28.2395  -14.2682   21.6439 H   0  0  0  0  0  0
  -25.2771   -9.5684   22.4786 H   0  0  0  0  0  0
  -23.9994   -7.4639   22.7483 H   0  0  0  0  0  0
  -21.0850   -8.8801   19.8953 H   0  0  0  0  0  0
  -22.3725  -10.9691   19.6174 H   0  0  0  0  0  0
  -21.2031   -7.6152   23.9723 H   0  0  0  0  0  0
  -21.1471   -6.0522   25.9081 H   0  0  0  0  0  0
  -22.0593   -2.7605   23.2844 H   0  0  0  0  0  0
  -22.3992  -11.9892   22.4888 H   0  0  0  0  0  0
  -21.0998  -13.1246   22.2629 H   0  0  0  0  0  0
  -24.6250  -15.8469   20.5199 H   0  0  0  0  0  0
  -26.2367  -15.6382   20.0596 H   0  0  0  0  0  0
  -26.7431  -32.5040   23.0830 H   0  0  0  0  0  0
  -25.0078  -33.9418   25.0137 H   0  0  0  0  0  0
  -22.8115  -31.2511   21.3328 H   0  0  0  0  0  0
  -23.3773  -35.9500   23.3267 H   0  0  0  0  0  0
  -24.3562  -36.8875   22.2063 H   0  0  0  0  0  0
  -23.7251  -37.6354   23.6737 H   0  0  0  0  0  0
  -26.2538  -31.3032   20.6204 H   0  0  0  0  0  0
  -26.9255  -30.6470   22.0690 H   0  0  0  0  0  0
  -28.1635  -28.4860   21.2993 H   0  0  0  0  0  0
  -25.8772  -25.6746   18.9985 H   0  0  0  0  0  0
  -24.0187  -27.2347   18.9469 H   0  0  0  0  0  0
  -23.9134  -30.4815   19.3876 H   0  0  0  0  0  0
  -22.8472  -29.1831   19.8241 H   0  0  0  0  0  0
  -25.1348  -36.1716   25.0781 H   0  0  0  0  0  0
  -21.0022  -28.3382   24.1312 H   0  0  0  0  0  0
  -20.5653  -26.2412   23.3668 H   0  0  0  0  0  0
  -21.6659  -26.7413   22.1244 H   0  0  0  0  0  0
  -19.6954  -25.6285   21.1270 H   0  0  0  0  0  0
  -19.6711  -27.3165   20.6710 H   0  0  0  0  0  0
  -17.4221  -26.6736   21.3994 H   0  0  0  0  0  0
  -18.0315  -26.0098   22.8983 H   0  0  0  0  0  0
  -19.7982  -30.7328   24.2215 H   0  0  0  0  0  0
  -17.5068  -31.6282   24.5182 H   0  0  0  0  0  0
  -15.5388  -30.2988   23.7737 H   0  0  0  0  0  0
  -15.8720  -28.0843   22.7072 H   0  0  0  0  0  0
  -24.5876  -30.7128   25.7630 H   0  0  0  0  0  0
  -24.8836  -32.3018   26.4583 H   0  0  0  0  0  0
  -25.7871  -30.9079   27.0219 H   0  0  0  0  0  0
  -26.3181  -29.6514   24.1482 H   0  0  0  0  0  0
  -27.3961  -29.7261   25.5182 H   0  0  0  0  0  0
  -27.9142  -30.4016   23.9969 H   0  0  0  0  0  0
  -27.2632  -33.3702   26.1907 H   0  0  0  0  0  0
  -28.3957  -32.6789   25.0384 H   0  0  0  0  0  0
  -28.0629  -31.8570   26.5548 H   0  0  0  0  0  0
  -28.2565  -38.0071   24.7512 H   0  0  0  0  0  0
  -28.1099  -36.2597   24.6302 H   0  0  0  0  0  0
  -27.2282  -37.1400   25.8864 H   0  0  0  0  0  0
  -20.9666  -29.8708   21.6594 H   0  0  0  0  0  0
  -26.0121  -38.2736   24.1404 H   0  0  0  0  0  0
  -28.7798  -22.5251   17.9313 H   0  0  0  0  0  0
  -29.7763  -18.4884   21.7512 H   0  0  0  0  0  0
  -30.9188  -18.5613   20.4876 H   0  0  0  0  0  0
  -27.5905  -24.0522   21.5402 H   0  0  0  0  0  0
  -28.6283  -16.5838   20.2574 H   0  0  0  0  0  0
  1 25  1  0  0  0
  1 30  2  0  0  0
  1 77  1  0  0  0
  2  3  1  0  0  0
  2 25  1  0  0  0
  2 79  1  0  0  0
  2 80  1  0  0  0
  3  4  1  0  0  0
  3 81  1  0  0  0
  3 82  1  0  0  0
  4  5  1  0  0  0
  4 83  1  0  0  0
  4 84  1  0  0  0
  5  6  1  0  0  0
  5 26  1  0  0  0
  5 85  1  0  0  0
  6 25  1  0  0  0
  6 86  1  0  0  0
  6 87  1  0  0  0
  7  8  2  0  0  0
  7 26  1  0  0  0
  7 29  1  0  0  0
  8  9  1  0  0  0
  8 22  1  0  0  0
  9 10  1  0  0  0
  9 27  2  0  0  0
 10 11  2  0  0  0
 10 15  1  0  0  0
 11 12  1  0  0  0
 11 88  1  0  0  0
 12 13  2  0  0  0
 12 89  1  0  0  0
 13 14  1  0  0  0
 13 31  1  0  0  0
 14 15  2  0  0  0
 14 90  1  0  0  0
 15 91  1  0  0  0
 16 17  2  0  0  0
 16 21  1  0  0  0
 16 31  1  0  0  0
 17 18  1  0  0  0
 17 92  1  0  0  0
 18 19  2  0  0  0
 18 93  1  0  0  0
 19 20  1  0  0  0
 19 24  1  0  0  0
 20 21  2  0  0  0
 20 94  1  0  0  0
 21 23  1  0  0  0
 22 28  1  0  0  0
 22 32  2  0  0  0
 26 27  1  0  0  0
 28 95  1  0  0  0
 28 96  1  0  0  0
 29 97  1  0  0  0
 29 98  1  0  0  0
 33 34  1  0  0  0
 33 66  1  0  0  0
 33 70  2  0  0  0
 34 36  1  0  0  0
 34 59  1  0  0  0
 34 99  1  0  0  0
 35 44  2  0  0  0
 35 45  1  0  0  0
 35 68  1  0  0  0
 36 56  1  0  0  0
 36100  1  0  0  0
 37 39  1  0  0  0
 37 47  1  0  0  0
 37 66  1  0  0  0
 37101  1  0  0  0
 38 43  2  0  0  0
 38 46  1  0  0  0
 38 47  1  0  0  0
 39 64  1  0  0  0
 39 67  2  0  0  0
 40 52  1  0  0  0
 40 53  2  0  0  0
 40 58  1  0  0  0
 41102  1  0  0  0
 41103  1  0  0  0
 41104  1  0  0  0
 41 48  1  0  0  0
 42 43  1  0  0  0
 42 66  1  0  0  0
 42105  1  0  0  0
 42106  1  0  0  0
 43 44  1  0  0  0
 44107  1  0  0  0
 45 46  2  0  0  0
 45108  1  0  0  0
 46109  1  0  0  0
 47110  1  0  0  0
 47111  1  0  0  0
 48 56  1  0  0  0
 48 65  1  0  0  0
 48112  1  0  0  0
 49 50  1  0  0  0
 49 53  1  0  0  0
 49 64  1  0  0  0
 49113  1  0  0  0
 50 51  1  0  0  0
 50114  1  0  0  0
 50115  1  0  0  0
 51 52  1  0  0  0
 51116  1  0  0  0
 51117  1  0  0  0
 52118  1  0  0  0
 52119  1  0  0  0
 53 54  1  0  0  0
 54 55  2  0  0  0
 54120  1  0  0  0
 55 57  1  0  0  0
 55121  1  0  0  0
 56 69  2  0  0  0
 57 58  2  0  0  0
 57122  1  0  0  0
 58123  1  0  0  0
 59 60  1  0  0  0
 59 61  1  0  0  0
 59 62  1  0  0  0
 60124  1  0  0  0
 60125  1  0  0  0
 60126  1  0  0  0
 61127  1  0  0  0
 61128  1  0  0  0
 61129  1  0  0  0
 62130  1  0  0  0
 62131  1  0  0  0
 62132  1  0  0  0
 63 65  1  0  0  0
 63133  1  0  0  0
 63134  1  0  0  0
 63135  1  0  0  0
 64136  1  0  0  0
 65137  1  0  0  0
 68 76  1  0  0  0
 71 72  2  0  0  0
 71 75  1  0  0  0
 71138  1  0  0  0
 72 76  1  0  0  0
 72 78  1  0  0  0
 73 74  1  0  0  0
 73 75  2  0  0  0
 73 78  1  0  0  0
 74 77  1  0  0  0
 74139  1  0  0  0
 74140  1  0  0  0
 76141  1  0  0  0
 77142  1  0  0  0
M  ISO  4   1 100  68 101  76 101  77 100
M  END
> <chiral flag>
0

> <version>
0

> <s_m_source_file>
/data/baiqing/PycharmProjects/Reinvent-master-3.2/result/LINK_invent/BTK/process_docking_weight1_custom_product_contain_oxygen_bond_distance_aromatic_linkinvent_7_9_3/rearranged_h_0152.sdf

> <i_m_source_file_index>
29

> <r_mmod_Potential_Energy-OPLS-2005>
1607.79626464844

> <r_mmod_Stretch_Energy-OPLS-2005>
762.598083496094

> <r_mmod_Bend_Energy-OPLS-2005>
565.188171386719

> <r_mmod_Torsional_Energy-OPLS-2005>
207.053955078125

> <r_mmod_Improper_Torsional_Energy-OPLS-2005>
7.31477403640747

> <r_mmod_Van_der_Waal_Energy-OPLS-2005>
108.355110168457

> <r_mmod_Electrostatic_Energy-OPLS-2005>
-441.173614501953

> <r_mmod_Solvation_Energy-OPLS-2005>
-252.301071166992

> <b_mmod_Minimization_Converged-OPLS-2005>
0

> <r_mmod_RMS_Derivative-OPLS-2005>
1.41989243030548

$$$$
29
                    3D
 Structure written by MMmdl.
152161  0  0  1  0            999 V2000
  -30.6078  -14.7650   20.5848 C   0  0  0  0  0  0
  -30.4445  -12.4965   19.4867 C   0  0  0  0  0  0
  -29.5221  -12.5470   18.2467 C   0  0  0  0  0  0
  -28.0462  -12.3480   18.6421 C   0  0  0  0  0  0
  -27.6458  -13.2291   19.8516 C   0  0  2  0  0  0
  -28.6791  -13.1186   20.9890 C   0  0  0  0  0  0
  -25.2505  -13.8187   20.5671 C   0  0  0  0  0  0
  -24.1802  -13.0437   20.9195 C   0  0  0  0  0  0
  -24.6384  -11.6912   20.8732 C   0  0  0  0  0  0
  -23.9067  -10.4293   21.0401 C   0  0  0  0  0  0
  -24.3616   -9.4211   21.9185 C   0  0  0  0  0  0
  -23.6300   -8.2242   22.0756 C   0  0  0  0  0  0
  -22.4272   -8.0284   21.3552 C   0  0  0  0  0  0
  -21.9908   -9.0251   20.4643 C   0  0  0  0  0  0
  -22.7237  -10.2133   20.3057 C   0  0  0  0  0  0
  -21.6853   -6.0741   22.5278 C   0  0  0  0  0  0
  -21.4016   -6.5650   23.8213 C   0  0  0  0  0  0
  -21.3660   -5.6801   24.9173 C   0  0  0  0  0  0
  -21.6050   -4.3063   24.7221 C   0  0  0  0  0  0
  -21.8823   -3.8155   23.4345 C   0  0  0  0  0  0
  -21.9194   -4.6971   22.3401 C   0  0  0  0  0  0
  -22.7821  -13.5216   21.1877 C   0  0  0  0  0  0
  -22.1662   -4.2161   21.0973 F   0  0  0  0  0  0
  -21.5620   -3.4545   25.7732 F   0  0  0  0  0  0
  -29.9906  -13.5269   20.4576 N   0  0  0  0  0  0
  -26.2934  -12.9389   20.3224 N   0  0  0  0  0  0
  -25.9305  -11.6534   20.5691 N   0  0  0  0  0  0
  -22.0484  -12.8203   22.0428 N   0  0  0  0  0  0
  -25.4200  -15.1918   20.4115 N   0  0  0  0  0  0
  -31.7104  -14.9379   20.0516 O   0  0  0  0  0  0
  -21.6647   -6.8874   21.4240 O   0  0  0  0  0  0
  -22.3494  -14.5516   20.6719 O   0  0  0  0  0  0
  -24.6318  -31.8546   23.1969 C   0  0  0  0  0  0
  -25.9137  -32.4763   23.8319 C   0  0  1  0  0  0
  -27.2170  -27.2358   20.1410 C   0  0  0  0  0  0
  -25.5933  -33.8559   24.2239 N   0  0  0  0  0  0
  -23.4298  -30.4774   21.5396 C   0  0  2  0  0  0
  -24.8782  -28.9180   20.1116 C   0  0  0  0  0  0
  -22.7508  -29.4610   22.4904 C   0  0  0  0  0  0
  -18.0296  -28.1385   22.8490 C   0  0  0  0  0  0
  -24.1499  -36.7266   23.2636 C   0  0  0  0  0  0
  -25.9793  -30.7575   21.3841 C   0  0  0  0  0  0
  -26.0514  -29.3774   20.7254 C   0  0  0  0  0  0
  -27.2258  -28.5518   20.7241 C   0  0  0  0  0  0
  -26.0248  -26.8544   19.4901 C   0  0  0  0  0  0
  -24.8735  -27.6663   19.4784 C   0  0  0  0  0  0
  -23.6503  -29.8100   20.1568 C   0  0  0  0  0  0
  -25.4131  -36.3065   24.0320 C   0  0  1  0  0  0
  -20.5910  -28.3704   23.1270 C   0  0  2  0  0  0
  -20.6796  -26.9427   22.5406 C   0  0  0  0  0  0
  -19.5766  -26.6389   21.5215 C   0  0  0  0  0  0
  -18.1943  -26.7930   22.1626 C   0  0  0  0  0  0
  -19.1552  -28.8860   23.2874 C   0  0  0  0  0  0
  -18.9476  -30.1463   23.8899 C   0  0  0  0  0  0
  -17.6471  -30.6589   24.0564 C   0  0  0  0  0  0
  -25.9073  -34.9446   23.5090 C   0  0  0  0  0  0
  -16.5367  -29.9087   23.6330 C   0  0  0  0  0  0
  -16.7285  -28.6499   23.0365 C   0  0  0  0  0  0
  -26.4493  -31.6594   25.0713 C   0  0  0  0  0  0
  -25.3695  -31.3771   26.1418 C   0  0  0  0  0  0
  -27.0324  -30.2994   24.6221 C   0  0  0  0  0  0
  -27.6040  -32.4336   25.7498 C   0  0  0  0  0  0
  -27.5588  -37.1793   24.8466 C   0  0  0  0  0  0
  -21.4216  -29.3050   22.3638 N   0  0  0  0  0  0
  -26.4298  -37.3773   23.9410 N   0  0  0  0  0  0
  -24.6988  -31.0500   22.0950 N   0  0  0  0  0  0
  -23.4204  -28.8166   23.3019 O   0  0  0  0  0  0
  -28.3011  -26.3188   20.1633 O   0  0  0  0  0  0
  -26.5648  -34.8926   22.4659 O   0  0  0  0  0  0
  -23.5474  -32.1371   23.7265 O   0  0  0  0  0  0
  -29.6208  -18.3460   20.2393 C   0  0  0  0  0  0
  -29.9051  -17.2728   21.2230 C   0  0  0  0  0  0
  -30.0069  -17.8000   22.4596 C   0  0  0  0  0  0
  -29.4907  -19.6625   20.7921 C   0  0  0  0  0  0
  -28.8433  -22.1518   20.7707 C   0  0  0  0  0  0
  -30.2461  -16.8410   23.5380 C   0  0  0  0  0  0
  -30.0177  -15.5028   22.8103 C   0  0  0  0  0  0
  -28.9490  -23.5912   20.0396 C   0  0  0  0  0  0
  -28.0492  -24.8669   20.5430 C   0  0  0  0  0  0
  -29.9997  -15.7757   21.3434 N   0  0  0  0  0  0
  -29.2624  -20.9366   20.2060 N   0  0  0  0  0  0
  -28.3373  -22.1625   21.8947 O   0  0  0  0  0  0
  -29.7606  -19.5223   22.5364 S   0  0  0  0  0  0
  -31.4829  -12.6454   19.1853 H   0  0  0  0  0  0
  -30.4184  -11.5077   19.9457 H   0  0  0  0  0  0
  -29.8206  -11.7866   17.5241 H   0  0  0  0  0  0
  -29.6411  -13.5098   17.7475 H   0  0  0  0  0  0
  -27.9046  -11.2945   18.8878 H   0  0  0  0  0  0
  -27.3944  -12.5501   17.7922 H   0  0  0  0  0  0
  -27.6505  -14.2613   19.4990 H   0  0  0  0  0  0
  -28.7220  -12.1021   21.3800 H   0  0  0  0  0  0
  -28.3435  -13.7274   21.8183 H   0  0  0  0  0  0
  -25.2762   -9.5692   22.4750 H   0  0  0  0  0  0
  -24.0024   -7.4637   22.7478 H   0  0  0  0  0  0
  -21.0843   -8.8765   19.8947 H   0  0  0  0  0  0
  -22.3699  -10.9667   19.6161 H   0  0  0  0  0  0
  -21.2010   -7.6156   23.9719 H   0  0  0  0  0  0
  -21.1476   -6.0527   25.9076 H   0  0  0  0  0  0
  -22.0600   -2.7616   23.2839 H   0  0  0  0  0  0
  -22.4115  -11.9848   22.4785 H   0  0  0  0  0  0
  -21.1098  -13.1218   22.2650 H   0  0  0  0  0  0
  -24.6529  -15.8461   20.5204 H   0  0  0  0  0  0
  -26.2767  -15.6340   20.1027 H   0  0  0  0  0  0
  -26.7199  -32.5409   23.1061 H   0  0  0  0  0  0
  -25.0083  -33.9713   25.0388 H   0  0  0  0  0  0
  -22.7261  -31.3000   21.3949 H   0  0  0  0  0  0
  -23.3775  -35.9582   23.3294 H   0  0  0  0  0  0
  -24.3588  -36.8889   22.2050 H   0  0  0  0  0  0
  -23.7241  -37.6460   23.6661 H   0  0  0  0  0  0
  -26.1314  -31.5174   20.6161 H   0  0  0  0  0  0
  -26.8524  -30.8026   22.0244 H   0  0  0  0  0  0
  -28.1262  -28.9001   21.2133 H   0  0  0  0  0  0
  -25.9684  -25.9036   18.9815 H   0  0  0  0  0  0
  -23.9838  -27.3119   18.9779 H   0  0  0  0  0  0
  -23.7757  -30.5850   19.3994 H   0  0  0  0  0  0
  -22.7680  -29.2450   19.8527 H   0  0  0  0  0  0
  -25.1328  -36.1900   25.0813 H   0  0  0  0  0  0
  -21.0020  -28.3287   24.1381 H   0  0  0  0  0  0
  -20.5716  -26.2320   23.3613 H   0  0  0  0  0  0
  -21.6663  -26.7469   22.1193 H   0  0  0  0  0  0
  -19.6936  -25.6300   21.1243 H   0  0  0  0  0  0
  -19.6687  -27.3200   20.6752 H   0  0  0  0  0  0
  -17.4222  -26.6687   21.4016 H   0  0  0  0  0  0
  -18.0330  -26.0066   22.9022 H   0  0  0  0  0  0
  -19.7954  -30.7272   24.2267 H   0  0  0  0  0  0
  -17.5035  -31.6271   24.5161 H   0  0  0  0  0  0
  -15.5370  -30.3000   23.7648 H   0  0  0  0  0  0
  -15.8686  -28.0813   22.7105 H   0  0  0  0  0  0
  -24.5904  -30.7077   25.7756 H   0  0  0  0  0  0
  -24.8842  -32.2945   26.4754 H   0  0  0  0  0  0
  -25.8000  -30.9022   27.0242 H   0  0  0  0  0  0
  -26.2897  -29.6760   24.1225 H   0  0  0  0  0  0
  -27.3963  -29.7255   25.4752 H   0  0  0  0  0  0
  -27.8810  -30.4254   23.9493 H   0  0  0  0  0  0
  -27.2642  -33.3657   26.2031 H   0  0  0  0  0  0
  -28.3880  -32.6864   25.0343 H   0  0  0  0  0  0
  -28.0659  -31.8469   26.5450 H   0  0  0  0  0  0
  -28.2608  -38.0097   24.7549 H   0  0  0  0  0  0
  -28.1097  -36.2634   24.6263 H   0  0  0  0  0  0
  -27.2309  -37.1407   25.8871 H   0  0  0  0  0  0
  -20.9391  -29.8738   21.6817 H   0  0  0  0  0  0
  -26.0169  -38.2843   24.1421 H   0  0  0  0  0  0
  -29.4928  -18.1216   19.1903 H   0  0  0  0  0  0
  -29.5528  -16.9820   24.3674 H   0  0  0  0  0  0
  -31.2678  -16.9327   23.9096 H   0  0  0  0  0  0
  -29.0412  -15.1444   23.1291 H   0  0  0  0  0  0
  -30.7555  -14.7587   23.1205 H   0  0  0  0  0  0
  -29.9927  -23.8854   20.1491 H   0  0  0  0  0  0
  -28.7967  -23.4440   18.9703 H   0  0  0  0  0  0
  -28.0854  -24.8645   21.6319 H   0  0  0  0  0  0
  -27.0156  -24.5977   20.3313 H   0  0  0  0  0  0
  -29.4873  -20.9924   19.2213 H   0  0  0  0  0  0
  1 25  1  0  0  0
  1 30  2  0  0  0
  1 80  1  0  0  0
  2  3  1  0  0  0
  2 25  1  0  0  0
  2 84  1  0  0  0
  2 85  1  0  0  0
  3  4  1  0  0  0
  3 86  1  0  0  0
  3 87  1  0  0  0
  4  5  1  0  0  0
  4 88  1  0  0  0
  4 89  1  0  0  0
  5  6  1  0  0  0
  5 26  1  0  0  0
  5 90  1  0  0  0
  6 25  1  0  0  0
  6 91  1  0  0  0
  6 92  1  0  0  0
  7  8  2  0  0  0
  7 26  1  0  0  0
  7 29  1  0  0  0
  8  9  1  0  0  0
  8 22  1  0  0  0
  9 10  1  0  0  0
  9 27  2  0  0  0
 10 11  2  0  0  0
 10 15  1  0  0  0
 11 12  1  0  0  0
 11 93  1  0  0  0
 12 13  2  0  0  0
 12 94  1  0  0  0
 13 14  1  0  0  0
 13 31  1  0  0  0
 14 15  2  0  0  0
 14 95  1  0  0  0
 15 96  1  0  0  0
 16 17  2  0  0  0
 16 21  1  0  0  0
 16 31  1  0  0  0
 17 18  1  0  0  0
 17 97  1  0  0  0
 18 19  2  0  0  0
 18 98  1  0  0  0
 19 20  1  0  0  0
 19 24  1  0  0  0
 20 21  2  0  0  0
 20 99  1  0  0  0
 21 23  1  0  0  0
 22 28  1  0  0  0
 22 32  2  0  0  0
 26 27  1  0  0  0
 28100  1  0  0  0
 28101  1  0  0  0
 29102  1  0  0  0
 29103  1  0  0  0
 33 34  1  0  0  0
 33 66  1  0  0  0
 33 70  2  0  0  0
 34 36  1  0  0  0
 34 59  1  0  0  0
 34104  1  0  0  0
 35 44  2  0  0  0
 35 45  1  0  0  0
 35 68  1  0  0  0
 36 56  1  0  0  0
 36105  1  0  0  0
 37 39  1  0  0  0
 37 47  1  0  0  0
 37 66  1  0  0  0
 37106  1  0  0  0
 38 43  2  0  0  0
 38 46  1  0  0  0
 38 47  1  0  0  0
 39 64  1  0  0  0
 39 67  2  0  0  0
 40 52  1  0  0  0
 40 53  2  0  0  0
 40 58  1  0  0  0
 41107  1  0  0  0
 41108  1  0  0  0
 41109  1  0  0  0
 41 48  1  0  0  0
 42 43  1  0  0  0
 42 66  1  0  0  0
 42110  1  0  0  0
 42111  1  0  0  0
 43 44  1  0  0  0
 44112  1  0  0  0
 45 46  2  0  0  0
 45113  1  0  0  0
 46114  1  0  0  0
 47115  1  0  0  0
 47116  1  0  0  0
 48 56  1  0  0  0
 48 65  1  0  0  0
 48117  1  0  0  0
 49 50  1  0  0  0
 49 53  1  0  0  0
 49 64  1  0  0  0
 49118  1  0  0  0
 50 51  1  0  0  0
 50119  1  0  0  0
 50120  1  0  0  0
 51 52  1  0  0  0
 51121  1  0  0  0
 51122  1  0  0  0
 52123  1  0  0  0
 52124  1  0  0  0
 53 54  1  0  0  0
 54 55  2  0  0  0
 54125  1  0  0  0
 55 57  1  0  0  0
 55126  1  0  0  0
 56 69  2  0  0  0
 57 58  2  0  0  0
 57127  1  0  0  0
 58128  1  0  0  0
 59 60  1  0  0  0
 59 61  1  0  0  0
 59 62  1  0  0  0
 60129  1  0  0  0
 60130  1  0  0  0
 60131  1  0  0  0
 61132  1  0  0  0
 61133  1  0  0  0
 61134  1  0  0  0
 62135  1  0  0  0
 62136  1  0  0  0
 62137  1  0  0  0
 63 65  1  0  0  0
 63138  1  0  0  0
 63139  1  0  0  0
 63140  1  0  0  0
 64141  1  0  0  0
 65142  1  0  0  0
 68 79  1  0  0  0
 71 72  1  0  0  0
 71 74  2  0  0  0
 71143  1  0  0  0
 72 73  2  0  0  0
 72 80  1  0  0  0
 73 76  1  0  0  0
 73 83  1  0  0  0
 74 81  1  0  0  0
 74 83  1  0  0  0
 75 78  1  0  0  0
 75 81  1  0  0  0
 75 82  2  0  0  0
 76 77  1  0  0  0
 76144  1  0  0  0
 76145  1  0  0  0
 77 80  1  0  0  0
 77146  1  0  0  0
 77147  1  0  0  0
 78 79  1  0  0  0
 78148  1  0  0  0
 78149  1  0  0  0
 79150  1  0  0  0
 79151  1  0  0  0
 81152  1  0  0  0
M  ISO  4   1 100  68 101  79 101  80 100
M  END
> <chiral flag>
0

> <version>
0

> <s_m_source_file>
/data/baiqing/PycharmProjects/Reinvent-master-3.2/result/LINK_invent/BTK/process_docking_weight1_custom_product_contain_oxygen_bond_distance_aromatic_linkinvent_7_9_3/rearranged_h_0152.sdf

> <i_m_source_file_index>
30

> <r_mmod_Potential_Energy-OPLS-2005>
422.403106689453

> <r_mmod_Stretch_Energy-OPLS-2005>
156.955535888672

> <r_mmod_Bend_Energy-OPLS-2005>
289.779937744141

> <r_mmod_Torsional_Energy-OPLS-2005>
302.415863037109

> <r_mmod_Improper_Torsional_Energy-OPLS-2005>
5.33369874954224

> <r_mmod_Van_der_Waal_Energy-OPLS-2005>
123.03678894043

> <r_mmod_Electrostatic_Energy-OPLS-2005>
-325.612457275391

> <r_mmod_Solvation_Energy-OPLS-2005>
-224.559616088867

> <b_mmod_Minimization_Converged-OPLS-2005>
0

> <r_mmod_RMS_Derivative-OPLS-2005>
2.46899080276489

$$$$
30
                    3D
 Structure written by MMmdl.
154162  0  0  1  0            999 V2000
  -30.6121  -14.7204   20.4608 C   0  0  0  0  0  0
  -30.4307  -12.4357   19.4726 C   0  0  0  0  0  0
  -29.5090  -12.5089   18.2354 C   0  0  0  0  0  0
  -28.0338  -12.3367   18.6463 C   0  0  0  0  0  0
  -27.6440  -13.2286   19.8556 C   0  0  2  0  0  0
  -28.6881  -13.1433   20.9911 C   0  0  0  0  0  0
  -25.2523  -13.8194   20.5701 C   0  0  0  0  0  0
  -24.1809  -13.0444   20.9211 C   0  0  0  0  0  0
  -24.6394  -11.6918   20.8755 C   0  0  0  0  0  0
  -23.9075  -10.4294   21.0411 C   0  0  0  0  0  0
  -24.3622   -9.4211   21.9191 C   0  0  0  0  0  0
  -23.6295   -8.2248   22.0761 C   0  0  0  0  0  0
  -22.4279   -8.0287   21.3548 C   0  0  0  0  0  0
  -21.9918   -9.0259   20.4651 C   0  0  0  0  0  0
  -22.7248  -10.2137   20.3059 C   0  0  0  0  0  0
  -21.6855   -6.0742   22.5283 C   0  0  0  0  0  0
  -21.4013   -6.5643   23.8217 C   0  0  0  0  0  0
  -21.3659   -5.6797   24.9177 C   0  0  0  0  0  0
  -21.6042   -4.3059   24.7224 C   0  0  0  0  0  0
  -21.8818   -3.8152   23.4345 C   0  0  0  0  0  0
  -21.9194   -4.6970   22.3403 C   0  0  0  0  0  0
  -22.7830  -13.5232   21.1864 C   0  0  0  0  0  0
  -22.1660   -4.2158   21.0980 F   0  0  0  0  0  0
  -21.5631   -3.4540   25.7735 F   0  0  0  0  0  0
  -29.9943  -13.4915   20.4149 N   0  0  0  0  0  0
  -26.2946  -12.9394   20.3300 N   0  0  0  0  0  0
  -25.9326  -11.6539   20.5764 N   0  0  0  0  0  0
  -22.0470  -12.8219   22.0410 N   0  0  0  0  0  0
  -25.4214  -15.1918   20.4113 N   0  0  0  0  0  0
  -31.7931  -14.8053   20.1239 O   0  0  0  0  0  0
  -21.6641   -6.8885   21.4243 O   0  0  0  0  0  0
  -22.3519  -14.5540   20.6711 O   0  0  0  0  0  0
  -24.6302  -31.8558   23.1999 C   0  0  0  0  0  0
  -25.9144  -32.4751   23.8331 C   0  0  1  0  0  0
  -27.2253  -27.2825   20.1163 C   0  0  0  0  0  0
  -25.5958  -33.8556   24.2262 N   0  0  0  0  0  0
  -23.4240  -30.4783   21.5427 C   0  0  2  0  0  0
  -24.8695  -28.9245   20.1089 C   0  0  0  0  0  0
  -22.7486  -29.4608   22.4930 C   0  0  0  0  0  0
  -18.0287  -28.1390   22.8486 C   0  0  0  0  0  0
  -24.1489  -36.7268   23.2643 C   0  0  0  0  0  0
  -25.9669  -30.7740   21.3748 C   0  0  0  0  0  0
  -26.0381  -29.3976   20.7169 C   0  0  0  0  0  0
  -27.2140  -28.5865   20.7132 C   0  0  0  0  0  0
  -26.0285  -26.8625   19.4937 C   0  0  0  0  0  0
  -24.8685  -27.6640   19.4900 C   0  0  0  0  0  0
  -23.6392  -29.8103   20.1583 C   0  0  0  0  0  0
  -25.4118  -36.3066   24.0328 C   0  0  1  0  0  0
  -20.5889  -28.3693   23.1279 C   0  0  2  0  0  0
  -20.6778  -26.9413   22.5413 C   0  0  0  0  0  0
  -19.5752  -26.6385   21.5218 C   0  0  0  0  0  0
  -18.1929  -26.7935   22.1623 C   0  0  0  0  0  0
  -19.1542  -28.8859   23.2874 C   0  0  0  0  0  0
  -18.9464  -30.1466   23.8883 C   0  0  0  0  0  0
  -17.6462  -30.6588   24.0567 C   0  0  0  0  0  0
  -25.9059  -34.9437   23.5089 C   0  0  0  0  0  0
  -16.5352  -29.9083   23.6342 C   0  0  0  0  0  0
  -16.7276  -28.6506   23.0354 C   0  0  0  0  0  0
  -26.4524  -31.6577   25.0715 C   0  0  0  0  0  0
  -25.3755  -31.3707   26.1437 C   0  0  0  0  0  0
  -27.0395  -30.3007   24.6191 C   0  0  0  0  0  0
  -27.6074  -32.4325   25.7487 C   0  0  0  0  0  0
  -27.5573  -37.1791   24.8472 C   0  0  0  0  0  0
  -21.4199  -29.3038   22.3667 N   0  0  0  0  0  0
  -26.4288  -37.3769   23.9413 N   0  0  0  0  0  0
  -24.6927  -31.0539   22.0960 N   0  0  0  0  0  0
  -23.4193  -28.8161   23.3032 O   0  0  0  0  0  0
  -28.3542  -26.4419   20.1952 O   0  0  0  0  0  0
  -26.5618  -34.8914   22.4649 O   0  0  0  0  0  0
  -23.5463  -32.1378   23.7313 O   0  0  0  0  0  0
  -30.6103  -19.5151   20.2190 C   0  0  0  0  0  0
  -30.9792  -18.1062   20.2907 C   0  0  0  0  0  0
  -29.2956  -19.8220   20.4713 C   0  0  0  0  0  0
  -29.9264  -17.2268   20.5641 C   0  0  0  0  0  0
  -28.4036  -23.7858   20.4407 C   0  0  0  0  0  0
  -33.1312  -17.4397   21.4291 C   0  0  0  0  0  0
  -32.4281  -17.7524   20.1002 C   0  0  0  0  0  0
  -29.0725  -22.4118   19.9512 C   0  0  0  0  0  0
  -28.4554  -25.1010   19.5351 C   0  0  0  0  0  0
  -29.8129  -15.8267   20.7165 N   0  0  0  0  0  0
  -28.6157  -21.0992   20.5570 N   0  0  0  0  0  0
  -27.8249  -23.8127   21.5323 O   0  0  0  0  0  0
  -28.4811  -18.2679   20.7761 S   0  0  0  0  0  0
  -31.4729  -12.5521   19.1713 H   0  0  0  0  0  0
  -30.3662  -11.4545   19.9454 H   0  0  0  0  0  0
  -29.7875  -11.7437   17.5096 H   0  0  0  0  0  0
  -29.6402  -13.4689   17.7341 H   0  0  0  0  0  0
  -27.8847  -11.2857   18.8980 H   0  0  0  0  0  0
  -27.3782  -12.5415   17.7988 H   0  0  0  0  0  0
  -27.6434  -14.2535   19.4850 H   0  0  0  0  0  0
  -28.7155  -12.1396   21.4177 H   0  0  0  0  0  0
  -28.4255  -13.8132   21.8114 H   0  0  0  0  0  0
  -25.2765   -9.5688   22.4771 H   0  0  0  0  0  0
  -24.0007   -7.4639   22.7481 H   0  0  0  0  0  0
  -21.0856   -8.8773   19.8949 H   0  0  0  0  0  0
  -22.3711  -10.9675   19.6167 H   0  0  0  0  0  0
  -21.2001   -7.6150   23.9724 H   0  0  0  0  0  0
  -21.1483   -6.0523   25.9081 H   0  0  0  0  0  0
  -22.0597   -2.7617   23.2843 H   0  0  0  0  0  0
  -22.4077  -11.9868   22.4782 H   0  0  0  0  0  0
  -21.1090  -13.1248   22.2617 H   0  0  0  0  0  0
  -24.6499  -15.8415   20.5180 H   0  0  0  0  0  0
  -26.2618  -15.6326   20.0606 H   0  0  0  0  0  0
  -26.7203  -32.5401   23.1067 H   0  0  0  0  0  0
  -25.0166  -33.9701   25.0450 H   0  0  0  0  0  0
  -22.7201  -31.3006   21.3984 H   0  0  0  0  0  0
  -23.3760  -35.9591   23.3307 H   0  0  0  0  0  0
  -24.3578  -36.8889   22.2056 H   0  0  0  0  0  0
  -23.7233  -37.6463   23.6667 H   0  0  0  0  0  0
  -26.1038  -31.5359   20.6062 H   0  0  0  0  0  0
  -26.8457  -30.8219   22.0065 H   0  0  0  0  0  0
  -28.1093  -28.9451   21.2021 H   0  0  0  0  0  0
  -25.9457  -25.8915   19.0317 H   0  0  0  0  0  0
  -23.9691  -27.2919   19.0188 H   0  0  0  0  0  0
  -23.7599  -30.5868   19.4020 H   0  0  0  0  0  0
  -22.7572  -29.2428   19.8556 H   0  0  0  0  0  0
  -25.1301  -36.1907   25.0820 H   0  0  0  0  0  0
  -20.9979  -28.3271   24.1402 H   0  0  0  0  0  0
  -20.5691  -26.2300   23.3616 H   0  0  0  0  0  0
  -21.6643  -26.7452   22.1195 H   0  0  0  0  0  0
  -19.6912  -25.6296   21.1247 H   0  0  0  0  0  0
  -19.6689  -27.3197   20.6750 H   0  0  0  0  0  0
  -17.4204  -26.6703   21.4018 H   0  0  0  0  0  0
  -18.0310  -26.0068   22.9006 H   0  0  0  0  0  0
  -19.7938  -30.7299   24.2230 H   0  0  0  0  0  0
  -17.5010  -31.6267   24.5172 H   0  0  0  0  0  0
  -15.5351  -30.2979   23.7675 H   0  0  0  0  0  0
  -15.8677  -28.0828   22.7067 H   0  0  0  0  0  0
  -24.5955  -30.7027   25.7765 H   0  0  0  0  0  0
  -24.8918  -32.2863   26.4845 H   0  0  0  0  0  0
  -25.8085  -30.8908   27.0222 H   0  0  0  0  0  0
  -26.2986  -29.6719   24.1240 H   0  0  0  0  0  0
  -27.4131  -29.7299   25.4704 H   0  0  0  0  0  0
  -27.8831  -30.4308   23.9408 H   0  0  0  0  0  0
  -27.2692  -33.3648   26.2019 H   0  0  0  0  0  0
  -28.3904  -32.6842   25.0322 H   0  0  0  0  0  0
  -28.0715  -31.8476   26.5437 H   0  0  0  0  0  0
  -28.2594  -38.0087   24.7517 H   0  0  0  0  0  0
  -28.1068  -36.2616   24.6305 H   0  0  0  0  0  0
  -27.2287  -37.1441   25.8875 H   0  0  0  0  0  0
  -20.9385  -29.8745   21.6859 H   0  0  0  0  0  0
  -26.0162  -38.2840   24.1419 H   0  0  0  0  0  0
  -31.3574  -20.2686   20.0157 H   0  0  0  0  0  0
  -34.1812  -17.1961   21.2670 H   0  0  0  0  0  0
  -32.6701  -16.5947   21.9406 H   0  0  0  0  0  0
  -33.0896  -18.2962   22.1027 H   0  0  0  0  0  0
  -32.9552  -18.5882   19.6382 H   0  0  0  0  0  0
  -32.5481  -16.9463   19.3810 H   0  0  0  0  0  0
  -30.1474  -22.5078   20.1063 H   0  0  0  0  0  0
  -28.9324  -22.3536   18.8711 H   0  0  0  0  0  0
  -27.7363  -24.9950   18.7264 H   0  0  0  0  0  0
  -29.4250  -25.0849   19.0375 H   0  0  0  0  0  0
  -28.8847  -15.5358   20.9836 H   0  0  0  0  0  0
  -27.6344  -21.1014   20.8294 H   0  0  0  0  0  0
  1 25  1  0  0  0
  1 30  2  0  0  0
  1 80  1  0  0  0
  2  3  1  0  0  0
  2 25  1  0  0  0
  2 84  1  0  0  0
  2 85  1  0  0  0
  3  4  1  0  0  0
  3 86  1  0  0  0
  3 87  1  0  0  0
  4  5  1  0  0  0
  4 88  1  0  0  0
  4 89  1  0  0  0
  5  6  1  0  0  0
  5 26  1  0  0  0
  5 90  1  0  0  0
  6 25  1  0  0  0
  6 91  1  0  0  0
  6 92  1  0  0  0
  7  8  2  0  0  0
  7 26  1  0  0  0
  7 29  1  0  0  0
  8  9  1  0  0  0
  8 22  1  0  0  0
  9 10  1  0  0  0
  9 27  2  0  0  0
 10 11  2  0  0  0
 10 15  1  0  0  0
 11 12  1  0  0  0
 11 93  1  0  0  0
 12 13  2  0  0  0
 12 94  1  0  0  0
 13 14  1  0  0  0
 13 31  1  0  0  0
 14 15  2  0  0  0
 14 95  1  0  0  0
 15 96  1  0  0  0
 16 17  2  0  0  0
 16 21  1  0  0  0
 16 31  1  0  0  0
 17 18  1  0  0  0
 17 97  1  0  0  0
 18 19  2  0  0  0
 18 98  1  0  0  0
 19 20  1  0  0  0
 19 24  1  0  0  0
 20 21  2  0  0  0
 20 99  1  0  0  0
 21 23  1  0  0  0
 22 28  1  0  0  0
 22 32  2  0  0  0
 26 27  1  0  0  0
 28100  1  0  0  0
 28101  1  0  0  0
 29102  1  0  0  0
 29103  1  0  0  0
 33 34  1  0  0  0
 33 66  1  0  0  0
 33 70  2  0  0  0
 34 36  1  0  0  0
 34 59  1  0  0  0
 34104  1  0  0  0
 35 44  2  0  0  0
 35 45  1  0  0  0
 35 68  1  0  0  0
 36 56  1  0  0  0
 36105  1  0  0  0
 37 39  1  0  0  0
 37 47  1  0  0  0
 37 66  1  0  0  0
 37106  1  0  0  0
 38 43  2  0  0  0
 38 46  1  0  0  0
 38 47  1  0  0  0
 39 64  1  0  0  0
 39 67  2  0  0  0
 40 52  1  0  0  0
 40 53  2  0  0  0
 40 58  1  0  0  0
 41107  1  0  0  0
 41108  1  0  0  0
 41109  1  0  0  0
 41 48  1  0  0  0
 42 43  1  0  0  0
 42 66  1  0  0  0
 42110  1  0  0  0
 42111  1  0  0  0
 43 44  1  0  0  0
 44112  1  0  0  0
 45 46  2  0  0  0
 45113  1  0  0  0
 46114  1  0  0  0
 47115  1  0  0  0
 47116  1  0  0  0
 48 56  1  0  0  0
 48 65  1  0  0  0
 48117  1  0  0  0
 49 50  1  0  0  0
 49 53  1  0  0  0
 49 64  1  0  0  0
 49118  1  0  0  0
 50 51  1  0  0  0
 50119  1  0  0  0
 50120  1  0  0  0
 51 52  1  0  0  0
 51121  1  0  0  0
 51122  1  0  0  0
 52123  1  0  0  0
 52124  1  0  0  0
 53 54  1  0  0  0
 54 55  2  0  0  0
 54125  1  0  0  0
 55 57  1  0  0  0
 55126  1  0  0  0
 56 69  2  0  0  0
 57 58  2  0  0  0
 57127  1  0  0  0
 58128  1  0  0  0
 59 60  1  0  0  0
 59 61  1  0  0  0
 59 62  1  0  0  0
 60129  1  0  0  0
 60130  1  0  0  0
 60131  1  0  0  0
 61132  1  0  0  0
 61133  1  0  0  0
 61134  1  0  0  0
 62135  1  0  0  0
 62136  1  0  0  0
 62137  1  0  0  0
 63 65  1  0  0  0
 63138  1  0  0  0
 63139  1  0  0  0
 63140  1  0  0  0
 64141  1  0  0  0
 65142  1  0  0  0
 68 79  1  0  0  0
 71 72  1  0  0  0
 71 73  2  0  0  0
 71143  1  0  0  0
 72 74  2  0  0  0
 72 77  1  0  0  0
 73 81  1  0  0  0
 73 83  1  0  0  0
 74 80  1  0  0  0
 74 83  1  0  0  0
 75 78  1  0  0  0
 75 79  1  0  0  0
 75 82  2  0  0  0
 76 77  1  0  0  0
 76144  1  0  0  0
 76145  1  0  0  0
 76146  1  0  0  0
 77147  1  0  0  0
 77148  1  0  0  0
 78 81  1  0  0  0
 78149  1  0  0  0
 78150  1  0  0  0
 79151  1  0  0  0
 79152  1  0  0  0
 80153  1  0  0  0
 81154  1  0  0  0
M  ISO  4   1 100  68 101  79 101  80 100
M  END
> <chiral flag>
0

> <version>
0

> <s_m_source_file>
/data/baiqing/PycharmProjects/Reinvent-master-3.2/result/LINK_invent/BTK/process_docking_weight1_custom_product_contain_oxygen_bond_distance_aromatic_linkinvent_7_9_3/rearranged_h_0152.sdf

> <i_m_source_file_index>
31

> <r_mmod_Potential_Energy-OPLS-2005>
166.925277709961

> <r_mmod_Stretch_Energy-OPLS-2005>
105.337577819824

> <r_mmod_Bend_Energy-OPLS-2005>
190.651397705078

> <r_mmod_Torsional_Energy-OPLS-2005>
207.913635253906

> <r_mmod_Improper_Torsional_Energy-OPLS-2005>
5.07118797302246

> <r_mmod_Van_der_Waal_Energy-OPLS-2005>
114.984001159668

> <r_mmod_Electrostatic_Energy-OPLS-2005>
-287.435241699219

> <r_mmod_Solvation_Energy-OPLS-2005>
-240.598159790039

> <b_mmod_Minimization_Converged-OPLS-2005>
0

> <r_mmod_RMS_Derivative-OPLS-2005>
0.756059050559998

$$$$
31
                    3D
 Structure written by MMmdl.
153162  0  0  1  0            999 V2000
  -30.5706  -14.7230   20.4737 C   0  0  0  0  0  0
  -30.4459  -12.4394   19.4591 C   0  0  0  0  0  0
  -29.5105  -12.5077   18.2294 C   0  0  0  0  0  0
  -28.0358  -12.3278   18.6459 C   0  0  0  0  0  0
  -27.6458  -13.2170   19.8559 C   0  0  2  0  0  0
  -28.6931  -13.1082   20.9868 C   0  0  0  0  0  0
  -25.2541  -13.8166   20.5709 C   0  0  0  0  0  0
  -24.1815  -13.0423   20.9208 C   0  0  0  0  0  0
  -24.6387  -11.6902   20.8754 C   0  0  0  0  0  0
  -23.9063  -10.4285   21.0413 C   0  0  0  0  0  0
  -24.3619   -9.4206   21.9192 C   0  0  0  0  0  0
  -23.6293   -8.2243   22.0761 C   0  0  0  0  0  0
  -22.4277   -8.0278   21.3544 C   0  0  0  0  0  0
  -21.9911   -9.0255   20.4646 C   0  0  0  0  0  0
  -22.7242  -10.2133   20.3057 C   0  0  0  0  0  0
  -21.6852   -6.0742   22.5278 C   0  0  0  0  0  0
  -21.4013   -6.5644   23.8217 C   0  0  0  0  0  0
  -21.3658   -5.6794   24.9176 C   0  0  0  0  0  0
  -21.6045   -4.3056   24.7224 C   0  0  0  0  0  0
  -21.8813   -3.8150   23.4342 C   0  0  0  0  0  0
  -21.9193   -4.6969   22.3400 C   0  0  0  0  0  0
  -22.7842  -13.5216   21.1879 C   0  0  0  0  0  0
  -22.1660   -4.2162   21.0973 F   0  0  0  0  0  0
  -21.5632   -3.4536   25.7732 F   0  0  0  0  0  0
  -29.9966  -13.4755   20.4132 N   0  0  0  0  0  0
  -26.2955  -12.9340   20.3302 N   0  0  0  0  0  0
  -25.9311  -11.6491   20.5761 N   0  0  0  0  0  0
  -22.0480  -12.8206   22.0425 N   0  0  0  0  0  0
  -25.4232  -15.1903   20.4157 N   0  0  0  0  0  0
  -31.7580  -14.8906   20.1780 O   0  0  0  0  0  0
  -21.6636   -6.8882   21.4235 O   0  0  0  0  0  0
  -22.3526  -14.5529   20.6743 O   0  0  0  0  0  0
  -24.6289  -31.8573   23.1969 C   0  0  0  0  0  0
  -25.9120  -32.4774   23.8320 C   0  0  1  0  0  0
  -27.2276  -27.2823   20.1440 C   0  0  0  0  0  0
  -25.5918  -33.8570   24.2258 N   0  0  0  0  0  0
  -23.4246  -30.4780   21.5406 C   0  0  2  0  0  0
  -24.8745  -28.9170   20.1200 C   0  0  0  0  0  0
  -22.7494  -29.4609   22.4919 C   0  0  0  0  0  0
  -18.0290  -28.1412   22.8502 C   0  0  0  0  0  0
  -24.1485  -36.7275   23.2645 C   0  0  0  0  0  0
  -25.9675  -30.7788   21.3703 C   0  0  0  0  0  0
  -26.0442  -29.3974   20.7242 C   0  0  0  0  0  0
  -27.2261  -28.5941   20.7208 C   0  0  0  0  0  0
  -26.0365  -26.8500   19.5267 C   0  0  0  0  0  0
  -24.8736  -27.6492   19.5119 C   0  0  0  0  0  0
  -23.6448  -29.8046   20.1591 C   0  0  0  0  0  0
  -25.4111  -36.3071   24.0335 C   0  0  1  0  0  0
  -20.5900  -28.3698   23.1290 C   0  0  2  0  0  0
  -20.6782  -26.9414   22.5422 C   0  0  0  0  0  0
  -19.5752  -26.6384   21.5239 C   0  0  0  0  0  0
  -18.1929  -26.7964   22.1630 C   0  0  0  0  0  0
  -19.1551  -28.8873   23.2893 C   0  0  0  0  0  0
  -18.9477  -30.1486   23.8901 C   0  0  0  0  0  0
  -17.6478  -30.6612   24.0572 C   0  0  0  0  0  0
  -25.9043  -34.9447   23.5091 C   0  0  0  0  0  0
  -16.5363  -29.9115   23.6344 C   0  0  0  0  0  0
  -16.7282  -28.6532   23.0358 C   0  0  0  0  0  0
  -26.4495  -31.6600   25.0698 C   0  0  0  0  0  0
  -25.3718  -31.3765   26.1421 C   0  0  0  0  0  0
  -27.0333  -30.3020   24.6154 C   0  0  0  0  0  0
  -27.6054  -32.4337   25.7479 C   0  0  0  0  0  0
  -27.5574  -37.1780   24.8473 C   0  0  0  0  0  0
  -21.4199  -29.3047   22.3677 N   0  0  0  0  0  0
  -26.4282  -37.3768   23.9419 N   0  0  0  0  0  0
  -24.6931  -31.0549   22.0937 N   0  0  0  0  0  0
  -23.4215  -28.8136   23.2982 O   0  0  0  0  0  0
  -28.3499  -26.4385   20.0830 O   0  0  0  0  0  0
  -26.5615  -34.8931   22.4660 O   0  0  0  0  0  0
  -23.5442  -32.1391   23.7274 O   0  0  0  0  0  0
  -30.7816  -18.0358   21.0419 C   0  0  0  0  0  0
  -29.7855  -17.1713   20.6149 C   0  0  0  0  0  0
  -29.2486  -19.7407   20.5318 C   0  0  0  0  0  0
  -27.6653  -21.4775   21.7027 C   0  0  0  0  0  0
  -27.2635  -22.9758   21.5979 C   0  0  0  0  0  0
  -29.2178  -22.5626   20.2440 C   0  0  0  0  0  0
  -28.5262  -21.1476   20.4831 C   0  0  1  0  0  0
  -28.1074  -23.6917   20.5055 C   0  0  2  0  0  0
  -28.4413  -25.2232   20.9394 C   0  0  0  0  0  0
  -30.4571  -19.4308   21.0413 N   0  0  0  0  0  0
  -29.6844  -15.7725   20.6319 N   0  0  0  0  0  0
  -28.4291  -18.2022   20.0856 S   0  0  0  0  0  0
  -31.4842  -12.5871   19.1563 H   0  0  0  0  0  0
  -30.4044  -11.4525   19.9219 H   0  0  0  0  0  0
  -29.7885  -11.7446   17.5014 H   0  0  0  0  0  0
  -29.6335  -13.4684   17.7272 H   0  0  0  0  0  0
  -27.8928  -11.2775   18.9011 H   0  0  0  0  0  0
  -27.3742  -12.5256   17.8017 H   0  0  0  0  0  0
  -27.6469  -14.2432   19.4880 H   0  0  0  0  0  0
  -28.7260  -12.0937   21.3866 H   0  0  0  0  0  0
  -28.4321  -13.7534   21.8276 H   0  0  0  0  0  0
  -25.2761   -9.5683   22.4774 H   0  0  0  0  0  0
  -24.0002   -7.4625   22.7475 H   0  0  0  0  0  0
  -21.0854   -8.8764   19.8948 H   0  0  0  0  0  0
  -22.3700  -10.9671   19.6173 H   0  0  0  0  0  0
  -21.1998   -7.6157   23.9725 H   0  0  0  0  0  0
  -21.1489   -6.0525   25.9083 H   0  0  0  0  0  0
  -22.0595   -2.7614   23.2831 H   0  0  0  0  0  0
  -22.4079  -11.9836   22.4768 H   0  0  0  0  0  0
  -21.1116  -13.1246   22.2672 H   0  0  0  0  0  0
  -24.6492  -15.8358   20.5316 H   0  0  0  0  0  0
  -26.2612  -15.6392   20.0720 H   0  0  0  0  0  0
  -26.7177  -32.5435   23.1059 H   0  0  0  0  0  0
  -25.0083  -33.9733   25.0412 H   0  0  0  0  0  0
  -22.7201  -31.2981   21.3892 H   0  0  0  0  0  0
  -23.3769  -35.9584   23.3306 H   0  0  0  0  0  0
  -24.3571  -36.8896   22.2059 H   0  0  0  0  0  0
  -23.7218  -37.6464   23.6669 H   0  0  0  0  0  0
  -26.0956  -31.5367   20.5954 H   0  0  0  0  0  0
  -26.8487  -30.8359   21.9966 H   0  0  0  0  0  0
  -28.1315  -28.9680   21.1796 H   0  0  0  0  0  0
  -26.0086  -25.8773   19.0550 H   0  0  0  0  0  0
  -23.9753  -27.2772   19.0367 H   0  0  0  0  0  0
  -23.7683  -30.5795   19.4011 H   0  0  0  0  0  0
  -22.7651  -29.2349   19.8531 H   0  0  0  0  0  0
  -25.1290  -36.1910   25.0827 H   0  0  0  0  0  0
  -20.9992  -28.3272   24.1408 H   0  0  0  0  0  0
  -20.5699  -26.2301   23.3625 H   0  0  0  0  0  0
  -21.6644  -26.7442   22.1186 H   0  0  0  0  0  0
  -19.6901  -25.6288   21.1276 H   0  0  0  0  0  0
  -19.6706  -27.3195   20.6776 H   0  0  0  0  0  0
  -17.4198  -26.6757   21.4025 H   0  0  0  0  0  0
  -18.0275  -26.0119   22.9028 H   0  0  0  0  0  0
  -19.7966  -30.7308   24.2254 H   0  0  0  0  0  0
  -17.5044  -31.6305   24.5161 H   0  0  0  0  0  0
  -15.5367  -30.3016   23.7699 H   0  0  0  0  0  0
  -15.8681  -28.0863   22.7055 H   0  0  0  0  0  0
  -24.5916  -30.7079   25.7757 H   0  0  0  0  0  0
  -24.8884  -32.2951   26.4769 H   0  0  0  0  0  0
  -25.8040  -30.9008   27.0238 H   0  0  0  0  0  0
  -26.2905  -29.6768   24.1183 H   0  0  0  0  0  0
  -27.4058  -29.7260   25.4636 H   0  0  0  0  0  0
  -27.8761  -30.4315   23.9359 H   0  0  0  0  0  0
  -27.2668  -33.3672   26.1993 H   0  0  0  0  0  0
  -28.3911  -32.6839   25.0334 H   0  0  0  0  0  0
  -28.0665  -31.8494   26.5452 H   0  0  0  0  0  0
  -28.2572  -38.0090   24.7505 H   0  0  0  0  0  0
  -28.1077  -36.2613   24.6297 H   0  0  0  0  0  0
  -27.2293  -37.1420   25.8875 H   0  0  0  0  0  0
  -20.9380  -29.8791   21.6902 H   0  0  0  0  0  0
  -26.0166  -38.2833   24.1444 H   0  0  0  0  0  0
  -31.7430  -17.7421   21.4401 H   0  0  0  0  0  0
  -26.7956  -20.8240   21.7796 H   0  0  0  0  0  0
  -28.2584  -21.3281   22.6059 H   0  0  0  0  0  0
  -27.4101  -23.4313   22.5777 H   0  0  0  0  0  0
  -26.2020  -23.0788   21.3714 H   0  0  0  0  0  0
  -29.6519  -22.6392   19.2470 H   0  0  0  0  0  0
  -30.0353  -22.6845   20.9566 H   0  0  0  0  0  0
  -27.8308  -21.0458   19.6494 H   0  0  0  0  0  0
  -27.4831  -23.7435   19.6121 H   0  0  0  0  0  0
  -29.4579  -25.2174   21.3322 H   0  0  0  0  0  0
  -27.8325  -25.4631   21.8120 H   0  0  0  0  0  0
  -28.7366  -15.4366   20.6970 H   0  0  0  0  0  0
  1 25  1  0  0  0
  1 30  2  0  0  0
  1 81  1  0  0  0
  2  3  1  0  0  0
  2 25  1  0  0  0
  2 83  1  0  0  0
  2 84  1  0  0  0
  3  4  1  0  0  0
  3 85  1  0  0  0
  3 86  1  0  0  0
  4  5  1  0  0  0
  4 87  1  0  0  0
  4 88  1  0  0  0
  5  6  1  0  0  0
  5 26  1  0  0  0
  5 89  1  0  0  0
  6 25  1  0  0  0
  6 90  1  0  0  0
  6 91  1  0  0  0
  7  8  2  0  0  0
  7 26  1  0  0  0
  7 29  1  0  0  0
  8  9  1  0  0  0
  8 22  1  0  0  0
  9 10  1  0  0  0
  9 27  2  0  0  0
 10 11  2  0  0  0
 10 15  1  0  0  0
 11 12  1  0  0  0
 11 92  1  0  0  0
 12 13  2  0  0  0
 12 93  1  0  0  0
 13 14  1  0  0  0
 13 31  1  0  0  0
 14 15  2  0  0  0
 14 94  1  0  0  0
 15 95  1  0  0  0
 16 17  2  0  0  0
 16 21  1  0  0  0
 16 31  1  0  0  0
 17 18  1  0  0  0
 17 96  1  0  0  0
 18 19  2  0  0  0
 18 97  1  0  0  0
 19 20  1  0  0  0
 19 24  1  0  0  0
 20 21  2  0  0  0
 20 98  1  0  0  0
 21 23  1  0  0  0
 22 28  1  0  0  0
 22 32  2  0  0  0
 26 27  1  0  0  0
 28 99  1  0  0  0
 28100  1  0  0  0
 29101  1  0  0  0
 29102  1  0  0  0
 33 34  1  0  0  0
 33 66  1  0  0  0
 33 70  2  0  0  0
 34 36  1  0  0  0
 34 59  1  0  0  0
 34103  1  0  0  0
 35 44  2  0  0  0
 35 45  1  0  0  0
 35 68  1  0  0  0
 36 56  1  0  0  0
 36104  1  0  0  0
 37 39  1  0  0  0
 37 47  1  0  0  0
 37 66  1  0  0  0
 37105  1  0  0  0
 38 43  2  0  0  0
 38 46  1  0  0  0
 38 47  1  0  0  0
 39 64  1  0  0  0
 39 67  2  0  0  0
 40 52  1  0  0  0
 40 53  2  0  0  0
 40 58  1  0  0  0
 41106  1  0  0  0
 41107  1  0  0  0
 41108  1  0  0  0
 41 48  1  0  0  0
 42 43  1  0  0  0
 42 66  1  0  0  0
 42109  1  0  0  0
 42110  1  0  0  0
 43 44  1  0  0  0
 44111  1  0  0  0
 45 46  2  0  0  0
 45112  1  0  0  0
 46113  1  0  0  0
 47114  1  0  0  0
 47115  1  0  0  0
 48 56  1  0  0  0
 48 65  1  0  0  0
 48116  1  0  0  0
 49 50  1  0  0  0
 49 53  1  0  0  0
 49 64  1  0  0  0
 49117  1  0  0  0
 50 51  1  0  0  0
 50118  1  0  0  0
 50119  1  0  0  0
 51 52  1  0  0  0
 51120  1  0  0  0
 51121  1  0  0  0
 52122  1  0  0  0
 52123  1  0  0  0
 53 54  1  0  0  0
 54 55  2  0  0  0
 54124  1  0  0  0
 55 57  1  0  0  0
 55125  1  0  0  0
 56 69  2  0  0  0
 57 58  2  0  0  0
 57126  1  0  0  0
 58127  1  0  0  0
 59 60  1  0  0  0
 59 61  1  0  0  0
 59 62  1  0  0  0
 60128  1  0  0  0
 60129  1  0  0  0
 60130  1  0  0  0
 61131  1  0  0  0
 61132  1  0  0  0
 61133  1  0  0  0
 62134  1  0  0  0
 62135  1  0  0  0
 62136  1  0  0  0
 63 65  1  0  0  0
 63137  1  0  0  0
 63138  1  0  0  0
 63139  1  0  0  0
 64140  1  0  0  0
 65141  1  0  0  0
 68 79  1  0  0  0
 71 72  2  0  0  0
 71 80  1  0  0  0
 71142  1  0  0  0
 72 81  1  0  0  0
 72 82  1  0  0  0
 73 80  2  0  0  0
 73 82  1  0  0  0
 73 77  1  0  0  0
 74 75  1  0  0  0
 74 77  1  0  0  0
 74143  1  0  0  0
 74144  1  0  0  0
 75 78  1  0  0  0
 75145  1  0  0  0
 75146  1  0  0  0
 76 77  1  0  0  0
 76 78  1  0  0  0
 76147  1  0  0  0
 76148  1  0  0  0
 77149  1  0  0  0
 78 79  1  0  0  0
 78150  1  0  0  0
 79151  1  0  0  0
 79152  1  0  0  0
 81153  1  0  0  0
M  ISO  4   1 100  68 101  79 101  81 100
M  END
> <chiral flag>
0

> <version>
0

> <s_m_source_file>
/data/baiqing/PycharmProjects/Reinvent-master-3.2/result/LINK_invent/BTK/process_docking_weight1_custom_product_contain_oxygen_bond_distance_aromatic_linkinvent_7_9_3/rearranged_h_0152.sdf

> <i_m_source_file_index>
32

> <r_mmod_Potential_Energy-OPLS-2005>
212.975128173828

> <r_mmod_Stretch_Energy-OPLS-2005>
99.9095993041992

> <r_mmod_Bend_Energy-OPLS-2005>
218.603164672852

> <r_mmod_Torsional_Energy-OPLS-2005>
278.644012451172

> <r_mmod_Improper_Torsional_Energy-OPLS-2005>
7.02942848205566

> <r_mmod_Van_der_Waal_Energy-OPLS-2005>
106.658782958984

> <r_mmod_Electrostatic_Energy-OPLS-2005>
-358.338226318359

> <r_mmod_Solvation_Energy-OPLS-2005>
-211.205947875977

> <b_mmod_Minimization_Converged-OPLS-2005>
0

> <r_mmod_RMS_Derivative-OPLS-2005>
1.9667546749115

$$$$
32
                    3D
 Structure written by MMmdl.
161170  0  0  1  0            999 V2000
  -30.6320  -14.7507   20.4917 C   0  0  0  0  0  0
  -30.4187  -12.4708   19.4740 C   0  0  0  0  0  0
  -29.4952  -12.5034   18.2375 C   0  0  0  0  0  0
  -28.0284  -12.3135   18.6608 C   0  0  0  0  0  0
  -27.6334  -13.2285   19.8504 C   0  0  2  0  0  0
  -28.6767  -13.1866   20.9869 C   0  0  0  0  0  0
  -25.2472  -13.8197   20.5710 C   0  0  0  0  0  0
  -24.1771  -13.0451   20.9232 C   0  0  0  0  0  0
  -24.6345  -11.6921   20.8773 C   0  0  0  0  0  0
  -23.9043  -10.4302   21.0431 C   0  0  0  0  0  0
  -24.3604   -9.4207   21.9202 C   0  0  0  0  0  0
  -23.6284   -8.2236   22.0756 C   0  0  0  0  0  0
  -22.4278   -8.0274   21.3527 C   0  0  0  0  0  0
  -21.9912   -9.0250   20.4635 C   0  0  0  0  0  0
  -22.7230  -10.2139   20.3061 C   0  0  0  0  0  0
  -21.6853   -6.0736   22.5267 C   0  0  0  0  0  0
  -21.4010   -6.5635   23.8204 C   0  0  0  0  0  0
  -21.3668   -5.6787   24.9169 C   0  0  0  0  0  0
  -21.6040   -4.3052   24.7221 C   0  0  0  0  0  0
  -21.8826   -3.8143   23.4335 C   0  0  0  0  0  0
  -21.9187   -4.6954   22.3392 C   0  0  0  0  0  0
  -22.7793  -13.5226   21.1875 C   0  0  0  0  0  0
  -22.1662   -4.2146   21.0970 F   0  0  0  0  0  0
  -21.5634   -3.4534   25.7732 F   0  0  0  0  0  0
  -29.9704  -13.5443   20.3950 N   0  0  0  0  0  0
  -26.2882  -12.9387   20.3315 N   0  0  0  0  0  0
  -25.9271  -11.6537   20.5797 N   0  0  0  0  0  0
  -22.0447  -12.8209   22.0427 N   0  0  0  0  0  0
  -25.4191  -15.1910   20.4061 N   0  0  0  0  0  0
  -31.8153  -14.7993   20.1409 O   0  0  0  0  0  0
  -21.6634   -6.8872   21.4236 O   0  0  0  0  0  0
  -22.3498  -14.5547   20.6732 O   0  0  0  0  0  0
  -24.6360  -31.8524   23.1948 C   0  0  0  0  0  0
  -25.9145  -32.4749   23.8293 C   0  0  1  0  0  0
  -27.2108  -27.2189   20.1297 C   0  0  0  0  0  0
  -25.5918  -33.8541   24.2219 N   0  0  0  0  0  0
  -23.4381  -30.4701   21.5426 C   0  0  2  0  0  0
  -24.8837  -28.9142   20.1129 C   0  0  0  0  0  0
  -22.7544  -29.4548   22.4923 C   0  0  0  0  0  0
  -18.0298  -28.1388   22.8475 C   0  0  0  0  0  0
  -24.1494  -36.7272   23.2648 C   0  0  0  0  0  0
  -25.9889  -30.7475   21.3876 C   0  0  0  0  0  0
  -26.0602  -29.3682   20.7255 C   0  0  0  0  0  0
  -27.2310  -28.5333   20.7210 C   0  0  0  0  0  0
  -26.0191  -26.8568   19.4693 C   0  0  0  0  0  0
  -24.8693  -27.6659   19.4723 C   0  0  0  0  0  0
  -23.6584  -29.8082   20.1584 C   0  0  0  0  0  0
  -25.4133  -36.3061   24.0312 C   0  0  1  0  0  0
  -20.5903  -28.3694   23.1261 C   0  0  2  0  0  0
  -20.6782  -26.9404   22.5413 C   0  0  0  0  0  0
  -19.5758  -26.6385   21.5209 C   0  0  0  0  0  0
  -18.1936  -26.7931   22.1618 C   0  0  0  0  0  0
  -19.1555  -28.8859   23.2854 C   0  0  0  0  0  0
  -18.9469  -30.1465   23.8875 C   0  0  0  0  0  0
  -17.6478  -30.6593   24.0558 C   0  0  0  0  0  0
  -25.9064  -34.9429   23.5071 C   0  0  0  0  0  0
  -16.5345  -29.9087   23.6342 C   0  0  0  0  0  0
  -16.7270  -28.6505   23.0353 C   0  0  0  0  0  0
  -26.4470  -31.6588   25.0709 C   0  0  0  0  0  0
  -25.3627  -31.3713   26.1384 C   0  0  0  0  0  0
  -27.0358  -30.3014   24.6222 C   0  0  0  0  0  0
  -27.6053  -32.4325   25.7457 C   0  0  0  0  0  0
  -27.5593  -37.1775   24.8453 C   0  0  0  0  0  0
  -21.4246  -29.3023   22.3655 N   0  0  0  0  0  0
  -26.4317  -37.3757   23.9390 N   0  0  0  0  0  0
  -24.7070  -31.0413   22.0971 N   0  0  0  0  0  0
  -23.4209  -28.8100   23.3072 O   0  0  0  0  0  0
  -28.2723  -26.2741   20.1584 O   0  0  0  0  0  0
  -26.5676  -34.8907   22.4664 O   0  0  0  0  0  0
  -23.5485  -32.1375   23.7186 O   0  0  0  0  0  0
  -31.6444  -16.9717   22.1781 C   0  0  0  0  0  0
  -32.1492  -18.0838   22.7733 C   0  0  0  0  0  0
  -30.5210  -17.2033   21.3069 C   0  0  0  0  0  0
  -30.1587  -18.6074   21.2635 C   0  0  0  0  0  0
  -29.0823  -19.5741   20.7854 C   0  0  0  0  0  0
  -30.1455  -23.2227   20.3001 C   0  0  0  0  0  0
  -30.4284  -21.7013   20.0565 C   0  0  0  0  0  0
  -28.1279  -22.0227   20.5322 C   0  0  0  0  0  0
  -28.6528  -23.4543   19.9885 C   0  0  1  0  0  0
  -27.2715  -23.2775   17.9884 C   0  0  0  0  0  0
  -27.9702  -24.8390   20.5734 C   0  0  0  0  0  0
  -29.2145  -20.9542   20.4665 N   0  0  0  0  0  0
  -29.9395  -15.9383   20.7659 N   0  0  0  0  0  0
  -27.8314  -19.0882   20.7930 N   0  3  0  0  0  0
  -28.5555  -23.5165   18.5597 O   0  0  0  0  0  0
  -31.2508  -19.4844   22.3324 S   0  0  0  0  0  0
  -31.4567  -12.5917   19.1619 H   0  0  0  0  0  0
  -30.3726  -11.4995   19.9710 H   0  0  0  0  0  0
  -29.7835  -11.7277   17.5274 H   0  0  0  0  0  0
  -29.6036  -13.4562   17.7173 H   0  0  0  0  0  0
  -27.9026  -11.2670   18.9436 H   0  0  0  0  0  0
  -27.3605  -12.4803   17.8154 H   0  0  0  0  0  0
  -27.6251  -14.2449   19.4571 H   0  0  0  0  0  0
  -28.7186  -12.1941   21.4387 H   0  0  0  0  0  0
  -28.4054  -13.8756   21.7873 H   0  0  0  0  0  0
  -25.2751   -9.5685   22.4775 H   0  0  0  0  0  0
  -23.9991   -7.4633   22.7478 H   0  0  0  0  0  0
  -21.0850   -8.8768   19.8931 H   0  0  0  0  0  0
  -22.3696  -10.9675   19.6168 H   0  0  0  0  0  0
  -21.2005   -7.6148   23.9704 H   0  0  0  0  0  0
  -21.1488   -6.0522   25.9071 H   0  0  0  0  0  0
  -22.0597   -2.7603   23.2837 H   0  0  0  0  0  0
  -22.4090  -11.9863   22.4774 H   0  0  0  0  0  0
  -21.1066  -13.1223   22.2665 H   0  0  0  0  0  0
  -24.6441  -15.8395   20.4867 H   0  0  0  0  0  0
  -26.2413  -15.6055   19.9877 H   0  0  0  0  0  0
  -26.7214  -32.5389   23.1037 H   0  0  0  0  0  0
  -24.9987  -33.9637   25.0306 H   0  0  0  0  0  0
  -22.7365  -31.2942   21.3964 H   0  0  0  0  0  0
  -23.3771  -35.9588   23.3297 H   0  0  0  0  0  0
  -24.3574  -36.8922   22.2063 H   0  0  0  0  0  0
  -23.7234  -37.6449   23.6703 H   0  0  0  0  0  0
  -26.1387  -31.5110   20.6235 H   0  0  0  0  0  0
  -26.8565  -30.7854   22.0322 H   0  0  0  0  0  0
  -28.1346  -28.8702   21.2106 H   0  0  0  0  0  0
  -25.9585  -25.9163   18.9447 H   0  0  0  0  0  0
  -23.9740  -27.3165   18.9770 H   0  0  0  0  0  0
  -23.7881  -30.5847   19.4033 H   0  0  0  0  0  0
  -22.7747  -29.2449   19.8540 H   0  0  0  0  0  0
  -25.1315  -36.1919   25.0804 H   0  0  0  0  0  0
  -20.9966  -28.3282   24.1393 H   0  0  0  0  0  0
  -20.5707  -26.2280   23.3616 H   0  0  0  0  0  0
  -21.6646  -26.7453   22.1194 H   0  0  0  0  0  0
  -19.6920  -25.6297   21.1250 H   0  0  0  0  0  0
  -19.6723  -27.3177   20.6726 H   0  0  0  0  0  0
  -17.4217  -26.6671   21.4016 H   0  0  0  0  0  0
  -18.0333  -26.0080   22.9020 H   0  0  0  0  0  0
  -19.7950  -30.7277   24.2238 H   0  0  0  0  0  0
  -17.5030  -31.6271   24.5165 H   0  0  0  0  0  0
  -15.5355  -30.2975   23.7706 H   0  0  0  0  0  0
  -15.8673  -28.0830   22.7074 H   0  0  0  0  0  0
  -24.5889  -30.6994   25.7644 H   0  0  0  0  0  0
  -24.8696  -32.2838   26.4725 H   0  0  0  0  0  0
  -25.7888  -30.8944   27.0221 H   0  0  0  0  0  0
  -26.2946  -29.6702   24.1308 H   0  0  0  0  0  0
  -27.4098  -29.7345   25.4757 H   0  0  0  0  0  0
  -27.8787  -30.4297   23.9436 H   0  0  0  0  0  0
  -27.2748  -33.3714   26.1900 H   0  0  0  0  0  0
  -28.3893  -32.6717   25.0255 H   0  0  0  0  0  0
  -28.0656  -31.8508   26.5442 H   0  0  0  0  0  0
  -28.2582  -38.0109   24.7574 H   0  0  0  0  0  0
  -28.1140  -36.2638   24.6241 H   0  0  0  0  0  0
  -27.2293  -37.1346   25.8852 H   0  0  0  0  0  0
  -20.9476  -29.8759   21.6837 H   0  0  0  0  0  0
  -26.0203  -38.2825   24.1435 H   0  0  0  0  0  0
  -32.0500  -15.9906   22.3857 H   0  0  0  0  0  0
  -32.9789  -18.1563   23.4667 H   0  0  0  0  0  0
  -30.7870  -23.8543   19.6828 H   0  0  0  0  0  0
  -30.3568  -23.4638   21.3413 H   0  0  0  0  0  0
  -31.3459  -21.3803   20.5421 H   0  0  0  0  0  0
  -30.5593  -21.5261   18.9873 H   0  0  0  0  0  0
  -27.2235  -21.6817   20.0352 H   0  0  0  0  0  0
  -27.8618  -22.1244   21.5855 H   0  0  0  0  0  0
  -26.4624  -23.7673   18.5268 H   0  0  0  0  0  0
  -27.0492  -22.2114   17.9442 H   0  0  0  0  0  0
  -27.2515  -23.6482   16.9641 H   0  0  0  0  0  0
  -28.1543  -24.8241   21.6480 H   0  0  0  0  0  0
  -26.8945  -24.6801   20.5230 H   0  0  0  0  0  0
  -28.9349  -15.8599   20.7794 H   0  0  0  0  0  0
  -27.6531  -18.1502   21.1155 H   0  0  0  0  0  0
  -27.0400  -19.6362   20.4954 H   0  0  0  0  0  0
  1 25  1  0  0  0
  1 30  2  0  0  0
  1 83  1  0  0  0
  2  3  1  0  0  0
  2 25  1  0  0  0
  2 87  1  0  0  0
  2 88  1  0  0  0
  3  4  1  0  0  0
  3 89  1  0  0  0
  3 90  1  0  0  0
  4  5  1  0  0  0
  4 91  1  0  0  0
  4 92  1  0  0  0
  5  6  1  0  0  0
  5 26  1  0  0  0
  5 93  1  0  0  0
  6 25  1  0  0  0
  6 94  1  0  0  0
  6 95  1  0  0  0
  7  8  2  0  0  0
  7 26  1  0  0  0
  7 29  1  0  0  0
  8  9  1  0  0  0
  8 22  1  0  0  0
  9 10  1  0  0  0
  9 27  2  0  0  0
 10 11  2  0  0  0
 10 15  1  0  0  0
 11 12  1  0  0  0
 11 96  1  0  0  0
 12 13  2  0  0  0
 12 97  1  0  0  0
 13 14  1  0  0  0
 13 31  1  0  0  0
 14 15  2  0  0  0
 14 98  1  0  0  0
 15 99  1  0  0  0
 16 17  2  0  0  0
 16 21  1  0  0  0
 16 31  1  0  0  0
 17 18  1  0  0  0
 17100  1  0  0  0
 18 19  2  0  0  0
 18101  1  0  0  0
 19 20  1  0  0  0
 19 24  1  0  0  0
 20 21  2  0  0  0
 20102  1  0  0  0
 21 23  1  0  0  0
 22 28  1  0  0  0
 22 32  2  0  0  0
 26 27  1  0  0  0
 28103  1  0  0  0
 28104  1  0  0  0
 29105  1  0  0  0
 29106  1  0  0  0
 33 34  1  0  0  0
 33 66  1  0  0  0
 33 70  2  0  0  0
 34 36  1  0  0  0
 34 59  1  0  0  0
 34107  1  0  0  0
 35 44  2  0  0  0
 35 45  1  0  0  0
 35 68  1  0  0  0
 36 56  1  0  0  0
 36108  1  0  0  0
 37 39  1  0  0  0
 37 47  1  0  0  0
 37 66  1  0  0  0
 37109  1  0  0  0
 38 43  2  0  0  0
 38 46  1  0  0  0
 38 47  1  0  0  0
 39 64  1  0  0  0
 39 67  2  0  0  0
 40 52  1  0  0  0
 40 53  2  0  0  0
 40 58  1  0  0  0
 41110  1  0  0  0
 41111  1  0  0  0
 41112  1  0  0  0
 41 48  1  0  0  0
 42 43  1  0  0  0
 42 66  1  0  0  0
 42113  1  0  0  0
 42114  1  0  0  0
 43 44  1  0  0  0
 44115  1  0  0  0
 45 46  2  0  0  0
 45116  1  0  0  0
 46117  1  0  0  0
 47118  1  0  0  0
 47119  1  0  0  0
 48 56  1  0  0  0
 48 65  1  0  0  0
 48120  1  0  0  0
 49 50  1  0  0  0
 49 53  1  0  0  0
 49 64  1  0  0  0
 49121  1  0  0  0
 50 51  1  0  0  0
 50122  1  0  0  0
 50123  1  0  0  0
 51 52  1  0  0  0
 51124  1  0  0  0
 51125  1  0  0  0
 52126  1  0  0  0
 52127  1  0  0  0
 53 54  1  0  0  0
 54 55  2  0  0  0
 54128  1  0  0  0
 55 57  1  0  0  0
 55129  1  0  0  0
 56 69  2  0  0  0
 57 58  2  0  0  0
 57130  1  0  0  0
 58131  1  0  0  0
 59 60  1  0  0  0
 59 61  1  0  0  0
 59 62  1  0  0  0
 60132  1  0  0  0
 60133  1  0  0  0
 60134  1  0  0  0
 61135  1  0  0  0
 61136  1  0  0  0
 61137  1  0  0  0
 62138  1  0  0  0
 62139  1  0  0  0
 62140  1  0  0  0
 63 65  1  0  0  0
 63141  1  0  0  0
 63142  1  0  0  0
 63143  1  0  0  0
 64144  1  0  0  0
 65145  1  0  0  0
 68 81  1  0  0  0
 71 72  2  0  0  0
 71 73  1  0  0  0
 71146  1  0  0  0
 72 86  1  0  0  0
 72147  1  0  0  0
 73 74  2  0  0  0
 73 83  1  0  0  0
 74 75  1  0  0  0
 74 86  1  0  0  0
 75 82  1  0  0  0
 75 84  2  0  0  0
 76 77  1  0  0  0
 76 79  1  0  0  0
 76148  1  0  0  0
 76149  1  0  0  0
 77 82  1  0  0  0
 77150  1  0  0  0
 77151  1  0  0  0
 78 79  1  0  0  0
 78 82  1  0  0  0
 78152  1  0  0  0
 78153  1  0  0  0
 79 81  1  0  0  0
 79 85  1  0  0  0
 80 85  1  0  0  0
 80154  1  0  0  0
 80155  1  0  0  0
 80156  1  0  0  0
 81157  1  0  0  0
 81158  1  0  0  0
 83159  1  0  0  0
 84160  1  0  0  0
 84161  1  0  0  0
M  CHG  1  84   1
M  ISO  4   1 100  68 101  81 101  83 100
M  END
> <chiral flag>
0

> <version>
0

> <s_m_source_file>
/data/baiqing/PycharmProjects/Reinvent-master-3.2/result/LINK_invent/BTK/process_docking_weight1_custom_product_contain_oxygen_bond_distance_aromatic_linkinvent_7_9_3/rearranged_h_0152.sdf

> <i_m_source_file_index>
33

> <r_mmod_Potential_Energy-OPLS-2005>
308.764556884766

> <r_mmod_Stretch_Energy-OPLS-2005>
161.190368652344

> <r_mmod_Bend_Energy-OPLS-2005>
265.664031982422

> <r_mmod_Torsional_Energy-OPLS-2005>
332.856384277344

> <r_mmod_Improper_Torsional_Energy-OPLS-2005>
7.74156999588013

> <r_mmod_Van_der_Waal_Energy-OPLS-2005>
133.449447631836

> <r_mmod_Electrostatic_Energy-OPLS-2005>
-223.812438964844

> <r_mmod_Solvation_Energy-OPLS-2005>
-469.768127441406

> <b_mmod_Minimization_Converged-OPLS-2005>
0

> <r_mmod_RMS_Derivative-OPLS-2005>
3.48423314094543

$$$$
33
                    3D
 Structure written by MMmdl.
145153  0  0  1  0            999 V2000
  -30.4107  -15.3295   20.3894 C   0  0  0  0  0  0
  -30.4364  -12.8583   19.5367 C   0  0  0  0  0  0
  -29.5370  -12.5901   18.3027 C   0  0  0  0  0  0
  -28.0906  -12.2987   18.7312 C   0  0  0  0  0  0
  -27.6111  -13.2776   19.8295 C   0  0  2  0  0  0
  -28.6396  -13.4745   20.9645 C   0  0  0  0  0  0
  -25.2391  -13.8259   20.5771 C   0  0  0  0  0  0
  -24.1743  -13.0442   20.9274 C   0  0  0  0  0  0
  -24.6395  -11.6942   20.8767 C   0  0  0  0  0  0
  -23.9095  -10.4292   21.0408 C   0  0  0  0  0  0
  -24.3643   -9.4200   21.9187 C   0  0  0  0  0  0
  -23.6304   -8.2244   22.0746 C   0  0  0  0  0  0
  -22.4286   -8.0286   21.3533 C   0  0  0  0  0  0
  -21.9937   -9.0256   20.4635 C   0  0  0  0  0  0
  -22.7271  -10.2133   20.3047 C   0  0  0  0  0  0
  -21.6859   -6.0734   22.5278 C   0  0  0  0  0  0
  -21.4024   -6.5643   23.8205 C   0  0  0  0  0  0
  -21.3663   -5.6789   24.9165 C   0  0  0  0  0  0
  -21.6041   -4.3055   24.7213 C   0  0  0  0  0  0
  -21.8831   -3.8151   23.4332 C   0  0  0  0  0  0
  -21.9197   -4.6961   22.3392 C   0  0  0  0  0  0
  -22.7757  -13.5177   21.1906 C   0  0  0  0  0  0
  -22.1664   -4.2150   21.0961 F   0  0  0  0  0  0
  -21.5622   -3.4537   25.7723 F   0  0  0  0  0  0
  -29.8607  -14.0083   20.3389 N   0  0  0  0  0  0
  -26.2817  -12.9529   20.3259 N   0  0  0  0  0  0
  -25.9333  -11.6637   20.5758 N   0  0  0  0  0  0
  -22.0440  -12.8134   22.0461 N   0  0  0  0  0  0
  -25.4039  -15.1997   20.4179 N   0  0  0  0  0  0
  -31.6294  -15.3188   20.1562 O   0  0  0  0  0  0
  -21.6650   -6.8881   21.4237 O   0  0  0  0  0  0
  -22.3417  -14.5465   20.6731 O   0  0  0  0  0  0
  -24.6626  -31.8227   23.1669 C   0  0  0  0  0  0
  -25.9293  -32.4602   23.8143 C   0  0  1  0  0  0
  -27.2092  -26.8850   20.2256 C   0  0  0  0  0  0
  -25.5978  -33.8408   24.2071 N   0  0  0  0  0  0
  -23.4782  -30.4352   21.5131 C   0  0  2  0  0  0
  -24.9343  -28.8127   20.1110 C   0  0  0  0  0  0
  -22.7665  -29.4452   22.4727 C   0  0  0  0  0  0
  -18.0319  -28.1451   22.8481 C   0  0  0  0  0  0
  -24.1461  -36.7199   23.2648 C   0  0  0  0  0  0
  -26.0473  -30.6204   21.4008 C   0  0  0  0  0  0
  -26.1107  -29.1998   20.7618 C   0  0  0  0  0  0
  -27.2375  -28.2556   20.7998 C   0  0  0  0  0  0
  -26.0131  -26.6669   19.5017 C   0  0  0  0  0  0
  -24.9141  -27.5684   19.4570 C   0  0  0  0  0  0
  -23.7233  -29.7503   20.1374 C   0  0  0  0  0  0
  -25.4110  -36.2973   24.0314 C   0  0  1  0  0  0
  -20.5954  -28.3786   23.1211 C   0  0  2  0  0  0
  -20.6802  -26.9470   22.5415 C   0  0  0  0  0  0
  -19.5758  -26.6412   21.5247 C   0  0  0  0  0  0
  -18.1947  -26.7995   22.1645 C   0  0  0  0  0  0
  -19.1592  -28.8928   23.2842 C   0  0  0  0  0  0
  -18.9507  -30.1534   23.8865 C   0  0  0  0  0  0
  -17.6504  -30.6639   24.0590 C   0  0  0  0  0  0
  -25.9091  -34.9371   23.5018 C   0  0  0  0  0  0
  -16.5390  -29.9154   23.6363 C   0  0  0  0  0  0
  -16.7313  -28.6574   23.0378 C   0  0  0  0  0  0
  -26.4548  -31.6524   25.0665 C   0  0  0  0  0  0
  -25.3672  -31.3795   26.1316 C   0  0  0  0  0  0
  -27.0424  -30.2898   24.6363 C   0  0  0  0  0  0
  -27.6046  -32.4293   25.7491 C   0  0  0  0  0  0
  -27.5556  -37.1769   24.8484 C   0  0  0  0  0  0
  -21.4326  -29.3078   22.3548 N   0  0  0  0  0  0
  -26.4244  -37.3732   23.9445 N   0  0  0  0  0  0
  -24.7507  -30.9887   22.0813 N   0  0  0  0  0  0
  -23.4231  -28.8020   23.2960 O   0  0  0  0  0  0
  -28.2096  -25.7666   20.3316 O   0  0  0  0  0  0
  -26.5697  -34.8920   22.4606 O   0  0  0  0  0  0
  -23.5694  -32.1197   23.6772 O   0  0  0  0  0  0
  -28.8057  -22.0477   21.6488 C   0  0  0  0  0  0
  -28.4954  -22.7281   20.4432 C   0  0  0  0  0  0
  -29.2266  -19.8406   20.4998 C   0  0  0  0  0  0
  -28.6933  -22.6821   23.0074 C   0  0  0  0  0  0
  -29.9786  -18.2531   20.2235 C   0  0  0  0  0  0
  -29.1991  -20.6078   21.6431 N   0  0  0  0  0  0
  -27.8485  -24.1352   20.0778 N   0  0  0  0  0  0
  -29.6556  -16.6204   20.4993 N   0  0  0  0  0  0
  -28.7000  -21.2333   19.2940 S   0  0  0  0  0  0
  -31.4481  -13.0765   19.1938 H   0  0  0  0  0  0
  -30.5290  -11.9634   20.1527 H   0  0  0  0  0  0
  -29.9298  -11.7588   17.7156 H   0  0  0  0  0  0
  -29.5549  -13.4627   17.6505 H   0  0  0  0  0  0
  -28.0581  -11.2780   19.1129 H   0  0  0  0  0  0
  -27.4199  -12.3294   17.8716 H   0  0  0  0  0  0
  -27.5206  -14.2370   19.3199 H   0  0  0  0  0  0
  -28.8319  -12.5452   21.5031 H   0  0  0  0  0  0
  -28.2644  -14.1866   21.7005 H   0  0  0  0  0  0
  -25.2786   -9.5681   22.4759 H   0  0  0  0  0  0
  -24.0018   -7.4639   22.7470 H   0  0  0  0  0  0
  -21.0865   -8.8762   19.8937 H   0  0  0  0  0  0
  -22.3725  -10.9657   19.6147 H   0  0  0  0  0  0
  -21.2031   -7.6156   23.9705 H   0  0  0  0  0  0
  -21.1470   -6.0522   25.9063 H   0  0  0  0  0  0
  -22.0611   -2.7614   23.2824 H   0  0  0  0  0  0
  -22.4076  -11.9778   22.4800 H   0  0  0  0  0  0
  -21.1048  -13.1105   22.2695 H   0  0  0  0  0  0
  -24.6362  -15.8525   20.5243 H   0  0  0  0  0  0
  -26.2397  -15.6340   20.0471 H   0  0  0  0  0  0
  -26.7363  -32.5150   23.0860 H   0  0  0  0  0  0
  -25.0130  -33.9476   25.0240 H   0  0  0  0  0  0
  -22.7890  -31.2658   21.3410 H   0  0  0  0  0  0
  -23.3729  -35.9527   23.3287 H   0  0  0  0  0  0
  -24.3538  -36.8831   22.2066 H   0  0  0  0  0  0
  -23.7192  -37.6390   23.6680 H   0  0  0  0  0  0
  -26.2161  -31.3467   20.6032 H   0  0  0  0  0  0
  -26.9128  -30.6994   22.0450 H   0  0  0  0  0  0
  -28.1211  -28.5500   21.3463 H   0  0  0  0  0  0
  -25.8862  -25.7209   18.9954 H   0  0  0  0  0  0
  -24.0265  -27.2692   18.9180 H   0  0  0  0  0  0
  -23.8871  -30.5170   19.3777 H   0  0  0  0  0  0
  -22.8286  -29.2153   19.8144 H   0  0  0  0  0  0
  -25.1305  -36.1760   25.0806 H   0  0  0  0  0  0
  -21.0104  -28.3391   24.1320 H   0  0  0  0  0  0
  -20.5715  -26.2424   23.3669 H   0  0  0  0  0  0
  -21.6676  -26.7475   22.1214 H   0  0  0  0  0  0
  -19.6927  -25.6315   21.1310 H   0  0  0  0  0  0
  -19.6695  -27.3215   20.6765 H   0  0  0  0  0  0
  -17.4242  -26.6776   21.4028 H   0  0  0  0  0  0
  -18.0278  -26.0158   22.9033 H   0  0  0  0  0  0
  -19.7975  -30.7375   24.2216 H   0  0  0  0  0  0
  -17.5057  -31.6315   24.5208 H   0  0  0  0  0  0
  -15.5402  -30.3066   23.7689 H   0  0  0  0  0  0
  -15.8700  -28.0896   22.7118 H   0  0  0  0  0  0
  -24.5922  -30.7043   25.7685 H   0  0  0  0  0  0
  -24.8769  -32.3003   26.4475 H   0  0  0  0  0  0
  -25.7906  -30.9177   27.0240 H   0  0  0  0  0  0
  -26.3110  -29.6603   24.1289 H   0  0  0  0  0  0
  -27.3904  -29.7223   25.5000 H   0  0  0  0  0  0
  -27.9071  -30.4097   23.9845 H   0  0  0  0  0  0
  -27.2654  -33.3674   26.1881 H   0  0  0  0  0  0
  -28.3988  -32.6670   25.0410 H   0  0  0  0  0  0
  -28.0545  -31.8480   26.5542 H   0  0  0  0  0  0
  -28.2588  -38.0069   24.7562 H   0  0  0  0  0  0
  -28.1033  -36.2596   24.6256 H   0  0  0  0  0  0
  -27.2278  -37.1375   25.8892 H   0  0  0  0  0  0
  -20.9547  -29.8765   21.6686 H   0  0  0  0  0  0
  -26.0060  -38.2773   24.1471 H   0  0  0  0  0  0
  -28.7800  -23.7682   22.9619 H   0  0  0  0  0  0
  -29.4692  -22.3264   23.6866 H   0  0  0  0  0  0
  -27.7295  -22.4587   23.4697 H   0  0  0  0  0  0
  -30.9701  -18.3647   20.6607 H   0  0  0  0  0  0
  -30.1797  -18.2668   19.1515 H   0  0  0  0  0  0
  -26.8987  -24.0839   19.7154 H   0  0  0  0  0  0
  -28.6776  -16.4630   20.6917 H   0  0  0  0  0  0
  1 25  1  0  0  0
  1 30  2  0  0  0
  1 78  1  0  0  0
  2  3  1  0  0  0
  2 25  1  0  0  0
  2 80  1  0  0  0
  2 81  1  0  0  0
  3  4  1  0  0  0
  3 82  1  0  0  0
  3 83  1  0  0  0
  4  5  1  0  0  0
  4 84  1  0  0  0
  4 85  1  0  0  0
  5  6  1  0  0  0
  5 26  1  0  0  0
  5 86  1  0  0  0
  6 25  1  0  0  0
  6 87  1  0  0  0
  6 88  1  0  0  0
  7  8  2  0  0  0
  7 26  1  0  0  0
  7 29  1  0  0  0
  8  9  1  0  0  0
  8 22  1  0  0  0
  9 10  1  0  0  0
  9 27  2  0  0  0
 10 11  2  0  0  0
 10 15  1  0  0  0
 11 12  1  0  0  0
 11 89  1  0  0  0
 12 13  2  0  0  0
 12 90  1  0  0  0
 13 14  1  0  0  0
 13 31  1  0  0  0
 14 15  2  0  0  0
 14 91  1  0  0  0
 15 92  1  0  0  0
 16 17  2  0  0  0
 16 21  1  0  0  0
 16 31  1  0  0  0
 17 18  1  0  0  0
 17 93  1  0  0  0
 18 19  2  0  0  0
 18 94  1  0  0  0
 19 20  1  0  0  0
 19 24  1  0  0  0
 20 21  2  0  0  0
 20 95  1  0  0  0
 21 23  1  0  0  0
 22 28  1  0  0  0
 22 32  2  0  0  0
 26 27  1  0  0  0
 28 96  1  0  0  0
 28 97  1  0  0  0
 29 98  1  0  0  0
 29 99  1  0  0  0
 33 34  1  0  0  0
 33 66  1  0  0  0
 33 70  2  0  0  0
 34 36  1  0  0  0
 34 59  1  0  0  0
 34100  1  0  0  0
 35 44  2  0  0  0
 35 45  1  0  0  0
 35 68  1  0  0  0
 36 56  1  0  0  0
 36101  1  0  0  0
 37 39  1  0  0  0
 37 47  1  0  0  0
 37 66  1  0  0  0
 37102  1  0  0  0
 38 43  2  0  0  0
 38 46  1  0  0  0
 38 47  1  0  0  0
 39 64  1  0  0  0
 39 67  2  0  0  0
 40 52  1  0  0  0
 40 53  2  0  0  0
 40 58  1  0  0  0
 41103  1  0  0  0
 41104  1  0  0  0
 41105  1  0  0  0
 41 48  1  0  0  0
 42 43  1  0  0  0
 42 66  1  0  0  0
 42106  1  0  0  0
 42107  1  0  0  0
 43 44  1  0  0  0
 44108  1  0  0  0
 45 46  2  0  0  0
 45109  1  0  0  0
 46110  1  0  0  0
 47111  1  0  0  0
 47112  1  0  0  0
 48 56  1  0  0  0
 48 65  1  0  0  0
 48113  1  0  0  0
 49 50  1  0  0  0
 49 53  1  0  0  0
 49 64  1  0  0  0
 49114  1  0  0  0
 50 51  1  0  0  0
 50115  1  0  0  0
 50116  1  0  0  0
 51 52  1  0  0  0
 51117  1  0  0  0
 51118  1  0  0  0
 52119  1  0  0  0
 52120  1  0  0  0
 53 54  1  0  0  0
 54 55  2  0  0  0
 54121  1  0  0  0
 55 57  1  0  0  0
 55122  1  0  0  0
 56 69  2  0  0  0
 57 58  2  0  0  0
 57123  1  0  0  0
 58124  1  0  0  0
 59 60  1  0  0  0
 59 61  1  0  0  0
 59 62  1  0  0  0
 60125  1  0  0  0
 60126  1  0  0  0
 60127  1  0  0  0
 61128  1  0  0  0
 61129  1  0  0  0
 61130  1  0  0  0
 62131  1  0  0  0
 62132  1  0  0  0
 62133  1  0  0  0
 63 65  1  0  0  0
 63134  1  0  0  0
 63135  1  0  0  0
 63136  1  0  0  0
 64137  1  0  0  0
 65138  1  0  0  0
 68 77  1  0  0  0
 71 72  2  0  0  0
 71 74  1  0  0  0
 71 76  1  0  0  0
 72 77  1  0  0  0
 72 79  1  0  0  0
 73 75  1  0  0  0
 73 76  2  0  0  0
 73 79  1  0  0  0
 74139  1  0  0  0
 74140  1  0  0  0
 74141  1  0  0  0
 75 78  1  0  0  0
 75142  1  0  0  0
 75143  1  0  0  0
 77144  1  0  0  0
 78145  1  0  0  0
M  ISO  4   1 100  68 101  77 101  78 100
M  END
> <chiral flag>
0

> <version>
0

> <s_m_source_file>
/data/baiqing/PycharmProjects/Reinvent-master-3.2/result/LINK_invent/BTK/process_docking_weight1_custom_product_contain_oxygen_bond_distance_aromatic_linkinvent_7_9_3/rearranged_h_0152.sdf

> <i_m_source_file_index>
34

> <r_mmod_Potential_Energy-OPLS-2005>
1314.92077636719

> <r_mmod_Stretch_Energy-OPLS-2005>
604.926086425781

> <r_mmod_Bend_Energy-OPLS-2005>
519.517333984375

> <r_mmod_Torsional_Energy-OPLS-2005>
216.751846313477

> <r_mmod_Improper_Torsional_Energy-OPLS-2005>
8.60793018341064

> <r_mmod_Van_der_Waal_Energy-OPLS-2005>
107.808265686035

> <r_mmod_Electrostatic_Energy-OPLS-2005>
-427.325500488281

> <r_mmod_Solvation_Energy-OPLS-2005>
-239.966033935547

> <b_mmod_Minimization_Converged-OPLS-2005>
0

> <r_mmod_RMS_Derivative-OPLS-2005>
3.54410028457642

$$$$
34
                    3D
 Structure written by MMmdl.
152160  0  0  1  0            999 V2000
  -30.6887  -14.7151   20.4357 C   0  0  0  0  0  0
  -30.4232  -12.4308   19.5058 C   0  0  0  0  0  0
  -29.5169  -12.4820   18.2558 C   0  0  0  0  0  0
  -28.0442  -12.3308   18.6668 C   0  0  0  0  0  0
  -27.6560  -13.2343   19.8656 C   0  0  2  0  0  0
  -28.7027  -13.2117   21.0102 C   0  0  0  0  0  0
  -25.2649  -13.8250   20.5741 C   0  0  0  0  0  0
  -24.1901  -13.0485   20.9186 C   0  0  0  0  0  0
  -24.6475  -11.6973   20.8755 C   0  0  0  0  0  0
  -23.9114  -10.4350   21.0419 C   0  0  0  0  0  0
  -24.3688   -9.4265   21.9158 C   0  0  0  0  0  0
  -23.6361   -8.2307   22.0739 C   0  0  0  0  0  0
  -22.4332   -8.0330   21.3527 C   0  0  0  0  0  0
  -21.9954   -9.0313   20.4625 C   0  0  0  0  0  0
  -22.7290  -10.2189   20.3047 C   0  0  0  0  0  0
  -21.6894   -6.0770   22.5271 C   0  0  0  0  0  0
  -21.4033   -6.5658   23.8200 C   0  0  0  0  0  0
  -21.3669   -5.6800   24.9166 C   0  0  0  0  0  0
  -21.6049   -4.3059   24.7213 C   0  0  0  0  0  0
  -21.8832   -3.8159   23.4321 C   0  0  0  0  0  0
  -21.9217   -4.6983   22.3393 C   0  0  0  0  0  0
  -22.7917  -13.5274   21.1791 C   0  0  0  0  0  0
  -22.1669   -4.2186   21.0960 F   0  0  0  0  0  0
  -21.5642   -3.4512   25.7693 F   0  0  0  0  0  0
  -30.0128  -13.5162   20.4308 N   0  0  0  0  0  0
  -26.3060  -12.9436   20.3372 N   0  0  0  0  0  0
  -25.9414  -11.6601   20.5843 N   0  0  0  0  0  0
  -22.0551  -12.8262   22.0327 N   0  0  0  0  0  0
  -25.4384  -15.1980   20.4279 N   0  0  0  0  0  0
  -31.8425  -14.7731   20.0019 O   0  0  0  0  0  0
  -21.6701   -6.8910   21.4216 O   0  0  0  0  0  0
  -22.3621  -14.5583   20.6638 O   0  0  0  0  0  0
  -24.6324  -31.8542   23.2027 C   0  0  0  0  0  0
  -25.9121  -32.4770   23.8377 C   0  0  1  0  0  0
  -27.2267  -27.2523   20.1244 C   0  0  0  0  0  0
  -25.5912  -33.8576   24.2277 N   0  0  0  0  0  0
  -23.4326  -30.4771   21.5451 C   0  0  2  0  0  0
  -24.8814  -28.9261   20.1141 C   0  0  0  0  0  0
  -22.7526  -29.4586   22.4912 C   0  0  0  0  0  0
  -18.0288  -28.1368   22.8476 C   0  0  0  0  0  0
  -24.1484  -36.7260   23.2641 C   0  0  0  0  0  0
  -25.9832  -30.7608   21.3963 C   0  0  0  0  0  0
  -26.0536  -29.3883   20.7243 C   0  0  0  0  0  0
  -27.2298  -28.5626   20.7185 C   0  0  0  0  0  0
  -26.0255  -26.8695   19.4823 C   0  0  0  0  0  0
  -24.8708  -27.6721   19.4879 C   0  0  0  0  0  0
  -23.6558  -29.8196   20.1606 C   0  0  0  0  0  0
  -25.4125  -36.3077   24.0328 C   0  0  1  0  0  0
  -20.5910  -28.3682   23.1264 C   0  0  2  0  0  0
  -20.6766  -26.9385   22.5423 C   0  0  0  0  0  0
  -19.5755  -26.6356   21.5214 C   0  0  0  0  0  0
  -18.1927  -26.7922   22.1595 C   0  0  0  0  0  0
  -19.1539  -28.8843   23.2868 C   0  0  0  0  0  0
  -18.9465  -30.1449   23.8888 C   0  0  0  0  0  0
  -17.6460  -30.6577   24.0554 C   0  0  0  0  0  0
  -25.9067  -34.9448   23.5118 C   0  0  0  0  0  0
  -16.5359  -29.9066   23.6334 C   0  0  0  0  0  0
  -16.7271  -28.6479   23.0368 C   0  0  0  0  0  0
  -26.4458  -31.6629   25.0809 C   0  0  0  0  0  0
  -25.3642  -31.3804   26.1517 C   0  0  0  0  0  0
  -27.0317  -30.3026   24.6386 C   0  0  0  0  0  0
  -27.6023  -32.4380   25.7558 C   0  0  0  0  0  0
  -27.5598  -37.1793   24.8461 C   0  0  0  0  0  0
  -21.4236  -29.3029   22.3655 N   0  0  0  0  0  0
  -26.4303  -37.3781   23.9416 N   0  0  0  0  0  0
  -24.6993  -31.0507   22.1022 N   0  0  0  0  0  0
  -23.4212  -28.8100   23.3013 O   0  0  0  0  0  0
  -28.3145  -26.3417   20.1824 O   0  0  0  0  0  0
  -26.5649  -34.8908   22.4700 O   0  0  0  0  0  0
  -23.5458  -32.1378   23.7267 O   0  0  0  0  0  0
  -30.9772  -20.0933   22.3828 C   0  0  0  0  0  0
  -30.8361  -18.8210   21.8039 C   0  0  0  0  0  0
  -30.3555  -21.2347   21.8352 C   0  0  0  0  0  0
  -29.4399  -19.8294   20.0757 C   0  0  0  0  0  0
  -30.0630  -18.6296   20.6432 C   0  0  0  0  0  0
  -29.5780  -21.1694   20.6542 C   0  0  0  0  0  0
  -30.1304  -17.2164   20.0429 C   0  0  0  0  0  0
  -29.0954  -23.7663   20.4297 C   0  0  0  0  0  0
  -28.0384  -24.8731   19.9393 C   0  0  0  0  0  0
  -28.9263  -22.4126   20.1299 N   0  0  0  0  0  0
  -30.0155  -16.0105   20.7426 N   0  0  0  0  0  0
  -30.3829  -17.1864   18.7282 N   0  3  0  0  0  0
  -30.0752  -24.1563   21.0676 O   0  0  0  0  0  0
  -31.4701  -12.5098   19.2085 H   0  0  0  0  0  0
  -30.3298  -11.4632   19.9989 H   0  0  0  0  0  0
  -29.7901  -11.6817   17.5655 H   0  0  0  0  0  0
  -29.6611  -13.4193   17.7166 H   0  0  0  0  0  0
  -27.8990  -11.2863   18.9412 H   0  0  0  0  0  0
  -27.3911  -12.5242   17.8143 H   0  0  0  0  0  0
  -27.6518  -14.2491   19.4673 H   0  0  0  0  0  0
  -28.7363  -12.2496   21.5249 H   0  0  0  0  0  0
  -28.4491  -13.9554   21.7661 H   0  0  0  0  0  0
  -25.2846   -9.5764   22.4712 H   0  0  0  0  0  0
  -24.0093   -7.4717   22.7486 H   0  0  0  0  0  0
  -21.0856   -8.8838   19.8956 H   0  0  0  0  0  0
  -22.3725  -10.9746   19.6182 H   0  0  0  0  0  0
  -21.2011   -7.6168   23.9703 H   0  0  0  0  0  0
  -21.1465   -6.0525   25.9064 H   0  0  0  0  0  0
  -22.0594   -2.7625   23.2808 H   0  0  0  0  0  0
  -22.4187  -11.9937   22.4732 H   0  0  0  0  0  0
  -21.1160  -13.1266   22.2479 H   0  0  0  0  0  0
  -24.6791  -15.8574   20.5627 H   0  0  0  0  0  0
  -26.2953  -15.6413   20.1263 H   0  0  0  0  0  0
  -26.7206  -32.5394   23.1124 H   0  0  0  0  0  0
  -25.0031  -33.9729   25.0399 H   0  0  0  0  0  0
  -22.7291  -31.2989   21.3997 H   0  0  0  0  0  0
  -23.3783  -35.9562   23.3303 H   0  0  0  0  0  0
  -24.3573  -36.8881   22.2059 H   0  0  0  0  0  0
  -23.7193  -37.6434   23.6673 H   0  0  0  0  0  0
  -26.1557  -31.5300   20.6420 H   0  0  0  0  0  0
  -26.8470  -30.7819   22.0515 H   0  0  0  0  0  0
  -28.1230  -28.9134   21.2133 H   0  0  0  0  0  0
  -25.9388  -25.9194   18.9797 H   0  0  0  0  0  0
  -23.9677  -27.3115   19.0106 H   0  0  0  0  0  0
  -23.7963  -30.6017   19.4124 H   0  0  0  0  0  0
  -22.7741  -29.2597   19.8450 H   0  0  0  0  0  0
  -25.1313  -36.1932   25.0822 H   0  0  0  0  0  0
  -20.9981  -28.3244   24.1401 H   0  0  0  0  0  0
  -20.5617  -26.2296   23.3642 H   0  0  0  0  0  0
  -21.6645  -26.7373   22.1261 H   0  0  0  0  0  0
  -19.6916  -25.6259   21.1275 H   0  0  0  0  0  0
  -19.6729  -27.3149   20.6738 H   0  0  0  0  0  0
  -17.4226  -26.6704   21.3977 H   0  0  0  0  0  0
  -18.0284  -26.0057   22.8969 H   0  0  0  0  0  0
  -19.7946  -30.7260   24.2263 H   0  0  0  0  0  0
  -17.5021  -31.6262   24.5135 H   0  0  0  0  0  0
  -15.5362  -30.2965   23.7667 H   0  0  0  0  0  0
  -15.8673  -28.0788   22.7120 H   0  0  0  0  0  0
  -24.5865  -30.7101   25.7846 H   0  0  0  0  0  0
  -24.8773  -32.2974   26.4851 H   0  0  0  0  0  0
  -25.7931  -30.9063   27.0355 H   0  0  0  0  0  0
  -26.2948  -29.6791   24.1324 H   0  0  0  0  0  0
  -27.3833  -29.7305   25.4977 H   0  0  0  0  0  0
  -27.8897  -30.4273   23.9782 H   0  0  0  0  0  0
  -27.2657  -33.3697   26.2116 H   0  0  0  0  0  0
  -28.3826  -32.6918   25.0370 H   0  0  0  0  0  0
  -28.0709  -31.8528   26.5479 H   0  0  0  0  0  0
  -28.2599  -38.0093   24.7538 H   0  0  0  0  0  0
  -28.1096  -36.2644   24.6252 H   0  0  0  0  0  0
  -27.2326  -37.1390   25.8853 H   0  0  0  0  0  0
  -20.9412  -29.8766   21.6882 H   0  0  0  0  0  0
  -26.0179  -38.2856   24.1417 H   0  0  0  0  0  0
  -31.5964  -20.2067   23.2619 H   0  0  0  0  0  0
  -31.3742  -17.9885   22.2382 H   0  0  0  0  0  0
  -30.4940  -22.1655   22.3673 H   0  0  0  0  0  0
  -28.8636  -19.7217   19.1650 H   0  0  0  0  0  0
  -27.1115  -24.6176   20.4513 H   0  0  0  0  0  0
  -27.8511  -24.7149   18.8788 H   0  0  0  0  0  0
  -28.1975  -22.2418   19.4524 H   0  0  0  0  0  0
  -29.3104  -16.0675   21.4554 H   0  0  0  0  0  0
  -30.5204  -18.0485   18.2263 H   0  0  0  0  0  0
  -30.5503  -16.3219   18.2333 H   0  0  0  0  0  0
  1 25  1  0  0  0
  1 30  2  0  0  0
  1 81  1  0  0  0
  2  3  1  0  0  0
  2 25  1  0  0  0
  2 84  1  0  0  0
  2 85  1  0  0  0
  3  4  1  0  0  0
  3 86  1  0  0  0
  3 87  1  0  0  0
  4  5  1  0  0  0
  4 88  1  0  0  0
  4 89  1  0  0  0
  5  6  1  0  0  0
  5 26  1  0  0  0
  5 90  1  0  0  0
  6 25  1  0  0  0
  6 91  1  0  0  0
  6 92  1  0  0  0
  7  8  2  0  0  0
  7 26  1  0  0  0
  7 29  1  0  0  0
  8  9  1  0  0  0
  8 22  1  0  0  0
  9 10  1  0  0  0
  9 27  2  0  0  0
 10 11  2  0  0  0
 10 15  1  0  0  0
 11 12  1  0  0  0
 11 93  1  0  0  0
 12 13  2  0  0  0
 12 94  1  0  0  0
 13 14  1  0  0  0
 13 31  1  0  0  0
 14 15  2  0  0  0
 14 95  1  0  0  0
 15 96  1  0  0  0
 16 17  2  0  0  0
 16 21  1  0  0  0
 16 31  1  0  0  0
 17 18  1  0  0  0
 17 97  1  0  0  0
 18 19  2  0  0  0
 18 98  1  0  0  0
 19 20  1  0  0  0
 19 24  1  0  0  0
 20 21  2  0  0  0
 20 99  1  0  0  0
 21 23  1  0  0  0
 22 28  1  0  0  0
 22 32  2  0  0  0
 26 27  1  0  0  0
 28100  1  0  0  0
 28101  1  0  0  0
 29102  1  0  0  0
 29103  1  0  0  0
 33 34  1  0  0  0
 33 66  1  0  0  0
 33 70  2  0  0  0
 34 36  1  0  0  0
 34 59  1  0  0  0
 34104  1  0  0  0
 35 44  2  0  0  0
 35 45  1  0  0  0
 35 68  1  0  0  0
 36 56  1  0  0  0
 36105  1  0  0  0
 37 39  1  0  0  0
 37 47  1  0  0  0
 37 66  1  0  0  0
 37106  1  0  0  0
 38 43  2  0  0  0
 38 46  1  0  0  0
 38 47  1  0  0  0
 39 64  1  0  0  0
 39 67  2  0  0  0
 40 52  1  0  0  0
 40 53  2  0  0  0
 40 58  1  0  0  0
 41107  1  0  0  0
 41108  1  0  0  0
 41109  1  0  0  0
 41 48  1  0  0  0
 42 43  1  0  0  0
 42 66  1  0  0  0
 42110  1  0  0  0
 42111  1  0  0  0
 43 44  1  0  0  0
 44112  1  0  0  0
 45 46  2  0  0  0
 45113  1  0  0  0
 46114  1  0  0  0
 47115  1  0  0  0
 47116  1  0  0  0
 48 56  1  0  0  0
 48 65  1  0  0  0
 48117  1  0  0  0
 49 50  1  0  0  0
 49 53  1  0  0  0
 49 64  1  0  0  0
 49118  1  0  0  0
 50 51  1  0  0  0
 50119  1  0  0  0
 50120  1  0  0  0
 51 52  1  0  0  0
 51121  1  0  0  0
 51122  1  0  0  0
 52123  1  0  0  0
 52124  1  0  0  0
 53 54  1  0  0  0
 54 55  2  0  0  0
 54125  1  0  0  0
 55 57  1  0  0  0
 55126  1  0  0  0
 56 69  2  0  0  0
 57 58  2  0  0  0
 57127  1  0  0  0
 58128  1  0  0  0
 59 60  1  0  0  0
 59 61  1  0  0  0
 59 62  1  0  0  0
 60129  1  0  0  0
 60130  1  0  0  0
 60131  1  0  0  0
 61132  1  0  0  0
 61133  1  0  0  0
 61134  1  0  0  0
 62135  1  0  0  0
 62136  1  0  0  0
 62137  1  0  0  0
 63 65  1  0  0  0
 63138  1  0  0  0
 63139  1  0  0  0
 63140  1  0  0  0
 64141  1  0  0  0
 65142  1  0  0  0
 68 79  1  0  0  0
 71 72  2  0  0  0
 71 73  1  0  0  0
 71143  1  0  0  0
 72 75  1  0  0  0
 72144  1  0  0  0
 73 76  2  0  0  0
 73145  1  0  0  0
 74 75  2  0  0  0
 74 76  1  0  0  0
 74146  1  0  0  0
 75 77  1  0  0  0
 76 80  1  0  0  0
 77 81  1  0  0  0
 77 82  2  0  0  0
 78 79  1  0  0  0
 78 80  1  0  0  0
 78 83  2  0  0  0
 79147  1  0  0  0
 79148  1  0  0  0
 80149  1  0  0  0
 81150  1  0  0  0
 82151  1  0  0  0
 82152  1  0  0  0
M  CHG  1  82   1
M  ISO  4   1 100  68 101  79 101  81 100
M  END
> <chiral flag>
0

> <version>
0

> <s_m_source_file>
/data/baiqing/PycharmProjects/Reinvent-master-3.2/result/LINK_invent/BTK/process_docking_weight1_custom_product_contain_oxygen_bond_distance_aromatic_linkinvent_7_9_3/rearranged_h_0152.sdf

> <i_m_source_file_index>
35

> <r_mmod_Potential_Energy-OPLS-2005>
-73.8129806518555

> <r_mmod_Stretch_Energy-OPLS-2005>
132.522567749023

> <r_mmod_Bend_Energy-OPLS-2005>
168.196594238281

> <r_mmod_Torsional_Energy-OPLS-2005>
264.969421386719

> <r_mmod_Improper_Torsional_Energy-OPLS-2005>
5.75222682952881

> <r_mmod_Van_der_Waal_Energy-OPLS-2005>
147.499465942383

> <r_mmod_Electrostatic_Energy-OPLS-2005>
-393.243499755859

> <r_mmod_Solvation_Energy-OPLS-2005>
-485.521118164062

> <b_mmod_Minimization_Converged-OPLS-2005>
0

> <r_mmod_RMS_Derivative-OPLS-2005>
6.538987159729

$$$$
35
                    3D
 Structure written by MMmdl.
159168  0  0  1  0            999 V2000
  -30.6000  -14.7744   20.4693 C   0  0  0  0  0  0
  -30.4612  -12.4772   19.4780 C   0  0  0  0  0  0
  -29.5317  -12.5208   18.2425 C   0  0  0  0  0  0
  -28.0513  -12.3569   18.6436 C   0  0  0  0  0  0
  -27.6540  -13.2402   19.8575 C   0  0  2  0  0  0
  -28.7048  -13.1463   20.9901 C   0  0  0  0  0  0
  -25.2529  -13.8224   20.5679 C   0  0  0  0  0  0
  -24.1822  -13.0461   20.9216 C   0  0  0  0  0  0
  -24.6439  -11.6948   20.8748 C   0  0  0  0  0  0
  -23.9107  -10.4322   21.0380 C   0  0  0  0  0  0
  -24.3640   -9.4229   21.9151 C   0  0  0  0  0  0
  -23.6338   -8.2243   22.0717 C   0  0  0  0  0  0
  -22.4311   -8.0272   21.3526 C   0  0  0  0  0  0
  -21.9953   -9.0252   20.4624 C   0  0  0  0  0  0
  -22.7275  -10.2148   20.3032 C   0  0  0  0  0  0
  -21.6832   -6.0747   22.5299 C   0  0  0  0  0  0
  -21.3974   -6.5630   23.8236 C   0  0  0  0  0  0
  -21.3677   -5.6774   24.9196 C   0  0  0  0  0  0
  -21.6077   -4.3047   24.7237 C   0  0  0  0  0  0
  -21.8821   -3.8141   23.4346 C   0  0  0  0  0  0
  -21.9174   -4.6964   22.3411 C   0  0  0  0  0  0
  -22.7826  -13.5219   21.1908 C   0  0  0  0  0  0
  -22.1659   -4.2159   21.0985 F   0  0  0  0  0  0
  -21.5686   -3.4527   25.7745 F   0  0  0  0  0  0
  -30.0112  -13.5243   20.4286 N   0  0  0  0  0  0
  -26.3005  -12.9460   20.3299 N   0  0  0  0  0  0
  -25.9379  -11.6607   20.5752 N   0  0  0  0  0  0
  -22.0446  -12.8242   22.0466 N   0  0  0  0  0  0
  -25.4187  -15.1959   20.4061 N   0  0  0  0  0  0
  -31.7494  -14.9211   20.0378 O   0  0  0  0  0  0
  -21.6638   -6.8896   21.4260 O   0  0  0  0  0  0
  -22.3538  -14.5543   20.6767 O   0  0  0  0  0  0
  -24.6426  -31.8437   23.1873 C   0  0  0  0  0  0
  -25.9206  -32.4700   23.8280 C   0  0  1  0  0  0
  -27.2472  -27.1986   20.1260 C   0  0  0  0  0  0
  -25.5949  -33.8504   24.2191 N   0  0  0  0  0  0
  -23.4490  -30.4647   21.5281 C   0  0  2  0  0  0
  -24.8977  -28.8916   20.1110 C   0  0  0  0  0  0
  -22.7601  -29.4555   22.4819 C   0  0  0  0  0  0
  -18.0310  -28.1415   22.8497 C   0  0  0  0  0  0
  -24.1489  -36.7283   23.2643 C   0  0  0  0  0  0
  -26.0006  -30.7422   21.3694 C   0  0  0  0  0  0
  -26.0738  -29.3563   20.7133 C   0  0  0  0  0  0
  -27.2466  -28.5252   20.6959 C   0  0  0  0  0  0
  -26.0315  -26.7988   19.5281 C   0  0  0  0  0  0
  -24.8858  -27.6236   19.5057 C   0  0  0  0  0  0
  -23.6760  -29.7904   20.1474 C   0  0  0  0  0  0
  -25.4114  -36.3031   24.0324 C   0  0  1  0  0  0
  -20.5930  -28.3727   23.1249 C   0  0  2  0  0  0
  -20.6790  -26.9424   22.5420 C   0  0  0  0  0  0
  -19.5749  -26.6375   21.5246 C   0  0  0  0  0  0
  -18.1930  -26.7954   22.1642 C   0  0  0  0  0  0
  -19.1573  -28.8883   23.2870 C   0  0  0  0  0  0
  -18.9483  -30.1475   23.8907 C   0  0  0  0  0  0
  -17.6480  -30.6610   24.0566 C   0  0  0  0  0  0
  -25.9064  -34.9419   23.5059 C   0  0  0  0  0  0
  -16.5366  -29.9134   23.6315 C   0  0  0  0  0  0
  -16.7292  -28.6544   23.0347 C   0  0  0  0  0  0
  -26.4500  -31.6571   25.0719 C   0  0  0  0  0  0
  -25.3697  -31.3796   26.1433 C   0  0  0  0  0  0
  -27.0328  -30.2969   24.6256 C   0  0  0  0  0  0
  -27.6017  -32.4342   25.7509 C   0  0  0  0  0  0
  -27.5588  -37.1791   24.8453 C   0  0  0  0  0  0
  -21.4278  -29.3082   22.3635 N   0  0  0  0  0  0
  -26.4270  -37.3758   23.9429 N   0  0  0  0  0  0
  -24.7190  -31.0362   22.0863 N   0  0  0  0  0  0
  -23.4271  -28.8065   23.2931 O   0  0  0  0  0  0
  -28.3881  -26.3403   20.1825 O   0  0  0  0  0  0
  -26.5629  -34.8907   22.4631 O   0  0  0  0  0  0
  -23.5561  -32.1246   23.7151 O   0  0  0  0  0  0
  -29.9992  -18.4797   21.0783 C   0  0  0  0  0  0
  -28.7664  -17.3874   19.2893 C   0  0  0  0  0  0
  -29.5111  -19.7688   20.6139 C   0  0  0  0  0  0
  -28.6461  -19.8386   19.5390 C   0  0  0  0  0  0
  -29.6257  -17.2343   20.4169 C   0  0  0  0  0  0
  -28.2693  -18.6580   18.8510 C   0  0  0  0  0  0
  -29.6355  -21.1938   21.0904 C   0  0  0  0  0  0
  -28.2086  -21.2993   19.3185 C   0  0  0  0  0  0
  -28.0504  -24.5479   18.3488 C   0  0  0  0  0  0
  -28.4073  -23.5798   20.7607 C   0  0  0  0  0  0
  -28.5714  -24.8707   19.7606 C   0  0  2  0  0  0
  -28.8780  -22.1222   20.3883 N   0  0  0  0  0  0
  -27.3940  -18.7139   17.7625 N   0  0  0  0  0  0
  -29.8556  -15.8486   20.9399 N   0  0  0  0  0  0
  -30.4018  -21.5534   22.1202 N   0  3  0  0  0  0
  -31.4954  -12.6266   19.1613 H   0  0  0  0  0  0
  -30.4444  -11.4931   19.9490 H   0  0  0  0  0  0
  -29.8190  -11.7479   17.5299 H   0  0  0  0  0  0
  -29.6684  -13.4733   17.7282 H   0  0  0  0  0  0
  -27.8890  -11.3059   18.8823 H   0  0  0  0  0  0
  -27.4084  -12.5721   17.7896 H   0  0  0  0  0  0
  -27.6528  -14.2696   19.4971 H   0  0  0  0  0  0
  -28.7467  -12.1330   21.3908 H   0  0  0  0  0  0
  -28.4374  -13.7913   21.8263 H   0  0  0  0  0  0
  -25.2774   -9.5726   22.4731 H   0  0  0  0  0  0
  -24.0069   -7.4621   22.7412 H   0  0  0  0  0  0
  -21.0885   -8.8751   19.8920 H   0  0  0  0  0  0
  -22.3694  -10.9679   19.6142 H   0  0  0  0  0  0
  -21.1870   -7.6116   23.9752 H   0  0  0  0  0  0
  -21.1558   -6.0484   25.9119 H   0  0  0  0  0  0
  -22.0565   -2.7598   23.2822 H   0  0  0  0  0  0
  -22.3984  -11.9895   22.4929 H   0  0  0  0  0  0
  -21.1055  -13.1305   22.2622 H   0  0  0  0  0  0
  -24.6421  -15.8422   20.4857 H   0  0  0  0  0  0
  -26.2677  -15.6357   20.0799 H   0  0  0  0  0  0
  -26.7308  -32.5296   23.1049 H   0  0  0  0  0  0
  -25.0063  -33.9604   25.0316 H   0  0  0  0  0  0
  -22.7576  -31.2947   21.3718 H   0  0  0  0  0  0
  -23.3744  -35.9619   23.3226 H   0  0  0  0  0  0
  -24.3607  -36.8968   22.2069 H   0  0  0  0  0  0
  -23.7230  -37.6470   23.6708 H   0  0  0  0  0  0
  -26.1407  -31.4953   20.5916 H   0  0  0  0  0  0
  -26.8811  -30.8004   22.0002 H   0  0  0  0  0  0
  -28.1584  -28.8854   21.1550 H   0  0  0  0  0  0
  -25.9232  -25.8164   19.1020 H   0  0  0  0  0  0
  -23.9851  -27.2550   19.0338 H   0  0  0  0  0  0
  -23.8310  -30.5651   19.3956 H   0  0  0  0  0  0
  -22.7917  -29.2392   19.8237 H   0  0  0  0  0  0
  -25.1294  -36.1842   25.0817 H   0  0  0  0  0  0
  -21.0058  -28.3280   24.1357 H   0  0  0  0  0  0
  -20.5670  -26.2344   23.3637 H   0  0  0  0  0  0
  -21.6647  -26.7409   22.1206 H   0  0  0  0  0  0
  -19.6901  -25.6283   21.1282 H   0  0  0  0  0  0
  -19.6690  -27.3183   20.6769 H   0  0  0  0  0  0
  -17.4209  -26.6717   21.4023 H   0  0  0  0  0  0
  -18.0289  -26.0106   22.9031 H   0  0  0  0  0  0
  -19.7946  -30.7291   24.2296 H   0  0  0  0  0  0
  -17.5022  -31.6292   24.5166 H   0  0  0  0  0  0
  -15.5364  -30.3047   23.7628 H   0  0  0  0  0  0
  -15.8675  -28.0879   22.7061 H   0  0  0  0  0  0
  -24.5884  -30.7110   25.7805 H   0  0  0  0  0  0
  -24.8872  -32.2998   26.4763 H   0  0  0  0  0  0
  -25.7988  -30.9077   27.0278 H   0  0  0  0  0  0
  -26.2933  -29.6728   24.1226 H   0  0  0  0  0  0
  -27.3913  -29.7232   25.4806 H   0  0  0  0  0  0
  -27.8848  -30.4197   23.9561 H   0  0  0  0  0  0
  -27.2581  -33.3648   26.2050 H   0  0  0  0  0  0
  -28.3855  -32.6899   25.0366 H   0  0  0  0  0  0
  -28.0658  -31.8500   26.5457 H   0  0  0  0  0  0
  -28.2540  -38.0150   24.7548 H   0  0  0  0  0  0
  -28.1130  -36.2674   24.6178 H   0  0  0  0  0  0
  -27.2324  -37.1324   25.8860 H   0  0  0  0  0  0
  -20.9489  -29.8909   21.6911 H   0  0  0  0  0  0
  -26.0104  -38.2805   24.1506 H   0  0  0  0  0  0
  -30.6178  -18.4529   21.9621 H   0  0  0  0  0  0
  -28.4361  -16.4965   18.7749 H   0  0  0  0  0  0
  -27.1235  -21.3729   19.3956 H   0  0  0  0  0  0
  -28.5107  -21.6029   18.3167 H   0  0  0  0  0  0
  -28.6677  -23.7706   17.8972 H   0  0  0  0  0  0
  -28.1051  -25.4049   17.6785 H   0  0  0  0  0  0
  -27.0300  -24.1666   18.3585 H   0  0  0  0  0  0
  -27.3491  -23.4937   21.0060 H   0  0  0  0  0  0
  -28.8806  -23.8509   21.7051 H   0  0  0  0  0  0
  -29.6526  -24.8793   19.6121 H   0  0  0  0  0  0
  -26.9505  -17.8595   17.4405 H   0  0  0  0  0  0
  -26.8078  -19.5304   17.6227 H   0  0  0  0  0  0
  -29.0644  -15.5007   21.4596 H   0  0  0  0  0  0
  -31.0052  -20.8737   22.5595 H   0  0  0  0  0  0
  -30.4883  -22.5139   22.4087 H   0  0  0  0  0  0
  1 25  1  0  0  0
  1 30  2  0  0  0
  1 84  1  0  0  0
  2  3  1  0  0  0
  2 25  1  0  0  0
  2 86  1  0  0  0
  2 87  1  0  0  0
  3  4  1  0  0  0
  3 88  1  0  0  0
  3 89  1  0  0  0
  4  5  1  0  0  0
  4 90  1  0  0  0
  4 91  1  0  0  0
  5  6  1  0  0  0
  5 26  1  0  0  0
  5 92  1  0  0  0
  6 25  1  0  0  0
  6 93  1  0  0  0
  6 94  1  0  0  0
  7  8  2  0  0  0
  7 26  1  0  0  0
  7 29  1  0  0  0
  8  9  1  0  0  0
  8 22  1  0  0  0
  9 10  1  0  0  0
  9 27  2  0  0  0
 10 11  2  0  0  0
 10 15  1  0  0  0
 11 12  1  0  0  0
 11 95  1  0  0  0
 12 13  2  0  0  0
 12 96  1  0  0  0
 13 14  1  0  0  0
 13 31  1  0  0  0
 14 15  2  0  0  0
 14 97  1  0  0  0
 15 98  1  0  0  0
 16 17  2  0  0  0
 16 21  1  0  0  0
 16 31  1  0  0  0
 17 18  1  0  0  0
 17 99  1  0  0  0
 18 19  2  0  0  0
 18100  1  0  0  0
 19 20  1  0  0  0
 19 24  1  0  0  0
 20 21  2  0  0  0
 20101  1  0  0  0
 21 23  1  0  0  0
 22 28  1  0  0  0
 22 32  2  0  0  0
 26 27  1  0  0  0
 28102  1  0  0  0
 28103  1  0  0  0
 29104  1  0  0  0
 29105  1  0  0  0
 33 34  1  0  0  0
 33 66  1  0  0  0
 33 70  2  0  0  0
 34 36  1  0  0  0
 34 59  1  0  0  0
 34106  1  0  0  0
 35 44  2  0  0  0
 35 45  1  0  0  0
 35 68  1  0  0  0
 36 56  1  0  0  0
 36107  1  0  0  0
 37 39  1  0  0  0
 37 47  1  0  0  0
 37 66  1  0  0  0
 37108  1  0  0  0
 38 43  2  0  0  0
 38 46  1  0  0  0
 38 47  1  0  0  0
 39 64  1  0  0  0
 39 67  2  0  0  0
 40 52  1  0  0  0
 40 53  2  0  0  0
 40 58  1  0  0  0
 41109  1  0  0  0
 41110  1  0  0  0
 41111  1  0  0  0
 41 48  1  0  0  0
 42 43  1  0  0  0
 42 66  1  0  0  0
 42112  1  0  0  0
 42113  1  0  0  0
 43 44  1  0  0  0
 44114  1  0  0  0
 45 46  2  0  0  0
 45115  1  0  0  0
 46116  1  0  0  0
 47117  1  0  0  0
 47118  1  0  0  0
 48 56  1  0  0  0
 48 65  1  0  0  0
 48119  1  0  0  0
 49 50  1  0  0  0
 49 53  1  0  0  0
 49 64  1  0  0  0
 49120  1  0  0  0
 50 51  1  0  0  0
 50121  1  0  0  0
 50122  1  0  0  0
 51 52  1  0  0  0
 51123  1  0  0  0
 51124  1  0  0  0
 52125  1  0  0  0
 52126  1  0  0  0
 53 54  1  0  0  0
 54 55  2  0  0  0
 54127  1  0  0  0
 55 57  1  0  0  0
 55128  1  0  0  0
 56 69  2  0  0  0
 57 58  2  0  0  0
 57129  1  0  0  0
 58130  1  0  0  0
 59 60  1  0  0  0
 59 61  1  0  0  0
 59 62  1  0  0  0
 60131  1  0  0  0
 60132  1  0  0  0
 60133  1  0  0  0
 61134  1  0  0  0
 61135  1  0  0  0
 61136  1  0  0  0
 62137  1  0  0  0
 62138  1  0  0  0
 62139  1  0  0  0
 63 65  1  0  0  0
 63140  1  0  0  0
 63141  1  0  0  0
 63142  1  0  0  0
 64143  1  0  0  0
 65144  1  0  0  0
 68 81  1  0  0  0
 71 73  2  0  0  0
 71 75  1  0  0  0
 71145  1  0  0  0
 72 75  2  0  0  0
 72 76  1  0  0  0
 72146  1  0  0  0
 73 74  1  0  0  0
 73 77  1  0  0  0
 74 76  2  0  0  0
 74 78  1  0  0  0
 75 84  1  0  0  0
 76 83  1  0  0  0
 77 82  1  0  0  0
 77 85  2  0  0  0
 78 82  1  0  0  0
 78147  1  0  0  0
 78148  1  0  0  0
 79149  1  0  0  0
 79150  1  0  0  0
 79151  1  0  0  0
 79 81  1  0  0  0
 80 81  1  0  0  0
 80 82  1  0  0  0
 80152  1  0  0  0
 80153  1  0  0  0
 81154  1  0  0  0
 83155  1  0  0  0
 83156  1  0  0  0
 84157  1  0  0  0
 85158  1  0  0  0
 85159  1  0  0  0
M  CHG  1  85   1
M  ISO  4   1 100  68 101  81 101  84 100
M  END
> <chiral flag>
0

> <version>
0

> <s_m_source_file>
/data/baiqing/PycharmProjects/Reinvent-master-3.2/result/LINK_invent/BTK/process_docking_weight1_custom_product_contain_oxygen_bond_distance_aromatic_linkinvent_7_9_3/rearranged_h_0152.sdf

> <i_m_source_file_index>
36

> <r_mmod_Potential_Energy-OPLS-2005>
166.19384765625

> <r_mmod_Stretch_Energy-OPLS-2005>
157.377258300781

> <r_mmod_Bend_Energy-OPLS-2005>
301.814392089844

> <r_mmod_Torsional_Energy-OPLS-2005>
266.822143554688

> <r_mmod_Improper_Torsional_Energy-OPLS-2005>
9.61954879760742

> <r_mmod_Van_der_Waal_Energy-OPLS-2005>
119.015823364258

> <r_mmod_Electrostatic_Energy-OPLS-2005>
-357.889282226562

> <r_mmod_Solvation_Energy-OPLS-2005>
-435.131469726562

> <b_mmod_Minimization_Converged-OPLS-2005>
0

> <r_mmod_RMS_Derivative-OPLS-2005>
4.68944978713989

$$$$
36
                    3D
 Structure written by MMmdl.
157166  0  0  1  0            999 V2000
  -30.5893  -14.8287   20.4440 C   0  0  0  0  0  0
  -30.4474  -12.5202   19.4623 C   0  0  0  0  0  0
  -29.5012  -12.5096   18.2370 C   0  0  0  0  0  0
  -28.0356  -12.3274   18.6660 C   0  0  0  0  0  0
  -27.6347  -13.2488   19.8440 C   0  0  2  0  0  0
  -28.6906  -13.2162   20.9702 C   0  0  0  0  0  0
  -25.2452  -13.8243   20.5765 C   0  0  0  0  0  0
  -24.1766  -13.0452   20.9275 C   0  0  0  0  0  0
  -24.6393  -11.6955   20.8799 C   0  0  0  0  0  0
  -23.9094  -10.4320   21.0417 C   0  0  0  0  0  0
  -24.3625   -9.4216   21.9185 C   0  0  0  0  0  0
  -23.6286   -8.2259   22.0758 C   0  0  0  0  0  0
  -22.4268   -8.0298   21.3554 C   0  0  0  0  0  0
  -21.9912   -9.0281   20.4662 C   0  0  0  0  0  0
  -22.7265  -10.2148   20.3072 C   0  0  0  0  0  0
  -21.6854   -6.0737   22.5289 C   0  0  0  0  0  0
  -21.4018   -6.5632   23.8228 C   0  0  0  0  0  0
  -21.3664   -5.6793   24.9180 C   0  0  0  0  0  0
  -21.6047   -4.3053   24.7241 C   0  0  0  0  0  0
  -21.8805   -3.8141   23.4346 C   0  0  0  0  0  0
  -21.9185   -4.6966   22.3399 C   0  0  0  0  0  0
  -22.7780  -13.5202   21.1898 C   0  0  0  0  0  0
  -22.1649   -4.2148   21.0986 F   0  0  0  0  0  0
  -21.5633   -3.4545   25.7740 F   0  0  0  0  0  0
  -29.9849  -13.5868   20.3837 N   0  0  0  0  0  0
  -26.2920  -12.9499   20.3339 N   0  0  0  0  0  0
  -25.9335  -11.6644   20.5799 N   0  0  0  0  0  0
  -22.0408  -12.8234   22.0449 N   0  0  0  0  0  0
  -25.3996  -15.1992   20.4181 N   0  0  0  0  0  0
  -31.7832  -14.9377   20.1599 O   0  0  0  0  0  0
  -21.6641   -6.8869   21.4236 O   0  0  0  0  0  0
  -22.3488  -14.5515   20.6720 O   0  0  0  0  0  0
  -24.6377  -31.8480   23.1864 C   0  0  0  0  0  0
  -25.9156  -32.4725   23.8238 C   0  0  1  0  0  0
  -27.2722  -27.2202   20.1634 C   0  0  0  0  0  0
  -25.5905  -33.8516   24.2161 N   0  0  0  0  0  0
  -23.4418  -30.4604   21.5258 C   0  0  2  0  0  0
  -24.9034  -28.8765   20.1281 C   0  0  0  0  0  0
  -22.7550  -29.4567   22.4867 C   0  0  0  0  0  0
  -18.0280  -28.1422   22.8458 C   0  0  0  0  0  0
  -24.1472  -36.7291   23.2625 C   0  0  0  0  0  0
  -25.9881  -30.7503   21.3694 C   0  0  0  0  0  0
  -26.0713  -29.3593   20.7317 C   0  0  0  0  0  0
  -27.2529  -28.5429   20.7346 C   0  0  0  0  0  0
  -26.0729  -26.8104   19.5317 C   0  0  0  0  0  0
  -24.9081  -27.6124   19.5177 C   0  0  0  0  0  0
  -23.6713  -29.7636   20.1561 C   0  0  0  0  0  0
  -25.4114  -36.3054   24.0285 C   0  0  1  0  0  0
  -20.5898  -28.3750   23.1239 C   0  0  2  0  0  0
  -20.6779  -26.9461   22.5401 C   0  0  0  0  0  0
  -19.5762  -26.6404   21.5202 C   0  0  0  0  0  0
  -18.1937  -26.7947   22.1612 C   0  0  0  0  0  0
  -19.1536  -28.8895   23.2843 C   0  0  0  0  0  0
  -18.9466  -30.1480   23.8888 C   0  0  0  0  0  0
  -17.6470  -30.6623   24.0562 C   0  0  0  0  0  0
  -25.9033  -34.9420   23.5029 C   0  0  0  0  0  0
  -16.5352  -29.9124   23.6321 C   0  0  0  0  0  0
  -16.7268  -28.6535   23.0342 C   0  0  0  0  0  0
  -26.4493  -31.6597   25.0661 C   0  0  0  0  0  0
  -25.3662  -31.3836   26.1352 C   0  0  0  0  0  0
  -27.0334  -30.2992   24.6214 C   0  0  0  0  0  0
  -27.6002  -32.4372   25.7496 C   0  0  0  0  0  0
  -27.5568  -37.1819   24.8472 C   0  0  0  0  0  0
  -21.4250  -29.3078   22.3617 N   0  0  0  0  0  0
  -26.4308  -37.3763   23.9370 N   0  0  0  0  0  0
  -24.7075  -31.0388   22.0854 N   0  0  0  0  0  0
  -23.4197  -28.8111   23.3011 O   0  0  0  0  0  0
  -28.4117  -26.3612   20.1690 O   0  0  0  0  0  0
  -26.5651  -34.8943   22.4618 O   0  0  0  0  0  0
  -23.5485  -32.1313   23.7113 O   0  0  0  0  0  0
  -28.9186  -19.5672   19.9622 C   0  0  0  0  0  0
  -28.7954  -18.1115   19.8847 C   0  0  0  0  0  0
  -30.0286  -20.0313   20.6280 C   0  0  0  0  0  0
  -29.8093  -17.3333   20.4260 C   0  0  0  0  0  0
  -30.4212  -21.3948   21.2128 C   0  0  0  0  0  0
  -31.4919  -24.7623   20.8100 C   0  0  0  0  0  0
  -30.6891  -24.5301   19.5221 C   0  0  0  0  0  0
  -30.8983  -23.7816   21.8182 C   0  0  0  0  0  0
  -29.4515  -23.7399   19.9867 C   0  0  2  0  0  0
  -28.3289  -24.8671   20.4792 C   0  0  0  0  0  0
  -30.1269  -22.7900   21.0124 N   0  0  0  0  0  0
  -29.7502  -15.9305   20.6216 N   0  0  0  0  0  0
  -31.3011  -21.1350   22.1993 N   0  3  0  0  0  0
  -31.0105  -18.5312   20.9843 S   0  0  0  0  0  0
  -31.4709  -12.6913   19.1306 H   0  0  0  0  0  0
  -30.4511  -11.5567   19.9737 H   0  0  0  0  0  0
  -29.7873  -11.7139   17.5474 H   0  0  0  0  0  0
  -29.5990  -13.4452   17.6810 H   0  0  0  0  0  0
  -27.9179  -11.2872   18.9655 H   0  0  0  0  0  0
  -27.3632  -12.4831   17.8212 H   0  0  0  0  0  0
  -27.6070  -14.2622   19.4387 H   0  0  0  0  0  0
  -28.7525  -12.2267   21.4261 H   0  0  0  0  0  0
  -28.4199  -13.9163   21.7637 H   0  0  0  0  0  0
  -25.2741   -9.5684   22.4809 H   0  0  0  0  0  0
  -23.9982   -7.4652   22.7490 H   0  0  0  0  0  0
  -21.0847   -8.8808   19.8978 H   0  0  0  0  0  0
  -22.3714  -10.9687   19.6217 H   0  0  0  0  0  0
  -21.2017   -7.6157   23.9735 H   0  0  0  0  0  0
  -21.1503   -6.0519   25.9092 H   0  0  0  0  0  0
  -22.0570   -2.7609   23.2858 H   0  0  0  0  0  0
  -22.3982  -11.9907   22.4896 H   0  0  0  0  0  0
  -21.1026  -13.1265   22.2642 H   0  0  0  0  0  0
  -24.6098  -15.8230   20.5446 H   0  0  0  0  0  0
  -26.2142  -15.6605   20.0362 H   0  0  0  0  0  0
  -26.7226  -32.5429   23.0978 H   0  0  0  0  0  0
  -25.0003  -33.9601   25.0282 H   0  0  0  0  0  0
  -22.7398  -31.2801   21.3542 H   0  0  0  0  0  0
  -23.3711  -35.9660   23.3355 H   0  0  0  0  0  0
  -24.3496  -36.8879   22.2027 H   0  0  0  0  0  0
  -23.7311  -37.6526   23.6642 H   0  0  0  0  0  0
  -26.1072  -31.4922   20.5785 H   0  0  0  0  0  0
  -26.8708  -30.8303   21.9933 H   0  0  0  0  0  0
  -28.1534  -28.9012   21.2118 H   0  0  0  0  0  0
  -26.0181  -25.8499   19.0432 H   0  0  0  0  0  0
  -24.0136  -27.2330   19.0426 H   0  0  0  0  0  0
  -23.8007  -30.5175   19.3794 H   0  0  0  0  0  0
  -22.7981  -29.1808   19.8589 H   0  0  0  0  0  0
  -25.1317  -36.1848   25.0788 H   0  0  0  0  0  0
  -20.9968  -28.3366   24.1371 H   0  0  0  0  0  0
  -20.5664  -26.2377   23.3623 H   0  0  0  0  0  0
  -21.6649  -26.7467   22.1220 H   0  0  0  0  0  0
  -19.6933  -25.6306   21.1260 H   0  0  0  0  0  0
  -19.6709  -27.3188   20.6715 H   0  0  0  0  0  0
  -17.4198  -26.6642   21.4037 H   0  0  0  0  0  0
  -18.0385  -26.0119   22.9046 H   0  0  0  0  0  0
  -19.7942  -30.7286   24.2295 H   0  0  0  0  0  0
  -17.5021  -31.6296   24.5174 H   0  0  0  0  0  0
  -15.5363  -30.3032   23.7654 H   0  0  0  0  0  0
  -15.8658  -28.0856   22.7077 H   0  0  0  0  0  0
  -24.5765  -30.7279   25.7675 H   0  0  0  0  0  0
  -24.8921  -32.3050   26.4754 H   0  0  0  0  0  0
  -25.7873  -30.8995   27.0165 H   0  0  0  0  0  0
  -26.2927  -29.6751   24.1190 H   0  0  0  0  0  0
  -27.3923  -29.7272   25.4787 H   0  0  0  0  0  0
  -27.8850  -30.4231   23.9514 H   0  0  0  0  0  0
  -27.2515  -33.3620   26.2139 H   0  0  0  0  0  0
  -28.3812  -32.7057   25.0356 H   0  0  0  0  0  0
  -28.0689  -31.8470   26.5398 H   0  0  0  0  0  0
  -28.2637  -38.0056   24.7399 H   0  0  0  0  0  0
  -28.0984  -36.2570   24.6422 H   0  0  0  0  0  0
  -27.2234  -37.1655   25.8864 H   0  0  0  0  0  0
  -20.9460  -29.8743   21.6757 H   0  0  0  0  0  0
  -26.0156  -38.2836   24.1334 H   0  0  0  0  0  0
  -28.1362  -20.2121   19.5963 H   0  0  0  0  0  0
  -27.8950  -17.6822   19.4628 H   0  0  0  0  0  0
  -31.3931  -25.7833   21.1750 H   0  0  0  0  0  0
  -32.5549  -24.5626   20.6673 H   0  0  0  0  0  0
  -31.2746  -23.9228   18.8287 H   0  0  0  0  0  0
  -30.4628  -25.4687   19.0172 H   0  0  0  0  0  0
  -30.2212  -24.2833   22.5112 H   0  0  0  0  0  0
  -31.7249  -23.4156   22.4170 H   0  0  0  0  0  0
  -29.0691  -23.1741   19.1370 H   0  0  0  0  0  0
  -28.2026  -24.7893   21.5602 H   0  0  0  0  0  0
  -27.3812  -24.5009   20.0892 H   0  0  0  0  0  0
  -28.8110  -15.6152   20.7940 H   0  0  0  0  0  0
  -31.5440  -20.1724   22.3805 H   0  0  0  0  0  0
  -31.8531  -21.8455   22.6533 H   0  0  0  0  0  0
  1 25  1  0  0  0
  1 30  2  0  0  0
  1 82  1  0  0  0
  2  3  1  0  0  0
  2 25  1  0  0  0
  2 85  1  0  0  0
  2 86  1  0  0  0
  3  4  1  0  0  0
  3 87  1  0  0  0
  3 88  1  0  0  0
  4  5  1  0  0  0
  4 89  1  0  0  0
  4 90  1  0  0  0
  5  6  1  0  0  0
  5 26  1  0  0  0
  5 91  1  0  0  0
  6 25  1  0  0  0
  6 92  1  0  0  0
  6 93  1  0  0  0
  7  8  2  0  0  0
  7 26  1  0  0  0
  7 29  1  0  0  0
  8  9  1  0  0  0
  8 22  1  0  0  0
  9 10  1  0  0  0
  9 27  2  0  0  0
 10 11  2  0  0  0
 10 15  1  0  0  0
 11 12  1  0  0  0
 11 94  1  0  0  0
 12 13  2  0  0  0
 12 95  1  0  0  0
 13 14  1  0  0  0
 13 31  1  0  0  0
 14 15  2  0  0  0
 14 96  1  0  0  0
 15 97  1  0  0  0
 16 17  2  0  0  0
 16 21  1  0  0  0
 16 31  1  0  0  0
 17 18  1  0  0  0
 17 98  1  0  0  0
 18 19  2  0  0  0
 18 99  1  0  0  0
 19 20  1  0  0  0
 19 24  1  0  0  0
 20 21  2  0  0  0
 20100  1  0  0  0
 21 23  1  0  0  0
 22 28  1  0  0  0
 22 32  2  0  0  0
 26 27  1  0  0  0
 28101  1  0  0  0
 28102  1  0  0  0
 29103  1  0  0  0
 29104  1  0  0  0
 33 34  1  0  0  0
 33 66  1  0  0  0
 33 70  2  0  0  0
 34 36  1  0  0  0
 34 59  1  0  0  0
 34105  1  0  0  0
 35 44  2  0  0  0
 35 45  1  0  0  0
 35 68  1  0  0  0
 36 56  1  0  0  0
 36106  1  0  0  0
 37 39  1  0  0  0
 37 47  1  0  0  0
 37 66  1  0  0  0
 37107  1  0  0  0
 38 43  2  0  0  0
 38 46  1  0  0  0
 38 47  1  0  0  0
 39 64  1  0  0  0
 39 67  2  0  0  0
 40 52  1  0  0  0
 40 53  2  0  0  0
 40 58  1  0  0  0
 41108  1  0  0  0
 41109  1  0  0  0
 41110  1  0  0  0
 41 48  1  0  0  0
 42 43  1  0  0  0
 42 66  1  0  0  0
 42111  1  0  0  0
 42112  1  0  0  0
 43 44  1  0  0  0
 44113  1  0  0  0
 45 46  2  0  0  0
 45114  1  0  0  0
 46115  1  0  0  0
 47116  1  0  0  0
 47117  1  0  0  0
 48 56  1  0  0  0
 48 65  1  0  0  0
 48118  1  0  0  0
 49 50  1  0  0  0
 49 53  1  0  0  0
 49 64  1  0  0  0
 49119  1  0  0  0
 50 51  1  0  0  0
 50120  1  0  0  0
 50121  1  0  0  0
 51 52  1  0  0  0
 51122  1  0  0  0
 51123  1  0  0  0
 52124  1  0  0  0
 52125  1  0  0  0
 53 54  1  0  0  0
 54 55  2  0  0  0
 54126  1  0  0  0
 55 57  1  0  0  0
 55127  1  0  0  0
 56 69  2  0  0  0
 57 58  2  0  0  0
 57128  1  0  0  0
 58129  1  0  0  0
 59 60  1  0  0  0
 59 61  1  0  0  0
 59 62  1  0  0  0
 60130  1  0  0  0
 60131  1  0  0  0
 60132  1  0  0  0
 61133  1  0  0  0
 61134  1  0  0  0
 61135  1  0  0  0
 62136  1  0  0  0
 62137  1  0  0  0
 62138  1  0  0  0
 63 65  1  0  0  0
 63139  1  0  0  0
 63140  1  0  0  0
 63141  1  0  0  0
 64142  1  0  0  0
 65143  1  0  0  0
 68 80  1  0  0  0
 71 72  1  0  0  0
 71 73  2  0  0  0
 71144  1  0  0  0
 72 74  2  0  0  0
 72145  1  0  0  0
 73 75  1  0  0  0
 73 84  1  0  0  0
 74 82  1  0  0  0
 74 84  1  0  0  0
 75 81  1  0  0  0
 75 83  2  0  0  0
 76 77  1  0  0  0
 76 78  1  0  0  0
 76146  1  0  0  0
 76147  1  0  0  0
 77 79  1  0  0  0
 77148  1  0  0  0
 77149  1  0  0  0
 78 81  1  0  0  0
 78150  1  0  0  0
 78151  1  0  0  0
 79 80  1  0  0  0
 79 81  1  0  0  0
 79152  1  0  0  0
 80153  1  0  0  0
 80154  1  0  0  0
 82155  1  0  0  0
 83156  1  0  0  0
 83157  1  0  0  0
M  CHG  1  83   1
M  ISO  4   1 100  68 101  80 101  82 100
M  END
> <chiral flag>
0

> <version>
0

> <s_m_source_file>
/data/baiqing/PycharmProjects/Reinvent-master-3.2/result/LINK_invent/BTK/process_docking_weight1_custom_product_contain_oxygen_bond_distance_aromatic_linkinvent_7_9_3/rearranged_h_0152.sdf

> <i_m_source_file_index>
37

> <r_mmod_Potential_Energy-OPLS-2005>
388.327087402344

> <r_mmod_Stretch_Energy-OPLS-2005>
168.495315551758

> <r_mmod_Bend_Energy-OPLS-2005>
332.281066894531

> <r_mmod_Torsional_Energy-OPLS-2005>
316.901702880859

> <r_mmod_Improper_Torsional_Energy-OPLS-2005>
7.72567176818848

> <r_mmod_Van_der_Waal_Energy-OPLS-2005>
132.131500244141

> <r_mmod_Electrostatic_Energy-OPLS-2005>
-236.739837646484

> <r_mmod_Solvation_Energy-OPLS-2005>
-450.272094726562

> <b_mmod_Minimization_Converged-OPLS-2005>
0

> <r_mmod_RMS_Derivative-OPLS-2005>
7.4143214225769

$$$$
37
                    3D
 Structure written by MMmdl.
157166  0  0  1  0            999 V2000
  -30.6597  -14.5822   20.5019 C   0  0  0  0  0  0
  -30.4283  -12.3546   19.4528 C   0  0  0  0  0  0
  -29.5048  -12.5019   18.2239 C   0  0  0  0  0  0
  -28.0266  -12.3516   18.6335 C   0  0  0  0  0  0
  -27.6563  -13.2168   19.8682 C   0  0  2  0  0  0
  -28.6993  -13.0590   20.9986 C   0  0  0  0  0  0
  -25.2567  -13.8178   20.5689 C   0  0  0  0  0  0
  -24.1829  -13.0443   20.9184 C   0  0  0  0  0  0
  -24.6397  -11.6914   20.8737 C   0  0  0  0  0  0
  -23.9066  -10.4294   21.0402 C   0  0  0  0  0  0
  -24.3618   -9.4209   21.9180 C   0  0  0  0  0  0
  -23.6290   -8.2245   22.0752 C   0  0  0  0  0  0
  -22.4272   -8.0283   21.3546 C   0  0  0  0  0  0
  -21.9906   -9.0258   20.4649 C   0  0  0  0  0  0
  -22.7237  -10.2136   20.3055 C   0  0  0  0  0  0
  -21.6854   -6.0734   22.5278 C   0  0  0  0  0  0
  -21.4016   -6.5638   23.8212 C   0  0  0  0  0  0
  -21.3658   -5.6792   24.9173 C   0  0  0  0  0  0
  -21.6043   -4.3054   24.7225 C   0  0  0  0  0  0
  -21.8820   -3.8147   23.4348 C   0  0  0  0  0  0
  -21.9193   -4.6961   22.3402 C   0  0  0  0  0  0
  -22.7850  -13.5235   21.1847 C   0  0  0  0  0  0
  -22.1660   -4.2148   21.0980 F   0  0  0  0  0  0
  -21.5628   -3.4540   25.7739 F   0  0  0  0  0  0
  -30.0223  -13.3743   20.4385 N   0  0  0  0  0  0
  -26.3004  -12.9363   20.3343 N   0  0  0  0  0  0
  -25.9328  -11.6515   20.5765 N   0  0  0  0  0  0
  -22.0492  -12.8231   22.0407 N   0  0  0  0  0  0
  -25.4288  -15.1901   20.4111 N   0  0  0  0  0  0
  -31.8168  -14.7212   20.0943 O   0  0  0  0  0  0
  -21.6639   -6.8878   21.4241 O   0  0  0  0  0  0
  -22.3534  -14.5540   20.6694 O   0  0  0  0  0  0
  -24.6221  -31.8633   23.2065 C   0  0  0  0  0  0
  -25.9087  -32.4798   23.8377 C   0  0  1  0  0  0
  -27.2217  -27.3626   20.1108 C   0  0  0  0  0  0
  -25.5918  -33.8596   24.2308 N   0  0  0  0  0  0
  -23.4142  -30.4881   21.5481 C   0  0  2  0  0  0
  -24.8622  -28.9538   20.1071 C   0  0  0  0  0  0
  -22.7459  -29.4635   22.4949 C   0  0  0  0  0  0
  -18.0287  -28.1379   22.8487 C   0  0  0  0  0  0
  -24.1490  -36.7303   23.2638 C   0  0  0  0  0  0
  -25.9520  -30.8070   21.3733 C   0  0  0  0  0  0
  -26.0285  -29.4391   20.7141 C   0  0  0  0  0  0
  -27.2149  -28.6531   20.7111 C   0  0  0  0  0  0
  -26.0437  -26.9293   19.4641 C   0  0  0  0  0  0
  -24.8692  -27.7019   19.4731 C   0  0  0  0  0  0
  -23.6268  -29.8270   20.1611 C   0  0  0  0  0  0
  -25.4113  -36.3096   24.0333 C   0  0  1  0  0  0
  -20.5884  -28.3679   23.1289 C   0  0  2  0  0  0
  -20.6778  -26.9406   22.5410 C   0  0  0  0  0  0
  -19.5753  -26.6383   21.5211 C   0  0  0  0  0  0
  -18.1933  -26.7923   22.1623 C   0  0  0  0  0  0
  -19.1538  -28.8846   23.2886 C   0  0  0  0  0  0
  -18.9462  -30.1450   23.8899 C   0  0  0  0  0  0
  -17.6462  -30.6581   24.0564 C   0  0  0  0  0  0
  -25.9043  -34.9460   23.5118 C   0  0  0  0  0  0
  -16.5354  -29.9082   23.6325 C   0  0  0  0  0  0
  -16.7275  -28.6499   23.0346 C   0  0  0  0  0  0
  -26.4486  -31.6589   25.0727 C   0  0  0  0  0  0
  -25.3734  -31.3718   26.1462 C   0  0  0  0  0  0
  -27.0319  -30.3017   24.6150 C   0  0  0  0  0  0
  -27.6057  -32.4310   25.7491 C   0  0  0  0  0  0
  -27.5574  -37.1816   24.8469 C   0  0  0  0  0  0
  -21.4177  -29.3038   22.3687 N   0  0  0  0  0  0
  -26.4300  -37.3777   23.9392 N   0  0  0  0  0  0
  -24.6811  -31.0680   22.1000 N   0  0  0  0  0  0
  -23.4200  -28.8171   23.3011 O   0  0  0  0  0  0
  -28.3120  -26.4958   20.1668 O   0  0  0  0  0  0
  -26.5605  -34.8918   22.4681 O   0  0  0  0  0  0
  -23.5394  -32.1414   23.7416 O   0  0  0  0  0  0
  -30.6984  -19.0040   19.4811 C   0  0  0  0  0  0
  -30.8522  -17.5805   19.6149 C   0  0  0  0  0  0
  -29.7868  -19.5726   20.3405 C   0  0  0  0  0  0
  -30.0520  -16.9887   20.5698 C   0  0  0  0  0  0
  -29.1997  -23.3033   19.4594 C   0  0  0  0  0  0
  -28.3772  -22.8620   21.7468 C   0  0  0  0  0  0
  -29.9753  -21.9406   19.5147 C   0  0  0  0  0  0
  -29.1517  -21.5115   21.7839 C   0  0  0  0  0  0
  -28.9735  -23.9802   20.8378 C   0  0  0  0  0  0
  -28.0085  -25.2388   20.8629 C   0  0  0  0  0  0
  -29.4071  -20.9508   20.4520 N   0  0  0  0  0  0
  -29.9082  -15.6506   20.8969 N   0  0  0  0  0  0
  -30.2058  -24.3943   21.4073 O   0  0  0  0  0  0
  -29.1015  -18.2751   21.3373 S   0  0  0  0  0  0
  -31.4733  -12.4544   19.1544 H   0  0  0  0  0  0
  -30.3379  -11.3572   19.8855 H   0  0  0  0  0  0
  -29.7605  -11.7575   17.4688 H   0  0  0  0  0  0
  -29.6607  -13.4764   17.7586 H   0  0  0  0  0  0
  -27.8534  -11.2981   18.8562 H   0  0  0  0  0  0
  -27.3754  -12.5947   17.7931 H   0  0  0  0  0  0
  -27.6813  -14.2551   19.5367 H   0  0  0  0  0  0
  -28.6939  -12.0387   21.3847 H   0  0  0  0  0  0
  -28.4543  -13.6984   21.8479 H   0  0  0  0  0  0
  -25.2763   -9.5683   22.4753 H   0  0  0  0  0  0
  -24.0002   -7.4635   22.7468 H   0  0  0  0  0  0
  -21.0836   -8.8777   19.8956 H   0  0  0  0  0  0
  -22.3695  -10.9674   19.6163 H   0  0  0  0  0  0
  -21.2010   -7.6147   23.9714 H   0  0  0  0  0  0
  -21.1478   -6.0522   25.9076 H   0  0  0  0  0  0
  -22.0601   -2.7607   23.2850 H   0  0  0  0  0  0
  -22.4106  -11.9895   22.4803 H   0  0  0  0  0  0
  -21.1109  -13.1256   22.2609 H   0  0  0  0  0  0
  -24.6639  -15.8468   20.5218 H   0  0  0  0  0  0
  -26.2815  -15.6287   20.0876 H   0  0  0  0  0  0
  -26.7155  -32.5486   23.1131 H   0  0  0  0  0  0
  -25.0076  -33.9750   25.0458 H   0  0  0  0  0  0
  -22.7058  -31.3074   21.4090 H   0  0  0  0  0  0
  -23.3729  -35.9665   23.3359 H   0  0  0  0  0  0
  -24.3571  -36.8857   22.2040 H   0  0  0  0  0  0
  -23.7281  -37.6543   23.6614 H   0  0  0  0  0  0
  -26.0790  -31.5732   20.6071 H   0  0  0  0  0  0
  -26.8340  -30.8545   22.0001 H   0  0  0  0  0  0
  -28.1073  -29.0141   21.2030 H   0  0  0  0  0  0
  -26.0197  -25.9729   18.9613 H   0  0  0  0  0  0
  -23.9782  -27.3276   18.9877 H   0  0  0  0  0  0
  -23.7409  -30.6060   19.4062 H   0  0  0  0  0  0
  -22.7482  -29.2534   19.8599 H   0  0  0  0  0  0
  -25.1296  -36.1963   25.0827 H   0  0  0  0  0  0
  -20.9980  -28.3255   24.1407 H   0  0  0  0  0  0
  -20.5680  -26.2288   23.3608 H   0  0  0  0  0  0
  -21.6647  -26.7440   22.1203 H   0  0  0  0  0  0
  -19.6917  -25.6296   21.1232 H   0  0  0  0  0  0
  -19.6687  -27.3199   20.6746 H   0  0  0  0  0  0
  -17.4202  -26.6670   21.4026 H   0  0  0  0  0  0
  -18.0334  -26.0063   22.9018 H   0  0  0  0  0  0
  -19.7939  -30.7266   24.2267 H   0  0  0  0  0  0
  -17.5017  -31.6260   24.5168 H   0  0  0  0  0  0
  -15.5353  -30.2984   23.7643 H   0  0  0  0  0  0
  -15.8677  -28.0818   22.7055 H   0  0  0  0  0  0
  -24.5914  -30.7056   25.7799 H   0  0  0  0  0  0
  -24.8919  -32.2881   26.4886 H   0  0  0  0  0  0
  -25.8072  -30.8903   27.0235 H   0  0  0  0  0  0
  -26.2882  -29.6779   24.1178 H   0  0  0  0  0  0
  -27.4034  -29.7255   25.4634 H   0  0  0  0  0  0
  -27.8744  -30.4310   23.9353 H   0  0  0  0  0  0
  -27.2674  -33.3597   26.2097 H   0  0  0  0  0  0
  -28.3852  -32.6888   25.0310 H   0  0  0  0  0  0
  -28.0742  -31.8418   26.5385 H   0  0  0  0  0  0
  -28.2630  -38.0072   24.7458 H   0  0  0  0  0  0
  -28.1029  -36.2603   24.6369 H   0  0  0  0  0  0
  -27.2283  -37.1562   25.8872 H   0  0  0  0  0  0
  -20.9348  -29.8762   21.6904 H   0  0  0  0  0  0
  -26.0189  -38.2865   24.1353 H   0  0  0  0  0  0
  -31.2765  -19.5509   18.7507 H   0  0  0  0  0  0
  -31.5410  -17.0462   18.9763 H   0  0  0  0  0  0
  -28.2276  -23.1241   18.9976 H   0  0  0  0  0  0
  -29.7150  -23.9933   18.7896 H   0  0  0  0  0  0
  -28.2663  -23.2335   22.7669 H   0  0  0  0  0  0
  -27.3608  -22.6484   21.4109 H   0  0  0  0  0  0
  -31.0154  -22.1243   19.7884 H   0  0  0  0  0  0
  -29.9962  -21.5172   18.5094 H   0  0  0  0  0  0
  -28.5822  -20.8038   22.3869 H   0  0  0  0  0  0
  -30.1054  -21.6475   22.2962 H   0  0  0  0  0  0
  -27.8499  -25.5142   21.9072 H   0  0  0  0  0  0
  -27.0424  -24.8578   20.5351 H   0  0  0  0  0  0
  -29.0445  -15.4057   21.3577 H   0  0  0  0  0  0
  -30.7733  -23.6339   21.4509 H   0  0  0  0  0  0
  1 25  1  0  0  0
  1 30  2  0  0  0
  1 82  1  0  0  0
  2  3  1  0  0  0
  2 25  1  0  0  0
  2 85  1  0  0  0
  2 86  1  0  0  0
  3  4  1  0  0  0
  3 87  1  0  0  0
  3 88  1  0  0  0
  4  5  1  0  0  0
  4 89  1  0  0  0
  4 90  1  0  0  0
  5  6  1  0  0  0
  5 26  1  0  0  0
  5 91  1  0  0  0
  6 25  1  0  0  0
  6 92  1  0  0  0
  6 93  1  0  0  0
  7  8  2  0  0  0
  7 26  1  0  0  0
  7 29  1  0  0  0
  8  9  1  0  0  0
  8 22  1  0  0  0
  9 10  1  0  0  0
  9 27  2  0  0  0
 10 11  2  0  0  0
 10 15  1  0  0  0
 11 12  1  0  0  0
 11 94  1  0  0  0
 12 13  2  0  0  0
 12 95  1  0  0  0
 13 14  1  0  0  0
 13 31  1  0  0  0
 14 15  2  0  0  0
 14 96  1  0  0  0
 15 97  1  0  0  0
 16 17  2  0  0  0
 16 21  1  0  0  0
 16 31  1  0  0  0
 17 18  1  0  0  0
 17 98  1  0  0  0
 18 19  2  0  0  0
 18 99  1  0  0  0
 19 20  1  0  0  0
 19 24  1  0  0  0
 20 21  2  0  0  0
 20100  1  0  0  0
 21 23  1  0  0  0
 22 28  1  0  0  0
 22 32  2  0  0  0
 26 27  1  0  0  0
 28101  1  0  0  0
 28102  1  0  0  0
 29103  1  0  0  0
 29104  1  0  0  0
 33 34  1  0  0  0
 33 66  1  0  0  0
 33 70  2  0  0  0
 34 36  1  0  0  0
 34 59  1  0  0  0
 34105  1  0  0  0
 35 44  2  0  0  0
 35 45  1  0  0  0
 35 68  1  0  0  0
 36 56  1  0  0  0
 36106  1  0  0  0
 37 39  1  0  0  0
 37 47  1  0  0  0
 37 66  1  0  0  0
 37107  1  0  0  0
 38 43  2  0  0  0
 38 46  1  0  0  0
 38 47  1  0  0  0
 39 64  1  0  0  0
 39 67  2  0  0  0
 40 52  1  0  0  0
 40 53  2  0  0  0
 40 58  1  0  0  0
 41108  1  0  0  0
 41109  1  0  0  0
 41110  1  0  0  0
 41 48  1  0  0  0
 42 43  1  0  0  0
 42 66  1  0  0  0
 42111  1  0  0  0
 42112  1  0  0  0
 43 44  1  0  0  0
 44113  1  0  0  0
 45 46  2  0  0  0
 45114  1  0  0  0
 46115  1  0  0  0
 47116  1  0  0  0
 47117  1  0  0  0
 48 56  1  0  0  0
 48 65  1  0  0  0
 48118  1  0  0  0
 49 50  1  0  0  0
 49 53  1  0  0  0
 49 64  1  0  0  0
 49119  1  0  0  0
 50 51  1  0  0  0
 50120  1  0  0  0
 50121  1  0  0  0
 51 52  1  0  0  0
 51122  1  0  0  0
 51123  1  0  0  0
 52124  1  0  0  0
 52125  1  0  0  0
 53 54  1  0  0  0
 54 55  2  0  0  0
 54126  1  0  0  0
 55 57  1  0  0  0
 55127  1  0  0  0
 56 69  2  0  0  0
 57 58  2  0  0  0
 57128  1  0  0  0
 58129  1  0  0  0
 59 60  1  0  0  0
 59 61  1  0  0  0
 59 62  1  0  0  0
 60130  1  0  0  0
 60131  1  0  0  0
 60132  1  0  0  0
 61133  1  0  0  0
 61134  1  0  0  0
 61135  1  0  0  0
 62136  1  0  0  0
 62137  1  0  0  0
 62138  1  0  0  0
 63 65  1  0  0  0
 63139  1  0  0  0
 63140  1  0  0  0
 63141  1  0  0  0
 64142  1  0  0  0
 65143  1  0  0  0
 68 80  1  0  0  0
 71 72  1  0  0  0
 71 73  2  0  0  0
 71144  1  0  0  0
 72 74  2  0  0  0
 72145  1  0  0  0
 73 81  1  0  0  0
 73 84  1  0  0  0
 74 82  1  0  0  0
 74 84  1  0  0  0
 75 77  1  0  0  0
 75 79  1  0  0  0
 75146  1  0  0  0
 75147  1  0  0  0
 76 78  1  0  0  0
 76 79  1  0  0  0
 76148  1  0  0  0
 76149  1  0  0  0
 77 81  1  0  0  0
 77150  1  0  0  0
 77151  1  0  0  0
 78 81  1  0  0  0
 78152  1  0  0  0
 78153  1  0  0  0
 79 80  1  0  0  0
 79 83  1  0  0  0
 80154  1  0  0  0
 80155  1  0  0  0
 82156  1  0  0  0
 83157  1  0  0  0
M  ISO  4   1 100  68 101  80 101  82 100
M  END
> <chiral flag>
0

> <version>
0

> <s_m_source_file>
/data/baiqing/PycharmProjects/Reinvent-master-3.2/result/LINK_invent/BTK/process_docking_weight1_custom_product_contain_oxygen_bond_distance_aromatic_linkinvent_7_9_3/rearranged_h_0152.sdf

> <i_m_source_file_index>
38

> <r_mmod_Potential_Energy-OPLS-2005>
62.7201538085938

> <r_mmod_Stretch_Energy-OPLS-2005>
59.7562866210938

> <r_mmod_Bend_Energy-OPLS-2005>
127.791145324707

> <r_mmod_Torsional_Energy-OPLS-2005>
285.614837646484

> <r_mmod_Improper_Torsional_Energy-OPLS-2005>
6.51502466201782

> <r_mmod_Van_der_Waal_Energy-OPLS-2005>
134.67643737793

> <r_mmod_Electrostatic_Energy-OPLS-2005>
-349.235748291016

> <r_mmod_Solvation_Energy-OPLS-2005>
-238.110229492188

> <b_mmod_Minimization_Converged-OPLS-2005>
0

> <r_mmod_RMS_Derivative-OPLS-2005>
0.401620537042618

$$$$
38
                    3D
 Structure written by MMmdl.
164172  0  0  1  0            999 V2000
  -30.6264  -14.7154   20.4985 C   0  0  0  0  0  0
  -30.4325  -12.4374   19.4904 C   0  0  0  0  0  0
  -29.5151  -12.5202   18.2494 C   0  0  0  0  0  0
  -28.0398  -12.3345   18.6543 C   0  0  0  0  0  0
  -27.6469  -13.2111   19.8723 C   0  0  2  0  0  0
  -28.6899  -13.1357   21.0115 C   0  0  0  0  0  0
  -25.2542  -13.8169   20.5639 C   0  0  0  0  0  0
  -24.1779  -13.0441   20.9093 C   0  0  0  0  0  0
  -24.6345  -11.6902   20.8732 C   0  0  0  0  0  0
  -23.9030  -10.4276   21.0424 C   0  0  0  0  0  0
  -24.3591   -9.4189   21.9198 C   0  0  0  0  0  0
  -23.6273   -8.2217   22.0759 C   0  0  0  0  0  0
  -22.4255   -8.0256   21.3546 C   0  0  0  0  0  0
  -21.9890   -9.0225   20.4652 C   0  0  0  0  0  0
  -22.7210  -10.2112   20.3062 C   0  0  0  0  0  0
  -21.6831   -6.0725   22.5278 C   0  0  0  0  0  0
  -21.3997   -6.5629   23.8213 C   0  0  0  0  0  0
  -21.3677   -5.6792   24.9179 C   0  0  0  0  0  0
  -21.6047   -4.3048   24.7230 C   0  0  0  0  0  0
  -21.8813   -3.8138   23.4348 C   0  0  0  0  0  0
  -21.9181   -4.6955   22.3404 C   0  0  0  0  0  0
  -22.7813  -13.5243   21.1810 C   0  0  0  0  0  0
  -22.1646   -4.2155   21.0979 F   0  0  0  0  0  0
  -21.5651   -3.4535   25.7743 F   0  0  0  0  0  0
  -30.0053  -13.4845   20.4507 N   0  0  0  0  0  0
  -26.2954  -12.9298   20.3392 N   0  0  0  0  0  0
  -25.9288  -11.6477   20.5826 N   0  0  0  0  0  0
  -22.0458  -12.8245   22.0381 N   0  0  0  0  0  0
  -25.4433  -15.1910   20.4077 N   0  0  0  0  0  0
  -31.7568  -14.8568   20.0241 O   0  0  0  0  0  0
  -21.6611   -6.8860   21.4240 O   0  0  0  0  0  0
  -22.3520  -14.5582   20.6732 O   0  0  0  0  0  0
  -24.6303  -31.8563   23.1991 C   0  0  0  0  0  0
  -25.9136  -32.4758   23.8331 C   0  0  1  0  0  0
  -27.2230  -27.2691   20.1275 C   0  0  0  0  0  0
  -25.5933  -33.8559   24.2254 N   0  0  0  0  0  0
  -23.4269  -30.4794   21.5420 C   0  0  2  0  0  0
  -24.8753  -28.9269   20.1105 C   0  0  0  0  0  0
  -22.7501  -29.4610   22.4917 C   0  0  0  0  0  0
  -18.0291  -28.1391   22.8487 C   0  0  0  0  0  0
  -24.1486  -36.7282   23.2637 C   0  0  0  0  0  0
  -25.9726  -30.7675   21.3827 C   0  0  0  0  0  0
  -26.0440  -29.3889   20.7288 C   0  0  0  0  0  0
  -27.2172  -28.5686   20.7357 C   0  0  0  0  0  0
  -26.0352  -26.8815   19.4648 C   0  0  0  0  0  0
  -24.8744  -27.6788   19.4704 C   0  0  0  0  0  0
  -23.6459  -29.8134   20.1580 C   0  0  0  0  0  0
  -25.4112  -36.3074   24.0327 C   0  0  1  0  0  0
  -20.5894  -28.3702   23.1271 C   0  0  2  0  0  0
  -20.6781  -26.9420   22.5411 C   0  0  0  0  0  0
  -19.5755  -26.6387   21.5214 C   0  0  0  0  0  0
  -18.1934  -26.7931   22.1628 C   0  0  0  0  0  0
  -19.1547  -28.8862   23.2874 C   0  0  0  0  0  0
  -18.9469  -30.1460   23.8894 C   0  0  0  0  0  0
  -17.6470  -30.6588   24.0565 C   0  0  0  0  0  0
  -25.9056  -34.9445   23.5094 C   0  0  0  0  0  0
  -16.5361  -29.9089   23.6331 C   0  0  0  0  0  0
  -16.7279  -28.6510   23.0348 C   0  0  0  0  0  0
  -26.4499  -31.6584   25.0723 C   0  0  0  0  0  0
  -25.3712  -31.3752   26.1438 C   0  0  0  0  0  0
  -27.0348  -30.2994   24.6227 C   0  0  0  0  0  0
  -27.6049  -32.4329   25.7499 C   0  0  0  0  0  0
  -27.5581  -37.1791   24.8459 C   0  0  0  0  0  0
  -21.4210  -29.3046   22.3654 N   0  0  0  0  0  0
  -26.4282  -37.3777   23.9420 N   0  0  0  0  0  0
  -24.6948  -31.0531   22.0970 N   0  0  0  0  0  0
  -23.4204  -28.8152   23.3017 O   0  0  0  0  0  0
  -28.3213  -26.3786   20.1625 O   0  0  0  0  0  0
  -26.5629  -34.8922   22.4664 O   0  0  0  0  0  0
  -23.5453  -32.1386   23.7293 O   0  0  0  0  0  0
  -28.3036  -19.3767   19.1750 C   0  0  0  0  0  0
  -28.6803  -16.9511   19.2722 C   0  0  0  0  0  0
  -29.8125  -18.4218   20.8367 C   0  0  0  0  0  0
  -28.0289  -18.0674   18.7143 C   0  0  0  0  0  0
  -29.2152  -19.6083   20.2317 C   0  0  0  0  0  0
  -29.5565  -17.0672   20.3673 C   0  0  0  0  0  0
  -27.0466  -17.8352   17.6558 C   0  0  0  0  0  0
  -29.4541  -24.1492   21.8913 C   0  0  0  0  0  0
  -30.1882  -24.2506   19.4750 C   0  0  0  0  0  0
  -29.5393  -21.1129   20.6569 C   0  0  0  0  0  0
  -28.5935  -22.3628   20.2191 C   0  0  0  0  0  0
  -29.0280  -23.9199   20.4316 C   0  0  0  0  0  0
  -27.0381  -18.5993   16.5675 N   0  0  0  0  0  0
  -29.9444  -15.7986   21.0226 N   0  0  0  0  0  0
  -27.9149  -24.8986   20.1357 N   0  0  0  0  0  0
  -26.1575  -16.8457   17.7608 N   0  3  0  0  0  0
  -31.4780  -12.5464   19.1959 H   0  0  0  0  0  0
  -30.3583  -11.4520   19.9535 H   0  0  0  0  0  0
  -29.7995  -11.7636   17.5164 H   0  0  0  0  0  0
  -29.6448  -13.4868   17.7582 H   0  0  0  0  0  0
  -27.8910  -11.2819   18.8988 H   0  0  0  0  0  0
  -27.3852  -12.5479   17.8081 H   0  0  0  0  0  0
  -27.6330  -14.2273   19.5022 H   0  0  0  0  0  0
  -28.7168  -12.1334   21.4431 H   0  0  0  0  0  0
  -28.4134  -13.8041   21.8278 H   0  0  0  0  0  0
  -25.2742   -9.5654   22.4774 H   0  0  0  0  0  0
  -23.9986   -7.4604   22.7472 H   0  0  0  0  0  0
  -21.0823   -8.8730   19.8958 H   0  0  0  0  0  0
  -22.3669  -10.9640   19.6159 H   0  0  0  0  0  0
  -21.1966   -7.6134   23.9715 H   0  0  0  0  0  0
  -21.1525   -6.0521   25.9090 H   0  0  0  0  0  0
  -22.0583   -2.7601   23.2840 H   0  0  0  0  0  0
  -22.4012  -11.9866   22.4741 H   0  0  0  0  0  0
  -21.1098  -13.1317   22.2606 H   0  0  0  0  0  0
  -24.6658  -15.7454   20.7499 H   0  0  0  0  0  0
  -26.3151  -15.5192   20.8040 H   0  0  0  0  0  0
  -26.7205  -32.5414   23.1074 H   0  0  0  0  0  0
  -25.0067  -33.9691   25.0391 H   0  0  0  0  0  0
  -22.7227  -31.3011   21.3963 H   0  0  0  0  0  0
  -23.3756  -35.9605   23.3286 H   0  0  0  0  0  0
  -24.3583  -36.8916   22.2056 H   0  0  0  0  0  0
  -23.7225  -37.6474   23.6667 H   0  0  0  0  0  0
  -26.1137  -31.5263   20.6114 H   0  0  0  0  0  0
  -26.8496  -30.8174   22.0165 H   0  0  0  0  0  0
  -28.1112  -28.9156   21.2340 H   0  0  0  0  0  0
  -25.9810  -25.9344   18.9481 H   0  0  0  0  0  0
  -23.9830  -27.3231   18.9729 H   0  0  0  0  0  0
  -23.7708  -30.5887   19.4013 H   0  0  0  0  0  0
  -22.7647  -29.2462   19.8534 H   0  0  0  0  0  0
  -25.1289  -36.1915   25.0817 H   0  0  0  0  0  0
  -20.9990  -28.3286   24.1392 H   0  0  0  0  0  0
  -20.5687  -26.2315   23.3619 H   0  0  0  0  0  0
  -21.6650  -26.7449   22.1203 H   0  0  0  0  0  0
  -19.6917  -25.6296   21.1246 H   0  0  0  0  0  0
  -19.6682  -27.3198   20.6743 H   0  0  0  0  0  0
  -17.4202  -26.6675   21.4030 H   0  0  0  0  0  0
  -18.0336  -26.0074   22.9029 H   0  0  0  0  0  0
  -19.7944  -30.7274   24.2269 H   0  0  0  0  0  0
  -17.5024  -31.6266   24.5173 H   0  0  0  0  0  0
  -15.5361  -30.2994   23.7652 H   0  0  0  0  0  0
  -15.8678  -28.0827   22.7066 H   0  0  0  0  0  0
  -24.5887  -30.7100   25.7768 H   0  0  0  0  0  0
  -24.8903  -32.2933   26.4828 H   0  0  0  0  0  0
  -25.8015  -30.8950   27.0236 H   0  0  0  0  0  0
  -26.2938  -29.6739   24.1235 H   0  0  0  0  0  0
  -27.4000  -29.7262   25.4759 H   0  0  0  0  0  0
  -27.8831  -30.4253   23.9495 H   0  0  0  0  0  0
  -27.2648  -33.3635   26.2059 H   0  0  0  0  0  0
  -28.3869  -32.6881   25.0335 H   0  0  0  0  0  0
  -28.0708  -31.8468   26.5432 H   0  0  0  0  0  0
  -28.2576  -38.0111   24.7548 H   0  0  0  0  0  0
  -28.1098  -36.2646   24.6225 H   0  0  0  0  0  0
  -27.2311  -37.1372   25.8864 H   0  0  0  0  0  0
  -20.9397  -29.8763   21.6848 H   0  0  0  0  0  0
  -26.0158  -38.2846   24.1439 H   0  0  0  0  0  0
  -27.7918  -20.2046   18.7088 H   0  0  0  0  0  0
  -28.4627  -15.9804   18.8628 H   0  0  0  0  0  0
  -30.4720  -18.5562   21.6817 H   0  0  0  0  0  0
  -30.3111  -23.5280   22.1540 H   0  0  0  0  0  0
  -28.6510  -23.9040   22.5873 H   0  0  0  0  0  0
  -29.7455  -25.1849   22.0728 H   0  0  0  0  0  0
  -31.0361  -23.5842   19.6338 H   0  0  0  0  0  0
  -30.5545  -25.2691   19.6097 H   0  0  0  0  0  0
  -29.8854  -24.1462   18.4326 H   0  0  0  0  0  0
  -30.5446  -21.3099   20.2854 H   0  0  0  0  0  0
  -29.6311  -21.1211   21.7432 H   0  0  0  0  0  0
  -27.6290  -22.2111   20.7043 H   0  0  0  0  0  0
  -28.3914  -22.2628   19.1534 H   0  0  0  0  0  0
  -27.7534  -19.3031   16.4582 H   0  0  0  0  0  0
  -26.3640  -18.4906   15.8263 H   0  0  0  0  0  0
  -29.2496  -15.4946   21.6881 H   0  0  0  0  0  0
  -27.1776  -24.8089   20.8289 H   0  0  0  0  0  0
  -26.0499  -16.3415   18.6369 H   0  0  0  0  0  0
  -25.5438  -16.5929   17.0035 H   0  0  0  0  0  0
  1 25  1  0  0  0
  1 30  2  0  0  0
  1 84  1  0  0  0
  2  3  1  0  0  0
  2 25  1  0  0  0
  2 87  1  0  0  0
  2 88  1  0  0  0
  3  4  1  0  0  0
  3 89  1  0  0  0
  3 90  1  0  0  0
  4  5  1  0  0  0
  4 91  1  0  0  0
  4 92  1  0  0  0
  5  6  1  0  0  0
  5 26  1  0  0  0
  5 93  1  0  0  0
  6 25  1  0  0  0
  6 94  1  0  0  0
  6 95  1  0  0  0
  7  8  2  0  0  0
  7 26  1  0  0  0
  7 29  1  0  0  0
  8  9  1  0  0  0
  8 22  1  0  0  0
  9 10  1  0  0  0
  9 27  2  0  0  0
 10 11  2  0  0  0
 10 15  1  0  0  0
 11 12  1  0  0  0
 11 96  1  0  0  0
 12 13  2  0  0  0
 12 97  1  0  0  0
 13 14  1  0  0  0
 13 31  1  0  0  0
 14 15  2  0  0  0
 14 98  1  0  0  0
 15 99  1  0  0  0
 16 17  2  0  0  0
 16 21  1  0  0  0
 16 31  1  0  0  0
 17 18  1  0  0  0
 17100  1  0  0  0
 18 19  2  0  0  0
 18101  1  0  0  0
 19 20  1  0  0  0
 19 24  1  0  0  0
 20 21  2  0  0  0
 20102  1  0  0  0
 21 23  1  0  0  0
 22 28  1  0  0  0
 22 32  2  0  0  0
 26 27  1  0  0  0
 28103  1  0  0  0
 28104  1  0  0  0
 29105  1  0  0  0
 29106  1  0  0  0
 33 34  1  0  0  0
 33 66  1  0  0  0
 33 70  2  0  0  0
 34 36  1  0  0  0
 34 59  1  0  0  0
 34107  1  0  0  0
 35 44  2  0  0  0
 35 45  1  0  0  0
 35 68  1  0  0  0
 36 56  1  0  0  0
 36108  1  0  0  0
 37 39  1  0  0  0
 37 47  1  0  0  0
 37 66  1  0  0  0
 37109  1  0  0  0
 38 43  2  0  0  0
 38 46  1  0  0  0
 38 47  1  0  0  0
 39 64  1  0  0  0
 39 67  2  0  0  0
 40 52  1  0  0  0
 40 53  2  0  0  0
 40 58  1  0  0  0
 41110  1  0  0  0
 41111  1  0  0  0
 41112  1  0  0  0
 41 48  1  0  0  0
 42 43  1  0  0  0
 42 66  1  0  0  0
 42113  1  0  0  0
 42114  1  0  0  0
 43 44  1  0  0  0
 44115  1  0  0  0
 45 46  2  0  0  0
 45116  1  0  0  0
 46117  1  0  0  0
 47118  1  0  0  0
 47119  1  0  0  0
 48 56  1  0  0  0
 48 65  1  0  0  0
 48120  1  0  0  0
 49 50  1  0  0  0
 49 53  1  0  0  0
 49 64  1  0  0  0
 49121  1  0  0  0
 50 51  1  0  0  0
 50122  1  0  0  0
 50123  1  0  0  0
 51 52  1  0  0  0
 51124  1  0  0  0
 51125  1  0  0  0
 52126  1  0  0  0
 52127  1  0  0  0
 53 54  1  0  0  0
 54 55  2  0  0  0
 54128  1  0  0  0
 55 57  1  0  0  0
 55129  1  0  0  0
 56 69  2  0  0  0
 57 58  2  0  0  0
 57130  1  0  0  0
 58131  1  0  0  0
 59 60  1  0  0  0
 59 61  1  0  0  0
 59 62  1  0  0  0
 60132  1  0  0  0
 60133  1  0  0  0
 60134  1  0  0  0
 61135  1  0  0  0
 61136  1  0  0  0
 61137  1  0  0  0
 62138  1  0  0  0
 62139  1  0  0  0
 62140  1  0  0  0
 63 65  1  0  0  0
 63141  1  0  0  0
 63142  1  0  0  0
 63143  1  0  0  0
 64144  1  0  0  0
 65145  1  0  0  0
 68 85  1  0  0  0
 71 74  2  0  0  0
 71 75  1  0  0  0
 71146  1  0  0  0
 72 74  1  0  0  0
 72 76  2  0  0  0
 72147  1  0  0  0
 73 75  2  0  0  0
 73 76  1  0  0  0
 73148  1  0  0  0
 74 77  1  0  0  0
 75 80  1  0  0  0
 76 84  1  0  0  0
 77 83  1  0  0  0
 77 86  2  0  0  0
 78149  1  0  0  0
 78150  1  0  0  0
 78151  1  0  0  0
 78 82  1  0  0  0
 79 82  1  0  0  0
 79152  1  0  0  0
 79153  1  0  0  0
 79154  1  0  0  0
 80 81  1  0  0  0
 80155  1  0  0  0
 80156  1  0  0  0
 81 82  1  0  0  0
 81157  1  0  0  0
 81158  1  0  0  0
 82 85  1  0  0  0
 83159  1  0  0  0
 83160  1  0  0  0
 84161  1  0  0  0
 85162  1  0  0  0
 86163  1  0  0  0
 86164  1  0  0  0
M  CHG  1  86   1
M  ISO  4   1 100  68 101  84 100  85 101
M  END
> <chiral flag>
0

> <version>
0

> <s_m_source_file>
/data/baiqing/PycharmProjects/Reinvent-master-3.2/result/LINK_invent/BTK/process_docking_weight1_custom_product_contain_oxygen_bond_distance_aromatic_linkinvent_7_9_3/rearranged_h_0152.sdf

> <i_m_source_file_index>
39

> <r_mmod_Potential_Energy-OPLS-2005>
-157.608627319336

> <r_mmod_Stretch_Energy-OPLS-2005>
123.118019104004

> <r_mmod_Bend_Energy-OPLS-2005>
156.072631835938

> <r_mmod_Torsional_Energy-OPLS-2005>
270.889923095703

> <r_mmod_Improper_Torsional_Energy-OPLS-2005>
11.1838302612305

> <r_mmod_Van_der_Waal_Energy-OPLS-2005>
136.591445922852

> <r_mmod_Electrostatic_Energy-OPLS-2005>
-497.805725097656

> <r_mmod_Solvation_Energy-OPLS-2005>
-432.852386474609

> <b_mmod_Minimization_Converged-OPLS-2005>
0

> <r_mmod_RMS_Derivative-OPLS-2005>
1.77788400650024

$$$$
39
                    3D
 Structure written by MMmdl.
146154  0  0  1  0            999 V2000
  -30.2577  -15.6880   20.3107 C   0  0  0  0  0  0
  -30.4286  -13.1034   19.5684 C   0  0  0  0  0  0
  -29.5637  -12.6762   18.3437 C   0  0  0  0  0  0
  -28.1354  -12.3090   18.7734 C   0  0  0  0  0  0
  -27.5964  -13.3175   19.8114 C   0  0  2  0  0  0
  -28.6011  -13.6621   20.9356 C   0  0  0  0  0  0
  -25.2327  -13.8306   20.5790 C   0  0  0  0  0  0
  -24.1717  -13.0442   20.9266 C   0  0  0  0  0  0
  -24.6428  -11.6956   20.8737 C   0  0  0  0  0  0
  -23.9130  -10.4299   21.0382 C   0  0  0  0  0  0
  -24.3662   -9.4213   21.9170 C   0  0  0  0  0  0
  -23.6320   -8.2256   22.0751 C   0  0  0  0  0  0
  -22.4299   -8.0293   21.3544 C   0  0  0  0  0  0
  -21.9946   -9.0267   20.4642 C   0  0  0  0  0  0
  -22.7291  -10.2137   20.3042 C   0  0  0  0  0  0
  -21.6862   -6.0744   22.5279 C   0  0  0  0  0  0
  -21.4021   -6.5645   23.8213 C   0  0  0  0  0  0
  -21.3662   -5.6795   24.9174 C   0  0  0  0  0  0
  -21.6044   -4.3058   24.7223 C   0  0  0  0  0  0
  -21.8818   -3.8151   23.4343 C   0  0  0  0  0  0
  -21.9195   -4.6970   22.3401 C   0  0  0  0  0  0
  -22.7729  -13.5165   21.1916 C   0  0  0  0  0  0
  -22.1662   -4.2155   21.0978 F   0  0  0  0  0  0
  -21.5627   -3.4540   25.7734 F   0  0  0  0  0  0
  -29.7899  -14.2905   20.3098 N   0  0  0  0  0  0
  -26.2777  -12.9653   20.3200 N   0  0  0  0  0  0
  -25.9377  -11.6713   20.5659 N   0  0  0  0  0  0
  -22.0403  -12.8135   22.0471 N   0  0  0  0  0  0
  -25.3938  -15.2052   20.4293 N   0  0  0  0  0  0
  -31.4862  -15.6217   20.1004 O   0  0  0  0  0  0
  -21.6654   -6.8894   21.4244 O   0  0  0  0  0  0
  -22.3395  -14.5463   20.6759 O   0  0  0  0  0  0
  -24.6883  -31.7940   23.1471 C   0  0  0  0  0  0
  -25.9441  -32.4437   23.8037 C   0  0  1  0  0  0
  -27.2295  -26.6542   20.2198 C   0  0  0  0  0  0
  -25.5999  -33.8265   24.1919 N   0  0  0  0  0  0
  -23.5170  -30.3933   21.5019 C   0  0  2  0  0  0
  -24.9759  -28.7241   20.1180 C   0  0  0  0  0  0
  -22.7789  -29.4282   22.4694 C   0  0  0  0  0  0
  -18.0342  -28.1424   22.8452 C   0  0  0  0  0  0
  -24.1496  -36.7141   23.2654 C   0  0  0  0  0  0
  -26.0996  -30.5107   21.4194 C   0  0  0  0  0  0
  -26.1650  -29.0702   20.7702 C   0  0  0  0  0  0
  -27.2737  -28.0642   20.7878 C   0  0  0  0  0  0
  -26.0082  -26.5304   19.5063 C   0  0  0  0  0  0
  -24.9396  -27.4807   19.4619 C   0  0  0  0  0  0
  -23.7740  -29.6852   20.1394 C   0  0  0  0  0  0
  -25.4148  -36.2878   24.0278 C   0  0  1  0  0  0
  -20.5980  -28.3786   23.1132 C   0  0  2  0  0  0
  -20.6805  -26.9440   22.5405 C   0  0  0  0  0  0
  -19.5782  -26.6369   21.5217 C   0  0  0  0  0  0
  -18.1965  -26.7951   22.1618 C   0  0  0  0  0  0
  -19.1610  -28.8931   23.2771 C   0  0  0  0  0  0
  -18.9514  -30.1513   23.8819 C   0  0  0  0  0  0
  -17.6503  -30.6605   24.0549 C   0  0  0  0  0  0
  -25.9131  -34.9269   23.4939 C   0  0  0  0  0  0
  -16.5392  -29.9085   23.6352 C   0  0  0  0  0  0
  -16.7322  -28.6509   23.0368 C   0  0  0  0  0  0
  -26.4603  -31.6494   25.0682 C   0  0  0  0  0  0
  -25.3655  -31.3827   26.1287 C   0  0  0  0  0  0
  -27.0545  -30.2827   24.6621 C   0  0  0  0  0  0
  -27.6040  -32.4369   25.7504 C   0  0  0  0  0  0
  -27.5563  -37.1726   24.8465 C   0  0  0  0  0  0
  -21.4431  -29.3023   22.3445 N   0  0  0  0  0  0
  -26.4269  -37.3645   23.9408 N   0  0  0  0  0  0
  -24.7923  -30.9337   22.0752 N   0  0  0  0  0  0
  -23.4208  -28.7893   23.3064 O   0  0  0  0  0  0
  -28.1819  -25.4114   20.3104 O   0  0  0  0  0  0
  -26.5780  -34.8857   22.4562 O   0  0  0  0  0  0
  -23.5892  -32.1037   23.6394 O   0  0  0  0  0  0
  -28.9919  -22.0999   20.4696 C   0  0  0  0  0  0
  -28.5293  -18.0381   19.3356 C   0  0  0  0  0  0
  -28.0185  -19.5988   19.5682 C   0  0  0  0  0  0
  -29.8921  -19.1628   20.7080 C   0  0  0  0  0  0
  -29.4377  -17.4032   20.4713 C   0  0  2  0  0  0
  -27.9803  -23.6507   20.0870 C   0  0  0  0  0  0
  -28.9654  -20.5255   20.2818 N   0  0  0  0  0  0
  -30.0079  -22.4380   21.0843 O   0  0  0  0  0  0
  -31.4263  -13.3596   19.2109 H   0  0  0  0  0  0
  -30.5829  -12.2593   20.2426 H   0  0  0  0  0  0
  -30.0275  -11.8390   17.8206 H   0  0  0  0  0  0
  -29.5260  -13.5013   17.6311 H   0  0  0  0  0  0
  -28.1642  -11.3121   19.2150 H   0  0  0  0  0  0
  -27.4738  -12.2466   17.9086 H   0  0  0  0  0  0
  -27.4576  -14.2366   19.2402 H   0  0  0  0  0  0
  -28.8544  -12.7851   21.5331 H   0  0  0  0  0  0
  -28.1547  -14.3805   21.6246 H   0  0  0  0  0  0
  -25.2802   -9.5688   22.4752 H   0  0  0  0  0  0
  -24.0020   -7.4651   22.7479 H   0  0  0  0  0  0
  -21.0874   -8.8795   19.8951 H   0  0  0  0  0  0
  -22.3748  -10.9676   19.6152 H   0  0  0  0  0  0
  -21.2017   -7.6153   23.9719 H   0  0  0  0  0  0
  -21.1484   -6.0524   25.9077 H   0  0  0  0  0  0
  -22.0594   -2.7613   23.2841 H   0  0  0  0  0  0
  -22.4052  -11.9812   22.4861 H   0  0  0  0  0  0
  -21.1009  -13.1125   22.2677 H   0  0  0  0  0  0
  -24.6271  -15.8565   20.5578 H   0  0  0  0  0  0
  -26.2488  -15.6535   20.1269 H   0  0  0  0  0  0
  -26.7527  -32.4897   23.0751 H   0  0  0  0  0  0
  -25.0047  -33.9295   25.0006 H   0  0  0  0  0  0
  -22.8452  -31.2319   21.3074 H   0  0  0  0  0  0
  -23.3779  -35.9448   23.3257 H   0  0  0  0  0  0
  -24.3563  -36.8866   22.2080 H   0  0  0  0  0  0
  -23.7235  -37.6293   23.6774 H   0  0  0  0  0  0
  -26.3082  -31.2324   20.6287 H   0  0  0  0  0  0
  -26.9483  -30.5801   22.0873 H   0  0  0  0  0  0
  -28.1656  -28.3358   21.3347 H   0  0  0  0  0  0
  -25.8343  -25.5910   19.0009 H   0  0  0  0  0  0
  -24.0437  -27.2063   18.9219 H   0  0  0  0  0  0
  -23.9528  -30.4430   19.3758 H   0  0  0  0  0  0
  -22.8780  -29.1537   19.8143 H   0  0  0  0  0  0
  -25.1360  -36.1632   25.0767 H   0  0  0  0  0  0
  -21.0061  -28.3417   24.1259 H   0  0  0  0  0  0
  -20.5663  -26.2413   23.3672 H   0  0  0  0  0  0
  -21.6666  -26.7374   22.1227 H   0  0  0  0  0  0
  -19.6937  -25.6259   21.1298 H   0  0  0  0  0  0
  -19.6728  -27.3135   20.6713 H   0  0  0  0  0  0
  -17.4235  -26.6694   21.4021 H   0  0  0  0  0  0
  -18.0351  -26.0112   22.9032 H   0  0  0  0  0  0
  -19.7989  -30.7350   24.2154 H   0  0  0  0  0  0
  -17.5053  -31.6277   24.5167 H   0  0  0  0  0  0
  -15.5389  -30.2962   23.7721 H   0  0  0  0  0  0
  -15.8723  -28.0801   22.7127 H   0  0  0  0  0  0
  -24.5868  -30.7147   25.7584 H   0  0  0  0  0  0
  -24.8813  -32.3053   26.4496 H   0  0  0  0  0  0
  -25.7819  -30.9131   27.0207 H   0  0  0  0  0  0
  -26.3272  -29.6423   24.1620 H   0  0  0  0  0  0
  -27.3957  -29.7297   25.5383 H   0  0  0  0  0  0
  -27.9258  -30.3939   24.0166 H   0  0  0  0  0  0
  -27.2571  -33.3747   26.1857 H   0  0  0  0  0  0
  -28.3965  -32.6809   25.0417 H   0  0  0  0  0  0
  -28.0582  -31.8651   26.5606 H   0  0  0  0  0  0
  -28.2542  -38.0057   24.7518 H   0  0  0  0  0  0
  -28.1097  -36.2578   24.6287 H   0  0  0  0  0  0
  -27.2278  -37.1353   25.8867 H   0  0  0  0  0  0
  -20.9748  -29.8669   21.6495 H   0  0  0  0  0  0
  -26.0091  -38.2689   24.1425 H   0  0  0  0  0  0
  -29.1084  -18.0134   18.4112 H   0  0  0  0  0  0
  -27.6702  -17.3935   19.1469 H   0  0  0  0  0  0
  -27.1024  -19.5781   20.1600 H   0  0  0  0  0  0
  -27.7428  -20.0429   18.6109 H   0  0  0  0  0  0
  -30.8496  -19.3056   20.2053 H   0  0  0  0  0  0
  -30.1289  -19.2885   21.7649 H   0  0  0  0  0  0
  -28.7621  -17.2039   21.3035 H   0  0  0  0  0  0
  -27.0249  -23.4435   20.5686 H   0  0  0  0  0  0
  -27.7626  -23.5505   19.0239 H   0  0  0  0  0  0
  1 25  1  0  0  0
  1 30  2  0  0  0
  1 75  1  0  0  0
  2  3  1  0  0  0
  2 25  1  0  0  0
  2 79  1  0  0  0
  2 80  1  0  0  0
  3  4  1  0  0  0
  3 81  1  0  0  0
  3 82  1  0  0  0
  4  5  1  0  0  0
  4 83  1  0  0  0
  4 84  1  0  0  0
  5  6  1  0  0  0
  5 26  1  0  0  0
  5 85  1  0  0  0
  6 25  1  0  0  0
  6 86  1  0  0  0
  6 87  1  0  0  0
  7  8  2  0  0  0
  7 26  1  0  0  0
  7 29  1  0  0  0
  8  9  1  0  0  0
  8 22  1  0  0  0
  9 10  1  0  0  0
  9 27  2  0  0  0
 10 11  2  0  0  0
 10 15  1  0  0  0
 11 12  1  0  0  0
 11 88  1  0  0  0
 12 13  2  0  0  0
 12 89  1  0  0  0
 13 14  1  0  0  0
 13 31  1  0  0  0
 14 15  2  0  0  0
 14 90  1  0  0  0
 15 91  1  0  0  0
 16 17  2  0  0  0
 16 21  1  0  0  0
 16 31  1  0  0  0
 17 18  1  0  0  0
 17 92  1  0  0  0
 18 19  2  0  0  0
 18 93  1  0  0  0
 19 20  1  0  0  0
 19 24  1  0  0  0
 20 21  2  0  0  0
 20 94  1  0  0  0
 21 23  1  0  0  0
 22 28  1  0  0  0
 22 32  2  0  0  0
 26 27  1  0  0  0
 28 95  1  0  0  0
 28 96  1  0  0  0
 29 97  1  0  0  0
 29 98  1  0  0  0
 33 34  1  0  0  0
 33 66  1  0  0  0
 33 70  2  0  0  0
 34 36  1  0  0  0
 34 59  1  0  0  0
 34 99  1  0  0  0
 35 44  2  0  0  0
 35 45  1  0  0  0
 35 68  1  0  0  0
 36 56  1  0  0  0
 36100  1  0  0  0
 37 39  1  0  0  0
 37 47  1  0  0  0
 37 66  1  0  0  0
 37101  1  0  0  0
 38 43  2  0  0  0
 38 46  1  0  0  0
 38 47  1  0  0  0
 39 64  1  0  0  0
 39 67  2  0  0  0
 40 52  1  0  0  0
 40 53  2  0  0  0
 40 58  1  0  0  0
 41102  1  0  0  0
 41103  1  0  0  0
 41104  1  0  0  0
 41 48  1  0  0  0
 42 43  1  0  0  0
 42 66  1  0  0  0
 42105  1  0  0  0
 42106  1  0  0  0
 43 44  1  0  0  0
 44107  1  0  0  0
 45 46  2  0  0  0
 45108  1  0  0  0
 46109  1  0  0  0
 47110  1  0  0  0
 47111  1  0  0  0
 48 56  1  0  0  0
 48 65  1  0  0  0
 48112  1  0  0  0
 49 50  1  0  0  0
 49 53  1  0  0  0
 49 64  1  0  0  0
 49113  1  0  0  0
 50 51  1  0  0  0
 50114  1  0  0  0
 50115  1  0  0  0
 51 52  1  0  0  0
 51116  1  0  0  0
 51117  1  0  0  0
 52118  1  0  0  0
 52119  1  0  0  0
 53 54  1  0  0  0
 54 55  2  0  0  0
 54120  1  0  0  0
 55 57  1  0  0  0
 55121  1  0  0  0
 56 69  2  0  0  0
 57 58  2  0  0  0
 57122  1  0  0  0
 58123  1  0  0  0
 59 60  1  0  0  0
 59 61  1  0  0  0
 59 62  1  0  0  0
 60124  1  0  0  0
 60125  1  0  0  0
 60126  1  0  0  0
 61127  1  0  0  0
 61128  1  0  0  0
 61129  1  0  0  0
 62130  1  0  0  0
 62131  1  0  0  0
 62132  1  0  0  0
 63 65  1  0  0  0
 63133  1  0  0  0
 63134  1  0  0  0
 63135  1  0  0  0
 64136  1  0  0  0
 65137  1  0  0  0
 68 76  1  0  0  0
 71 76  1  0  0  0
 71 77  1  0  0  0
 71 78  2  0  0  0
 72 73  1  0  0  0
 72 75  1  0  0  0
 72138  1  0  0  0
 72139  1  0  0  0
 73 77  1  0  0  0
 73140  1  0  0  0
 73141  1  0  0  0
 74 75  1  0  0  0
 74 77  1  0  0  0
 74142  1  0  0  0
 74143  1  0  0  0
 75144  1  0  0  0
 76145  1  0  0  0
 76146  1  0  0  0
M  ISO  4   1 100  68 101  75 100  76 101
M  END
> <chiral flag>
0

> <version>
0

> <s_m_source_file>
/data/baiqing/PycharmProjects/Reinvent-master-3.2/result/LINK_invent/BTK/process_docking_weight1_custom_product_contain_oxygen_bond_distance_aromatic_linkinvent_7_9_3/rearranged_h_0152.sdf

> <i_m_source_file_index>
40

> <r_mmod_Potential_Energy-OPLS-2005>
2722.47387695312

> <r_mmod_Stretch_Energy-OPLS-2005>
1143.03845214844

> <r_mmod_Bend_Energy-OPLS-2005>
732.932556152344

> <r_mmod_Torsional_Energy-OPLS-2005>
258.965087890625

> <r_mmod_Improper_Torsional_Energy-OPLS-2005>
1.71887004375458

> <r_mmod_Van_der_Waal_Energy-OPLS-2005>
102.857963562012

> <r_mmod_Electrostatic_Energy-OPLS-2005>
-263.268249511719

> <r_mmod_Solvation_Energy-OPLS-2005>
-243.998733520508

> <b_mmod_Minimization_Converged-OPLS-2005>
1

> <r_mmod_RMS_Derivative-OPLS-2005>
0.0467333681881428

$$$$
40
                    3D
 Structure written by MMmdl.
148156  0  0  1  0            999 V2000
  -30.5630  -14.8160   20.4867 C   0  0  0  0  0  0
  -30.4517  -12.5059   19.4880 C   0  0  0  0  0  0
  -29.5263  -12.5484   18.2471 C   0  0  0  0  0  0
  -28.0455  -12.3586   18.6426 C   0  0  0  0  0  0
  -27.6486  -13.2286   19.8639 C   0  0  2  0  0  0
  -28.6919  -13.0881   20.9894 C   0  0  0  0  0  0
  -25.2530  -13.8187   20.5701 C   0  0  0  0  0  0
  -24.1803  -13.0432   20.9182 C   0  0  0  0  0  0
  -24.6393  -11.6905   20.8720 C   0  0  0  0  0  0
  -23.9066  -10.4291   21.0396 C   0  0  0  0  0  0
  -24.3620   -9.4206   21.9176 C   0  0  0  0  0  0
  -23.6300   -8.2241   22.0742 C   0  0  0  0  0  0
  -22.4277   -8.0287   21.3541 C   0  0  0  0  0  0
  -21.9919   -9.0252   20.4631 C   0  0  0  0  0  0
  -22.7245  -10.2130   20.3036 C   0  0  0  0  0  0
  -21.6857   -6.0735   22.5282 C   0  0  0  0  0  0
  -21.4020   -6.5632   23.8213 C   0  0  0  0  0  0
  -21.3665   -5.6784   24.9179 C   0  0  0  0  0  0
  -21.6046   -4.3051   24.7230 C   0  0  0  0  0  0
  -21.8814   -3.8141   23.4351 C   0  0  0  0  0  0
  -21.9194   -4.6963   22.3406 C   0  0  0  0  0  0
  -22.7825  -13.5211   21.1868 C   0  0  0  0  0  0
  -22.1657   -4.2149   21.0986 F   0  0  0  0  0  0
  -21.5635   -3.4529   25.7740 F   0  0  0  0  0  0
  -29.9856  -13.5450   20.4474 N   0  0  0  0  0  0
  -26.2962  -12.9376   20.3312 N   0  0  0  0  0  0
  -25.9324  -11.6514   20.5730 N   0  0  0  0  0  0
  -22.0479  -12.8191   22.0428 N   0  0  0  0  0  0
  -25.4266  -15.1912   20.4175 N   0  0  0  0  0  0
  -31.7139  -14.9492   20.0501 O   0  0  0  0  0  0
  -21.6639   -6.8886   21.4246 O   0  0  0  0  0  0
  -22.3497  -14.5517   20.6726 O   0  0  0  0  0  0
  -24.6348  -31.8518   23.1948 C   0  0  0  0  0  0
  -25.9160  -32.4729   23.8311 C   0  0  1  0  0  0
  -27.2342  -27.2385   20.1314 C   0  0  0  0  0  0
  -25.5954  -33.8532   24.2238 N   0  0  0  0  0  0
  -23.4353  -30.4729   21.5367 C   0  0  2  0  0  0
  -24.8912  -28.9176   20.1052 C   0  0  0  0  0  0
  -22.7526  -29.4592   22.4880 C   0  0  0  0  0  0
  -18.0294  -28.1385   22.8464 C   0  0  0  0  0  0
  -24.1492  -36.7274   23.2639 C   0  0  0  0  0  0
  -25.9844  -30.7557   21.3823 C   0  0  0  0  0  0
  -26.0633  -29.3772   20.7224 C   0  0  0  0  0  0
  -27.2401  -28.5502   20.7267 C   0  0  0  0  0  0
  -26.0429  -26.8577   19.4802 C   0  0  0  0  0  0
  -24.8886  -27.6668   19.4691 C   0  0  0  0  0  0
  -23.6589  -29.8047   20.1542 C   0  0  0  0  0  0
  -25.4116  -36.3051   24.0321 C   0  0  1  0  0  0
  -20.5898  -28.3712   23.1240 C   0  0  2  0  0  0
  -20.6786  -26.9428   22.5394 C   0  0  0  0  0  0
  -19.5771  -26.6378   21.5196 C   0  0  0  0  0  0
  -18.1946  -26.7923   22.1605 C   0  0  0  0  0  0
  -19.1548  -28.8867   23.2840 C   0  0  0  0  0  0
  -18.9478  -30.1464   23.8866 C   0  0  0  0  0  0
  -17.6480  -30.6590   24.0561 C   0  0  0  0  0  0
  -25.9059  -34.9424   23.5082 C   0  0  0  0  0  0
  -16.5365  -29.9088   23.6333 C   0  0  0  0  0  0
  -16.7280  -28.6506   23.0345 C   0  0  0  0  0  0
  -26.4522  -31.6558   25.0709 C   0  0  0  0  0  0
  -25.3736  -31.3725   26.1426 C   0  0  0  0  0  0
  -27.0384  -30.2960   24.6240 C   0  0  0  0  0  0
  -27.6063  -32.4312   25.7493 C   0  0  0  0  0  0
  -27.5580  -37.1792   24.8467 C   0  0  0  0  0  0
  -21.4225  -29.3055   22.3627 N   0  0  0  0  0  0
  -26.4290  -37.3758   23.9414 N   0  0  0  0  0  0
  -24.7033  -31.0451   22.0939 N   0  0  0  0  0  0
  -23.4202  -28.8135   23.3000 O   0  0  0  0  0  0
  -28.2588  -26.2510   20.1934 O   0  0  0  0  0  0
  -26.5635  -34.8919   22.4649 O   0  0  0  0  0  0
  -23.5489  -32.1358   23.7223 O   0  0  0  0  0  0
  -29.3636  -18.7822   21.0819 C   0  0  0  0  0  0
  -30.2542  -19.7664   19.1726 C   0  0  0  0  0  0
  -29.5533  -20.0382   20.3237 C   0  0  0  0  0  0
  -29.8830  -17.5829   20.5302 C   0  0  0  0  0  0
  -27.9181  -25.0732   20.9311 C   0  0  0  0  0  0
  -29.7347  -16.1202   21.0327 C   0  0  0  0  0  0
  -28.1746  -23.6878   20.9855 C   0  0  0  0  0  0
  -29.0187  -22.6881   20.2031 C   0  0  0  0  0  0
  -28.9031  -15.9706   21.9756 N   0  0  0  0  0  0
  -29.0443  -21.3875   20.7443 N   0  0  0  0  0  0
  -29.6324  -22.9667   19.1721 O   0  0  0  0  0  0
  -27.4432  -23.0974   21.9469 O   0  0  0  0  0  0
  -30.6591  -18.0376   19.0197 S   0  0  0  0  0  0
  -31.4887  -12.6553   19.1862 H   0  0  0  0  0  0
  -30.4279  -11.5170   19.9482 H   0  0  0  0  0  0
  -29.8256  -11.7845   17.5283 H   0  0  0  0  0  0
  -29.6481  -13.5078   17.7413 H   0  0  0  0  0  0
  -27.8945  -11.3037   18.8740 H   0  0  0  0  0  0
  -27.3954  -12.5775   17.7953 H   0  0  0  0  0  0
  -27.6599  -14.2650   19.5256 H   0  0  0  0  0  0
  -28.7554  -12.0434   21.2965 H   0  0  0  0  0  0
  -28.3869  -13.6044   21.8946 H   0  0  0  0  0  0
  -25.2773   -9.5677   22.4742 H   0  0  0  0  0  0
  -24.0008   -7.4626   22.7446 H   0  0  0  0  0  0
  -21.0855   -8.8762   19.8933 H   0  0  0  0  0  0
  -22.3715  -10.9655   19.6126 H   0  0  0  0  0  0
  -21.2000   -7.6139   23.9726 H   0  0  0  0  0  0
  -21.1503   -6.0512   25.9085 H   0  0  0  0  0  0
  -22.0591   -2.7603   23.2850 H   0  0  0  0  0  0
  -22.4096  -11.9840   22.4803 H   0  0  0  0  0  0
  -21.1087  -13.1185   22.2628 H   0  0  0  0  0  0
  -24.6772  -15.8593   20.5604 H   0  0  0  0  0  0
  -26.3147  -15.6297   20.2079 H   0  0  0  0  0  0
  -26.7233  -32.5382   23.1059 H   0  0  0  0  0  0
  -25.0120  -33.9660   25.0399 H   0  0  0  0  0  0
  -22.7334  -31.2960   21.3858 H   0  0  0  0  0  0
  -23.3756  -35.9608   23.3290 H   0  0  0  0  0  0
  -24.3586  -36.8907   22.2060 H   0  0  0  0  0  0
  -23.7249  -37.6472   23.6673 H   0  0  0  0  0  0
  -26.1307  -31.5169   20.6146 H   0  0  0  0  0  0
  -26.8571  -30.8014   22.0221 H   0  0  0  0  0  0
  -28.1312  -28.8920   21.2342 H   0  0  0  0  0  0
  -25.9944  -25.8867   19.0077 H   0  0  0  0  0  0
  -23.9951  -27.3088   18.9754 H   0  0  0  0  0  0
  -23.7854  -30.5818   19.3993 H   0  0  0  0  0  0
  -22.7781  -29.2387   19.8443 H   0  0  0  0  0  0
  -25.1299  -36.1892   25.0814 H   0  0  0  0  0  0
  -20.9975  -28.3303   24.1367 H   0  0  0  0  0  0
  -20.5672  -26.2335   23.3604 H   0  0  0  0  0  0
  -21.6658  -26.7447   22.1206 H   0  0  0  0  0  0
  -19.6947  -25.6284   21.1248 H   0  0  0  0  0  0
  -19.6710  -27.3171   20.6711 H   0  0  0  0  0  0
  -17.4211  -26.6644   21.4014 H   0  0  0  0  0  0
  -18.0369  -26.0067   22.9008 H   0  0  0  0  0  0
  -19.7961  -30.7274   24.2225 H   0  0  0  0  0  0
  -17.5045  -31.6269   24.5174 H   0  0  0  0  0  0
  -15.5371  -30.2993   23.7681 H   0  0  0  0  0  0
  -15.8667  -28.0828   22.7072 H   0  0  0  0  0  0
  -24.5925  -30.7052   25.7768 H   0  0  0  0  0  0
  -24.8915  -32.2898   26.4813 H   0  0  0  0  0  0
  -25.8042  -30.8943   27.0228 H   0  0  0  0  0  0
  -26.2982  -29.6676   24.1270 H   0  0  0  0  0  0
  -27.4047  -29.7256   25.4788 H   0  0  0  0  0  0
  -27.8869  -30.4204   23.9506 H   0  0  0  0  0  0
  -27.2653  -33.3623   26.2033 H   0  0  0  0  0  0
  -28.3897  -32.6846   25.0339 H   0  0  0  0  0  0
  -28.0703  -31.8458   26.5448 H   0  0  0  0  0  0
  -28.2586  -38.0098   24.7515 H   0  0  0  0  0  0
  -28.1079  -36.2628   24.6279 H   0  0  0  0  0  0
  -27.2298  -37.1423   25.8869 H   0  0  0  0  0  0
  -20.9419  -29.8779   21.6822 H   0  0  0  0  0  0
  -26.0159  -38.2832   24.1408 H   0  0  0  0  0  0
  -28.8230  -18.8007   22.0174 H   0  0  0  0  0  0
  -30.5614  -20.4586   18.3968 H   0  0  0  0  0  0
  -27.2212  -25.4036   21.6915 H   0  0  0  0  0  0
  -28.4676  -16.8494   22.2231 H   0  0  0  0  0  0
  -28.6217  -21.3704   21.6610 H   0  0  0  0  0  0
  -27.2681  -22.2112   21.6584 H   0  0  0  0  0  0
  1 25  1  0  0  0
  1 30  2  0  0  0
  1 76  1  0  0  0
  2  3  1  0  0  0
  2 25  1  0  0  0
  2 84  1  0  0  0
  2 85  1  0  0  0
  3  4  1  0  0  0
  3 86  1  0  0  0
  3 87  1  0  0  0
  4  5  1  0  0  0
  4 88  1  0  0  0
  4 89  1  0  0  0
  5  6  1  0  0  0
  5 26  1  0  0  0
  5 90  1  0  0  0
  6 25  1  0  0  0
  6 91  1  0  0  0
  6 92  1  0  0  0
  7  8  2  0  0  0
  7 26  1  0  0  0
  7 29  1  0  0  0
  8  9  1  0  0  0
  8 22  1  0  0  0
  9 10  1  0  0  0
  9 27  2  0  0  0
 10 11  2  0  0  0
 10 15  1  0  0  0
 11 12  1  0  0  0
 11 93  1  0  0  0
 12 13  2  0  0  0
 12 94  1  0  0  0
 13 14  1  0  0  0
 13 31  1  0  0  0
 14 15  2  0  0  0
 14 95  1  0  0  0
 15 96  1  0  0  0
 16 17  2  0  0  0
 16 21  1  0  0  0
 16 31  1  0  0  0
 17 18  1  0  0  0
 17 97  1  0  0  0
 18 19  2  0  0  0
 18 98  1  0  0  0
 19 20  1  0  0  0
 19 24  1  0  0  0
 20 21  2  0  0  0
 20 99  1  0  0  0
 21 23  1  0  0  0
 22 28  1  0  0  0
 22 32  2  0  0  0
 26 27  1  0  0  0
 28100  1  0  0  0
 28101  1  0  0  0
 29102  1  0  0  0
 29103  1  0  0  0
 33 34  1  0  0  0
 33 66  1  0  0  0
 33 70  2  0  0  0
 34 36  1  0  0  0
 34 59  1  0  0  0
 34104  1  0  0  0
 35 44  2  0  0  0
 35 45  1  0  0  0
 35 68  1  0  0  0
 36 56  1  0  0  0
 36105  1  0  0  0
 37 39  1  0  0  0
 37 47  1  0  0  0
 37 66  1  0  0  0
 37106  1  0  0  0
 38 43  2  0  0  0
 38 46  1  0  0  0
 38 47  1  0  0  0
 39 64  1  0  0  0
 39 67  2  0  0  0
 40 52  1  0  0  0
 40 53  2  0  0  0
 40 58  1  0  0  0
 41107  1  0  0  0
 41108  1  0  0  0
 41109  1  0  0  0
 41 48  1  0  0  0
 42 43  1  0  0  0
 42 66  1  0  0  0
 42110  1  0  0  0
 42111  1  0  0  0
 43 44  1  0  0  0
 44112  1  0  0  0
 45 46  2  0  0  0
 45113  1  0  0  0
 46114  1  0  0  0
 47115  1  0  0  0
 47116  1  0  0  0
 48 56  1  0  0  0
 48 65  1  0  0  0
 48117  1  0  0  0
 49 50  1  0  0  0
 49 53  1  0  0  0
 49 64  1  0  0  0
 49118  1  0  0  0
 50 51  1  0  0  0
 50119  1  0  0  0
 50120  1  0  0  0
 51 52  1  0  0  0
 51121  1  0  0  0
 51122  1  0  0  0
 52123  1  0  0  0
 52124  1  0  0  0
 53 54  1  0  0  0
 54 55  2  0  0  0
 54125  1  0  0  0
 55 57  1  0  0  0
 55126  1  0  0  0
 56 69  2  0  0  0
 57 58  2  0  0  0
 57127  1  0  0  0
 58128  1  0  0  0
 59 60  1  0  0  0
 59 61  1  0  0  0
 59 62  1  0  0  0
 60129  1  0  0  0
 60130  1  0  0  0
 60131  1  0  0  0
 61132  1  0  0  0
 61133  1  0  0  0
 61134  1  0  0  0
 62135  1  0  0  0
 62136  1  0  0  0
 62137  1  0  0  0
 63 65  1  0  0  0
 63138  1  0  0  0
 63139  1  0  0  0
 63140  1  0  0  0
 64141  1  0  0  0
 65142  1  0  0  0
 68 75  1  0  0  0
 71 73  1  0  0  0
 71 74  2  0  0  0
 71143  1  0  0  0
 72 73  2  0  0  0
 72 83  1  0  0  0
 72144  1  0  0  0
 73 80  1  0  0  0
 74 76  1  0  0  0
 74 83  1  0  0  0
 75 77  2  0  0  0
 75145  1  0  0  0
 76 79  2  0  0  0
 77 78  1  0  0  0
 77 82  1  0  0  0
 78 80  1  0  0  0
 78 81  2  0  0  0
 79146  1  0  0  0
 80147  1  0  0  0
 82148  1  0  0  0
M  ISO  4   1 100  68 101  75 101  76 100
M  END
> <chiral flag>
0

> <version>
0

> <s_m_source_file>
/data/baiqing/PycharmProjects/Reinvent-master-3.2/result/LINK_invent/BTK/process_docking_weight1_custom_product_contain_oxygen_bond_distance_aromatic_linkinvent_7_9_3/rearranged_h_0152.sdf

> <i_m_source_file_index>
41

> <r_mmod_Potential_Energy-OPLS-2005>
399.477935791016

> <r_mmod_Stretch_Energy-OPLS-2005>
164.689804077148

> <r_mmod_Bend_Energy-OPLS-2005>
275.553558349609

> <r_mmod_Torsional_Energy-OPLS-2005>
207.669967651367

> <r_mmod_Improper_Torsional_Energy-OPLS-2005>
2.7548999786377

> <r_mmod_Van_der_Waal_Energy-OPLS-2005>
130.023941040039

> <r_mmod_Electrostatic_Energy-OPLS-2005>
-254.015686035156

> <r_mmod_Solvation_Energy-OPLS-2005>
-240.587203979492

> <b_mmod_Minimization_Converged-OPLS-2005>
0

> <r_mmod_RMS_Derivative-OPLS-2005>
1.76117324829102

$$$$
41
                    3D
 Structure written by MMmdl.
147155  0  0  1  0            999 V2000
  -30.5281  -14.8638   20.4258 C   0  0  0  0  0  0
  -30.4300  -12.5340   19.4872 C   0  0  0  0  0  0
  -29.5111  -12.5261   18.2435 C   0  0  0  0  0  0
  -28.0395  -12.3307   18.6534 C   0  0  0  0  0  0
  -27.6273  -13.2375   19.8437 C   0  0  2  0  0  0
  -28.6656  -13.2113   20.9834 C   0  0  0  0  0  0
  -25.2447  -13.8189   20.5767 C   0  0  0  0  0  0
  -24.1741  -13.0426   20.9231 C   0  0  0  0  0  0
  -24.6336  -11.6901   20.8733 C   0  0  0  0  0  0
  -23.9027  -10.4277   21.0410 C   0  0  0  0  0  0
  -24.3586   -9.4197   21.9192 C   0  0  0  0  0  0
  -23.6281   -8.2224   22.0750 C   0  0  0  0  0  0
  -22.4258   -8.0257   21.3551 C   0  0  0  0  0  0
  -21.9897   -9.0217   20.4640 C   0  0  0  0  0  0
  -22.7196  -10.2113   20.3063 C   0  0  0  0  0  0
  -21.6851   -6.0723   22.5282 C   0  0  0  0  0  0
  -21.3993   -6.5632   23.8205 C   0  0  0  0  0  0
  -21.3674   -5.6791   24.9179 C   0  0  0  0  0  0
  -21.6044   -4.3053   24.7234 C   0  0  0  0  0  0
  -21.8808   -3.8137   23.4345 C   0  0  0  0  0  0
  -21.9177   -4.6950   22.3408 C   0  0  0  0  0  0
  -22.7760  -13.5208   21.1869 C   0  0  0  0  0  0
  -22.1670   -4.2139   21.0982 F   0  0  0  0  0  0
  -21.5646   -3.4539   25.7746 F   0  0  0  0  0  0
  -29.9527  -13.6048   20.3991 N   0  0  0  0  0  0
  -26.2836  -12.9403   20.3242 N   0  0  0  0  0  0
  -25.9256  -11.6527   20.5686 N   0  0  0  0  0  0
  -22.0392  -12.8222   22.0421 N   0  0  0  0  0  0
  -25.4140  -15.1934   20.4312 N   0  0  0  0  0  0
  -31.7201  -14.9643   20.1071 O   0  0  0  0  0  0
  -21.6636   -6.8849   21.4235 O   0  0  0  0  0  0
  -22.3462  -14.5529   20.6702 O   0  0  0  0  0  0
  -24.6382  -31.8489   23.1940 C   0  0  0  0  0  0
  -25.9196  -32.4708   23.8285 C   0  0  1  0  0  0
  -27.1930  -27.1790   20.1569 C   0  0  0  0  0  0
  -25.5973  -33.8509   24.2209 N   0  0  0  0  0  0
  -23.4370  -30.4744   21.5360 C   0  0  2  0  0  0
  -24.8863  -28.9164   20.1007 C   0  0  0  0  0  0
  -22.7533  -29.4572   22.4833 C   0  0  0  0  0  0
  -18.0307  -28.1394   22.8482 C   0  0  0  0  0  0
  -24.1500  -36.7265   23.2640 C   0  0  0  0  0  0
  -25.9905  -30.7315   21.3921 C   0  0  0  0  0  0
  -26.0588  -29.3486   20.7356 C   0  0  0  0  0  0
  -27.2167  -28.4896   20.7638 C   0  0  0  0  0  0
  -26.0081  -26.8461   19.4667 C   0  0  0  0  0  0
  -24.8698  -27.6744   19.4498 C   0  0  0  0  0  0
  -23.6634  -29.8164   20.1484 C   0  0  0  0  0  0
  -25.4132  -36.3026   24.0308 C   0  0  1  0  0  0
  -20.5916  -28.3722   23.1226 C   0  0  2  0  0  0
  -20.6797  -26.9422   22.5387 C   0  0  0  0  0  0
  -19.5777  -26.6382   21.5199 C   0  0  0  0  0  0
  -18.1956  -26.7931   22.1620 C   0  0  0  0  0  0
  -19.1560  -28.8873   23.2857 C   0  0  0  0  0  0
  -18.9483  -30.1468   23.8881 C   0  0  0  0  0  0
  -17.6483  -30.6590   24.0562 C   0  0  0  0  0  0
  -25.9068  -34.9401   23.5048 C   0  0  0  0  0  0
  -16.5376  -29.9083   23.6332 C   0  0  0  0  0  0
  -16.7292  -28.6501   23.0345 C   0  0  0  0  0  0
  -26.4532  -31.6555   25.0701 C   0  0  0  0  0  0
  -25.3730  -31.3738   26.1403 C   0  0  0  0  0  0
  -27.0404  -30.2957   24.6262 C   0  0  0  0  0  0
  -27.6065  -32.4302   25.7490 C   0  0  0  0  0  0
  -27.5564  -37.1815   24.8477 C   0  0  0  0  0  0
  -21.4229  -29.3060   22.3600 N   0  0  0  0  0  0
  -26.4305  -37.3729   23.9371 N   0  0  0  0  0  0
  -24.7074  -31.0382   22.0956 N   0  0  0  0  0  0
  -23.4195  -28.8102   23.2948 O   0  0  0  0  0  0
  -28.1679  -26.1361   20.2498 O   0  0  0  0  0  0
  -26.5640  -34.8891   22.4619 O   0  0  0  0  0  0
  -23.5521  -32.1355   23.7202 O   0  0  0  0  0  0
  -28.9773  -18.5945   20.7383 C   0  0  0  0  0  0
  -30.9484  -17.9921   19.6640 C   0  0  0  0  0  0
  -29.8882  -17.4741   20.3640 C   0  0  0  0  0  0
  -29.3455  -19.9201   20.3689 C   0  0  0  0  0  0
  -27.6973  -24.9133   20.8616 C   0  0  0  0  0  0
  -27.9256  -23.5126   20.9043 C   0  0  0  0  0  0
  -28.8997  -22.5221   20.2681 C   0  0  0  0  0  0
  -29.7126  -15.9949   20.6341 N   0  0  0  0  0  0
  -28.7012  -21.1687   20.6231 N   0  0  0  0  0  0
  -29.7980  -22.8567   19.4959 O   0  0  0  0  0  0
  -27.0591  -22.8834   21.7221 O   0  0  0  0  0  0
  -30.8679  -19.7544   19.4984 S   0  0  0  0  0  0
  -31.4678  -12.6875   19.1848 H   0  0  0  0  0  0
  -30.4047  -11.5700   19.9965 H   0  0  0  0  0  0
  -29.8196  -11.7386   17.5533 H   0  0  0  0  0  0
  -29.6095  -13.4647   17.6956 H   0  0  0  0  0  0
  -27.9143  -11.2819   18.9247 H   0  0  0  0  0  0
  -27.3816  -12.5025   17.7994 H   0  0  0  0  0  0
  -27.6041  -14.2513   19.4430 H   0  0  0  0  0  0
  -28.7288  -12.2214   21.4367 H   0  0  0  0  0  0
  -28.3722  -13.8938   21.7823 H   0  0  0  0  0  0
  -25.2731   -9.5697   22.4769 H   0  0  0  0  0  0
  -24.0003   -7.4621   22.7472 H   0  0  0  0  0  0
  -21.0833   -8.8688   19.8958 H   0  0  0  0  0  0
  -22.3624  -10.9637   19.6178 H   0  0  0  0  0  0
  -21.1972   -7.6136   23.9703 H   0  0  0  0  0  0
  -21.1541   -6.0536   25.9091 H   0  0  0  0  0  0
  -22.0576   -2.7597   23.2847 H   0  0  0  0  0  0
  -22.4027  -11.9904   22.4838 H   0  0  0  0  0  0
  -21.1006  -13.1250   22.2600 H   0  0  0  0  0  0
  -24.6403  -15.8389   20.5452 H   0  0  0  0  0  0
  -26.2590  -15.6419   20.1061 H   0  0  0  0  0  0
  -26.7246  -32.5326   23.1001 H   0  0  0  0  0  0
  -25.0132  -33.9626   25.0359 H   0  0  0  0  0  0
  -22.7381  -31.3004   21.3910 H   0  0  0  0  0  0
  -23.3721  -35.9646   23.3359 H   0  0  0  0  0  0
  -24.3555  -36.8831   22.2039 H   0  0  0  0  0  0
  -23.7319  -37.6509   23.6638 H   0  0  0  0  0  0
  -26.1400  -31.4833   20.6185 H   0  0  0  0  0  0
  -26.8630  -30.7785   22.0313 H   0  0  0  0  0  0
  -28.0930  -28.7914   21.3211 H   0  0  0  0  0  0
  -25.9371  -25.8827   18.9829 H   0  0  0  0  0  0
  -23.9760  -27.3389   18.9389 H   0  0  0  0  0  0
  -23.8020  -30.5984   19.4012 H   0  0  0  0  0  0
  -22.7784  -29.2635   19.8282 H   0  0  0  0  0  0
  -25.1330  -36.1856   25.0806 H   0  0  0  0  0  0
  -21.0027  -28.3320   24.1343 H   0  0  0  0  0  0
  -20.5683  -26.2337   23.3610 H   0  0  0  0  0  0
  -21.6667  -26.7425   22.1205 H   0  0  0  0  0  0
  -19.6936  -25.6285   21.1247 H   0  0  0  0  0  0
  -19.6705  -27.3175   20.6718 H   0  0  0  0  0  0
  -17.4212  -26.6669   21.4028 H   0  0  0  0  0  0
  -18.0372  -26.0070   22.9023 H   0  0  0  0  0  0
  -19.7951  -30.7295   24.2238 H   0  0  0  0  0  0
  -17.5028  -31.6263   24.5176 H   0  0  0  0  0  0
  -15.5368  -30.2983   23.7660 H   0  0  0  0  0  0
  -15.8701  -28.0817   22.7060 H   0  0  0  0  0  0
  -24.5905  -30.7094   25.7706 H   0  0  0  0  0  0
  -24.8942  -32.2936   26.4778 H   0  0  0  0  0  0
  -25.8023  -30.8924   27.0203 H   0  0  0  0  0  0
  -26.3020  -29.6671   24.1278 H   0  0  0  0  0  0
  -27.4039  -29.7245   25.4813 H   0  0  0  0  0  0
  -27.8913  -30.4184   23.9559 H   0  0  0  0  0  0
  -27.2659  -33.3602   26.2051 H   0  0  0  0  0  0
  -28.3908  -32.6863   25.0350 H   0  0  0  0  0  0
  -28.0717  -31.8445   26.5435 H   0  0  0  0  0  0
  -28.2643  -38.0045   24.7397 H   0  0  0  0  0  0
  -28.0995  -36.2566   24.6472 H   0  0  0  0  0  0
  -27.2255  -37.1665   25.8878 H   0  0  0  0  0  0
  -20.9405  -29.8811   21.6836 H   0  0  0  0  0  0
  -26.0167  -38.2809   24.1305 H   0  0  0  0  0  0
  -28.0671  -18.3825   21.2797 H   0  0  0  0  0  0
  -31.7796  -17.4557   19.2242 H   0  0  0  0  0  0
  -26.8881  -25.2231   21.5126 H   0  0  0  0  0  0
  -28.7920  -15.7500   20.9683 H   0  0  0  0  0  0
  -27.8917  -21.1044   21.2307 H   0  0  0  0  0  0
  -26.4636  -23.5308   22.0738 H   0  0  0  0  0  0
  1 25  1  0  0  0
  1 30  2  0  0  0
  1 78  1  0  0  0
  2  3  1  0  0  0
  2 25  1  0  0  0
  2 83  1  0  0  0
  2 84  1  0  0  0
  3  4  1  0  0  0
  3 85  1  0  0  0
  3 86  1  0  0  0
  4  5  1  0  0  0
  4 87  1  0  0  0
  4 88  1  0  0  0
  5  6  1  0  0  0
  5 26  1  0  0  0
  5 89  1  0  0  0
  6 25  1  0  0  0
  6 90  1  0  0  0
  6 91  1  0  0  0
  7  8  2  0  0  0
  7 26  1  0  0  0
  7 29  1  0  0  0
  8  9  1  0  0  0
  8 22  1  0  0  0
  9 10  1  0  0  0
  9 27  2  0  0  0
 10 11  2  0  0  0
 10 15  1  0  0  0
 11 12  1  0  0  0
 11 92  1  0  0  0
 12 13  2  0  0  0
 12 93  1  0  0  0
 13 14  1  0  0  0
 13 31  1  0  0  0
 14 15  2  0  0  0
 14 94  1  0  0  0
 15 95  1  0  0  0
 16 17  2  0  0  0
 16 21  1  0  0  0
 16 31  1  0  0  0
 17 18  1  0  0  0
 17 96  1  0  0  0
 18 19  2  0  0  0
 18 97  1  0  0  0
 19 20  1  0  0  0
 19 24  1  0  0  0
 20 21  2  0  0  0
 20 98  1  0  0  0
 21 23  1  0  0  0
 22 28  1  0  0  0
 22 32  2  0  0  0
 26 27  1  0  0  0
 28 99  1  0  0  0
 28100  1  0  0  0
 29101  1  0  0  0
 29102  1  0  0  0
 33 34  1  0  0  0
 33 66  1  0  0  0
 33 70  2  0  0  0
 34 36  1  0  0  0
 34 59  1  0  0  0
 34103  1  0  0  0
 35 44  2  0  0  0
 35 45  1  0  0  0
 35 68  1  0  0  0
 36 56  1  0  0  0
 36104  1  0  0  0
 37 39  1  0  0  0
 37 47  1  0  0  0
 37 66  1  0  0  0
 37105  1  0  0  0
 38 43  2  0  0  0
 38 46  1  0  0  0
 38 47  1  0  0  0
 39 64  1  0  0  0
 39 67  2  0  0  0
 40 52  1  0  0  0
 40 53  2  0  0  0
 40 58  1  0  0  0
 41106  1  0  0  0
 41107  1  0  0  0
 41108  1  0  0  0
 41 48  1  0  0  0
 42 43  1  0  0  0
 42 66  1  0  0  0
 42109  1  0  0  0
 42110  1  0  0  0
 43 44  1  0  0  0
 44111  1  0  0  0
 45 46  2  0  0  0
 45112  1  0  0  0
 46113  1  0  0  0
 47114  1  0  0  0
 47115  1  0  0  0
 48 56  1  0  0  0
 48 65  1  0  0  0
 48116  1  0  0  0
 49 50  1  0  0  0
 49 53  1  0  0  0
 49 64  1  0  0  0
 49117  1  0  0  0
 50 51  1  0  0  0
 50118  1  0  0  0
 50119  1  0  0  0
 51 52  1  0  0  0
 51120  1  0  0  0
 51121  1  0  0  0
 52122  1  0  0  0
 52123  1  0  0  0
 53 54  1  0  0  0
 54 55  2  0  0  0
 54124  1  0  0  0
 55 57  1  0  0  0
 55125  1  0  0  0
 56 69  2  0  0  0
 57 58  2  0  0  0
 57126  1  0  0  0
 58127  1  0  0  0
 59 60  1  0  0  0
 59 61  1  0  0  0
 59 62  1  0  0  0
 60128  1  0  0  0
 60129  1  0  0  0
 60130  1  0  0  0
 61131  1  0  0  0
 61132  1  0  0  0
 61133  1  0  0  0
 62134  1  0  0  0
 62135  1  0  0  0
 62136  1  0  0  0
 63 65  1  0  0  0
 63137  1  0  0  0
 63138  1  0  0  0
 63139  1  0  0  0
 64140  1  0  0  0
 65141  1  0  0  0
 68 75  1  0  0  0
 71 73  1  0  0  0
 71 74  2  0  0  0
 71142  1  0  0  0
 72 73  2  0  0  0
 72 82  1  0  0  0
 72143  1  0  0  0
 73 78  1  0  0  0
 74 79  1  0  0  0
 74 82  1  0  0  0
 75 76  2  0  0  0
 75144  1  0  0  0
 76 77  1  0  0  0
 76 81  1  0  0  0
 77 79  1  0  0  0
 77 80  2  0  0  0
 78145  1  0  0  0
 79146  1  0  0  0
 81147  1  0  0  0
M  ISO  4   1 100  68 101  75 101  78 100
M  END
> <chiral flag>
0

> <version>
0

> <s_m_source_file>
/data/baiqing/PycharmProjects/Reinvent-master-3.2/result/LINK_invent/BTK/process_docking_weight1_custom_product_contain_oxygen_bond_distance_aromatic_linkinvent_7_9_3/rearranged_h_0152.sdf

> <i_m_source_file_index>
42

> <r_mmod_Potential_Energy-OPLS-2005>
312.828521728516

> <r_mmod_Stretch_Energy-OPLS-2005>
163.02116394043

> <r_mmod_Bend_Energy-OPLS-2005>
265.607421875

> <r_mmod_Torsional_Energy-OPLS-2005>
210.182006835938

> <r_mmod_Improper_Torsional_Energy-OPLS-2005>
4.39874744415283

> <r_mmod_Van_der_Waal_Energy-OPLS-2005>
126.869018554688

> <r_mmod_Electrostatic_Energy-OPLS-2005>
-375.425689697266

> <r_mmod_Solvation_Energy-OPLS-2005>
-245.200790405273

> <b_mmod_Minimization_Converged-OPLS-2005>
0

> <r_mmod_RMS_Derivative-OPLS-2005>
3.82250618934631

$$$$
42
                    3D
 Structure written by MMmdl.
151160  0  0  1  0            999 V2000
  -30.5475  -14.9473   20.4219 C   0  0  0  0  0  0
  -30.4403  -12.5877   19.4960 C   0  0  0  0  0  0
  -29.5274  -12.5432   18.2515 C   0  0  0  0  0  0
  -28.0565  -12.3322   18.6620 C   0  0  0  0  0  0
  -27.6351  -13.2513   19.8395 C   0  0  2  0  0  0
  -28.6783  -13.2705   20.9790 C   0  0  0  0  0  0
  -25.2503  -13.8229   20.5685 C   0  0  0  0  0  0
  -24.1826  -13.0443   20.9211 C   0  0  0  0  0  0
  -24.6439  -11.6925   20.8720 C   0  0  0  0  0  0
  -23.9107  -10.4294   21.0379 C   0  0  0  0  0  0
  -24.3645   -9.4221   21.9174 C   0  0  0  0  0  0
  -23.6310   -8.2265   22.0761 C   0  0  0  0  0  0
  -22.4292   -8.0303   21.3555 C   0  0  0  0  0  0
  -21.9927   -9.0264   20.4650 C   0  0  0  0  0  0
  -22.7264  -10.2139   20.3049 C   0  0  0  0  0  0
  -21.6872   -6.0740   22.5276 C   0  0  0  0  0  0
  -21.4016   -6.5638   23.8211 C   0  0  0  0  0  0
  -21.3660   -5.6791   24.9173 C   0  0  0  0  0  0
  -21.6057   -4.3052   24.7227 C   0  0  0  0  0  0
  -21.8826   -3.8146   23.4342 C   0  0  0  0  0  0
  -21.9198   -4.6964   22.3399 C   0  0  0  0  0  0
  -22.7843  -13.5216   21.1835 C   0  0  0  0  0  0
  -22.1664   -4.2153   21.0977 F   0  0  0  0  0  0
  -21.5638   -3.4535   25.7737 F   0  0  0  0  0  0
  -29.9520  -13.6865   20.3826 N   0  0  0  0  0  0
  -26.2936  -12.9468   20.3239 N   0  0  0  0  0  0
  -25.9378  -11.6589   20.5713 N   0  0  0  0  0  0
  -22.0474  -12.8223   22.0395 N   0  0  0  0  0  0
  -25.4166  -15.1969   20.4086 N   0  0  0  0  0  0
  -31.7482  -14.9861   20.1333 O   0  0  0  0  0  0
  -21.6672   -6.8885   21.4241 O   0  0  0  0  0  0
  -22.3540  -14.5514   20.6658 O   0  0  0  0  0  0
  -24.6430  -31.8442   23.1890 C   0  0  0  0  0  0
  -25.9194  -32.4710   23.8285 C   0  0  1  0  0  0
  -27.2117  -27.1271   20.1887 C   0  0  0  0  0  0
  -25.5939  -33.8516   24.2199 N   0  0  0  0  0  0
  -23.4482  -30.4614   21.5319 C   0  0  2  0  0  0
  -24.9023  -28.8869   20.1151 C   0  0  0  0  0  0
  -22.7570  -29.4534   22.4850 C   0  0  0  0  0  0
  -18.0286  -28.1402   22.8482 C   0  0  0  0  0  0
  -24.1493  -36.7269   23.2640 C   0  0  0  0  0  0
  -26.0025  -30.7232   21.3836 C   0  0  0  0  0  0
  -26.0782  -29.3287   20.7361 C   0  0  0  0  0  0
  -27.2367  -28.4654   20.7531 C   0  0  0  0  0  0
  -26.0153  -26.7882   19.5206 C   0  0  0  0  0  0
  -24.8850  -27.6314   19.4898 C   0  0  0  0  0  0
  -23.6799  -29.7897   20.1521 C   0  0  0  0  0  0
  -25.4129  -36.3047   24.0314 C   0  0  1  0  0  0
  -20.5901  -28.3721   23.1252 C   0  0  2  0  0  0
  -20.6775  -26.9423   22.5415 C   0  0  0  0  0  0
  -19.5744  -26.6386   21.5227 C   0  0  0  0  0  0
  -18.1929  -26.7942   22.1633 C   0  0  0  0  0  0
  -19.1540  -28.8879   23.2867 C   0  0  0  0  0  0
  -18.9455  -30.1474   23.8900 C   0  0  0  0  0  0
  -17.6450  -30.6598   24.0559 C   0  0  0  0  0  0
  -25.9070  -34.9414   23.5063 C   0  0  0  0  0  0
  -16.5345  -29.9096   23.6332 C   0  0  0  0  0  0
  -16.7268  -28.6514   23.0361 C   0  0  0  0  0  0
  -26.4510  -31.6568   25.0711 C   0  0  0  0  0  0
  -25.3699  -31.3743   26.1401 C   0  0  0  0  0  0
  -27.0338  -30.2966   24.6254 C   0  0  0  0  0  0
  -27.6057  -32.4310   25.7501 C   0  0  0  0  0  0
  -27.5582  -37.1797   24.8461 C   0  0  0  0  0  0
  -21.4251  -29.3054   22.3634 N   0  0  0  0  0  0
  -26.4291  -37.3761   23.9401 N   0  0  0  0  0  0
  -24.7181  -31.0303   22.0918 N   0  0  0  0  0  0
  -23.4218  -28.8070   23.2991 O   0  0  0  0  0  0
  -28.2562  -26.1360   20.2382 O   0  0  0  0  0  0
  -26.5658  -34.8902   22.4646 O   0  0  0  0  0  0
  -23.5541  -32.1293   23.7103 O   0  0  0  0  0  0
  -31.7458  -19.4307   20.0876 C   0  0  0  0  0  0
  -30.8115  -20.4816   20.1893 C   0  0  0  0  0  0
  -31.3888  -18.0697   20.2194 C   0  0  0  0  0  0
  -29.1080  -18.8007   20.5625 C   0  0  0  0  0  0
  -29.4446  -20.2536   20.4303 C   0  0  0  0  0  0
  -30.0583  -17.6507   20.4613 C   0  0  0  0  0  0
  -28.1287  -22.3133   19.2402 C   0  0  0  0  0  0
  -28.5126  -21.6144   20.5216 C   0  0  2  0  0  0
  -28.7870  -23.2513   20.2320 C   0  0  2  0  0  0
  -27.9621  -24.6512   20.6238 C   0  0  0  0  0  0
  -29.7713  -16.1393   20.5937 N   0  0  0  0  0  0
  -31.4749  -12.7371   19.1847 H   0  0  0  0  0  0
  -30.4266  -11.6290   20.0181 H   0  0  0  0  0  0
  -29.8480  -11.7494   17.5744 H   0  0  0  0  0  0
  -29.6297  -13.4764   17.6941 H   0  0  0  0  0  0
  -27.9397  -11.2850   18.9450 H   0  0  0  0  0  0
  -27.4023  -12.4900   17.8035 H   0  0  0  0  0  0
  -27.6005  -14.2587   19.4237 H   0  0  0  0  0  0
  -28.7713  -12.2907   21.4494 H   0  0  0  0  0  0
  -28.3806  -13.9648   21.7665 H   0  0  0  0  0  0
  -25.2783   -9.5713   22.4747 H   0  0  0  0  0  0
  -24.0008   -7.4684   22.7509 H   0  0  0  0  0  0
  -21.0847   -8.8797   19.8966 H   0  0  0  0  0  0
  -22.3717  -10.9679   19.6169 H   0  0  0  0  0  0
  -21.2001   -7.6143   23.9708 H   0  0  0  0  0  0
  -21.1477   -6.0522   25.9078 H   0  0  0  0  0  0
  -22.0596   -2.7604   23.2852 H   0  0  0  0  0  0
  -22.4048  -11.9887   22.4819 H   0  0  0  0  0  0
  -21.1089  -13.1278   22.2529 H   0  0  0  0  0  0
  -24.6434  -15.8437   20.5244 H   0  0  0  0  0  0
  -26.2466  -15.6377   20.0332 H   0  0  0  0  0  0
  -26.7257  -32.5325   23.1020 H   0  0  0  0  0  0
  -25.0057  -33.9642   25.0323 H   0  0  0  0  0  0
  -22.7497  -31.2865   21.3744 H   0  0  0  0  0  0
  -23.3762  -35.9589   23.3283 H   0  0  0  0  0  0
  -24.3588  -36.8923   22.2058 H   0  0  0  0  0  0
  -23.7229  -37.6457   23.6683 H   0  0  0  0  0  0
  -26.1390  -31.4720   20.6019 H   0  0  0  0  0  0
  -26.8818  -30.7936   22.0139 H   0  0  0  0  0  0
  -28.1338  -28.7988   21.2583 H   0  0  0  0  0  0
  -25.9322  -25.8280   19.0324 H   0  0  0  0  0  0
  -23.9892  -27.2885   18.9897 H   0  0  0  0  0  0
  -23.8185  -30.5627   19.3950 H   0  0  0  0  0  0
  -22.7972  -29.2291   19.8404 H   0  0  0  0  0  0
  -25.1321  -36.1889   25.0807 H   0  0  0  0  0  0
  -20.9978  -28.3302   24.1381 H   0  0  0  0  0  0
  -20.5678  -26.2328   23.3635 H   0  0  0  0  0  0
  -21.6641  -26.7443   22.1204 H   0  0  0  0  0  0
  -19.6906  -25.6294   21.1277 H   0  0  0  0  0  0
  -19.6696  -27.3188   20.6754 H   0  0  0  0  0  0
  -17.4200  -26.6682   21.4034 H   0  0  0  0  0  0
  -18.0319  -26.0097   22.9041 H   0  0  0  0  0  0
  -19.7922  -30.7291   24.2291 H   0  0  0  0  0  0
  -17.4992  -31.6287   24.5148 H   0  0  0  0  0  0
  -15.5338  -30.3001   23.7650 H   0  0  0  0  0  0
  -15.8664  -28.0831   22.7085 H   0  0  0  0  0  0
  -24.5901  -30.7070   25.7714 H   0  0  0  0  0  0
  -24.8853  -32.2905   26.4780 H   0  0  0  0  0  0
  -25.7979  -30.8948   27.0210 H   0  0  0  0  0  0
  -26.2910  -29.6728   24.1264 H   0  0  0  0  0  0
  -27.3947  -29.7240   25.4809 H   0  0  0  0  0  0
  -27.8833  -30.4204   23.9539 H   0  0  0  0  0  0
  -27.2674  -33.3634   26.2036 H   0  0  0  0  0  0
  -28.3901  -32.6832   25.0351 H   0  0  0  0  0  0
  -28.0679  -31.8453   26.5456 H   0  0  0  0  0  0
  -28.2582  -38.0112   24.7519 H   0  0  0  0  0  0
  -28.1091  -36.2638   24.6272 H   0  0  0  0  0  0
  -27.2291  -37.1425   25.8861 H   0  0  0  0  0  0
  -20.9451  -29.8807   21.6859 H   0  0  0  0  0  0
  -26.0162  -38.2825   24.1423 H   0  0  0  0  0  0
  -32.7810  -19.6831   19.9043 H   0  0  0  0  0  0
  -31.1604  -21.4988   20.0774 H   0  0  0  0  0  0
  -32.1860  -17.3501   20.1290 H   0  0  0  0  0  0
  -28.0708  -18.5614   20.7528 H   0  0  0  0  0  0
  -27.0606  -22.4315   19.0610 H   0  0  0  0  0  0
  -28.7081  -22.1024   18.3438 H   0  0  0  0  0  0
  -27.7178  -21.4164   21.2398 H   0  0  0  0  0  0
  -29.8492  -23.4549   20.1154 H   0  0  0  0  0  0
  -28.0086  -24.6818   21.7136 H   0  0  0  0  0  0
  -26.9098  -24.4456   20.4358 H   0  0  0  0  0  0
  -28.8121  -15.9285   20.8213 H   0  0  0  0  0  0
  1 25  1  0  0  0
  1 30  2  0  0  0
  1 81  1  0  0  0
  2  3  1  0  0  0
  2 25  1  0  0  0
  2 82  1  0  0  0
  2 83  1  0  0  0
  3  4  1  0  0  0
  3 84  1  0  0  0
  3 85  1  0  0  0
  4  5  1  0  0  0
  4 86  1  0  0  0
  4 87  1  0  0  0
  5  6  1  0  0  0
  5 26  1  0  0  0
  5 88  1  0  0  0
  6 25  1  0  0  0
  6 89  1  0  0  0
  6 90  1  0  0  0
  7  8  2  0  0  0
  7 26  1  0  0  0
  7 29  1  0  0  0
  8  9  1  0  0  0
  8 22  1  0  0  0
  9 10  1  0  0  0
  9 27  2  0  0  0
 10 11  2  0  0  0
 10 15  1  0  0  0
 11 12  1  0  0  0
 11 91  1  0  0  0
 12 13  2  0  0  0
 12 92  1  0  0  0
 13 14  1  0  0  0
 13 31  1  0  0  0
 14 15  2  0  0  0
 14 93  1  0  0  0
 15 94  1  0  0  0
 16 17  2  0  0  0
 16 21  1  0  0  0
 16 31  1  0  0  0
 17 18  1  0  0  0
 17 95  1  0  0  0
 18 19  2  0  0  0
 18 96  1  0  0  0
 19 20  1  0  0  0
 19 24  1  0  0  0
 20 21  2  0  0  0
 20 97  1  0  0  0
 21 23  1  0  0  0
 22 28  1  0  0  0
 22 32  2  0  0  0
 26 27  1  0  0  0
 28 98  1  0  0  0
 28 99  1  0  0  0
 29100  1  0  0  0
 29101  1  0  0  0
 33 34  1  0  0  0
 33 66  1  0  0  0
 33 70  2  0  0  0
 34 36  1  0  0  0
 34 59  1  0  0  0
 34102  1  0  0  0
 35 44  2  0  0  0
 35 45  1  0  0  0
 35 68  1  0  0  0
 36 56  1  0  0  0
 36103  1  0  0  0
 37 39  1  0  0  0
 37 47  1  0  0  0
 37 66  1  0  0  0
 37104  1  0  0  0
 38 43  2  0  0  0
 38 46  1  0  0  0
 38 47  1  0  0  0
 39 64  1  0  0  0
 39 67  2  0  0  0
 40 52  1  0  0  0
 40 53  2  0  0  0
 40 58  1  0  0  0
 41105  1  0  0  0
 41106  1  0  0  0
 41107  1  0  0  0
 41 48  1  0  0  0
 42 43  1  0  0  0
 42 66  1  0  0  0
 42108  1  0  0  0
 42109  1  0  0  0
 43 44  1  0  0  0
 44110  1  0  0  0
 45 46  2  0  0  0
 45111  1  0  0  0
 46112  1  0  0  0
 47113  1  0  0  0
 47114  1  0  0  0
 48 56  1  0  0  0
 48 65  1  0  0  0
 48115  1  0  0  0
 49 50  1  0  0  0
 49 53  1  0  0  0
 49 64  1  0  0  0
 49116  1  0  0  0
 50 51  1  0  0  0
 50117  1  0  0  0
 50118  1  0  0  0
 51 52  1  0  0  0
 51119  1  0  0  0
 51120  1  0  0  0
 52121  1  0  0  0
 52122  1  0  0  0
 53 54  1  0  0  0
 54 55  2  0  0  0
 54123  1  0  0  0
 55 57  1  0  0  0
 55124  1  0  0  0
 56 69  2  0  0  0
 57 58  2  0  0  0
 57125  1  0  0  0
 58126  1  0  0  0
 59 60  1  0  0  0
 59 61  1  0  0  0
 59 62  1  0  0  0
 60127  1  0  0  0
 60128  1  0  0  0
 60129  1  0  0  0
 61130  1  0  0  0
 61131  1  0  0  0
 61132  1  0  0  0
 62133  1  0  0  0
 62134  1  0  0  0
 62135  1  0  0  0
 63 65  1  0  0  0
 63136  1  0  0  0
 63137  1  0  0  0
 63138  1  0  0  0
 64139  1  0  0  0
 65140  1  0  0  0
 68 80  1  0  0  0
 71 72  2  0  0  0
 71 73  1  0  0  0
 71141  1  0  0  0
 72 75  1  0  0  0
 72142  1  0  0  0
 73 76  2  0  0  0
 73143  1  0  0  0
 74 75  2  0  0  0
 74 76  1  0  0  0
 74144  1  0  0  0
 75 78  1  0  0  0
 76 81  1  0  0  0
 77 78  1  0  0  0
 77 79  1  0  0  0
 77145  1  0  0  0
 77146  1  0  0  0
 78 79  1  0  0  0
 78147  1  0  0  0
 79 80  1  0  0  0
 79148  1  0  0  0
 80149  1  0  0  0
 80150  1  0  0  0
 81151  1  0  0  0
M  ISO  4   1 100  68 101  80 101  81 100
M  END
> <chiral flag>
0

> <version>
0

> <s_m_source_file>
/data/baiqing/PycharmProjects/Reinvent-master-3.2/result/LINK_invent/BTK/process_docking_weight1_custom_product_contain_oxygen_bond_distance_aromatic_linkinvent_7_9_3/rearranged_h_0152.sdf

> <i_m_source_file_index>
43

> <r_mmod_Potential_Energy-OPLS-2005>
535.784790039062

> <r_mmod_Stretch_Energy-OPLS-2005>
273.448577880859

> <r_mmod_Bend_Energy-OPLS-2005>
240.500030517578

> <r_mmod_Torsional_Energy-OPLS-2005>
259.336547851562

> <r_mmod_Improper_Torsional_Energy-OPLS-2005>
4.07826137542725

> <r_mmod_Van_der_Waal_Energy-OPLS-2005>
132.236740112305

> <r_mmod_Electrostatic_Energy-OPLS-2005>
-363.443572998047

> <r_mmod_Solvation_Energy-OPLS-2005>
-203.738327026367

> <b_mmod_Minimization_Converged-OPLS-2005>
0

> <r_mmod_RMS_Derivative-OPLS-2005>
2.81772708892822

$$$$
43
                    3D
 Structure written by MMmdl.
156166  0  0  1  0            999 V2000
  -30.2721  -15.7465   20.3492 C   0  0  0  0  0  0
  -30.4094  -13.1619   19.5606 C   0  0  0  0  0  0
  -29.5526  -12.7015   18.3425 C   0  0  0  0  0  0
  -28.1346  -12.3149   18.7844 C   0  0  0  0  0  0
  -27.5898  -13.3231   19.8199 C   0  0  2  0  0  0
  -28.5958  -13.6827   20.9419 C   0  0  0  0  0  0
  -25.2204  -13.8271   20.5751 C   0  0  0  0  0  0
  -24.1651  -13.0398   20.9300 C   0  0  0  0  0  0
  -24.6397  -11.6934   20.8747 C   0  0  0  0  0  0
  -23.9107  -10.4296   21.0384 C   0  0  0  0  0  0
  -24.3653   -9.4225   21.9166 C   0  0  0  0  0  0
  -23.6324   -8.2265   22.0734 C   0  0  0  0  0  0
  -22.4295   -8.0307   21.3536 C   0  0  0  0  0  0
  -21.9946   -9.0261   20.4608 C   0  0  0  0  0  0
  -22.7281  -10.2141   20.3014 C   0  0  0  0  0  0
  -21.6868   -6.0761   22.5290 C   0  0  0  0  0  0
  -21.4047   -6.5669   23.8231 C   0  0  0  0  0  0
  -21.3695   -5.6820   24.9190 C   0  0  0  0  0  0
  -21.6051   -4.3080   24.7235 C   0  0  0  0  0  0
  -21.8800   -3.8179   23.4351 C   0  0  0  0  0  0
  -21.9196   -4.6993   22.3411 C   0  0  0  0  0  0
  -22.7671  -13.5120   21.1953 C   0  0  0  0  0  0
  -22.1627   -4.2179   21.0973 F   0  0  0  0  0  0
  -21.5633   -3.4546   25.7734 F   0  0  0  0  0  0
  -29.7562  -14.3574   20.2928 N   0  0  0  0  0  0
  -26.2716  -12.9667   20.3245 N   0  0  0  0  0  0
  -25.9364  -11.6715   20.5712 N   0  0  0  0  0  0
  -22.0368  -12.8131   22.0548 N   0  0  0  0  0  0
  -25.3628  -15.1985   20.4081 N   0  0  0  0  0  0
  -31.4991  -15.6495   20.1239 O   0  0  0  0  0  0
  -21.6650   -6.8894   21.4239 O   0  0  0  0  0  0
  -22.3309  -14.5402   20.6767 O   0  0  0  0  0  0
  -24.6913  -31.7900   23.1427 C   0  0  0  0  0  0
  -25.9447  -32.4430   23.8006 C   0  0  1  0  0  0
  -27.2311  -26.6114   20.2297 C   0  0  0  0  0  0
  -25.5984  -33.8255   24.1884 N   0  0  0  0  0  0
  -23.5223  -30.3884   21.5009 C   0  0  2  0  0  0
  -24.9816  -28.7094   20.1259 C   0  0  0  0  0  0
  -22.7804  -29.4252   22.4678 C   0  0  0  0  0  0
  -18.0345  -28.1420   22.8451 C   0  0  0  0  0  0
  -24.1491  -36.7148   23.2657 C   0  0  0  0  0  0
  -26.1086  -30.4943   21.4207 C   0  0  0  0  0  0
  -26.1745  -29.0482   20.7754 C   0  0  0  0  0  0
  -27.2816  -28.0323   20.7872 C   0  0  0  0  0  0
  -25.9999  -26.5028   19.5276 C   0  0  0  0  0  0
  -24.9374  -27.4630   19.4784 C   0  0  0  0  0  0
  -23.7836  -29.6779   20.1403 C   0  0  0  0  0  0
  -25.4143  -36.2873   24.0270 C   0  0  1  0  0  0
  -20.5984  -28.3791   23.1115 C   0  0  2  0  0  0
  -20.6799  -26.9434   22.5403 C   0  0  0  0  0  0
  -19.5766  -26.6356   21.5217 C   0  0  0  0  0  0
  -18.1955  -26.7944   22.1624 C   0  0  0  0  0  0
  -19.1615  -28.8928   23.2766 C   0  0  0  0  0  0
  -18.9515  -30.1511   23.8808 C   0  0  0  0  0  0
  -17.6504  -30.6601   24.0548 C   0  0  0  0  0  0
  -25.9128  -34.9269   23.4928 C   0  0  0  0  0  0
  -16.5394  -29.9080   23.6357 C   0  0  0  0  0  0
  -16.7323  -28.6505   23.0371 C   0  0  0  0  0  0
  -26.4597  -31.6506   25.0671 C   0  0  0  0  0  0
  -25.3630  -31.3848   26.1266 C   0  0  0  0  0  0
  -27.0550  -30.2834   24.6637 C   0  0  0  0  0  0
  -27.6017  -32.4396   25.7508 C   0  0  0  0  0  0
  -27.5550  -37.1728   24.8460 C   0  0  0  0  0  0
  -21.4438  -29.3024   22.3434 N   0  0  0  0  0  0
  -26.4257  -37.3638   23.9402 N   0  0  0  0  0  0
  -24.7996  -30.9267   22.0740 N   0  0  0  0  0  0
  -23.4219  -28.7856   23.3050 O   0  0  0  0  0  0
  -28.1905  -25.3574   20.2553 O   0  0  0  0  0  0
  -26.5791  -34.8862   22.4557 O   0  0  0  0  0  0
  -23.5919  -32.1016   23.6325 O   0  0  0  0  0  0
  -27.5792  -18.5448   21.5697 C   0  0  0  0  0  0
  -26.5654  -18.6402   22.4940 C   0  0  0  0  0  0
  -27.7928  -19.9440   21.2205 C   0  0  0  0  0  0
  -28.9679  -21.9676   20.1127 C   0  0  0  0  0  0
  -28.2349  -17.1926   21.1286 C   0  0  0  0  0  0
  -25.7930  -17.8820   24.8507 C   0  0  0  0  0  0
  -26.6872  -16.7765   24.3373 C   0  0  0  0  0  0
  -29.7947  -18.9082   20.1306 C   0  0  0  0  0  0
  -25.8996  -17.6237   23.3630 C   0  0  0  0  0  0
  -27.9605  -23.5713   20.3946 C   0  0  0  0  0  0
  -26.9268  -20.7692   21.7925 N   0  0  0  0  0  0
  -26.1827  -19.9593   22.5618 N   0  0  0  0  0  0
  -28.8691  -20.4024   20.4132 N   0  0  0  0  0  0
  -29.5446  -17.1723   20.4400 N   0  0  0  0  0  0
  -30.0020  -22.2388   19.4912 O   0  0  0  0  0  0
  -31.4032  -13.4253   19.1968 H   0  0  0  0  0  0
  -30.5804  -12.3282   20.2449 H   0  0  0  0  0  0
  -30.0308  -11.8671   17.8258 H   0  0  0  0  0  0
  -29.4936  -13.5186   17.6217 H   0  0  0  0  0  0
  -28.1828  -11.3261   19.2413 H   0  0  0  0  0  0
  -27.4658  -12.2309   17.9268 H   0  0  0  0  0  0
  -27.4425  -14.2385   19.2465 H   0  0  0  0  0  0
  -28.8777  -12.8028   21.5236 H   0  0  0  0  0  0
  -28.1261  -14.3631   21.6506 H   0  0  0  0  0  0
  -25.2775   -9.5744   22.4744 H   0  0  0  0  0  0
  -24.0039   -7.4653   22.7449 H   0  0  0  0  0  0
  -21.0893   -8.8754   19.8876 H   0  0  0  0  0  0
  -22.3764  -10.9690   19.6118 H   0  0  0  0  0  0
  -21.2021   -7.6184   23.9716 H   0  0  0  0  0  0
  -21.1536   -6.0576   25.9076 H   0  0  0  0  0  0
  -22.0545   -2.7631   23.2856 H   0  0  0  0  0  0
  -22.3983  -11.9742   22.4875 H   0  0  0  0  0  0
  -21.0998  -13.1144   22.2789 H   0  0  0  0  0  0
  -24.5515  -15.8062   20.4478 H   0  0  0  0  0  0
  -26.1517  -15.6235   19.9442 H   0  0  0  0  0  0
  -26.7543  -32.4885   23.0736 H   0  0  0  0  0  0
  -25.0011  -33.9282   24.9959 H   0  0  0  0  0  0
  -22.8523  -31.2273   21.3006 H   0  0  0  0  0  0
  -23.3761  -35.9469   23.3264 H   0  0  0  0  0  0
  -24.3552  -36.8882   22.2082 H   0  0  0  0  0  0
  -23.7247  -37.6304   23.6787 H   0  0  0  0  0  0
  -26.3184  -31.2090   20.6239 H   0  0  0  0  0  0
  -26.9559  -30.5690   22.0894 H   0  0  0  0  0  0
  -28.1821  -28.3063   21.3188 H   0  0  0  0  0  0
  -25.8170  -25.5670   19.0204 H   0  0  0  0  0  0
  -24.0396  -27.1897   18.9403 H   0  0  0  0  0  0
  -23.9731  -30.4331   19.3761 H   0  0  0  0  0  0
  -22.8865  -29.1522   19.8088 H   0  0  0  0  0  0
  -25.1360  -36.1624   25.0756 H   0  0  0  0  0  0
  -21.0068  -28.3418   24.1237 H   0  0  0  0  0  0
  -20.5634  -26.2412   23.3677 H   0  0  0  0  0  0
  -21.6662  -26.7342   22.1226 H   0  0  0  0  0  0
  -19.6918  -25.6238   21.1300 H   0  0  0  0  0  0
  -19.6717  -27.3124   20.6704 H   0  0  0  0  0  0
  -17.4226  -26.6692   21.4031 H   0  0  0  0  0  0
  -18.0346  -26.0108   22.9030 H   0  0  0  0  0  0
  -19.7990  -30.7348   24.2144 H   0  0  0  0  0  0
  -17.5053  -31.6270   24.5165 H   0  0  0  0  0  0
  -15.5391  -30.2959   23.7710 H   0  0  0  0  0  0
  -15.8723  -28.0788   22.7140 H   0  0  0  0  0  0
  -24.5845  -30.7187   25.7540 H   0  0  0  0  0  0
  -24.8800  -32.3083   26.4461 H   0  0  0  0  0  0
  -25.7774  -30.9144   27.0193 H   0  0  0  0  0  0
  -26.3287  -29.6418   24.1647 H   0  0  0  0  0  0
  -27.3966  -29.7327   25.5410 H   0  0  0  0  0  0
  -27.9269  -30.3946   24.0191 H   0  0  0  0  0  0
  -27.2532  -33.3775   26.1847 H   0  0  0  0  0  0
  -28.3949  -32.6837   25.0428 H   0  0  0  0  0  0
  -28.0555  -31.8691   26.5627 H   0  0  0  0  0  0
  -28.2531  -38.0053   24.7489 H   0  0  0  0  0  0
  -28.1079  -36.2568   24.6315 H   0  0  0  0  0  0
  -27.2259  -37.1399   25.8861 H   0  0  0  0  0  0
  -20.9764  -29.8725   21.6526 H   0  0  0  0  0  0
  -26.0080  -38.2680   24.1423 H   0  0  0  0  0  0
  -27.5515  -16.6682   20.4640 H   0  0  0  0  0  0
  -28.3345  -16.5507   22.0036 H   0  0  0  0  0  0
  -26.2738  -18.7813   25.2341 H   0  0  0  0  0  0
  -24.8647  -17.6069   25.3475 H   0  0  0  0  0  0
  -26.3548  -15.7523   24.4925 H   0  0  0  0  0  0
  -27.7643  -16.9308   24.3993 H   0  0  0  0  0  0
  -30.7342  -19.1118   20.6432 H   0  0  0  0  0  0
  -30.0521  -18.9481   19.0743 H   0  0  0  0  0  0
  -25.0504  -17.1559   22.8669 H   0  0  0  0  0  0
  -27.6539  -23.4672   21.4352 H   0  0  0  0  0  0
  -27.0441  -23.3872   19.8352 H   0  0  0  0  0  0
  -25.4362  -20.3042   23.1618 H   0  0  0  0  0  0
  1 25  1  0  0  0
  1 30  2  0  0  0
  1 84  1  0  0  0
  2  3  1  0  0  0
  2 25  1  0  0  0
  2 86  1  0  0  0
  2 87  1  0  0  0
  3  4  1  0  0  0
  3 88  1  0  0  0
  3 89  1  0  0  0
  4  5  1  0  0  0
  4 90  1  0  0  0
  4 91  1  0  0  0
  5  6  1  0  0  0
  5 26  1  0  0  0
  5 92  1  0  0  0
  6 25  1  0  0  0
  6 93  1  0  0  0
  6 94  1  0  0  0
  7  8  2  0  0  0
  7 26  1  0  0  0
  7 29  1  0  0  0
  8  9  1  0  0  0
  8 22  1  0  0  0
  9 10  1  0  0  0
  9 27  2  0  0  0
 10 11  2  0  0  0
 10 15  1  0  0  0
 11 12  1  0  0  0
 11 95  1  0  0  0
 12 13  2  0  0  0
 12 96  1  0  0  0
 13 14  1  0  0  0
 13 31  1  0  0  0
 14 15  2  0  0  0
 14 97  1  0  0  0
 15 98  1  0  0  0
 16 17  2  0  0  0
 16 21  1  0  0  0
 16 31  1  0  0  0
 17 18  1  0  0  0
 17 99  1  0  0  0
 18 19  2  0  0  0
 18100  1  0  0  0
 19 20  1  0  0  0
 19 24  1  0  0  0
 20 21  2  0  0  0
 20101  1  0  0  0
 21 23  1  0  0  0
 22 28  1  0  0  0
 22 32  2  0  0  0
 26 27  1  0  0  0
 28102  1  0  0  0
 28103  1  0  0  0
 29104  1  0  0  0
 29105  1  0  0  0
 33 34  1  0  0  0
 33 66  1  0  0  0
 33 70  2  0  0  0
 34 36  1  0  0  0
 34 59  1  0  0  0
 34106  1  0  0  0
 35 44  2  0  0  0
 35 45  1  0  0  0
 35 68  1  0  0  0
 36 56  1  0  0  0
 36107  1  0  0  0
 37 39  1  0  0  0
 37 47  1  0  0  0
 37 66  1  0  0  0
 37108  1  0  0  0
 38 43  2  0  0  0
 38 46  1  0  0  0
 38 47  1  0  0  0
 39 64  1  0  0  0
 39 67  2  0  0  0
 40 52  1  0  0  0
 40 53  2  0  0  0
 40 58  1  0  0  0
 41109  1  0  0  0
 41110  1  0  0  0
 41111  1  0  0  0
 41 48  1  0  0  0
 42 43  1  0  0  0
 42 66  1  0  0  0
 42112  1  0  0  0
 42113  1  0  0  0
 43 44  1  0  0  0
 44114  1  0  0  0
 45 46  2  0  0  0
 45115  1  0  0  0
 46116  1  0  0  0
 47117  1  0  0  0
 47118  1  0  0  0
 48 56  1  0  0  0
 48 65  1  0  0  0
 48119  1  0  0  0
 49 50  1  0  0  0
 49 53  1  0  0  0
 49 64  1  0  0  0
 49120  1  0  0  0
 50 51  1  0  0  0
 50121  1  0  0  0
 50122  1  0  0  0
 51 52  1  0  0  0
 51123  1  0  0  0
 51124  1  0  0  0
 52125  1  0  0  0
 52126  1  0  0  0
 53 54  1  0  0  0
 54 55  2  0  0  0
 54127  1  0  0  0
 55 57  1  0  0  0
 55128  1  0  0  0
 56 69  2  0  0  0
 57 58  2  0  0  0
 57129  1  0  0  0
 58130  1  0  0  0
 59 60  1  0  0  0
 59 61  1  0  0  0
 59 62  1  0  0  0
 60131  1  0  0  0
 60132  1  0  0  0
 60133  1  0  0  0
 61134  1  0  0  0
 61135  1  0  0  0
 61136  1  0  0  0
 62137  1  0  0  0
 62138  1  0  0  0
 62139  1  0  0  0
 63 65  1  0  0  0
 63140  1  0  0  0
 63141  1  0  0  0
 63142  1  0  0  0
 64143  1  0  0  0
 65144  1  0  0  0
 68 80  1  0  0  0
 71 72  2  0  0  0
 71 73  1  0  0  0
 71 75  1  0  0  0
 72 82  1  0  0  0
 72 79  1  0  0  0
 73 81  2  0  0  0
 73 83  1  0  0  0
 74 80  1  0  0  0
 74 83  1  0  0  0
 74 85  2  0  0  0
 75 84  1  0  0  0
 75145  1  0  0  0
 75146  1  0  0  0
 76 77  1  0  0  0
 76 79  1  0  0  0
 76147  1  0  0  0
 76148  1  0  0  0
 77 79  1  0  0  0
 77149  1  0  0  0
 77150  1  0  0  0
 78 83  1  0  0  0
 78 84  1  0  0  0
 78151  1  0  0  0
 78152  1  0  0  0
 79153  1  0  0  0
 80154  1  0  0  0
 80155  1  0  0  0
 81 82  1  0  0  0
 82156  1  0  0  0
M  ISO  4   1 100  68 101  80 101  84 100
M  END
> <chiral flag>
0

> <version>
0

> <s_m_source_file>
/data/baiqing/PycharmProjects/Reinvent-master-3.2/result/LINK_invent/BTK/process_docking_weight1_custom_product_contain_oxygen_bond_distance_aromatic_linkinvent_7_9_3/rearranged_h_0152.sdf

> <i_m_source_file_index>
44

> <r_mmod_Potential_Energy-OPLS-2005>
2903.583984375

> <r_mmod_Stretch_Energy-OPLS-2005>
1273.42993164062

> <r_mmod_Bend_Energy-OPLS-2005>
682.031921386719

> <r_mmod_Torsional_Energy-OPLS-2005>
296.947326660156

> <r_mmod_Improper_Torsional_Energy-OPLS-2005>
5.71610403060913

> <r_mmod_Van_der_Waal_Energy-OPLS-2005>
108.272750854492

> <r_mmod_Electrostatic_Energy-OPLS-2005>
-278.527954101562

> <r_mmod_Solvation_Energy-OPLS-2005>
-256.526275634766

> <b_mmod_Minimization_Converged-OPLS-2005>
0

> <r_mmod_RMS_Derivative-OPLS-2005>
3.54167461395264

$$$$
44
                    3D
 Structure written by MMmdl.
150159  0  0  1  0            999 V2000
  -30.4870  -15.0954   20.3840 C   0  0  0  0  0  0
  -30.4485  -12.6903   19.4984 C   0  0  0  0  0  0
  -29.5246  -12.5588   18.2617 C   0  0  0  0  0  0
  -28.0671  -12.3123   18.6890 C   0  0  0  0  0  0
  -27.6242  -13.2615   19.8307 C   0  0  2  0  0  0
  -28.6673  -13.3496   20.9650 C   0  0  0  0  0  0
  -25.2453  -13.8261   20.5757 C   0  0  0  0  0  0
  -24.1785  -13.0458   20.9249 C   0  0  0  0  0  0
  -24.6420  -11.6948   20.8760 C   0  0  0  0  0  0
  -23.9120  -10.4309   21.0422 C   0  0  0  0  0  0
  -24.3665   -9.4212   21.9197 C   0  0  0  0  0  0
  -23.6318   -8.2256   22.0766 C   0  0  0  0  0  0
  -22.4299   -8.0305   21.3551 C   0  0  0  0  0  0
  -21.9943   -9.0296   20.4661 C   0  0  0  0  0  0
  -22.7287  -10.2168   20.3069 C   0  0  0  0  0  0
  -21.6870   -6.0752   22.5278 C   0  0  0  0  0  0
  -21.4012   -6.5644   23.8213 C   0  0  0  0  0  0
  -21.3661   -5.6792   24.9169 C   0  0  0  0  0  0
  -21.6043   -4.3053   24.7212 C   0  0  0  0  0  0
  -21.8824   -3.8149   23.4330 C   0  0  0  0  0  0
  -21.9192   -4.6972   22.3385 C   0  0  0  0  0  0
  -22.7801  -13.5217   21.1898 C   0  0  0  0  0  0
  -22.1668   -4.2161   21.0961 F   0  0  0  0  0  0
  -21.5632   -3.4526   25.7722 F   0  0  0  0  0  0
  -29.9286  -13.8045   20.3573 N   0  0  0  0  0  0
  -26.2883  -12.9503   20.3248 N   0  0  0  0  0  0
  -25.9352  -11.6619   20.5739 N   0  0  0  0  0  0
  -22.0451  -12.8213   22.0456 N   0  0  0  0  0  0
  -25.4096  -15.2004   20.4235 N   0  0  0  0  0  0
  -31.6987  -15.1532   20.1295 O   0  0  0  0  0  0
  -21.6650   -6.8907   21.4250 O   0  0  0  0  0  0
  -22.3475  -14.5513   20.6731 O   0  0  0  0  0  0
  -24.6511  -31.8386   23.1807 C   0  0  0  0  0  0
  -25.9233  -32.4677   23.8245 C   0  0  1  0  0  0
  -27.2210  -27.0513   20.1671 C   0  0  0  0  0  0
  -25.5943  -33.8486   24.2150 N   0  0  0  0  0  0
  -23.4614  -30.4548   21.5298 C   0  0  2  0  0  0
  -24.9141  -28.8676   20.1111 C   0  0  0  0  0  0
  -22.7633  -29.4501   22.4819 C   0  0  0  0  0  0
  -18.0329  -28.1419   22.8486 C   0  0  0  0  0  0
  -24.1492  -36.7250   23.2647 C   0  0  0  0  0  0
  -26.0244  -30.6856   21.3946 C   0  0  0  0  0  0
  -26.0944  -29.2884   20.7348 C   0  0  0  0  0  0
  -27.2453  -28.3985   20.7419 C   0  0  0  0  0  0
  -26.0099  -26.7520   19.5037 C   0  0  0  0  0  0
  -24.8895  -27.6164   19.4761 C   0  0  0  0  0  0
  -23.6979  -29.7867   20.1499 C   0  0  0  0  0  0
  -25.4123  -36.3024   24.0318 C   0  0  1  0  0  0
  -20.5949  -28.3744   23.1236 C   0  0  2  0  0  0
  -20.6815  -26.9433   22.5430 C   0  0  0  0  0  0
  -19.5775  -26.6372   21.5258 C   0  0  0  0  0  0
  -18.1954  -26.7957   22.1645 C   0  0  0  0  0  0
  -19.1587  -28.8896   23.2852 C   0  0  0  0  0  0
  -18.9490  -30.1493   23.8884 C   0  0  0  0  0  0
  -17.6477  -30.6605   24.0563 C   0  0  0  0  0  0
  -25.9073  -34.9405   23.5037 C   0  0  0  0  0  0
  -16.5369  -29.9102   23.6326 C   0  0  0  0  0  0
  -16.7310  -28.6518   23.0358 C   0  0  0  0  0  0
  -26.4518  -31.6579   25.0724 C   0  0  0  0  0  0
  -25.3661  -31.3828   26.1391 C   0  0  0  0  0  0
  -27.0403  -30.2967   24.6362 C   0  0  0  0  0  0
  -27.6034  -32.4366   25.7514 C   0  0  0  0  0  0
  -27.5575  -37.1767   24.8448 C   0  0  0  0  0  0
  -21.4313  -29.3045   22.3584 N   0  0  0  0  0  0
  -26.4280  -37.3741   23.9414 N   0  0  0  0  0  0
  -24.7326  -31.0165   22.0887 N   0  0  0  0  0  0
  -23.4243  -28.8060   23.3008 O   0  0  0  0  0  0
  -28.2563  -26.0176   20.2417 O   0  0  0  0  0  0
  -26.5681  -34.8910   22.4638 O   0  0  0  0  0  0
  -23.5600  -32.1297   23.6954 O   0  0  0  0  0  0
  -28.7808  -18.8012   20.5466 C   0  0  0  0  0  0
  -29.1505  -20.2671   20.3540 C   0  0  0  0  0  0
  -30.4656  -20.3217   20.0147 C   0  0  0  0  0  0
  -29.7623  -17.7484   20.3819 C   0  0  0  0  0  0
  -31.1599  -21.6523   19.7623 C   0  0  0  0  0  0
  -30.2142  -22.8896   19.4692 C   0  0  0  0  0  0
  -28.9555  -23.0294   20.3814 C   0  0  1  0  0  0
  -27.9865  -24.4502   20.0825 C   0  0  0  0  0  0
  -28.3793  -21.5698   20.4491 N   0  0  0  0  0  0
  -29.6624  -16.2823   20.5088 N   0  0  0  0  0  0
  -31.2194  -18.6802   19.9402 S   0  0  0  0  0  0
  -31.4706  -12.8854   19.1674 H   0  0  0  0  0  0
  -30.4902  -11.7530   20.0557 H   0  0  0  0  0  0
  -29.8647  -11.7527   17.6105 H   0  0  0  0  0  0
  -29.5753  -13.4736   17.6682 H   0  0  0  0  0  0
  -27.9960  -11.2767   19.0229 H   0  0  0  0  0  0
  -27.4002  -12.4060   17.8316 H   0  0  0  0  0  0
  -27.5613  -14.2499   19.3741 H   0  0  0  0  0  0
  -28.7860  -12.3889   21.4680 H   0  0  0  0  0  0
  -28.3424  -14.0615   21.7248 H   0  0  0  0  0  0
  -25.2825   -9.5654   22.4758 H   0  0  0  0  0  0
  -24.0017   -7.4634   22.7479 H   0  0  0  0  0  0
  -21.0872   -8.8843   19.8961 H   0  0  0  0  0  0
  -22.3776  -10.9724   19.6171 H   0  0  0  0  0  0
  -21.2010   -7.6153   23.9721 H   0  0  0  0  0  0
  -21.1482   -6.0519   25.9082 H   0  0  0  0  0  0
  -22.0598   -2.7606   23.2824 H   0  0  0  0  0  0
  -22.4094  -11.9886   22.4841 H   0  0  0  0  0  0
  -21.1078  -13.1251   22.2688 H   0  0  0  0  0  0
  -24.6421  -15.8532   20.5496 H   0  0  0  0  0  0
  -26.2517  -15.6429   20.0817 H   0  0  0  0  0  0
  -26.7310  -32.5260   23.0986 H   0  0  0  0  0  0
  -25.0076  -33.9595   25.0286 H   0  0  0  0  0  0
  -22.7671  -31.2832   21.3724 H   0  0  0  0  0  0
  -23.3775  -35.9555   23.3277 H   0  0  0  0  0  0
  -24.3568  -36.8924   22.2063 H   0  0  0  0  0  0
  -23.7208  -37.6419   23.6716 H   0  0  0  0  0  0
  -26.1911  -31.4371   20.6220 H   0  0  0  0  0  0
  -26.8895  -30.7385   22.0450 H   0  0  0  0  0  0
  -28.1435  -28.7158   21.2516 H   0  0  0  0  0  0
  -25.8927  -25.7926   19.0229 H   0  0  0  0  0  0
  -23.9876  -27.2922   18.9759 H   0  0  0  0  0  0
  -23.8561  -30.5680   19.4054 H   0  0  0  0  0  0
  -22.8073  -29.2491   19.8200 H   0  0  0  0  0  0
  -25.1308  -36.1846   25.0807 H   0  0  0  0  0  0
  -21.0036  -28.3356   24.1364 H   0  0  0  0  0  0
  -20.5763  -26.2348   23.3665 H   0  0  0  0  0  0
  -21.6673  -26.7458   22.1188 H   0  0  0  0  0  0
  -19.6926  -25.6274   21.1317 H   0  0  0  0  0  0
  -19.6718  -27.3172   20.6792 H   0  0  0  0  0  0
  -17.4228  -26.6745   21.4038 H   0  0  0  0  0  0
  -18.0293  -26.0121   22.9049 H   0  0  0  0  0  0
  -19.7956  -30.7324   24.2254 H   0  0  0  0  0  0
  -17.5019  -31.6283   24.5177 H   0  0  0  0  0  0
  -15.5363  -30.2996   23.7640 H   0  0  0  0  0  0
  -15.8723  -28.0821   22.7080 H   0  0  0  0  0  0
  -24.5802  -30.7235   25.7686 H   0  0  0  0  0  0
  -24.8903  -32.3051   26.4736 H   0  0  0  0  0  0
  -25.7872  -30.9008   27.0223 H   0  0  0  0  0  0
  -26.3044  -29.6667   24.1351 H   0  0  0  0  0  0
  -27.3991  -29.7287   25.4957 H   0  0  0  0  0  0
  -27.8963  -30.4221   23.9729 H   0  0  0  0  0  0
  -27.2613  -33.3686   26.2043 H   0  0  0  0  0  0
  -28.3868  -32.6905   25.0356 H   0  0  0  0  0  0
  -28.0699  -31.8533   26.5467 H   0  0  0  0  0  0
  -28.2551  -38.0105   24.7531 H   0  0  0  0  0  0
  -28.1110  -36.2624   24.6226 H   0  0  0  0  0  0
  -27.2302  -37.1361   25.8853 H   0  0  0  0  0  0
  -20.9531  -29.8732   21.6732 H   0  0  0  0  0  0
  -26.0145  -38.2798   24.1465 H   0  0  0  0  0  0
  -27.7595  -18.5649   20.8119 H   0  0  0  0  0  0
  -31.8674  -21.5475   18.9385 H   0  0  0  0  0  0
  -31.7658  -21.8888   20.6369 H   0  0  0  0  0  0
  -29.8713  -22.8204   18.4367 H   0  0  0  0  0  0
  -30.7989  -23.8086   19.5215 H   0  0  0  0  0  0
  -29.3453  -23.1848   21.3876 H   0  0  0  0  0  0
  -27.0999  -24.2929   20.6984 H   0  0  0  0  0  0
  -27.6362  -24.3375   19.0559 H   0  0  0  0  0  0
  -27.4242  -21.5036   20.7958 H   0  0  0  0  0  0
  -28.7157  -15.9944   20.7080 H   0  0  0  0  0  0
  1 25  1  0  0  0
  1 30  2  0  0  0
  1 80  1  0  0  0
  2  3  1  0  0  0
  2 25  1  0  0  0
  2 82  1  0  0  0
  2 83  1  0  0  0
  3  4  1  0  0  0
  3 84  1  0  0  0
  3 85  1  0  0  0
  4  5  1  0  0  0
  4 86  1  0  0  0
  4 87  1  0  0  0
  5  6  1  0  0  0
  5 26  1  0  0  0
  5 88  1  0  0  0
  6 25  1  0  0  0
  6 89  1  0  0  0
  6 90  1  0  0  0
  7  8  2  0  0  0
  7 26  1  0  0  0
  7 29  1  0  0  0
  8  9  1  0  0  0
  8 22  1  0  0  0
  9 10  1  0  0  0
  9 27  2  0  0  0
 10 11  2  0  0  0
 10 15  1  0  0  0
 11 12  1  0  0  0
 11 91  1  0  0  0
 12 13  2  0  0  0
 12 92  1  0  0  0
 13 14  1  0  0  0
 13 31  1  0  0  0
 14 15  2  0  0  0
 14 93  1  0  0  0
 15 94  1  0  0  0
 16 17  2  0  0  0
 16 21  1  0  0  0
 16 31  1  0  0  0
 17 18  1  0  0  0
 17 95  1  0  0  0
 18 19  2  0  0  0
 18 96  1  0  0  0
 19 20  1  0  0  0
 19 24  1  0  0  0
 20 21  2  0  0  0
 20 97  1  0  0  0
 21 23  1  0  0  0
 22 28  1  0  0  0
 22 32  2  0  0  0
 26 27  1  0  0  0
 28 98  1  0  0  0
 28 99  1  0  0  0
 29100  1  0  0  0
 29101  1  0  0  0
 33 34  1  0  0  0
 33 66  1  0  0  0
 33 70  2  0  0  0
 34 36  1  0  0  0
 34 59  1  0  0  0
 34102  1  0  0  0
 35 44  2  0  0  0
 35 45  1  0  0  0
 35 68  1  0  0  0
 36 56  1  0  0  0
 36103  1  0  0  0
 37 39  1  0  0  0
 37 47  1  0  0  0
 37 66  1  0  0  0
 37104  1  0  0  0
 38 43  2  0  0  0
 38 46  1  0  0  0
 38 47  1  0  0  0
 39 64  1  0  0  0
 39 67  2  0  0  0
 40 52  1  0  0  0
 40 53  2  0  0  0
 40 58  1  0  0  0
 41105  1  0  0  0
 41106  1  0  0  0
 41107  1  0  0  0
 41 48  1  0  0  0
 42 43  1  0  0  0
 42 66  1  0  0  0
 42108  1  0  0  0
 42109  1  0  0  0
 43 44  1  0  0  0
 44110  1  0  0  0
 45 46  2  0  0  0
 45111  1  0  0  0
 46112  1  0  0  0
 47113  1  0  0  0
 47114  1  0  0  0
 48 56  1  0  0  0
 48 65  1  0  0  0
 48115  1  0  0  0
 49 50  1  0  0  0
 49 53  1  0  0  0
 49 64  1  0  0  0
 49116  1  0  0  0
 50 51  1  0  0  0
 50117  1  0  0  0
 50118  1  0  0  0
 51 52  1  0  0  0
 51119  1  0  0  0
 51120  1  0  0  0
 52121  1  0  0  0
 52122  1  0  0  0
 53 54  1  0  0  0
 54 55  2  0  0  0
 54123  1  0  0  0
 55 57  1  0  0  0
 55124  1  0  0  0
 56 69  2  0  0  0
 57 58  2  0  0  0
 57125  1  0  0  0
 58126  1  0  0  0
 59 60  1  0  0  0
 59 61  1  0  0  0
 59 62  1  0  0  0
 60127  1  0  0  0
 60128  1  0  0  0
 60129  1  0  0  0
 61130  1  0  0  0
 61131  1  0  0  0
 61132  1  0  0  0
 62133  1  0  0  0
 62134  1  0  0  0
 62135  1  0  0  0
 63 65  1  0  0  0
 63136  1  0  0  0
 63137  1  0  0  0
 63138  1  0  0  0
 64139  1  0  0  0
 65140  1  0  0  0
 68 78  1  0  0  0
 71 72  1  0  0  0
 71 74  2  0  0  0
 71141  1  0  0  0
 72 73  2  0  0  0
 72 79  1  0  0  0
 73 75  1  0  0  0
 73 81  1  0  0  0
 74 80  1  0  0  0
 74 81  1  0  0  0
 75 76  1  0  0  0
 75142  1  0  0  0
 75143  1  0  0  0
 76 77  1  0  0  0
 76144  1  0  0  0
 76145  1  0  0  0
 77 78  1  0  0  0
 77 79  1  0  0  0
 77146  1  0  0  0
 78147  1  0  0  0
 78148  1  0  0  0
 79149  1  0  0  0
 80150  1  0  0  0
M  ISO  4   1 100  68 101  78 101  80 100
M  END
> <chiral flag>
0

> <version>
0

> <s_m_source_file>
/data/baiqing/PycharmProjects/Reinvent-master-3.2/result/LINK_invent/BTK/process_docking_weight1_custom_product_contain_oxygen_bond_distance_aromatic_linkinvent_7_9_3/rearranged_h_0152.sdf

> <i_m_source_file_index>
45

> <r_mmod_Potential_Energy-OPLS-2005>
671.965881347656

> <r_mmod_Stretch_Energy-OPLS-2005>
331.66015625

> <r_mmod_Bend_Energy-OPLS-2005>
310.025238037109

> <r_mmod_Torsional_Energy-OPLS-2005>
215.496139526367

> <r_mmod_Improper_Torsional_Energy-OPLS-2005>
4.35835552215576

> <r_mmod_Van_der_Waal_Energy-OPLS-2005>
112.188423156738

> <r_mmod_Electrostatic_Energy-OPLS-2005>
-364.255767822266

> <r_mmod_Solvation_Energy-OPLS-2005>
-232.625228881836

> <b_mmod_Minimization_Converged-OPLS-2005>
0

> <r_mmod_RMS_Derivative-OPLS-2005>
3.38857674598694

$$$$
45
                    3D
 Structure written by MMmdl.
161170  0  0  1  0            999 V2000
  -30.6191  -14.6538   20.5127 C   0  0  0  0  0  0
  -30.4411  -12.4095   19.4402 C   0  0  0  0  0  0
  -29.5044  -12.5301   18.2171 C   0  0  0  0  0  0
  -28.0286  -12.3618   18.6308 C   0  0  0  0  0  0
  -27.6557  -13.2225   19.8680 C   0  0  2  0  0  0
  -28.7052  -13.0688   20.9937 C   0  0  0  0  0  0
  -25.2567  -13.8175   20.5708 C   0  0  0  0  0  0
  -24.1839  -13.0439   20.9191 C   0  0  0  0  0  0
  -24.6415  -11.6912   20.8728 C   0  0  0  0  0  0
  -23.9090  -10.4295   21.0403 C   0  0  0  0  0  0
  -24.3635   -9.4215   21.9196 C   0  0  0  0  0  0
  -23.6313   -8.2250   22.0754 C   0  0  0  0  0  0
  -22.4301   -8.0290   21.3544 C   0  0  0  0  0  0
  -21.9936   -9.0265   20.4656 C   0  0  0  0  0  0
  -22.7259  -10.2143   20.3069 C   0  0  0  0  0  0
  -21.6856   -6.0750   22.5284 C   0  0  0  0  0  0
  -21.4006   -6.5654   23.8215 C   0  0  0  0  0  0
  -21.3658   -5.6803   24.9173 C   0  0  0  0  0  0
  -21.6038   -4.3063   24.7225 C   0  0  0  0  0  0
  -21.8816   -3.8163   23.4347 C   0  0  0  0  0  0
  -21.9193   -4.6979   22.3405 C   0  0  0  0  0  0
  -22.7859  -13.5223   21.1853 C   0  0  0  0  0  0
  -22.1662   -4.2165   21.0982 F   0  0  0  0  0  0
  -21.5629   -3.4548   25.7738 F   0  0  0  0  0  0
  -30.0200  -13.4211   20.4310 N   0  0  0  0  0  0
  -26.3015  -12.9376   20.3364 N   0  0  0  0  0  0
  -25.9353  -11.6527   20.5774 N   0  0  0  0  0  0
  -22.0492  -12.8212   22.0388 N   0  0  0  0  0  0
  -25.4271  -15.1904   20.4140 N   0  0  0  0  0  0
  -31.7668  -14.8414   20.0993 O   0  0  0  0  0  0
  -21.6653   -6.8900   21.4251 O   0  0  0  0  0  0
  -22.3568  -14.5545   20.6714 O   0  0  0  0  0  0
  -24.6271  -31.8609   23.2014 C   0  0  0  0  0  0
  -25.9123  -32.4785   23.8355 C   0  0  1  0  0  0
  -27.2202  -27.3143   20.1160 C   0  0  0  0  0  0
  -25.5924  -33.8576   24.2274 N   0  0  0  0  0  0
  -23.4199  -30.4840   21.5437 C   0  0  2  0  0  0
  -24.8658  -28.9373   20.1106 C   0  0  0  0  0  0
  -22.7472  -29.4629   22.4926 C   0  0  0  0  0  0
  -18.0293  -28.1401   22.8486 C   0  0  0  0  0  0
  -24.1469  -36.7272   23.2631 C   0  0  0  0  0  0
  -25.9621  -30.7869   21.3742 C   0  0  0  0  0  0
  -26.0348  -29.4144   20.7172 C   0  0  0  0  0  0
  -27.2160  -28.6146   20.7081 C   0  0  0  0  0  0
  -26.0248  -26.8839   19.4956 C   0  0  0  0  0  0
  -24.8618  -27.6762   19.4935 C   0  0  0  0  0  0
  -23.6350  -29.8195   20.1581 C   0  0  0  0  0  0
  -25.4093  -36.3071   24.0330 C   0  0  1  0  0  0
  -20.5888  -28.3689   23.1288 C   0  0  2  0  0  0
  -20.6772  -26.9411   22.5418 C   0  0  0  0  0  0
  -19.5757  -26.6403   21.5214 C   0  0  0  0  0  0
  -18.1926  -26.7956   22.1603 C   0  0  0  0  0  0
  -19.1545  -28.8859   23.2894 C   0  0  0  0  0  0
  -18.9475  -30.1458   23.8918 C   0  0  0  0  0  0
  -17.6475  -30.6588   24.0584 C   0  0  0  0  0  0
  -25.9047  -34.9455   23.5112 C   0  0  0  0  0  0
  -16.5365  -29.9089   23.6354 C   0  0  0  0  0  0
  -16.7284  -28.6518   23.0362 C   0  0  0  0  0  0
  -26.4491  -31.6606   25.0736 C   0  0  0  0  0  0
  -25.3719  -31.3767   26.1467 C   0  0  0  0  0  0
  -27.0324  -30.3026   24.6195 C   0  0  0  0  0  0
  -27.6049  -32.4342   25.7501 C   0  0  0  0  0  0
  -27.5590  -37.1765   24.8432 C   0  0  0  0  0  0
  -21.4178  -29.3058   22.3684 N   0  0  0  0  0  0
  -26.4251  -37.3795   23.9444 N   0  0  0  0  0  0
  -24.6888  -31.0603   22.0972 N   0  0  0  0  0  0
  -23.4201  -28.8174   23.3009 O   0  0  0  0  0  0
  -28.3366  -26.4618   20.1522 O   0  0  0  0  0  0
  -26.5615  -34.8942   22.4671 O   0  0  0  0  0  0
  -23.5431  -32.1396   23.7330 O   0  0  0  0  0  0
  -28.8025  -17.9102   21.3563 C   0  0  0  0  0  0
  -28.7868  -19.3297   21.2615 C   0  0  0  0  0  0
  -30.8813  -17.9093   20.1962 C   0  0  0  0  0  0
  -29.8667  -17.1392   20.8236 C   0  0  0  0  0  0
  -29.8239  -20.0232   20.5939 C   0  0  0  0  0  0
  -28.8926  -22.4769   20.2905 C   0  0  0  0  0  0
  -29.1402  -23.8481   20.2657 C   0  0  0  0  0  0
  -27.5133  -22.0044   20.0063 C   0  0  0  0  0  0
  -30.5691  -24.3626   20.4370 C   0  0  0  0  0  0
  -31.6140  -23.2560   20.2381 C   0  0  0  0  0  0
  -31.2197  -21.9686   20.9702 C   0  0  0  0  0  0
  -26.3313  -22.6284   20.7405 C   0  0  0  0  0  0
  -28.0815  -25.0055   20.0498 C   0  0  0  0  0  0
  -30.8482  -19.2761   20.0829 N   0  0  0  0  0  0
  -29.9115  -21.4739   20.5095 N   0  0  0  0  0  0
  -29.8145  -15.6753   20.9439 N   0  0  0  0  0  0
  -27.2821  -21.0988   19.2036 O   0  0  0  0  0  0
  -31.4787  -12.5458   19.1313 H   0  0  0  0  0  0
  -30.3859  -11.4097   19.8697 H   0  0  0  0  0  0
  -29.7662  -11.7878   17.4613 H   0  0  0  0  0  0
  -29.6400  -13.5051   17.7459 H   0  0  0  0  0  0
  -27.8624  -11.3066   18.8496 H   0  0  0  0  0  0
  -27.3734  -12.6076   17.7931 H   0  0  0  0  0  0
  -27.6737  -14.2607   19.5366 H   0  0  0  0  0  0
  -28.7202  -12.0444   21.3676 H   0  0  0  0  0  0
  -28.4478  -13.6929   21.8518 H   0  0  0  0  0  0
  -25.2784   -9.5682   22.4771 H   0  0  0  0  0  0
  -24.0015   -7.4647   22.7477 H   0  0  0  0  0  0
  -21.0858   -8.8789   19.8971 H   0  0  0  0  0  0
  -22.3731  -10.9679   19.6176 H   0  0  0  0  0  0
  -21.1989   -7.6160   23.9725 H   0  0  0  0  0  0
  -21.1480   -6.0533   25.9075 H   0  0  0  0  0  0
  -22.0595   -2.7629   23.2848 H   0  0  0  0  0  0
  -22.4103  -11.9858   22.4744 H   0  0  0  0  0  0
  -21.1103  -13.1241   22.2580 H   0  0  0  0  0  0
  -24.6553  -15.8405   20.5156 H   0  0  0  0  0  0
  -26.2718  -15.6318   20.0697 H   0  0  0  0  0  0
  -26.7185  -32.5433   23.1102 H   0  0  0  0  0  0
  -25.0102  -33.9740   25.0437 H   0  0  0  0  0  0
  -22.7158  -31.3047   21.3980 H   0  0  0  0  0  0
  -23.3775  -35.9561   23.3248 H   0  0  0  0  0  0
  -24.3586  -36.8931   22.2061 H   0  0  0  0  0  0
  -23.7181  -37.6438   23.6685 H   0  0  0  0  0  0
  -26.0957  -31.5499   20.6047 H   0  0  0  0  0  0
  -26.8421  -30.8341   22.0041 H   0  0  0  0  0  0
  -28.1116  -28.9754   21.1927 H   0  0  0  0  0  0
  -25.9679  -25.9210   19.0075 H   0  0  0  0  0  0
  -23.9640  -27.3047   19.0184 H   0  0  0  0  0  0
  -23.7544  -30.5954   19.4005 H   0  0  0  0  0  0
  -22.7547  -29.2479   19.8582 H   0  0  0  0  0  0
  -25.1268  -36.1900   25.0822 H   0  0  0  0  0  0
  -20.9995  -28.3271   24.1404 H   0  0  0  0  0  0
  -20.5647  -26.2314   23.3623 H   0  0  0  0  0  0
  -21.6647  -26.7415   22.1234 H   0  0  0  0  0  0
  -19.6904  -25.6318   21.1253 H   0  0  0  0  0  0
  -19.6718  -27.3220   20.6766 H   0  0  0  0  0  0
  -17.4209  -26.6766   21.3975 H   0  0  0  0  0  0
  -18.0264  -26.0074   22.8961 H   0  0  0  0  0  0
  -19.7947  -30.7283   24.2280 H   0  0  0  0  0  0
  -17.5029  -31.6280   24.5165 H   0  0  0  0  0  0
  -15.5368  -30.3005   23.7671 H   0  0  0  0  0  0
  -15.8684  -28.0855   22.7063 H   0  0  0  0  0  0
  -24.5916  -30.7075   25.7830 H   0  0  0  0  0  0
  -24.8894  -32.2940   26.4853 H   0  0  0  0  0  0
  -25.8051  -30.9004   27.0270 H   0  0  0  0  0  0
  -26.2903  -29.6791   24.1197 H   0  0  0  0  0  0
  -27.3996  -29.7271   25.4707 H   0  0  0  0  0  0
  -27.8788  -30.4323   23.9445 H   0  0  0  0  0  0
  -27.2673  -33.3661   26.2051 H   0  0  0  0  0  0
  -28.3882  -32.6862   25.0338 H   0  0  0  0  0  0
  -28.0694  -31.8482   26.5442 H   0  0  0  0  0  0
  -28.2506  -38.0165   24.7632 H   0  0  0  0  0  0
  -28.1190  -36.2717   24.6028 H   0  0  0  0  0  0
  -27.2365  -37.1125   25.8840 H   0  0  0  0  0  0
  -20.9332  -29.8807   21.6928 H   0  0  0  0  0  0
  -26.0122  -38.2832   24.1574 H   0  0  0  0  0  0
  -27.9835  -17.4148   21.8558 H   0  0  0  0  0  0
  -27.9699  -19.8690   21.7174 H   0  0  0  0  0  0
  -31.7522  -17.4369   19.7683 H   0  0  0  0  0  0
  -30.6643  -24.8194   21.4237 H   0  0  0  0  0  0
  -30.7701  -25.1517   19.7105 H   0  0  0  0  0  0
  -32.5921  -23.6045   20.5748 H   0  0  0  0  0  0
  -31.7150  -23.0388   19.1739 H   0  0  0  0  0  0
  -31.1580  -22.1585   22.0441 H   0  0  0  0  0  0
  -32.0385  -21.2605   20.8445 H   0  0  0  0  0  0
  -26.6629  -23.2960   21.5344 H   0  0  0  0  0  0
  -25.7184  -21.8486   21.1920 H   0  0  0  0  0  0
  -25.7104  -23.1940   20.0468 H   0  0  0  0  0  0
  -28.2742  -25.1386   21.1156 H   0  0  0  0  0  0
  -28.6204  -25.1713   19.1150 H   0  0  0  0  0  0
  -28.9403  -15.3250   21.3108 H   0  0  0  0  0  0
  1 25  1  0  0  0
  1 30  2  0  0  0
  1 86  1  0  0  0
  2  3  1  0  0  0
  2 25  1  0  0  0
  2 88  1  0  0  0
  2 89  1  0  0  0
  3  4  1  0  0  0
  3 90  1  0  0  0
  3 91  1  0  0  0
  4  5  1  0  0  0
  4 92  1  0  0  0
  4 93  1  0  0  0
  5  6  1  0  0  0
  5 26  1  0  0  0
  5 94  1  0  0  0
  6 25  1  0  0  0
  6 95  1  0  0  0
  6 96  1  0  0  0
  7  8  2  0  0  0
  7 26  1  0  0  0
  7 29  1  0  0  0
  8  9  1  0  0  0
  8 22  1  0  0  0
  9 10  1  0  0  0
  9 27  2  0  0  0
 10 11  2  0  0  0
 10 15  1  0  0  0
 11 12  1  0  0  0
 11 97  1  0  0  0
 12 13  2  0  0  0
 12 98  1  0  0  0
 13 14  1  0  0  0
 13 31  1  0  0  0
 14 15  2  0  0  0
 14 99  1  0  0  0
 15100  1  0  0  0
 16 17  2  0  0  0
 16 21  1  0  0  0
 16 31  1  0  0  0
 17 18  1  0  0  0
 17101  1  0  0  0
 18 19  2  0  0  0
 18102  1  0  0  0
 19 20  1  0  0  0
 19 24  1  0  0  0
 20 21  2  0  0  0
 20103  1  0  0  0
 21 23  1  0  0  0
 22 28  1  0  0  0
 22 32  2  0  0  0
 26 27  1  0  0  0
 28104  1  0  0  0
 28105  1  0  0  0
 29106  1  0  0  0
 29107  1  0  0  0
 33 34  1  0  0  0
 33 66  1  0  0  0
 33 70  2  0  0  0
 34 36  1  0  0  0
 34 59  1  0  0  0
 34108  1  0  0  0
 35 44  2  0  0  0
 35 45  1  0  0  0
 35 68  1  0  0  0
 36 56  1  0  0  0
 36109  1  0  0  0
 37 39  1  0  0  0
 37 47  1  0  0  0
 37 66  1  0  0  0
 37110  1  0  0  0
 38 43  2  0  0  0
 38 46  1  0  0  0
 38 47  1  0  0  0
 39 64  1  0  0  0
 39 67  2  0  0  0
 40 52  1  0  0  0
 40 53  2  0  0  0
 40 58  1  0  0  0
 41111  1  0  0  0
 41112  1  0  0  0
 41113  1  0  0  0
 41 48  1  0  0  0
 42 43  1  0  0  0
 42 66  1  0  0  0
 42114  1  0  0  0
 42115  1  0  0  0
 43 44  1  0  0  0
 44116  1  0  0  0
 45 46  2  0  0  0
 45117  1  0  0  0
 46118  1  0  0  0
 47119  1  0  0  0
 47120  1  0  0  0
 48 56  1  0  0  0
 48 65  1  0  0  0
 48121  1  0  0  0
 49 50  1  0  0  0
 49 53  1  0  0  0
 49 64  1  0  0  0
 49122  1  0  0  0
 50 51  1  0  0  0
 50123  1  0  0  0
 50124  1  0  0  0
 51 52  1  0  0  0
 51125  1  0  0  0
 51126  1  0  0  0
 52127  1  0  0  0
 52128  1  0  0  0
 53 54  1  0  0  0
 54 55  2  0  0  0
 54129  1  0  0  0
 55 57  1  0  0  0
 55130  1  0  0  0
 56 69  2  0  0  0
 57 58  2  0  0  0
 57131  1  0  0  0
 58132  1  0  0  0
 59 60  1  0  0  0
 59 61  1  0  0  0
 59 62  1  0  0  0
 60133  1  0  0  0
 60134  1  0  0  0
 60135  1  0  0  0
 61136  1  0  0  0
 61137  1  0  0  0
 61138  1  0  0  0
 62139  1  0  0  0
 62140  1  0  0  0
 62141  1  0  0  0
 63 65  1  0  0  0
 63142  1  0  0  0
 63143  1  0  0  0
 63144  1  0  0  0
 64145  1  0  0  0
 65146  1  0  0  0
 68 83  1  0  0  0
 71 72  2  0  0  0
 71 74  1  0  0  0
 71147  1  0  0  0
 72 75  1  0  0  0
 72148  1  0  0  0
 73 74  2  0  0  0
 73 84  1  0  0  0
 73149  1  0  0  0
 74 86  1  0  0  0
 75 84  2  0  0  0
 75 85  1  0  0  0
 76 77  2  0  0  0
 76 78  1  0  0  0
 76 85  1  0  0  0
 77 79  1  0  0  0
 77 83  1  0  0  0
 78 82  1  0  0  0
 78 87  2  0  0  0
 79 80  1  0  0  0
 79150  1  0  0  0
 79151  1  0  0  0
 80 81  1  0  0  0
 80152  1  0  0  0
 80153  1  0  0  0
 81 85  1  0  0  0
 81154  1  0  0  0
 81155  1  0  0  0
 82156  1  0  0  0
 82157  1  0  0  0
 82158  1  0  0  0
 83159  1  0  0  0
 83160  1  0  0  0
 86161  1  0  0  0
M  ISO  4   1 100  68 101  83 101  86 100
M  END
> <chiral flag>
0

> <version>
0

> <s_m_source_file>
/data/baiqing/PycharmProjects/Reinvent-master-3.2/result/LINK_invent/BTK/process_docking_weight1_custom_product_contain_oxygen_bond_distance_aromatic_linkinvent_7_9_3/rearranged_h_0152.sdf

> <i_m_source_file_index>
46

> <r_mmod_Potential_Energy-OPLS-2005>
29.5898685455322

> <r_mmod_Stretch_Energy-OPLS-2005>
93.0051727294922

> <r_mmod_Bend_Energy-OPLS-2005>
346.727294921875

> <r_mmod_Torsional_Energy-OPLS-2005>
242.202987670898

> <r_mmod_Improper_Torsional_Energy-OPLS-2005>
4.29296779632568

> <r_mmod_Van_der_Waal_Energy-OPLS-2005>
172.266708374023

> <r_mmod_Electrostatic_Energy-OPLS-2005>
-650.018859863281

> <r_mmod_Solvation_Energy-OPLS-2005>
-230.37841796875

> <b_mmod_Minimization_Converged-OPLS-2005>
0

> <r_mmod_RMS_Derivative-OPLS-2005>
3.15529799461365

$$$$
46
                    3D
 Structure written by MMmdl.
151160  0  0  1  0            999 V2000
  -30.6018  -14.8011   20.4402 C   0  0  0  0  0  0
  -30.4335  -12.4881   19.4894 C   0  0  0  0  0  0
  -29.5166  -12.5161   18.2461 C   0  0  0  0  0  0
  -28.0441  -12.3310   18.6574 C   0  0  0  0  0  0
  -27.6410  -13.2392   19.8495 C   0  0  2  0  0  0
  -28.6833  -13.2021   20.9893 C   0  0  0  0  0  0
  -25.2503  -13.8211   20.5688 C   0  0  0  0  0  0
  -24.1801  -13.0450   20.9202 C   0  0  0  0  0  0
  -24.6404  -11.6930   20.8749 C   0  0  0  0  0  0
  -23.9088  -10.4298   21.0412 C   0  0  0  0  0  0
  -24.3632   -9.4208   21.9188 C   0  0  0  0  0  0
  -23.6295   -8.2252   22.0760 C   0  0  0  0  0  0
  -22.4276   -8.0288   21.3552 C   0  0  0  0  0  0
  -21.9916   -9.0266   20.4657 C   0  0  0  0  0  0
  -22.7255  -10.2138   20.3064 C   0  0  0  0  0  0
  -21.6854   -6.0735   22.5276 C   0  0  0  0  0  0
  -21.4018   -6.5640   23.8206 C   0  0  0  0  0  0
  -21.3658   -5.6790   24.9168 C   0  0  0  0  0  0
  -21.6042   -4.3054   24.7217 C   0  0  0  0  0  0
  -21.8823   -3.8147   23.4339 C   0  0  0  0  0  0
  -21.9197   -4.6967   22.3394 C   0  0  0  0  0  0
  -22.7822  -13.5234   21.1855 C   0  0  0  0  0  0
  -22.1668   -4.2155   21.0974 F   0  0  0  0  0  0
  -21.5626   -3.4538   25.7732 F   0  0  0  0  0  0
  -29.9831  -13.5644   20.4093 N   0  0  0  0  0  0
  -26.2935  -12.9432   20.3265 N   0  0  0  0  0  0
  -25.9334  -11.6570   20.5737 N   0  0  0  0  0  0
  -22.0462  -12.8231   22.0411 N   0  0  0  0  0  0
  -25.4195  -15.1932   20.4099 N   0  0  0  0  0  0
  -31.7888  -14.8721   20.1052 O   0  0  0  0  0  0
  -21.6642   -6.8883   21.4240 O   0  0  0  0  0  0
  -22.3517  -14.5551   20.6711 O   0  0  0  0  0  0
  -24.6357  -31.8520   23.1981 C   0  0  0  0  0  0
  -25.9173  -32.4728   23.8333 C   0  0  1  0  0  0
  -27.2083  -27.2078   20.1361 C   0  0  0  0  0  0
  -25.5956  -33.8536   24.2250 N   0  0  0  0  0  0
  -23.4347  -30.4768   21.5417 C   0  0  2  0  0  0
  -24.8823  -28.9237   20.1081 C   0  0  0  0  0  0
  -22.7526  -29.4585   22.4885 C   0  0  0  0  0  0
  -18.0299  -28.1390   22.8472 C   0  0  0  0  0  0
  -24.1496  -36.7272   23.2636 C   0  0  0  0  0  0
  -25.9869  -30.7434   21.3946 C   0  0  0  0  0  0
  -26.0540  -29.3624   20.7370 C   0  0  0  0  0  0
  -27.2153  -28.5136   20.7510 C   0  0  0  0  0  0
  -26.0243  -26.8800   19.4325 C   0  0  0  0  0  0
  -24.8754  -27.6913   19.4444 C   0  0  0  0  0  0
  -23.6567  -29.8176   20.1563 C   0  0  0  0  0  0
  -25.4120  -36.3051   24.0322 C   0  0  1  0  0  0
  -20.5903  -28.3711   23.1246 C   0  0  2  0  0  0
  -20.6786  -26.9422   22.5397 C   0  0  0  0  0  0
  -19.5763  -26.6383   21.5202 C   0  0  0  0  0  0
  -18.1946  -26.7927   22.1621 C   0  0  0  0  0  0
  -19.1553  -28.8868   23.2853 C   0  0  0  0  0  0
  -18.9471  -30.1463   23.8880 C   0  0  0  0  0  0
  -17.6469  -30.6587   24.0555 C   0  0  0  0  0  0
  -25.9064  -34.9420   23.5088 C   0  0  0  0  0  0
  -16.5359  -29.9080   23.6330 C   0  0  0  0  0  0
  -16.7284  -28.6501   23.0347 C   0  0  0  0  0  0
  -26.4523  -31.6562   25.0738 C   0  0  0  0  0  0
  -25.3728  -31.3739   26.1446 C   0  0  0  0  0  0
  -27.0370  -30.2956   24.6285 C   0  0  0  0  0  0
  -27.6072  -32.4310   25.7509 C   0  0  0  0  0  0
  -27.5579  -37.1794   24.8464 C   0  0  0  0  0  0
  -21.4228  -29.3050   22.3629 N   0  0  0  0  0  0
  -26.4293  -37.3752   23.9402 N   0  0  0  0  0  0
  -24.7045  -31.0439   22.0993 N   0  0  0  0  0  0
  -23.4202  -28.8111   23.2991 O   0  0  0  0  0  0
  -28.2696  -26.2529   20.2110 O   0  0  0  0  0  0
  -26.5634  -34.8899   22.4655 O   0  0  0  0  0  0
  -23.5498  -32.1377   23.7241 O   0  0  0  0  0  0
  -29.3896  -18.6198   20.8550 C   0  0  0  0  0  0
  -31.0049  -17.7794   19.3908 C   0  0  0  0  0  0
  -30.0823  -17.4041   20.3354 C   0  0  0  0  0  0
  -29.8188  -19.8747   20.3424 C   0  0  0  0  0  0
  -28.8087  -23.7084   20.3974 C   0  0  0  0  0  0
  -28.0103  -24.8291   20.1545 C   0  0  0  0  0  0
  -30.2357  -23.6851   20.8818 C   0  0  0  0  0  0
  -28.4431  -22.1736   20.2473 C   0  0  0  0  0  0
  -30.7273  -22.2140   20.7319 C   0  0  0  0  0  0
  -29.5791  -21.2897   20.6935 N   0  0  0  0  0  0
  -29.8468  -15.9575   20.6868 N   0  0  0  0  0  0
  -31.0571  -19.5193   19.1437 S   0  0  0  0  0  0
  -31.4750  -12.6075   19.1865 H   0  0  0  0  0  0
  -30.3807  -11.5173   19.9843 H   0  0  0  0  0  0
  -29.8086  -11.7360   17.5416 H   0  0  0  0  0  0
  -29.6362  -13.4642   17.7198 H   0  0  0  0  0  0
  -27.9081  -11.2834   18.9281 H   0  0  0  0  0  0
  -27.3892  -12.5115   17.8047 H   0  0  0  0  0  0
  -27.6279  -14.2558   19.4552 H   0  0  0  0  0  0
  -28.7284  -12.2122   21.4458 H   0  0  0  0  0  0
  -28.4066  -13.8947   21.7856 H   0  0  0  0  0  0
  -25.2772   -9.5679   22.4766 H   0  0  0  0  0  0
  -23.9998   -7.4646   22.7483 H   0  0  0  0  0  0
  -21.0848   -8.8798   19.8963 H   0  0  0  0  0  0
  -22.3716  -10.9685   19.6181 H   0  0  0  0  0  0
  -21.2014   -7.6145   23.9711 H   0  0  0  0  0  0
  -21.1475   -6.0520   25.9070 H   0  0  0  0  0  0
  -22.0603   -2.7610   23.2837 H   0  0  0  0  0  0
  -22.4069  -11.9895   22.4809 H   0  0  0  0  0  0
  -21.1086  -13.1284   22.2616 H   0  0  0  0  0  0
  -24.6528  -15.8474   20.5219 H   0  0  0  0  0  0
  -26.2572  -15.6282   20.0453 H   0  0  0  0  0  0
  -26.7229  -32.5363   23.1058 H   0  0  0  0  0  0
  -25.0091  -33.9671   25.0386 H   0  0  0  0  0  0
  -22.7336  -31.3012   21.3969 H   0  0  0  0  0  0
  -23.3754  -35.9608   23.3292 H   0  0  0  0  0  0
  -24.3586  -36.8902   22.2051 H   0  0  0  0  0  0
  -23.7261  -37.6474   23.6668 H   0  0  0  0  0  0
  -26.1414  -31.5003   20.6243 H   0  0  0  0  0  0
  -26.8588  -30.7872   22.0351 H   0  0  0  0  0  0
  -28.1036  -28.8364   21.2760 H   0  0  0  0  0  0
  -25.9431  -25.9694   18.8610 H   0  0  0  0  0  0
  -23.9879  -27.3612   18.9221 H   0  0  0  0  0  0
  -23.7883  -30.5973   19.4053 H   0  0  0  0  0  0
  -22.7731  -29.2577   19.8448 H   0  0  0  0  0  0
  -25.1302  -36.1892   25.0814 H   0  0  0  0  0  0
  -20.9996  -28.3295   24.1365 H   0  0  0  0  0  0
  -20.5685  -26.2317   23.3605 H   0  0  0  0  0  0
  -21.6654  -26.7442   22.1194 H   0  0  0  0  0  0
  -19.6925  -25.6290   21.1243 H   0  0  0  0  0  0
  -19.6695  -27.3179   20.6717 H   0  0  0  0  0  0
  -17.4205  -26.6650   21.4035 H   0  0  0  0  0  0
  -18.0364  -26.0080   22.9034 H   0  0  0  0  0  0
  -19.7947  -30.7283   24.2243 H   0  0  0  0  0  0
  -17.5023  -31.6268   24.5159 H   0  0  0  0  0  0
  -15.5359  -30.2975   23.7668 H   0  0  0  0  0  0
  -15.8684  -28.0816   22.7070 H   0  0  0  0  0  0
  -24.5882  -30.7119   25.7763 H   0  0  0  0  0  0
  -24.8954  -32.2923   26.4871 H   0  0  0  0  0  0
  -25.8021  -30.8895   27.0226 H   0  0  0  0  0  0
  -26.2971  -29.6689   24.1293 H   0  0  0  0  0  0
  -27.3984  -29.7240   25.4845 H   0  0  0  0  0  0
  -27.8886  -30.4181   23.9588 H   0  0  0  0  0  0
  -27.2675  -33.3613   26.2071 H   0  0  0  0  0  0
  -28.3887  -32.6866   25.0338 H   0  0  0  0  0  0
  -28.0735  -31.8448   26.5437 H   0  0  0  0  0  0
  -28.2592  -38.0093   24.7502 H   0  0  0  0  0  0
  -28.1084  -36.2626   24.6302 H   0  0  0  0  0  0
  -27.2299  -37.1451   25.8867 H   0  0  0  0  0  0
  -20.9419  -29.8775   21.6831 H   0  0  0  0  0  0
  -26.0168  -38.2827   24.1385 H   0  0  0  0  0  0
  -28.6366  -18.5318   21.6248 H   0  0  0  0  0  0
  -31.6699  -17.1518   18.8101 H   0  0  0  0  0  0
  -26.9996  -24.6098   19.8623 H   0  0  0  0  0  0
  -30.2427  -23.9731   21.9342 H   0  0  0  0  0  0
  -30.8620  -24.3945   20.3397 H   0  0  0  0  0  0
  -28.2067  -21.9674   19.2022 H   0  0  0  0  0  0
  -27.5469  -21.9552   20.8302 H   0  0  0  0  0  0
  -31.4168  -21.9493   21.5352 H   0  0  0  0  0  0
  -31.2871  -22.1420   19.7989 H   0  0  0  0  0  0
  -28.9389  -15.7622   21.0816 H   0  0  0  0  0  0
  1 25  1  0  0  0
  1 30  2  0  0  0
  1 81  1  0  0  0
  2  3  1  0  0  0
  2 25  1  0  0  0
  2 83  1  0  0  0
  2 84  1  0  0  0
  3  4  1  0  0  0
  3 85  1  0  0  0
  3 86  1  0  0  0
  4  5  1  0  0  0
  4 87  1  0  0  0
  4 88  1  0  0  0
  5  6  1  0  0  0
  5 26  1  0  0  0
  5 89  1  0  0  0
  6 25  1  0  0  0
  6 90  1  0  0  0
  6 91  1  0  0  0
  7  8  2  0  0  0
  7 26  1  0  0  0
  7 29  1  0  0  0
  8  9  1  0  0  0
  8 22  1  0  0  0
  9 10  1  0  0  0
  9 27  2  0  0  0
 10 11  2  0  0  0
 10 15  1  0  0  0
 11 12  1  0  0  0
 11 92  1  0  0  0
 12 13  2  0  0  0
 12 93  1  0  0  0
 13 14  1  0  0  0
 13 31  1  0  0  0
 14 15  2  0  0  0
 14 94  1  0  0  0
 15 95  1  0  0  0
 16 17  2  0  0  0
 16 21  1  0  0  0
 16 31  1  0  0  0
 17 18  1  0  0  0
 17 96  1  0  0  0
 18 19  2  0  0  0
 18 97  1  0  0  0
 19 20  1  0  0  0
 19 24  1  0  0  0
 20 21  2  0  0  0
 20 98  1  0  0  0
 21 23  1  0  0  0
 22 28  1  0  0  0
 22 32  2  0  0  0
 26 27  1  0  0  0
 28 99  1  0  0  0
 28100  1  0  0  0
 29101  1  0  0  0
 29102  1  0  0  0
 33 34  1  0  0  0
 33 66  1  0  0  0
 33 70  2  0  0  0
 34 36  1  0  0  0
 34 59  1  0  0  0
 34103  1  0  0  0
 35 44  2  0  0  0
 35 45  1  0  0  0
 35 68  1  0  0  0
 36 56  1  0  0  0
 36104  1  0  0  0
 37 39  1  0  0  0
 37 47  1  0  0  0
 37 66  1  0  0  0
 37105  1  0  0  0
 38 43  2  0  0  0
 38 46  1  0  0  0
 38 47  1  0  0  0
 39 64  1  0  0  0
 39 67  2  0  0  0
 40 52  1  0  0  0
 40 53  2  0  0  0
 40 58  1  0  0  0
 41106  1  0  0  0
 41107  1  0  0  0
 41108  1  0  0  0
 41 48  1  0  0  0
 42 43  1  0  0  0
 42 66  1  0  0  0
 42109  1  0  0  0
 42110  1  0  0  0
 43 44  1  0  0  0
 44111  1  0  0  0
 45 46  2  0  0  0
 45112  1  0  0  0
 46113  1  0  0  0
 47114  1  0  0  0
 47115  1  0  0  0
 48 56  1  0  0  0
 48 65  1  0  0  0
 48116  1  0  0  0
 49 50  1  0  0  0
 49 53  1  0  0  0
 49 64  1  0  0  0
 49117  1  0  0  0
 50 51  1  0  0  0
 50118  1  0  0  0
 50119  1  0  0  0
 51 52  1  0  0  0
 51120  1  0  0  0
 51121  1  0  0  0
 52122  1  0  0  0
 52123  1  0  0  0
 53 54  1  0  0  0
 54 55  2  0  0  0
 54124  1  0  0  0
 55 57  1  0  0  0
 55125  1  0  0  0
 56 69  2  0  0  0
 57 58  2  0  0  0
 57126  1  0  0  0
 58127  1  0  0  0
 59 60  1  0  0  0
 59 61  1  0  0  0
 59 62  1  0  0  0
 60128  1  0  0  0
 60129  1  0  0  0
 60130  1  0  0  0
 61131  1  0  0  0
 61132  1  0  0  0
 61133  1  0  0  0
 62134  1  0  0  0
 62135  1  0  0  0
 62136  1  0  0  0
 63 65  1  0  0  0
 63137  1  0  0  0
 63138  1  0  0  0
 63139  1  0  0  0
 64140  1  0  0  0
 65141  1  0  0  0
 68 76  1  0  0  0
 71 73  1  0  0  0
 71 74  2  0  0  0
 71142  1  0  0  0
 72 73  2  0  0  0
 72 82  1  0  0  0
 72143  1  0  0  0
 73 81  1  0  0  0
 74 80  1  0  0  0
 74 82  1  0  0  0
 75 76  2  0  0  0
 75 77  1  0  0  0
 75 78  1  0  0  0
 76144  1  0  0  0
 77 79  1  0  0  0
 77145  1  0  0  0
 77146  1  0  0  0
 78 80  1  0  0  0
 78147  1  0  0  0
 78148  1  0  0  0
 79 80  1  0  0  0
 79149  1  0  0  0
 79150  1  0  0  0
 81151  1  0  0  0
M  ISO  4   1 100  68 101  76 101  81 100
M  END
> <chiral flag>
0

> <version>
0

> <s_m_source_file>
/data/baiqing/PycharmProjects/Reinvent-master-3.2/result/LINK_invent/BTK/process_docking_weight1_custom_product_contain_oxygen_bond_distance_aromatic_linkinvent_7_9_3/rearranged_h_0152.sdf

> <i_m_source_file_index>
47

> <r_mmod_Potential_Energy-OPLS-2005>
298.131317138672

> <r_mmod_Stretch_Energy-OPLS-2005>
140.947219848633

> <r_mmod_Bend_Energy-OPLS-2005>
203.779022216797

> <r_mmod_Torsional_Energy-OPLS-2005>
259.825317382812

> <r_mmod_Improper_Torsional_Energy-OPLS-2005>
7.88485336303711

> <r_mmod_Van_der_Waal_Energy-OPLS-2005>
124.259254455566

> <r_mmod_Electrostatic_Energy-OPLS-2005>
-325.909027099609

> <r_mmod_Solvation_Energy-OPLS-2005>
-231.584213256836

> <b_mmod_Minimization_Converged-OPLS-2005>
0

> <r_mmod_RMS_Derivative-OPLS-2005>
1.10461580753326

$$$$
47
                    3D
 Structure written by MMmdl.
152161  0  0  1  0            999 V2000
  -30.6474  -14.7509   20.4723 C   0  0  0  0  0  0
  -30.4203  -12.4622   19.4847 C   0  0  0  0  0  0
  -29.5052  -12.4985   18.2425 C   0  0  0  0  0  0
  -28.0354  -12.3177   18.6622 C   0  0  0  0  0  0
  -27.6371  -13.2363   19.8483 C   0  0  2  0  0  0
  -28.6802  -13.2043   20.9871 C   0  0  0  0  0  0
  -25.2485  -13.8205   20.5708 C   0  0  0  0  0  0
  -24.1783  -13.0444   20.9216 C   0  0  0  0  0  0
  -24.6383  -11.6926   20.8757 C   0  0  0  0  0  0
  -23.9061  -10.4291   21.0411 C   0  0  0  0  0  0
  -24.3613   -9.4207   21.9190 C   0  0  0  0  0  0
  -23.6291   -8.2244   22.0758 C   0  0  0  0  0  0
  -22.4275   -8.0280   21.3548 C   0  0  0  0  0  0
  -21.9909   -9.0248   20.4648 C   0  0  0  0  0  0
  -22.7234  -10.2131   20.3058 C   0  0  0  0  0  0
  -21.6852   -6.0736   22.5277 C   0  0  0  0  0  0
  -21.4016   -6.5640   23.8210 C   0  0  0  0  0  0
  -21.3659   -5.6794   24.9171 C   0  0  0  0  0  0
  -21.6042   -4.3056   24.7224 C   0  0  0  0  0  0
  -21.8818   -3.8146   23.4345 C   0  0  0  0  0  0
  -21.9192   -4.6960   22.3404 C   0  0  0  0  0  0
  -22.7804  -13.5219   21.1871 C   0  0  0  0  0  0
  -22.1660   -4.2148   21.0980 F   0  0  0  0  0  0
  -21.5626   -3.4543   25.7739 F   0  0  0  0  0  0
  -29.9786  -13.5467   20.3974 N   0  0  0  0  0  0
  -26.2913  -12.9424   20.3288 N   0  0  0  0  0  0
  -25.9319  -11.6562   20.5772 N   0  0  0  0  0  0
  -22.0455  -12.8208   22.0428 N   0  0  0  0  0  0
  -25.4170  -15.1931   20.4133 N   0  0  0  0  0  0
  -31.8326  -14.7904   20.1341 O   0  0  0  0  0  0
  -21.6641   -6.8879   21.4240 O   0  0  0  0  0  0
  -22.3492  -14.5523   20.6712 O   0  0  0  0  0  0
  -24.6355  -31.8526   23.1984 C   0  0  0  0  0  0
  -25.9163  -32.4742   23.8336 C   0  0  1  0  0  0
  -27.2118  -27.2315   20.1328 C   0  0  0  0  0  0
  -25.5935  -33.8545   24.2244 N   0  0  0  0  0  0
  -23.4337  -30.4773   21.5415 C   0  0  2  0  0  0
  -24.8811  -28.9281   20.1067 C   0  0  0  0  0  0
  -22.7531  -29.4588   22.4894 C   0  0  0  0  0  0
  -18.0292  -28.1385   22.8482 C   0  0  0  0  0  0
  -24.1488  -36.7272   23.2642 C   0  0  0  0  0  0
  -25.9858  -30.7561   21.3866 C   0  0  0  0  0  0
  -26.0559  -29.3799   20.7217 C   0  0  0  0  0  0
  -27.2249  -28.5459   20.7215 C   0  0  0  0  0  0
  -26.0166  -26.8679   19.4693 C   0  0  0  0  0  0
  -24.8694  -27.6811   19.4673 C   0  0  0  0  0  0
  -23.6532  -29.8170   20.1565 C   0  0  0  0  0  0
  -25.4121  -36.3054   24.0317 C   0  0  1  0  0  0
  -20.5907  -28.3699   23.1257 C   0  0  2  0  0  0
  -20.6776  -26.9410   22.5403 C   0  0  0  0  0  0
  -19.5744  -26.6376   21.5211 C   0  0  0  0  0  0
  -18.1927  -26.7925   22.1624 C   0  0  0  0  0  0
  -19.1552  -28.8860   23.2857 C   0  0  0  0  0  0
  -18.9467  -30.1456   23.8879 C   0  0  0  0  0  0
  -17.6464  -30.6587   24.0556 C   0  0  0  0  0  0
  -25.9067  -34.9427   23.5086 C   0  0  0  0  0  0
  -16.5355  -29.9083   23.6337 C   0  0  0  0  0  0
  -16.7281  -28.6499   23.0362 C   0  0  0  0  0  0
  -26.4512  -31.6595   25.0750 C   0  0  0  0  0  0
  -25.3722  -31.3743   26.1462 C   0  0  0  0  0  0
  -27.0376  -30.3000   24.6299 C   0  0  0  0  0  0
  -27.6052  -32.4372   25.7514 C   0  0  0  0  0  0
  -27.5574  -37.1787   24.8467 C   0  0  0  0  0  0
  -21.4235  -29.3039   22.3641 N   0  0  0  0  0  0
  -26.4288  -37.3762   23.9405 N   0  0  0  0  0  0
  -24.7038  -31.0481   22.0965 N   0  0  0  0  0  0
  -23.4228  -28.8120   23.2994 O   0  0  0  0  0  0
  -28.2758  -26.2909   20.2250 O   0  0  0  0  0  0
  -26.5647  -34.8895   22.4663 O   0  0  0  0  0  0
  -23.5496  -32.1352   23.7262 O   0  0  0  0  0  0
  -29.3458  -19.8216   20.1227 C   0  0  0  0  0  0
  -29.9579  -18.7574   20.9463 C   0  0  0  0  0  0
  -30.2474  -19.2731   22.1636 C   0  0  0  0  0  0
  -29.2384  -21.1105   20.7173 C   0  0  0  0  0  0
  -28.8975  -23.6629   20.5854 C   0  0  0  0  0  0
  -31.0375  -18.4013   23.0499 C   0  0  0  0  0  0
  -31.5667  -17.3293   22.0746 C   0  0  0  0  0  0
  -30.6474  -17.3236   20.8063 C   0  0  1  0  0  0
  -27.9829  -24.8252   19.9475 C   0  0  0  0  0  0
  -28.7339  -22.3263   20.2034 N   0  0  0  0  0  0
  -29.9775  -15.9428   20.7509 N   0  0  0  0  0  0
  -29.7495  -23.9907   21.4153 O   0  0  0  0  0  0
  -29.8483  -20.9669   22.3656 S   0  0  0  0  0  0
  -31.4649  -12.5607   19.1844 H   0  0  0  0  0  0
  -30.3490  -11.4951   19.9856 H   0  0  0  0  0  0
  -29.7911  -11.7148   17.5397 H   0  0  0  0  0  0
  -29.6275  -13.4467   17.7163 H   0  0  0  0  0  0
  -27.9089  -11.2736   18.9496 H   0  0  0  0  0  0
  -27.3717  -12.4798   17.8122 H   0  0  0  0  0  0
  -27.6238  -14.2504   19.4481 H   0  0  0  0  0  0
  -28.7190  -12.2195   21.4551 H   0  0  0  0  0  0
  -28.4127  -13.9104   21.7752 H   0  0  0  0  0  0
  -25.2755   -9.5694   22.4769 H   0  0  0  0  0  0
  -23.9997   -7.4644   22.7485 H   0  0  0  0  0  0
  -21.0839   -8.8769   19.8957 H   0  0  0  0  0  0
  -22.3689  -10.9671   19.6172 H   0  0  0  0  0  0
  -21.2011   -7.6149   23.9715 H   0  0  0  0  0  0
  -21.1479   -6.0525   25.9076 H   0  0  0  0  0  0
  -22.0595   -2.7611   23.2847 H   0  0  0  0  0  0
  -22.4079  -11.9871   22.4809 H   0  0  0  0  0  0
  -21.1078  -13.1228   22.2647 H   0  0  0  0  0  0
  -24.6486  -15.8458   20.5232 H   0  0  0  0  0  0
  -26.2659  -15.6343   20.0840 H   0  0  0  0  0  0
  -26.7232  -32.5360   23.1071 H   0  0  0  0  0  0
  -25.0049  -33.9687   25.0363 H   0  0  0  0  0  0
  -22.7291  -31.2988   21.3970 H   0  0  0  0  0  0
  -23.3747  -35.9609   23.3321 H   0  0  0  0  0  0
  -24.3566  -36.8893   22.2053 H   0  0  0  0  0  0
  -23.7251  -37.6471   23.6676 H   0  0  0  0  0  0
  -26.1414  -31.5209   20.6247 H   0  0  0  0  0  0
  -26.8552  -30.7918   22.0311 H   0  0  0  0  0  0
  -28.1223  -28.8853   21.2195 H   0  0  0  0  0  0
  -25.9241  -25.9213   18.9579 H   0  0  0  0  0  0
  -23.9725  -27.3332   18.9726 H   0  0  0  0  0  0
  -23.7794  -30.5954   19.4036 H   0  0  0  0  0  0
  -22.7705  -29.2537   19.8489 H   0  0  0  0  0  0
  -25.1306  -36.1886   25.0808 H   0  0  0  0  0  0
  -20.9993  -28.3276   24.1378 H   0  0  0  0  0  0
  -20.5672  -26.2304   23.3608 H   0  0  0  0  0  0
  -21.6639  -26.7419   22.1193 H   0  0  0  0  0  0
  -19.6899  -25.6288   21.1239 H   0  0  0  0  0  0
  -19.6682  -27.3182   20.6738 H   0  0  0  0  0  0
  -17.4196  -26.6672   21.4026 H   0  0  0  0  0  0
  -18.0318  -26.0066   22.9014 H   0  0  0  0  0  0
  -19.7945  -30.7268   24.2246 H   0  0  0  0  0  0
  -17.5024  -31.6269   24.5151 H   0  0  0  0  0  0
  -15.5354  -30.2972   23.7684 H   0  0  0  0  0  0
  -15.8677  -28.0813   22.7097 H   0  0  0  0  0  0
  -24.5911  -30.7084   25.7779 H   0  0  0  0  0  0
  -24.8896  -32.2903   26.4880 H   0  0  0  0  0  0
  -25.8029  -30.8923   27.0248 H   0  0  0  0  0  0
  -26.2988  -29.6721   24.1308 H   0  0  0  0  0  0
  -27.3998  -29.7299   25.4863 H   0  0  0  0  0  0
  -27.8888  -30.4246   23.9605 H   0  0  0  0  0  0
  -27.2657  -33.3697   26.2041 H   0  0  0  0  0  0
  -28.3872  -32.6912   25.0344 H   0  0  0  0  0  0
  -28.0711  -31.8539   26.5466 H   0  0  0  0  0  0
  -28.2593  -38.0079   24.7516 H   0  0  0  0  0  0
  -28.1067  -36.2612   24.6307 H   0  0  0  0  0  0
  -27.2286  -37.1458   25.8866 H   0  0  0  0  0  0
  -20.9428  -29.8771   21.6847 H   0  0  0  0  0  0
  -26.0157  -38.2829   24.1412 H   0  0  0  0  0  0
  -29.0825  -19.6221   19.0937 H   0  0  0  0  0  0
  -30.3947  -17.9598   23.8124 H   0  0  0  0  0  0
  -31.8456  -18.9378   23.5490 H   0  0  0  0  0  0
  -31.6940  -16.3637   22.5643 H   0  0  0  0  0  0
  -32.5646  -17.6364   21.7576 H   0  0  0  0  0  0
  -31.2900  -17.3651   19.9252 H   0  0  0  0  0  0
  -26.9863  -24.5888   20.3220 H   0  0  0  0  0  0
  -27.9577  -24.6775   18.8680 H   0  0  0  0  0  0
  -28.1032  -22.2143   19.4205 H   0  0  0  0  0  0
  -28.9942  -15.8930   20.9691 H   0  0  0  0  0  0
  1 25  1  0  0  0
  1 30  2  0  0  0
  1 81  1  0  0  0
  2  3  1  0  0  0
  2 25  1  0  0  0
  2 84  1  0  0  0
  2 85  1  0  0  0
  3  4  1  0  0  0
  3 86  1  0  0  0
  3 87  1  0  0  0
  4  5  1  0  0  0
  4 88  1  0  0  0
  4 89  1  0  0  0
  5  6  1  0  0  0
  5 26  1  0  0  0
  5 90  1  0  0  0
  6 25  1  0  0  0
  6 91  1  0  0  0
  6 92  1  0  0  0
  7  8  2  0  0  0
  7 26  1  0  0  0
  7 29  1  0  0  0
  8  9  1  0  0  0
  8 22  1  0  0  0
  9 10  1  0  0  0
  9 27  2  0  0  0
 10 11  2  0  0  0
 10 15  1  0  0  0
 11 12  1  0  0  0
 11 93  1  0  0  0
 12 13  2  0  0  0
 12 94  1  0  0  0
 13 14  1  0  0  0
 13 31  1  0  0  0
 14 15  2  0  0  0
 14 95  1  0  0  0
 15 96  1  0  0  0
 16 17  2  0  0  0
 16 21  1  0  0  0
 16 31  1  0  0  0
 17 18  1  0  0  0
 17 97  1  0  0  0
 18 19  2  0  0  0
 18 98  1  0  0  0
 19 20  1  0  0  0
 19 24  1  0  0  0
 20 21  2  0  0  0
 20 99  1  0  0  0
 21 23  1  0  0  0
 22 28  1  0  0  0
 22 32  2  0  0  0
 26 27  1  0  0  0
 28100  1  0  0  0
 28101  1  0  0  0
 29102  1  0  0  0
 29103  1  0  0  0
 33 34  1  0  0  0
 33 66  1  0  0  0
 33 70  2  0  0  0
 34 36  1  0  0  0
 34 59  1  0  0  0
 34104  1  0  0  0
 35 44  2  0  0  0
 35 45  1  0  0  0
 35 68  1  0  0  0
 36 56  1  0  0  0
 36105  1  0  0  0
 37 39  1  0  0  0
 37 47  1  0  0  0
 37 66  1  0  0  0
 37106  1  0  0  0
 38 43  2  0  0  0
 38 46  1  0  0  0
 38 47  1  0  0  0
 39 64  1  0  0  0
 39 67  2  0  0  0
 40 52  1  0  0  0
 40 53  2  0  0  0
 40 58  1  0  0  0
 41107  1  0  0  0
 41108  1  0  0  0
 41109  1  0  0  0
 41 48  1  0  0  0
 42 43  1  0  0  0
 42 66  1  0  0  0
 42110  1  0  0  0
 42111  1  0  0  0
 43 44  1  0  0  0
 44112  1  0  0  0
 45 46  2  0  0  0
 45113  1  0  0  0
 46114  1  0  0  0
 47115  1  0  0  0
 47116  1  0  0  0
 48 56  1  0  0  0
 48 65  1  0  0  0
 48117  1  0  0  0
 49 50  1  0  0  0
 49 53  1  0  0  0
 49 64  1  0  0  0
 49118  1  0  0  0
 50 51  1  0  0  0
 50119  1  0  0  0
 50120  1  0  0  0
 51 52  1  0  0  0
 51121  1  0  0  0
 51122  1  0  0  0
 52123  1  0  0  0
 52124  1  0  0  0
 53 54  1  0  0  0
 54 55  2  0  0  0
 54125  1  0  0  0
 55 57  1  0  0  0
 55126  1  0  0  0
 56 69  2  0  0  0
 57 58  2  0  0  0
 57127  1  0  0  0
 58128  1  0  0  0
 59 60  1  0  0  0
 59 61  1  0  0  0
 59 62  1  0  0  0
 60129  1  0  0  0
 60130  1  0  0  0
 60131  1  0  0  0
 61132  1  0  0  0
 61133  1  0  0  0
 61134  1  0  0  0
 62135  1  0  0  0
 62136  1  0  0  0
 62137  1  0  0  0
 63 65  1  0  0  0
 63138  1  0  0  0
 63139  1  0  0  0
 63140  1  0  0  0
 64141  1  0  0  0
 65142  1  0  0  0
 68 79  1  0  0  0
 71 72  1  0  0  0
 71 74  2  0  0  0
 71143  1  0  0  0
 72 73  2  0  0  0
 72 78  1  0  0  0
 73 76  1  0  0  0
 73 83  1  0  0  0
 74 80  1  0  0  0
 74 83  1  0  0  0
 75 79  1  0  0  0
 75 80  1  0  0  0
 75 82  2  0  0  0
 76 77  1  0  0  0
 76144  1  0  0  0
 76145  1  0  0  0
 77 78  1  0  0  0
 77146  1  0  0  0
 77147  1  0  0  0
 78 81  1  0  0  0
 78148  1  0  0  0
 79149  1  0  0  0
 79150  1  0  0  0
 80151  1  0  0  0
 81152  1  0  0  0
M  ISO  4   1 100  68 101  79 101  81 100
M  END
> <chiral flag>
0

> <version>
0

> <s_m_source_file>
/data/baiqing/PycharmProjects/Reinvent-master-3.2/result/LINK_invent/BTK/process_docking_weight1_custom_product_contain_oxygen_bond_distance_aromatic_linkinvent_7_9_3/rearranged_h_0152.sdf

> <i_m_source_file_index>
48

> <r_mmod_Potential_Energy-OPLS-2005>
188.786682128906

> <r_mmod_Stretch_Energy-OPLS-2005>
136.316436767578

> <r_mmod_Bend_Energy-OPLS-2005>
261.216094970703

> <r_mmod_Torsional_Energy-OPLS-2005>
219.968292236328

> <r_mmod_Improper_Torsional_Energy-OPLS-2005>
7.53589963912964

> <r_mmod_Van_der_Waal_Energy-OPLS-2005>
124.544410705566

> <r_mmod_Electrostatic_Energy-OPLS-2005>
-411.174926757812

> <r_mmod_Solvation_Energy-OPLS-2005>
-250.350448608398

> <b_mmod_Minimization_Converged-OPLS-2005>
0

> <r_mmod_RMS_Derivative-OPLS-2005>
1.42936515808105

$$$$
48
                    3D
 Structure written by MMmdl.
154163  0  0  1  0            999 V2000
  -30.4892  -14.9520   20.3824 C   0  0  0  0  0  0
  -30.4467  -12.5782   19.4934 C   0  0  0  0  0  0
  -29.5268  -12.5247   18.2500 C   0  0  0  0  0  0
  -28.0557  -12.3169   18.6648 C   0  0  0  0  0  0
  -27.6331  -13.2403   19.8383 C   0  0  2  0  0  0
  -28.6770  -13.2466   20.9768 C   0  0  0  0  0  0
  -25.2486  -13.8194   20.5689 C   0  0  0  0  0  0
  -24.1800  -13.0426   20.9217 C   0  0  0  0  0  0
  -24.6399  -11.6908   20.8758 C   0  0  0  0  0  0
  -23.9083  -10.4285   21.0422 C   0  0  0  0  0  0
  -24.3637   -9.4205   21.9193 C   0  0  0  0  0  0
  -23.6308   -8.2248   22.0756 C   0  0  0  0  0  0
  -22.4286   -8.0284   21.3549 C   0  0  0  0  0  0
  -21.9929   -9.0263   20.4646 C   0  0  0  0  0  0
  -22.7261  -10.2138   20.3059 C   0  0  0  0  0  0
  -21.6853   -6.0741   22.5281 C   0  0  0  0  0  0
  -21.4021   -6.5644   23.8216 C   0  0  0  0  0  0
  -21.3655   -5.6797   24.9174 C   0  0  0  0  0  0
  -21.6049   -4.3059   24.7226 C   0  0  0  0  0  0
  -21.8812   -3.8151   23.4344 C   0  0  0  0  0  0
  -21.9199   -4.6973   22.3404 C   0  0  0  0  0  0
  -22.7829  -13.5216   21.1884 C   0  0  0  0  0  0
  -22.1661   -4.2154   21.0982 F   0  0  0  0  0  0
  -21.5628   -3.4536   25.7740 F   0  0  0  0  0  0
  -29.9546  -13.6642   20.3819 N   0  0  0  0  0  0
  -26.2890  -12.9403   20.3214 N   0  0  0  0  0  0
  -25.9316  -11.6540   20.5717 N   0  0  0  0  0  0
  -22.0478  -12.8201   22.0429 N   0  0  0  0  0  0
  -25.4160  -15.1925   20.4095 N   0  0  0  0  0  0
  -31.6841  -15.0798   20.0844 O   0  0  0  0  0  0
  -21.6640   -6.8881   21.4242 O   0  0  0  0  0  0
  -22.3515  -14.5524   20.6718 O   0  0  0  0  0  0
  -24.6412  -31.8452   23.1894 C   0  0  0  0  0  0
  -25.9189  -32.4695   23.8271 C   0  0  1  0  0  0
  -27.2271  -27.1487   20.1122 C   0  0  0  0  0  0
  -25.5957  -33.8512   24.2207 N   0  0  0  0  0  0
  -23.4433  -30.4679   21.5401 C   0  0  2  0  0  0
  -24.8909  -28.8889   20.1089 C   0  0  0  0  0  0
  -22.7526  -29.4583   22.4888 C   0  0  0  0  0  0
  -18.0298  -28.1397   22.8488 C   0  0  0  0  0  0
  -24.1497  -36.7257   23.2643 C   0  0  0  0  0  0
  -26.0002  -30.7158   21.3865 C   0  0  0  0  0  0
  -26.0699  -29.3289   20.7210 C   0  0  0  0  0  0
  -27.2342  -28.4731   20.7120 C   0  0  0  0  0  0
  -26.0182  -26.8066   19.4682 C   0  0  0  0  0  0
  -24.8758  -27.6389   19.4711 C   0  0  0  0  0  0
  -23.6645  -29.7929   20.1596 C   0  0  0  0  0  0
  -25.4131  -36.3044   24.0328 C   0  0  1  0  0  0
  -20.5896  -28.3724   23.1244 C   0  0  2  0  0  0
  -20.6791  -26.9434   22.5405 C   0  0  0  0  0  0
  -19.5774  -26.6391   21.5212 C   0  0  0  0  0  0
  -18.1953  -26.7930   22.1621 C   0  0  0  0  0  0
  -19.1547  -28.8881   23.2852 C   0  0  0  0  0  0
  -18.9463  -30.1482   23.8886 C   0  0  0  0  0  0
  -17.6470  -30.6598   24.0564 C   0  0  0  0  0  0
  -25.9075  -34.9415   23.5077 C   0  0  0  0  0  0
  -16.5362  -29.9087   23.6339 C   0  0  0  0  0  0
  -16.7283  -28.6504   23.0368 C   0  0  0  0  0  0
  -26.4515  -31.6573   25.0717 C   0  0  0  0  0  0
  -25.3690  -31.3753   26.1411 C   0  0  0  0  0  0
  -27.0373  -30.2963   24.6295 C   0  0  0  0  0  0
  -27.6058  -32.4331   25.7509 C   0  0  0  0  0  0
  -27.5581  -37.1793   24.8465 C   0  0  0  0  0  0
  -21.4228  -29.3057   22.3599 N   0  0  0  0  0  0
  -26.4290  -37.3753   23.9402 N   0  0  0  0  0  0
  -24.7160  -31.0274   22.0950 N   0  0  0  0  0  0
  -23.4174  -28.8119   23.3043 O   0  0  0  0  0  0
  -28.3037  -26.1898   20.1610 O   0  0  0  0  0  0
  -26.5642  -34.8907   22.4644 O   0  0  0  0  0  0
  -23.5556  -32.1349   23.7129 O   0  0  0  0  0  0
  -30.3136  -18.5064   19.6391 C   0  0  0  0  0  0
  -28.4521  -18.2470   21.1964 C   0  0  0  0  0  0
  -29.9318  -19.9084   19.6472 C   0  0  0  0  0  0
  -28.9089  -20.5274   20.4086 C   0  0  0  0  0  0
  -29.5281  -17.5812   20.4563 C   0  0  0  0  0  0
  -28.1380  -19.6787   21.2224 C   0  0  0  0  0  0
  -30.2685  -21.2874   19.1614 C   0  0  0  0  0  0
  -26.9877  -19.7900   23.3537 C   0  0  0  0  0  0
  -29.1262  -23.4458   20.3869 C   0  0  0  0  0  0
  -28.1542  -24.6837   19.7952 C   0  0  0  0  0  0
  -29.2350  -21.9245   19.9510 N   0  0  0  0  0  0
  -29.6029  -16.0451   20.5571 N   0  0  0  0  0  0
  -27.0997  -20.2409   21.9730 N   0  0  0  0  0  0
  -31.1850  -21.6050   18.4336 O   0  0  0  0  0  0
  -31.4811  -12.7448   19.1930 H   0  0  0  0  0  0
  -30.4390  -11.6219   20.0177 H   0  0  0  0  0  0
  -29.8435  -11.7269   17.5778 H   0  0  0  0  0  0
  -29.6195  -13.4536   17.6861 H   0  0  0  0  0  0
  -27.9459  -11.2715   18.9606 H   0  0  0  0  0  0
  -27.3940  -12.4600   17.8089 H   0  0  0  0  0  0
  -27.5977  -14.2442   19.4174 H   0  0  0  0  0  0
  -28.7568  -12.2620   21.4397 H   0  0  0  0  0  0
  -28.3721  -13.9290   21.7696 H   0  0  0  0  0  0
  -25.2775   -9.5677   22.4764 H   0  0  0  0  0  0
  -24.0010   -7.4636   22.7474 H   0  0  0  0  0  0
  -21.0860   -8.8790   19.8948 H   0  0  0  0  0  0
  -22.3731  -10.9683   19.6169 H   0  0  0  0  0  0
  -21.2009   -7.6148   23.9720 H   0  0  0  0  0  0
  -21.1485   -6.0524   25.9082 H   0  0  0  0  0  0
  -22.0596   -2.7608   23.2845 H   0  0  0  0  0  0
  -22.4110  -11.9865   22.4808 H   0  0  0  0  0  0
  -21.1089  -13.1217   22.2630 H   0  0  0  0  0  0
  -24.6384  -15.8354   20.5054 H   0  0  0  0  0  0
  -26.2392  -15.6309   20.0189 H   0  0  0  0  0  0
  -26.7253  -32.5279   23.0998 H   0  0  0  0  0  0
  -25.0096  -33.9645   25.0348 H   0  0  0  0  0  0
  -22.7467  -31.2958   21.3882 H   0  0  0  0  0  0
  -23.3774  -35.9568   23.3286 H   0  0  0  0  0  0
  -24.3572  -36.8900   22.2057 H   0  0  0  0  0  0
  -23.7233  -37.6449   23.6681 H   0  0  0  0  0  0
  -26.1531  -31.4769   20.6175 H   0  0  0  0  0  0
  -26.8722  -30.7613   22.0273 H   0  0  0  0  0  0
  -28.1344  -28.8083   21.2059 H   0  0  0  0  0  0
  -25.9241  -25.8571   18.9593 H   0  0  0  0  0  0
  -23.9723  -27.2973   18.9864 H   0  0  0  0  0  0
  -23.7892  -30.5696   19.4036 H   0  0  0  0  0  0
  -22.7761  -29.2354   19.8526 H   0  0  0  0  0  0
  -25.1322  -36.1895   25.0819 H   0  0  0  0  0  0
  -21.0000  -28.3342   24.1367 H   0  0  0  0  0  0
  -20.5701  -26.2351   23.3634 H   0  0  0  0  0  0
  -21.6659  -26.7465   22.1206 H   0  0  0  0  0  0
  -19.6934  -25.6299   21.1267 H   0  0  0  0  0  0
  -19.6706  -27.3186   20.6730 H   0  0  0  0  0  0
  -17.4223  -26.6686   21.4029 H   0  0  0  0  0  0
  -18.0354  -26.0074   22.9025 H   0  0  0  0  0  0
  -19.7948  -30.7296   24.2250 H   0  0  0  0  0  0
  -17.5025  -31.6277   24.5162 H   0  0  0  0  0  0
  -15.5360  -30.2989   23.7676 H   0  0  0  0  0  0
  -15.8682  -28.0812   22.7104 H   0  0  0  0  0  0
  -24.5892  -30.7081   25.7722 H   0  0  0  0  0  0
  -24.8858  -32.2931   26.4765 H   0  0  0  0  0  0
  -25.7973  -30.8973   27.0225 H   0  0  0  0  0  0
  -26.2988  -29.6699   24.1284 H   0  0  0  0  0  0
  -27.3950  -29.7259   25.4879 H   0  0  0  0  0  0
  -27.8913  -30.4188   23.9628 H   0  0  0  0  0  0
  -27.2649  -33.3643   26.2038 H   0  0  0  0  0  0
  -28.3885  -32.6860   25.0355 H   0  0  0  0  0  0
  -28.0673  -31.8466   26.5461 H   0  0  0  0  0  0
  -28.2609  -38.0083   24.7505 H   0  0  0  0  0  0
  -28.1076  -36.2612   24.6315 H   0  0  0  0  0  0
  -27.2280  -37.1461   25.8863 H   0  0  0  0  0  0
  -20.9439  -29.8739   21.6758 H   0  0  0  0  0  0
  -26.0173  -38.2836   24.1379 H   0  0  0  0  0  0
  -31.1413  -18.1672   19.0321 H   0  0  0  0  0  0
  -27.8129  -17.6021   21.7822 H   0  0  0  0  0  0
  -27.9229  -19.3814   23.7408 H   0  0  0  0  0  0
  -26.2209  -19.0186   23.4392 H   0  0  0  0  0  0
  -26.7061  -20.6209   24.0006 H   0  0  0  0  0  0
  -29.0035  -23.4240   21.4697 H   0  0  0  0  0  0
  -30.1428  -23.8170   20.2576 H   0  0  0  0  0  0
  -27.1377  -24.3921   20.0470 H   0  0  0  0  0  0
  -28.1833  -24.6400   18.7028 H   0  0  0  0  0  0
  -28.7032  -15.6616   20.8080 H   0  0  0  0  0  0
  -26.9099  -21.2243   21.7843 H   0  0  0  0  0  0
  1 25  1  0  0  0
  1 30  2  0  0  0
  1 82  1  0  0  0
  2  3  1  0  0  0
  2 25  1  0  0  0
  2 85  1  0  0  0
  2 86  1  0  0  0
  3  4  1  0  0  0
  3 87  1  0  0  0
  3 88  1  0  0  0
  4  5  1  0  0  0
  4 89  1  0  0  0
  4 90  1  0  0  0
  5  6  1  0  0  0
  5 26  1  0  0  0
  5 91  1  0  0  0
  6 25  1  0  0  0
  6 92  1  0  0  0
  6 93  1  0  0  0
  7  8  2  0  0  0
  7 26  1  0  0  0
  7 29  1  0  0  0
  8  9  1  0  0  0
  8 22  1  0  0  0
  9 10  1  0  0  0
  9 27  2  0  0  0
 10 11  2  0  0  0
 10 15  1  0  0  0
 11 12  1  0  0  0
 11 94  1  0  0  0
 12 13  2  0  0  0
 12 95  1  0  0  0
 13 14  1  0  0  0
 13 31  1  0  0  0
 14 15  2  0  0  0
 14 96  1  0  0  0
 15 97  1  0  0  0
 16 17  2  0  0  0
 16 21  1  0  0  0
 16 31  1  0  0  0
 17 18  1  0  0  0
 17 98  1  0  0  0
 18 19  2  0  0  0
 18 99  1  0  0  0
 19 20  1  0  0  0
 19 24  1  0  0  0
 20 21  2  0  0  0
 20100  1  0  0  0
 21 23  1  0  0  0
 22 28  1  0  0  0
 22 32  2  0  0  0
 26 27  1  0  0  0
 28101  1  0  0  0
 28102  1  0  0  0
 29103  1  0  0  0
 29104  1  0  0  0
 33 34  1  0  0  0
 33 66  1  0  0  0
 33 70  2  0  0  0
 34 36  1  0  0  0
 34 59  1  0  0  0
 34105  1  0  0  0
 35 44  2  0  0  0
 35 45  1  0  0  0
 35 68  1  0  0  0
 36 56  1  0  0  0
 36106  1  0  0  0
 37 39  1  0  0  0
 37 47  1  0  0  0
 37 66  1  0  0  0
 37107  1  0  0  0
 38 43  2  0  0  0
 38 46  1  0  0  0
 38 47  1  0  0  0
 39 64  1  0  0  0
 39 67  2  0  0  0
 40 52  1  0  0  0
 40 53  2  0  0  0
 40 58  1  0  0  0
 41108  1  0  0  0
 41109  1  0  0  0
 41110  1  0  0  0
 41 48  1  0  0  0
 42 43  1  0  0  0
 42 66  1  0  0  0
 42111  1  0  0  0
 42112  1  0  0  0
 43 44  1  0  0  0
 44113  1  0  0  0
 45 46  2  0  0  0
 45114  1  0  0  0
 46115  1  0  0  0
 47116  1  0  0  0
 47117  1  0  0  0
 48 56  1  0  0  0
 48 65  1  0  0  0
 48118  1  0  0  0
 49 50  1  0  0  0
 49 53  1  0  0  0
 49 64  1  0  0  0
 49119  1  0  0  0
 50 51  1  0  0  0
 50120  1  0  0  0
 50121  1  0  0  0
 51 52  1  0  0  0
 51122  1  0  0  0
 51123  1  0  0  0
 52124  1  0  0  0
 52125  1  0  0  0
 53 54  1  0  0  0
 54 55  2  0  0  0
 54126  1  0  0  0
 55 57  1  0  0  0
 55127  1  0  0  0
 56 69  2  0  0  0
 57 58  2  0  0  0
 57128  1  0  0  0
 58129  1  0  0  0
 59 60  1  0  0  0
 59 61  1  0  0  0
 59 62  1  0  0  0
 60130  1  0  0  0
 60131  1  0  0  0
 60132  1  0  0  0
 61133  1  0  0  0
 61134  1  0  0  0
 61135  1  0  0  0
 62136  1  0  0  0
 62137  1  0  0  0
 62138  1  0  0  0
 63 65  1  0  0  0
 63139  1  0  0  0
 63140  1  0  0  0
 63141  1  0  0  0
 64142  1  0  0  0
 65143  1  0  0  0
 68 80  1  0  0  0
 71 73  2  0  0  0
 71 75  1  0  0  0
 71144  1  0  0  0
 72 75  2  0  0  0
 72 76  1  0  0  0
 72145  1  0  0  0
 73 74  1  0  0  0
 73 77  1  0  0  0
 74 76  2  0  0  0
 74 81  1  0  0  0
 75 82  1  0  0  0
 76 83  1  0  0  0
 77 81  1  0  0  0
 77 84  2  0  0  0
 78 83  1  0  0  0
 78146  1  0  0  0
 78147  1  0  0  0
 78148  1  0  0  0
 79 80  1  0  0  0
 79 81  1  0  0  0
 79149  1  0  0  0
 79150  1  0  0  0
 80151  1  0  0  0
 80152  1  0  0  0
 82153  1  0  0  0
 83154  1  0  0  0
M  ISO  4   1 100  68 101  80 101  82 100
M  END
> <chiral flag>
0

> <version>
0

> <s_m_source_file>
/data/baiqing/PycharmProjects/Reinvent-master-3.2/result/LINK_invent/BTK/process_docking_weight1_custom_product_contain_oxygen_bond_distance_aromatic_linkinvent_7_9_3/rearranged_h_0152.sdf

> <i_m_source_file_index>
49

> <r_mmod_Potential_Energy-OPLS-2005>
923.072998046875

> <r_mmod_Stretch_Energy-OPLS-2005>
253.796829223633

> <r_mmod_Bend_Energy-OPLS-2005>
771.135986328125

> <r_mmod_Torsional_Energy-OPLS-2005>
233.917724609375

> <r_mmod_Improper_Torsional_Energy-OPLS-2005>
9.47519207000732

> <r_mmod_Van_der_Waal_Energy-OPLS-2005>
124.817375183105

> <r_mmod_Electrostatic_Energy-OPLS-2005>
-419.192810058594

> <r_mmod_Solvation_Energy-OPLS-2005>
-239.225982666016

> <b_mmod_Minimization_Converged-OPLS-2005>
0

> <r_mmod_RMS_Derivative-OPLS-2005>
5.37364625930786

$$$$
49
                    3D
 Structure written by MMmdl.
162171  0  0  1  0            999 V2000
  -30.4498  -15.0730   20.4089 C   0  0  0  0  0  0
  -30.4387  -12.6648   19.5304 C   0  0  0  0  0  0
  -29.5318  -12.5940   18.2768 C   0  0  0  0  0  0
  -28.0546  -12.3737   18.6575 C   0  0  0  0  0  0
  -27.6236  -13.2660   19.8498 C   0  0  2  0  0  0
  -28.6638  -13.2919   20.9913 C   0  0  0  0  0  0
  -25.2317  -13.8132   20.5691 C   0  0  0  0  0  0
  -24.1686  -13.0330   20.9226 C   0  0  0  0  0  0
  -24.6358  -11.6871   20.8726 C   0  0  0  0  0  0
  -23.9042  -10.4252   21.0375 C   0  0  0  0  0  0
  -24.3605   -9.4197   21.9162 C   0  0  0  0  0  0
  -23.6277   -8.2241   22.0748 C   0  0  0  0  0  0
  -22.4267   -8.0252   21.3535 C   0  0  0  0  0  0
  -21.9887   -9.0217   20.4642 C   0  0  0  0  0  0
  -22.7206  -10.2099   20.3028 C   0  0  0  0  0  0
  -21.6850   -6.0706   22.5264 C   0  0  0  0  0  0
  -21.4029   -6.5624   23.8192 C   0  0  0  0  0  0
  -21.3672   -5.6776   24.9151 C   0  0  0  0  0  0
  -21.6055   -4.3035   24.7199 C   0  0  0  0  0  0
  -21.8827   -3.8126   23.4325 C   0  0  0  0  0  0
  -21.9201   -4.6942   22.3390 C   0  0  0  0  0  0
  -22.7723  -13.5133   21.1873 C   0  0  0  0  0  0
  -22.1648   -4.2113   21.0965 F   0  0  0  0  0  0
  -21.5645   -3.4537   25.7730 F   0  0  0  0  0  0
  -29.9298  -13.7648   20.4138 N   0  0  0  0  0  0
  -26.2824  -12.9458   20.3284 N   0  0  0  0  0  0
  -25.9315  -11.6559   20.5774 N   0  0  0  0  0  0
  -22.0374  -12.8141   22.0451 N   0  0  0  0  0  0
  -25.3732  -15.1826   20.4065 N   0  0  0  0  0  0
  -31.6183  -15.1788   20.0126 O   0  0  0  0  0  0
  -21.6639   -6.8841   21.4224 O   0  0  0  0  0  0
  -22.3416  -14.5435   20.6703 O   0  0  0  0  0  0
  -24.6482  -31.8312   23.1742 C   0  0  0  0  0  0
  -25.9209  -32.4627   23.8195 C   0  0  1  0  0  0
  -27.2650  -27.0562   20.1596 C   0  0  0  0  0  0
  -25.5918  -33.8442   24.2106 N   0  0  0  0  0  0
  -23.4655  -30.4342   21.5184 C   0  0  2  0  0  0
  -24.9340  -28.8395   20.0995 C   0  0  0  0  0  0
  -22.7625  -29.4431   22.4807 C   0  0  0  0  0  0
  -18.0301  -28.1399   22.8480 C   0  0  0  0  0  0
  -24.1492  -36.7229   23.2646 C   0  0  0  0  0  0
  -26.0224  -30.6766   21.3909 C   0  0  0  0  0  0
  -26.1008  -29.2786   20.7323 C   0  0  0  0  0  0
  -27.2550  -28.3984   20.7467 C   0  0  0  0  0  0
  -26.0774  -26.7351   19.4701 C   0  0  0  0  0  0
  -24.9411  -27.5895   19.4488 C   0  0  0  0  0  0
  -23.7048  -29.7430   20.1445 C   0  0  0  0  0  0
  -25.4127  -36.3001   24.0301 C   0  0  1  0  0  0
  -20.5923  -28.3730   23.1239 C   0  0  2  0  0  0
  -20.6790  -26.9421   22.5435 C   0  0  0  0  0  0
  -19.5761  -26.6369   21.5244 C   0  0  0  0  0  0
  -18.1936  -26.7936   22.1633 C   0  0  0  0  0  0
  -19.1561  -28.8884   23.2845 C   0  0  0  0  0  0
  -18.9467  -30.1474   23.8879 C   0  0  0  0  0  0
  -17.6461  -30.6599   24.0549 C   0  0  0  0  0  0
  -25.9074  -34.9371   23.5023 C   0  0  0  0  0  0
  -16.5351  -29.9097   23.6329 C   0  0  0  0  0  0
  -16.7279  -28.6513   23.0360 C   0  0  0  0  0  0
  -26.4509  -31.6534   25.0679 C   0  0  0  0  0  0
  -25.3673  -31.3804   26.1368 C   0  0  0  0  0  0
  -27.0388  -30.2902   24.6360 C   0  0  0  0  0  0
  -27.5999  -32.4339   25.7488 C   0  0  0  0  0  0
  -27.5568  -37.1773   24.8450 C   0  0  0  0  0  0
  -21.4296  -29.3037   22.3602 N   0  0  0  0  0  0
  -26.4289  -37.3715   23.9396 N   0  0  0  0  0  0
  -24.7307  -31.0070   22.0826 N   0  0  0  0  0  0
  -23.4208  -28.8014   23.3027 O   0  0  0  0  0  0
  -28.3284  -26.0773   20.3811 O   0  0  0  0  0  0
  -26.5685  -34.8892   22.4617 O   0  0  0  0  0  0
  -23.5568  -32.1231   23.6879 O   0  0  0  0  0  0
  -27.4884  -20.0366   19.8714 C   0  0  0  0  0  0
  -29.6338  -19.0689   20.5141 C   0  0  0  0  0  0
  -27.8412  -17.5813   19.8902 C   0  0  0  0  0  0
  -28.8143  -20.3238   20.2393 C   0  0  0  0  0  0
  -27.0186  -18.7182   19.6804 C   0  0  0  0  0  0
  -29.1721  -17.6320   20.3656 C   0  0  0  0  0  0
  -29.1151  -23.3338   17.5586 C   0  0  0  0  0  0
  -28.5026  -23.0892   20.4205 C   0  0  0  0  0  0
  -30.4106  -22.6046   17.9434 C   0  0  0  0  0  0
  -28.7789  -24.6654   18.2483 C   0  0  0  0  0  0
  -30.4737  -21.9559   19.3618 C   0  0  0  0  0  0
  -28.8229  -24.6634   19.8011 C   0  0  1  0  0  0
  -30.2771  -25.0035   20.2243 C   0  0  0  0  0  0
  -29.2070  -21.8383   20.0967 N   0  0  0  0  0  0
  -25.6986  -18.5424   19.2610 N   0  0  0  0  0  0
  -29.6710  -16.2121   20.8385 N   0  0  0  0  0  0
  -28.3602  -22.8651   16.7051 O   0  0  0  0  0  0
  -27.5639  -23.0333   21.2169 O   0  0  0  0  0  0
  -31.4714  -12.8410   19.2267 H   0  0  0  0  0  0
  -30.4439  -11.7113   20.0615 H   0  0  0  0  0  0
  -29.8713  -11.8103   17.6014 H   0  0  0  0  0  0
  -29.6171  -13.5318   17.7261 H   0  0  0  0  0  0
  -27.9182  -11.3214   18.9062 H   0  0  0  0  0  0
  -27.4102  -12.5704   17.7961 H   0  0  0  0  0  0
  -27.5767  -14.2749   19.4422 H   0  0  0  0  0  0
  -28.7798  -12.3037   21.4383 H   0  0  0  0  0  0
  -28.3422  -13.9562   21.7935 H   0  0  0  0  0  0
  -25.2729   -9.5718   22.4732 H   0  0  0  0  0  0
  -23.9987   -7.4660   22.7488 H   0  0  0  0  0  0
  -21.0790   -8.8701   19.8974 H   0  0  0  0  0  0
  -22.3596  -10.9623   19.6144 H   0  0  0  0  0  0
  -21.2014   -7.6134   23.9665 H   0  0  0  0  0  0
  -21.1496   -6.0519   25.9045 H   0  0  0  0  0  0
  -22.0599   -2.7584   23.2834 H   0  0  0  0  0  0
  -22.3949  -11.9806   22.4872 H   0  0  0  0  0  0
  -21.1015  -13.1212   22.2652 H   0  0  0  0  0  0
  -24.5895  -15.8175   20.5095 H   0  0  0  0  0  0
  -26.2067  -15.6279   20.0522 H   0  0  0  0  0  0
  -26.7278  -32.5241   23.0919 H   0  0  0  0  0  0
  -25.0018  -33.9547   25.0229 H   0  0  0  0  0  0
  -22.7713  -31.2582   21.3435 H   0  0  0  0  0  0
  -23.3756  -35.9555   23.3276 H   0  0  0  0  0  0
  -24.3567  -36.8905   22.2067 H   0  0  0  0  0  0
  -23.7243  -37.6406   23.6719 H   0  0  0  0  0  0
  -26.1884  -31.4265   20.6167 H   0  0  0  0  0  0
  -26.8850  -30.7356   22.0419 H   0  0  0  0  0  0
  -28.1391  -28.7191   21.2808 H   0  0  0  0  0  0
  -25.9990  -25.7665   19.0009 H   0  0  0  0  0  0
  -24.0554  -27.2537   18.9292 H   0  0  0  0  0  0
  -23.8413  -30.5061   19.3783 H   0  0  0  0  0  0
  -22.8264  -29.1740   19.8383 H   0  0  0  0  0  0
  -25.1328  -36.1789   25.0794 H   0  0  0  0  0  0
  -20.9995  -28.3329   24.1361 H   0  0  0  0  0  0
  -20.5695  -26.2339   23.3665 H   0  0  0  0  0  0
  -21.6648  -26.7441   22.1209 H   0  0  0  0  0  0
  -19.6925  -25.6271   21.1290 H   0  0  0  0  0  0
  -19.6696  -27.3168   20.6764 H   0  0  0  0  0  0
  -17.4219  -26.6683   21.4024 H   0  0  0  0  0  0
  -18.0302  -26.0082   22.9029 H   0  0  0  0  0  0
  -19.7938  -30.7291   24.2245 H   0  0  0  0  0  0
  -17.5014  -31.6277   24.5151 H   0  0  0  0  0  0
  -15.5351  -30.2990   23.7669 H   0  0  0  0  0  0
  -15.8674  -28.0822   22.7096 H   0  0  0  0  0  0
  -24.5763  -30.7257   25.7681 H   0  0  0  0  0  0
  -24.8983  -32.3049   26.4759 H   0  0  0  0  0  0
  -25.7909  -30.8949   27.0172 H   0  0  0  0  0  0
  -26.3039  -29.6585   24.1354 H   0  0  0  0  0  0
  -27.3924  -29.7236   25.4986 H   0  0  0  0  0  0
  -27.8977  -30.4068   23.9747 H   0  0  0  0  0  0
  -27.2517  -33.3630   26.2018 H   0  0  0  0  0  0
  -28.3848  -32.6924   25.0366 H   0  0  0  0  0  0
  -28.0629  -31.8511   26.5465 H   0  0  0  0  0  0
  -28.2560  -38.0094   24.7491 H   0  0  0  0  0  0
  -28.1095  -36.2611   24.6278 H   0  0  0  0  0  0
  -27.2287  -37.1417   25.8858 H   0  0  0  0  0  0
  -20.9524  -29.8739   21.6752 H   0  0  0  0  0  0
  -26.0127  -38.2773   24.1400 H   0  0  0  0  0  0
  -26.8230  -20.8645   19.6687 H   0  0  0  0  0  0
  -30.6396  -19.2294   20.8744 H   0  0  0  0  0  0
  -27.4136  -16.6099   19.7095 H   0  0  0  0  0  0
  -31.2446  -23.2980   17.8148 H   0  0  0  0  0  0
  -30.5710  -21.8175   17.2025 H   0  0  0  0  0  0
  -27.7936  -24.9715   17.9094 H   0  0  0  0  0  0
  -29.4751  -25.4097   17.8640 H   0  0  0  0  0  0
  -31.2081  -22.4180   20.0151 H   0  0  0  0  0  0
  -30.9024  -20.9652   19.2125 H   0  0  0  0  0  0
  -31.0479  -24.4524   19.7014 H   0  0  0  0  0  0
  -30.4334  -24.8699   21.2952 H   0  0  0  0  0  0
  -30.5277  -26.0427   19.9984 H   0  0  0  0  0  0
  -25.0734  -19.3258   19.0924 H   0  0  0  0  0  0
  -25.2898  -17.6310   19.0802 H   0  0  0  0  0  0
  -28.9161  -15.7819   21.3542 H   0  0  0  0  0  0
  1 25  1  0  0  0
  1 30  2  0  0  0
  1 86  1  0  0  0
  2  3  1  0  0  0
  2 25  1  0  0  0
  2 89  1  0  0  0
  2 90  1  0  0  0
  3  4  1  0  0  0
  3 91  1  0  0  0
  3 92  1  0  0  0
  4  5  1  0  0  0
  4 93  1  0  0  0
  4 94  1  0  0  0
  5  6  1  0  0  0
  5 26  1  0  0  0
  5 95  1  0  0  0
  6 25  1  0  0  0
  6 96  1  0  0  0
  6 97  1  0  0  0
  7  8  2  0  0  0
  7 26  1  0  0  0
  7 29  1  0  0  0
  8  9  1  0  0  0
  8 22  1  0  0  0
  9 10  1  0  0  0
  9 27  2  0  0  0
 10 11  2  0  0  0
 10 15  1  0  0  0
 11 12  1  0  0  0
 11 98  1  0  0  0
 12 13  2  0  0  0
 12 99  1  0  0  0
 13 14  1  0  0  0
 13 31  1  0  0  0
 14 15  2  0  0  0
 14100  1  0  0  0
 15101  1  0  0  0
 16 17  2  0  0  0
 16 21  1  0  0  0
 16 31  1  0  0  0
 17 18  1  0  0  0
 17102  1  0  0  0
 18 19  2  0  0  0
 18103  1  0  0  0
 19 20  1  0  0  0
 19 24  1  0  0  0
 20 21  2  0  0  0
 20104  1  0  0  0
 21 23  1  0  0  0
 22 28  1  0  0  0
 22 32  2  0  0  0
 26 27  1  0  0  0
 28105  1  0  0  0
 28106  1  0  0  0
 29107  1  0  0  0
 29108  1  0  0  0
 33 34  1  0  0  0
 33 66  1  0  0  0
 33 70  2  0  0  0
 34 36  1  0  0  0
 34 59  1  0  0  0
 34109  1  0  0  0
 35 44  2  0  0  0
 35 45  1  0  0  0
 35 68  1  0  0  0
 36 56  1  0  0  0
 36110  1  0  0  0
 37 39  1  0  0  0
 37 47  1  0  0  0
 37 66  1  0  0  0
 37111  1  0  0  0
 38 43  2  0  0  0
 38 46  1  0  0  0
 38 47  1  0  0  0
 39 64  1  0  0  0
 39 67  2  0  0  0
 40 52  1  0  0  0
 40 53  2  0  0  0
 40 58  1  0  0  0
 41112  1  0  0  0
 41113  1  0  0  0
 41114  1  0  0  0
 41 48  1  0  0  0
 42 43  1  0  0  0
 42 66  1  0  0  0
 42115  1  0  0  0
 42116  1  0  0  0
 43 44  1  0  0  0
 44117  1  0  0  0
 45 46  2  0  0  0
 45118  1  0  0  0
 46119  1  0  0  0
 47120  1  0  0  0
 47121  1  0  0  0
 48 56  1  0  0  0
 48 65  1  0  0  0
 48122  1  0  0  0
 49 50  1  0  0  0
 49 53  1  0  0  0
 49 64  1  0  0  0
 49123  1  0  0  0
 50 51  1  0  0  0
 50124  1  0  0  0
 50125  1  0  0  0
 51 52  1  0  0  0
 51126  1  0  0  0
 51127  1  0  0  0
 52128  1  0  0  0
 52129  1  0  0  0
 53 54  1  0  0  0
 54 55  2  0  0  0
 54130  1  0  0  0
 55 57  1  0  0  0
 55131  1  0  0  0
 56 69  2  0  0  0
 57 58  2  0  0  0
 57132  1  0  0  0
 58133  1  0  0  0
 59 60  1  0  0  0
 59 61  1  0  0  0
 59 62  1  0  0  0
 60134  1  0  0  0
 60135  1  0  0  0
 60136  1  0  0  0
 61137  1  0  0  0
 61138  1  0  0  0
 61139  1  0  0  0
 62140  1  0  0  0
 62141  1  0  0  0
 62142  1  0  0  0
 63 65  1  0  0  0
 63143  1  0  0  0
 63144  1  0  0  0
 63145  1  0  0  0
 64146  1  0  0  0
 65147  1  0  0  0
 68 82  1  0  0  0
 71 74  2  0  0  0
 71 75  1  0  0  0
 71148  1  0  0  0
 72 74  1  0  0  0
 72 76  2  0  0  0
 72149  1  0  0  0
 73 75  2  0  0  0
 73 76  1  0  0  0
 73150  1  0  0  0
 74 84  1  0  0  0
 75 85  1  0  0  0
 76 86  1  0  0  0
 77 79  1  0  0  0
 77 80  1  0  0  0
 77 87  2  0  0  0
 78 82  1  0  0  0
 78 84  1  0  0  0
 78 88  2  0  0  0
 79 81  1  0  0  0
 79151  1  0  0  0
 79152  1  0  0  0
 80 82  1  0  0  0
 80153  1  0  0  0
 80154  1  0  0  0
 81 84  1  0  0  0
 81155  1  0  0  0
 81156  1  0  0  0
 82 83  1  0  0  0
 83157  1  0  0  0
 83158  1  0  0  0
 83159  1  0  0  0
 85160  1  0  0  0
 85161  1  0  0  0
 86162  1  0  0  0
M  ISO  4   1 100  68 101  82 101  86 100
M  END
> <chiral flag>
0

> <version>
0

> <s_m_source_file>
/data/baiqing/PycharmProjects/Reinvent-master-3.2/result/LINK_invent/BTK/process_docking_weight1_custom_product_contain_oxygen_bond_distance_aromatic_linkinvent_7_9_3/rearranged_h_0152.sdf

> <i_m_source_file_index>
50

> <r_mmod_Potential_Energy-OPLS-2005>
1013.76489257812

> <r_mmod_Stretch_Energy-OPLS-2005>
397.158752441406

> <r_mmod_Bend_Energy-OPLS-2005>
450.104217529297

> <r_mmod_Torsional_Energy-OPLS-2005>
316.051910400391

> <r_mmod_Improper_Torsional_Energy-OPLS-2005>
8.81500339508057

> <r_mmod_Van_der_Waal_Energy-OPLS-2005>
143.99934387207

> <r_mmod_Electrostatic_Energy-OPLS-2005>
-338.171997070312

> <r_mmod_Solvation_Energy-OPLS-2005>
-251.80549621582

> <b_mmod_Minimization_Converged-OPLS-2005>
0

> <r_mmod_RMS_Derivative-OPLS-2005>
4.55002975463867

$$$$
50
                    3D
 Structure written by MMmdl.
160169  0  0  1  0            999 V2000
  -30.5385  -15.0197   20.4068 C   0  0  0  0  0  0
  -30.4107  -12.6423   19.5027 C   0  0  0  0  0  0
  -29.5060  -12.5233   18.2562 C   0  0  0  0  0  0
  -28.0421  -12.3012   18.6747 C   0  0  0  0  0  0
  -27.6047  -13.2553   19.8176 C   0  0  2  0  0  0
  -28.6396  -13.3467   20.9562 C   0  0  0  0  0  0
  -25.2357  -13.8228   20.5711 C   0  0  0  0  0  0
  -24.1682  -13.0429   20.9238 C   0  0  0  0  0  0
  -24.6305  -11.6925   20.8730 C   0  0  0  0  0  0
  -23.9012  -10.4281   21.0388 C   0  0  0  0  0  0
  -24.3586   -9.4210   21.9164 C   0  0  0  0  0  0
  -23.6292   -8.2226   22.0727 C   0  0  0  0  0  0
  -22.4275   -8.0247   21.3522 C   0  0  0  0  0  0
  -21.9895   -9.0200   20.4610 C   0  0  0  0  0  0
  -22.7195  -10.2099   20.3027 C   0  0  0  0  0  0
  -21.6856   -6.0711   22.5278 C   0  0  0  0  0  0
  -21.4016   -6.5622   23.8210 C   0  0  0  0  0  0
  -21.3670   -5.6781   24.9175 C   0  0  0  0  0  0
  -21.6049   -4.3044   24.7230 C   0  0  0  0  0  0
  -21.8826   -3.8131   23.4357 C   0  0  0  0  0  0
  -21.9197   -4.6941   22.3409 C   0  0  0  0  0  0
  -22.7730  -13.5197   21.1939 C   0  0  0  0  0  0
  -22.1669   -4.2131   21.0992 F   0  0  0  0  0  0
  -21.5628   -3.4534   25.7743 F   0  0  0  0  0  0
  -29.9000  -13.7733   20.3380 N   0  0  0  0  0  0
  -26.2732  -12.9446   20.3154 N   0  0  0  0  0  0
  -25.9230  -11.6567   20.5683 N   0  0  0  0  0  0
  -22.0417  -12.8121   22.0477 N   0  0  0  0  0  0
  -25.4085  -15.1942   20.4173 N   0  0  0  0  0  0
  -31.7439  -14.9979   20.1292 O   0  0  0  0  0  0
  -21.6647   -6.8845   21.4232 O   0  0  0  0  0  0
  -22.3419  -14.5516   20.6838 O   0  0  0  0  0  0
  -24.6537  -31.8406   23.1735 C   0  0  0  0  0  0
  -25.9279  -32.4644   23.8188 C   0  0  1  0  0  0
  -27.2009  -27.0676   20.1561 C   0  0  0  0  0  0
  -25.6049  -33.8459   24.2174 N   0  0  0  0  0  0
  -23.4567  -30.4573   21.5255 C   0  0  2  0  0  0
  -24.8984  -28.8636   20.1140 C   0  0  0  0  0  0
  -22.7612  -29.4518   22.4792 C   0  0  0  0  0  0
  -18.0353  -28.1398   22.8466 C   0  0  0  0  0  0
  -24.1518  -36.7203   23.2653 C   0  0  0  0  0  0
  -26.0172  -30.6966   21.3697 C   0  0  0  0  0  0
  -26.0824  -29.2958   20.7235 C   0  0  0  0  0  0
  -27.2386  -28.4157   20.7177 C   0  0  0  0  0  0
  -25.9902  -26.7511   19.5094 C   0  0  0  0  0  0
  -24.8655  -27.6069   19.4928 C   0  0  0  0  0  0
  -23.6833  -29.7796   20.1485 C   0  0  0  0  0  0
  -25.4154  -36.2999   24.0322 C   0  0  1  0  0  0
  -20.5988  -28.3722   23.1230 C   0  0  2  0  0  0
  -20.6840  -26.9421   22.5413 C   0  0  0  0  0  0
  -19.5809  -26.6393   21.5221 C   0  0  0  0  0  0
  -18.1970  -26.7941   22.1621 C   0  0  0  0  0  0
  -19.1622  -28.8868   23.2834 C   0  0  0  0  0  0
  -18.9533  -30.1456   23.8859 C   0  0  0  0  0  0
  -17.6508  -30.6573   24.0546 C   0  0  0  0  0  0
  -25.9124  -34.9380   23.5059 C   0  0  0  0  0  0
  -16.5400  -29.9082   23.6327 C   0  0  0  0  0  0
  -16.7330  -28.6511   23.0320 C   0  0  0  0  0  0
  -26.4527  -31.6501   25.0647 C   0  0  0  0  0  0
  -25.3640  -31.3718   26.1281 C   0  0  0  0  0  0
  -27.0364  -30.2905   24.6173 C   0  0  0  0  0  0
  -27.6076  -32.4195   25.7490 C   0  0  0  0  0  0
  -27.5574  -37.1736   24.8485 C   0  0  0  0  0  0
  -21.4295  -29.3043   22.3566 N   0  0  0  0  0  0
  -26.4322  -37.3714   23.9394 N   0  0  0  0  0  0
  -24.7317  -31.0192   22.0811 N   0  0  0  0  0  0
  -23.4229  -28.8063   23.2958 O   0  0  0  0  0  0
  -28.2437  -26.0536   20.1474 O   0  0  0  0  0  0
  -26.5647  -34.8907   22.4594 O   0  0  0  0  0  0
  -23.5650  -32.1307   23.6931 O   0  0  0  0  0  0
  -31.7011  -19.2653   23.2288 C   0  0  0  0  0  0
  -32.0319  -17.9326   23.1224 C   0  0  0  0  0  0
  -30.7427  -19.8027   22.3705 C   0  0  0  0  0  0
  -31.3500  -17.1505   22.1993 C   0  0  0  0  0  0
  -30.0655  -19.1355   21.3008 C   0  0  0  0  0  0
  -30.3688  -17.6016   21.2570 C   0  0  0  0  0  0
  -28.2922  -20.9841   18.4093 C   0  0  0  0  0  0
  -27.7355  -22.3404   18.9630 C   0  0  0  0  0  0
  -28.4412  -19.8272   19.4428 C   0  0  0  0  0  0
  -29.0072  -21.7143   21.0331 C   0  0  0  0  0  0
  -28.6399  -23.0187   20.0267 C   0  0  2  0  0  0
  -28.0333  -24.5441   20.5977 C   0  0  0  0  0  0
  -29.2985  -20.2140   20.5556 N   0  0  0  0  0  0
  -29.8685  -16.2982   20.5720 N   0  0  0  0  0  0
  -29.8982  -23.3337   19.4570 O   0  0  0  0  0  0
  -31.4441  -12.7932   19.1882 H   0  0  0  0  0  0
  -30.4073  -11.7145   20.0752 H   0  0  0  0  0  0
  -29.8438  -11.7008   17.6253 H   0  0  0  0  0  0
  -29.5866  -13.4301   17.6540 H   0  0  0  0  0  0
  -27.9488  -11.2644   19.0004 H   0  0  0  0  0  0
  -27.3796  -12.4079   17.8129 H   0  0  0  0  0  0
  -27.5439  -14.2422   19.3576 H   0  0  0  0  0  0
  -28.7408  -12.3907   21.4705 H   0  0  0  0  0  0
  -28.3141  -14.0709   21.7045 H   0  0  0  0  0  0
  -25.2724   -9.5712   22.4737 H   0  0  0  0  0  0
  -24.0018   -7.4622   22.7432 H   0  0  0  0  0  0
  -21.0844   -8.8685   19.8901 H   0  0  0  0  0  0
  -22.3635  -10.9619   19.6124 H   0  0  0  0  0  0
  -21.2002   -7.6137   23.9707 H   0  0  0  0  0  0
  -21.1492   -6.0517   25.9082 H   0  0  0  0  0  0
  -22.0598   -2.7591   23.2866 H   0  0  0  0  0  0
  -22.4088  -11.9774   22.4799 H   0  0  0  0  0  0
  -21.1034  -13.1083   22.2742 H   0  0  0  0  0  0
  -24.6429  -15.8525   20.5165 H   0  0  0  0  0  0
  -26.2551  -15.6220   20.0688 H   0  0  0  0  0  0
  -26.7359  -32.5200   23.0924 H   0  0  0  0  0  0
  -25.0277  -33.9571   25.0398 H   0  0  0  0  0  0
  -22.7661  -31.2846   21.3631 H   0  0  0  0  0  0
  -23.3815  -35.9505   23.3312 H   0  0  0  0  0  0
  -24.3598  -36.8824   22.2060 H   0  0  0  0  0  0
  -23.7232  -37.6394   23.6687 H   0  0  0  0  0  0
  -26.1680  -31.4423   20.5833 H   0  0  0  0  0  0
  -26.8935  -30.7585   22.0039 H   0  0  0  0  0  0
  -28.1501  -28.7530   21.1895 H   0  0  0  0  0  0
  -25.8967  -25.7950   19.0135 H   0  0  0  0  0  0
  -23.9587  -27.2760   19.0048 H   0  0  0  0  0  0
  -23.8364  -30.5496   19.3941 H   0  0  0  0  0  0
  -22.7919  -29.2339   19.8298 H   0  0  0  0  0  0
  -25.1333  -36.1829   25.0811 H   0  0  0  0  0  0
  -21.0091  -28.3357   24.1348 H   0  0  0  0  0  0
  -20.5794  -26.2305   23.3633 H   0  0  0  0  0  0
  -21.6676  -26.7452   22.1139 H   0  0  0  0  0  0
  -19.6975  -25.6310   21.1241 H   0  0  0  0  0  0
  -19.6775  -27.3194   20.6748 H   0  0  0  0  0  0
  -17.4255  -26.6726   21.3988 H   0  0  0  0  0  0
  -18.0321  -26.0085   22.9017 H   0  0  0  0  0  0
  -19.8003  -30.7278   24.2218 H   0  0  0  0  0  0
  -17.5076  -31.6247   24.5182 H   0  0  0  0  0  0
  -15.5393  -30.2958   23.7669 H   0  0  0  0  0  0
  -15.8749  -28.0814   22.7040 H   0  0  0  0  0  0
  -24.5919  -30.6948   25.7593 H   0  0  0  0  0  0
  -24.8688  -32.2881   26.4502 H   0  0  0  0  0  0
  -25.7858  -30.9061   27.0190 H   0  0  0  0  0  0
  -26.2995  -29.6680   24.1080 H   0  0  0  0  0  0
  -27.3893  -29.7124   25.4725 H   0  0  0  0  0  0
  -27.8933  -30.4162   23.9547 H   0  0  0  0  0  0
  -27.2792  -33.3610   26.1895 H   0  0  0  0  0  0
  -28.4056  -32.6490   25.0414 H   0  0  0  0  0  0
  -28.0528  -31.8345   26.5552 H   0  0  0  0  0  0
  -28.2571  -38.0046   24.7559 H   0  0  0  0  0  0
  -28.1094  -36.2573   24.6337 H   0  0  0  0  0  0
  -27.2269  -37.1380   25.8883 H   0  0  0  0  0  0
  -20.9528  -29.8805   21.6764 H   0  0  0  0  0  0
  -26.0192  -38.2790   24.1395 H   0  0  0  0  0  0
  -32.1746  -19.8822   23.9776 H   0  0  0  0  0  0
  -32.7615  -17.4865   23.7849 H   0  0  0  0  0  0
  -30.5931  -20.8232   22.6379 H   0  0  0  0  0  0
  -31.6343  -16.1192   22.3093 H   0  0  0  0  0  0
  -29.2531  -21.1567   17.9205 H   0  0  0  0  0  0
  -27.6287  -20.6372   17.6156 H   0  0  0  0  0  0
  -26.7649  -22.1379   19.4175 H   0  0  0  0  0  0
  -27.5271  -23.0199   18.1369 H   0  0  0  0  0  0
  -28.8583  -18.9533   18.9375 H   0  0  0  0  0  0
  -27.4629  -19.5346   19.8293 H   0  0  0  0  0  0
  -28.2042  -21.6327   21.7666 H   0  0  0  0  0  0
  -29.8347  -22.1480   21.5857 H   0  0  0  0  0  0
  -28.3258  -24.5764   21.6488 H   0  0  0  0  0  0
  -26.9541  -24.4093   20.6631 H   0  0  0  0  0  0
  -28.8658  -16.2593   20.4596 H   0  0  0  0  0  0
  -30.3704  -22.5114   19.3634 H   0  0  0  0  0  0
  1 25  1  0  0  0
  1 30  2  0  0  0
  1 84  1  0  0  0
  2  3  1  0  0  0
  2 25  1  0  0  0
  2 86  1  0  0  0
  2 87  1  0  0  0
  3  4  1  0  0  0
  3 88  1  0  0  0
  3 89  1  0  0  0
  4  5  1  0  0  0
  4 90  1  0  0  0
  4 91  1  0  0  0
  5  6  1  0  0  0
  5 26  1  0  0  0
  5 92  1  0  0  0
  6 25  1  0  0  0
  6 93  1  0  0  0
  6 94  1  0  0  0
  7  8  2  0  0  0
  7 26  1  0  0  0
  7 29  1  0  0  0
  8  9  1  0  0  0
  8 22  1  0  0  0
  9 10  1  0  0  0
  9 27  2  0  0  0
 10 11  2  0  0  0
 10 15  1  0  0  0
 11 12  1  0  0  0
 11 95  1  0  0  0
 12 13  2  0  0  0
 12 96  1  0  0  0
 13 14  1  0  0  0
 13 31  1  0  0  0
 14 15  2  0  0  0
 14 97  1  0  0  0
 15 98  1  0  0  0
 16 17  2  0  0  0
 16 21  1  0  0  0
 16 31  1  0  0  0
 17 18  1  0  0  0
 17 99  1  0  0  0
 18 19  2  0  0  0
 18100  1  0  0  0
 19 20  1  0  0  0
 19 24  1  0  0  0
 20 21  2  0  0  0
 20101  1  0  0  0
 21 23  1  0  0  0
 22 28  1  0  0  0
 22 32  2  0  0  0
 26 27  1  0  0  0
 28102  1  0  0  0
 28103  1  0  0  0
 29104  1  0  0  0
 29105  1  0  0  0
 33 34  1  0  0  0
 33 66  1  0  0  0
 33 70  2  0  0  0
 34 36  1  0  0  0
 34 59  1  0  0  0
 34106  1  0  0  0
 35 44  2  0  0  0
 35 45  1  0  0  0
 35 68  1  0  0  0
 36 56  1  0  0  0
 36107  1  0  0  0
 37 39  1  0  0  0
 37 47  1  0  0  0
 37 66  1  0  0  0
 37108  1  0  0  0
 38 43  2  0  0  0
 38 46  1  0  0  0
 38 47  1  0  0  0
 39 64  1  0  0  0
 39 67  2  0  0  0
 40 52  1  0  0  0
 40 53  2  0  0  0
 40 58  1  0  0  0
 41109  1  0  0  0
 41110  1  0  0  0
 41111  1  0  0  0
 41 48  1  0  0  0
 42 43  1  0  0  0
 42 66  1  0  0  0
 42112  1  0  0  0
 42113  1  0  0  0
 43 44  1  0  0  0
 44114  1  0  0  0
 45 46  2  0  0  0
 45115  1  0  0  0
 46116  1  0  0  0
 47117  1  0  0  0
 47118  1  0  0  0
 48 56  1  0  0  0
 48 65  1  0  0  0
 48119  1  0  0  0
 49 50  1  0  0  0
 49 53  1  0  0  0
 49 64  1  0  0  0
 49120  1  0  0  0
 50 51  1  0  0  0
 50121  1  0  0  0
 50122  1  0  0  0
 51 52  1  0  0  0
 51123  1  0  0  0
 51124  1  0  0  0
 52125  1  0  0  0
 52126  1  0  0  0
 53 54  1  0  0  0
 54 55  2  0  0  0
 54127  1  0  0  0
 55 57  1  0  0  0
 55128  1  0  0  0
 56 69  2  0  0  0
 57 58  2  0  0  0
 57129  1  0  0  0
 58130  1  0  0  0
 59 60  1  0  0  0
 59 61  1  0  0  0
 59 62  1  0  0  0
 60131  1  0  0  0
 60132  1  0  0  0
 60133  1  0  0  0
 61134  1  0  0  0
 61135  1  0  0  0
 61136  1  0  0  0
 62137  1  0  0  0
 62138  1  0  0  0
 62139  1  0  0  0
 63 65  1  0  0  0
 63140  1  0  0  0
 63141  1  0  0  0
 63142  1  0  0  0
 64143  1  0  0  0
 65144  1  0  0  0
 68 82  1  0  0  0
 71 72  2  0  0  0
 71 73  1  0  0  0
 71145  1  0  0  0
 72 74  1  0  0  0
 72146  1  0  0  0
 73 75  2  0  0  0
 73147  1  0  0  0
 74 76  2  0  0  0
 74148  1  0  0  0
 75 76  1  0  0  0
 75 83  1  0  0  0
 76 84  1  0  0  0
 77 78  1  0  0  0
 77 79  1  0  0  0
 77149  1  0  0  0
 77150  1  0  0  0
 78 81  1  0  0  0
 78151  1  0  0  0
 78152  1  0  0  0
 79 83  1  0  0  0
 79153  1  0  0  0
 79154  1  0  0  0
 80 81  1  0  0  0
 80 83  1  0  0  0
 80155  1  0  0  0
 80156  1  0  0  0
 81 82  1  0  0  0
 81 85  1  0  0  0
 82157  1  0  0  0
 82158  1  0  0  0
 84159  1  0  0  0
 85160  1  0  0  0
M  ISO  4   1 100  68 101  82 101  84 100
M  END
> <chiral flag>
0

> <version>
0

> <s_m_source_file>
/data/baiqing/PycharmProjects/Reinvent-master-3.2/result/LINK_invent/BTK/process_docking_weight1_custom_product_contain_oxygen_bond_distance_aromatic_linkinvent_7_9_3/rearranged_h_0152.sdf

> <i_m_source_file_index>
51

> <r_mmod_Potential_Energy-OPLS-2005>
893.460510253906

> <r_mmod_Stretch_Energy-OPLS-2005>
387.262512207031

> <r_mmod_Bend_Energy-OPLS-2005>
424.118896484375

> <r_mmod_Torsional_Energy-OPLS-2005>
324.958801269531

> <r_mmod_Improper_Torsional_Energy-OPLS-2005>
6.03128433227539

> <r_mmod_Van_der_Waal_Energy-OPLS-2005>
166.971405029297

> <r_mmod_Electrostatic_Energy-OPLS-2005>
-421.838012695312

> <r_mmod_Solvation_Energy-OPLS-2005>
-243.257568359375

> <b_mmod_Minimization_Converged-OPLS-2005>
0

> <r_mmod_RMS_Derivative-OPLS-2005>
5.13288927078247

$$$$
51
                    3D
 Structure written by MMmdl.
155164  0  0  1  0            999 V2000
  -30.6360  -14.7689   20.4452 C   0  0  0  0  0  0
  -30.4306  -12.4663   19.4830 C   0  0  0  0  0  0
  -29.5105  -12.4857   18.2413 C   0  0  0  0  0  0
  -28.0386  -12.3138   18.6605 C   0  0  0  0  0  0
  -27.6400  -13.2343   19.8459 C   0  0  2  0  0  0
  -28.6879  -13.2049   20.9819 C   0  0  0  0  0  0
  -25.2514  -13.8204   20.5713 C   0  0  0  0  0  0
  -24.1810  -13.0450   20.9228 C   0  0  0  0  0  0
  -24.6403  -11.6928   20.8770 C   0  0  0  0  0  0
  -23.9088  -10.4308   21.0428 C   0  0  0  0  0  0
  -24.3631   -9.4219   21.9198 C   0  0  0  0  0  0
  -23.6311   -8.2252   22.0759 C   0  0  0  0  0  0
  -22.4292   -8.0287   21.3548 C   0  0  0  0  0  0
  -21.9937   -9.0264   20.4645 C   0  0  0  0  0  0
  -22.7268  -10.2149   20.3069 C   0  0  0  0  0  0
  -21.6844   -6.0753   22.5286 C   0  0  0  0  0  0
  -21.3997   -6.5655   23.8217 C   0  0  0  0  0  0
  -21.3654   -5.6804   24.9178 C   0  0  0  0  0  0
  -21.6045   -4.3069   24.7230 C   0  0  0  0  0  0
  -21.8817   -3.8164   23.4345 C   0  0  0  0  0  0
  -21.9191   -4.6980   22.3402 C   0  0  0  0  0  0
  -22.7834  -13.5223   21.1888 C   0  0  0  0  0  0
  -22.1666   -4.2174   21.0976 F   0  0  0  0  0  0
  -21.5632   -3.4544   25.7742 F   0  0  0  0  0  0
  -29.9863  -13.5523   20.3913 N   0  0  0  0  0  0
  -26.2944  -12.9417   20.3293 N   0  0  0  0  0  0
  -25.9328  -11.6558   20.5775 N   0  0  0  0  0  0
  -22.0471  -12.8195   22.0424 N   0  0  0  0  0  0
  -25.4203  -15.1935   20.4100 N   0  0  0  0  0  0
  -31.8293  -14.8050   20.1384 O   0  0  0  0  0  0
  -21.6637   -6.8898   21.4252 O   0  0  0  0  0  0
  -22.3533  -14.5544   20.6758 O   0  0  0  0  0  0
  -24.6308  -31.8560   23.1971 C   0  0  0  0  0  0
  -25.9117  -32.4760   23.8320 C   0  0  1  0  0  0
  -27.2256  -27.2676   20.1399 C   0  0  0  0  0  0
  -25.5915  -33.8561   24.2247 N   0  0  0  0  0  0
  -23.4282  -30.4769   21.5400 C   0  0  2  0  0  0
  -24.8787  -28.9171   20.1132 C   0  0  0  0  0  0
  -22.7496  -29.4600   22.4903 C   0  0  0  0  0  0
  -18.0287  -28.1400   22.8466 C   0  0  0  0  0  0
  -24.1486  -36.7287   23.2637 C   0  0  0  0  0  0
  -25.9720  -30.7703   21.3738 C   0  0  0  0  0  0
  -26.0489  -29.3902   20.7227 C   0  0  0  0  0  0
  -27.2295  -28.5792   20.7194 C   0  0  0  0  0  0
  -26.0385  -26.8566   19.5009 C   0  0  0  0  0  0
  -24.8778  -27.6574   19.4910 C   0  0  0  0  0  0
  -23.6487  -29.8054   20.1586 C   0  0  0  0  0  0
  -25.4123  -36.3072   24.0322 C   0  0  1  0  0  0
  -20.5889  -28.3710   23.1265 C   0  0  2  0  0  0
  -20.6783  -26.9427   22.5409 C   0  0  0  0  0  0
  -19.5755  -26.6389   21.5211 C   0  0  0  0  0  0
  -18.1920  -26.7934   22.1614 C   0  0  0  0  0  0
  -19.1543  -28.8865   23.2858 C   0  0  0  0  0  0
  -18.9475  -30.1454   23.8893 C   0  0  0  0  0  0
  -17.6482  -30.6595   24.0560 C   0  0  0  0  0  0
  -25.9070  -34.9438   23.5097 C   0  0  0  0  0  0
  -16.5368  -29.9094   23.6338 C   0  0  0  0  0  0
  -16.7280  -28.6516   23.0351 C   0  0  0  0  0  0
  -26.4497  -31.6584   25.0708 C   0  0  0  0  0  0
  -25.3711  -31.3731   26.1432 C   0  0  0  0  0  0
  -27.0369  -30.3015   24.6173 C   0  0  0  0  0  0
  -27.6061  -32.4326   25.7474 C   0  0  0  0  0  0
  -27.5576  -37.1791   24.8464 C   0  0  0  0  0  0
  -21.4201  -29.3057   22.3645 N   0  0  0  0  0  0
  -26.4308  -37.3759   23.9393 N   0  0  0  0  0  0
  -24.6961  -31.0509   22.0951 N   0  0  0  0  0  0
  -23.4189  -28.8135   23.3010 O   0  0  0  0  0  0
  -28.3244  -26.3810   20.1522 O   0  0  0  0  0  0
  -26.5647  -34.8899   22.4667 O   0  0  0  0  0  0
  -23.5452  -32.1396   23.7257 O   0  0  0  0  0  0
  -31.9931  -19.1537   20.3017 C   0  0  0  0  0  0
  -31.0415  -20.1931   20.3129 C   0  0  0  0  0  0
  -31.6153  -17.7974   20.4056 C   0  0  0  0  0  0
  -29.3032  -18.5031   20.5293 C   0  0  0  0  0  0
  -29.6631  -19.9188   20.4234 C   0  0  0  0  0  0
  -30.2594  -17.3959   20.5226 C   0  0  0  0  0  0
  -27.6788  -22.9386   19.0504 C   0  0  0  0  0  0
  -28.6434  -21.1676   20.3893 C   0  0  2  0  0  0
  -28.6861  -23.6255   19.9900 C   0  0  1  0  0  0
  -28.1328  -24.9871   20.6950 C   0  0  0  0  0  0
  -29.8953  -15.9415   20.6330 N   0  0  0  0  0  0
  -28.1170  -21.5317   18.9532 N   0  3  0  0  0  0
  -29.1587  -22.4646   20.8097 O   0  0  0  0  0  0
  -31.4728  -12.5739   19.1786 H   0  0  0  0  0  0
  -30.3704  -11.5028   19.9927 H   0  0  0  0  0  0
  -29.7957  -11.6907   17.5509 H   0  0  0  0  0  0
  -29.6329  -13.4233   17.6955 H   0  0  0  0  0  0
  -27.9026  -11.2702   18.9460 H   0  0  0  0  0  0
  -27.3786  -12.4790   17.8080 H   0  0  0  0  0  0
  -27.6231  -14.2468   19.4409 H   0  0  0  0  0  0
  -28.7338  -12.2195   21.4475 H   0  0  0  0  0  0
  -28.4226  -13.9056   21.7741 H   0  0  0  0  0  0
  -25.2768   -9.5692   22.4781 H   0  0  0  0  0  0
  -24.0020   -7.4634   22.7462 H   0  0  0  0  0  0
  -21.0879   -8.8785   19.8928 H   0  0  0  0  0  0
  -22.3732  -10.9696   19.6184 H   0  0  0  0  0  0
  -21.1974   -7.6159   23.9732 H   0  0  0  0  0  0
  -21.1478   -6.0528   25.9083 H   0  0  0  0  0  0
  -22.0600   -2.7631   23.2834 H   0  0  0  0  0  0
  -22.4085  -11.9848   22.4797 H   0  0  0  0  0  0
  -21.1081  -13.1209   22.2612 H   0  0  0  0  0  0
  -24.6475  -15.8422   20.5134 H   0  0  0  0  0  0
  -26.2558  -15.6306   20.0451 H   0  0  0  0  0  0
  -26.7173  -32.5435   23.1051 H   0  0  0  0  0  0
  -25.0017  -33.9688   25.0367 H   0  0  0  0  0  0
  -22.7278  -31.3011   21.3894 H   0  0  0  0  0  0
  -23.3739  -35.9633   23.3339 H   0  0  0  0  0  0
  -24.3550  -36.8904   22.2042 H   0  0  0  0  0  0
  -23.7281  -37.6506   23.6671 H   0  0  0  0  0  0
  -26.0971  -31.5256   20.5956 H   0  0  0  0  0  0
  -26.8529  -30.8318   22.0013 H   0  0  0  0  0  0
  -28.1288  -28.9371   21.2010 H   0  0  0  0  0  0
  -26.0069  -25.8938   19.0112 H   0  0  0  0  0  0
  -23.9848  -27.2928   19.0023 H   0  0  0  0  0  0
  -23.7711  -30.5825   19.4025 H   0  0  0  0  0  0
  -22.7685  -29.2373   19.8525 H   0  0  0  0  0  0
  -25.1296  -36.1907   25.0818 H   0  0  0  0  0  0
  -20.9986  -28.3313   24.1386 H   0  0  0  0  0  0
  -20.5691  -26.2319   23.3619 H   0  0  0  0  0  0
  -21.6643  -26.7463   22.1191 H   0  0  0  0  0  0
  -19.6937  -25.6294   21.1245 H   0  0  0  0  0  0
  -19.6703  -27.3199   20.6732 H   0  0  0  0  0  0
  -17.4201  -26.6684   21.4006 H   0  0  0  0  0  0
  -18.0301  -26.0084   22.9015 H   0  0  0  0  0  0
  -19.7964  -30.7246   24.2278 H   0  0  0  0  0  0
  -17.5045  -31.6273   24.5162 H   0  0  0  0  0  0
  -15.5363  -30.2995   23.7676 H   0  0  0  0  0  0
  -15.8673  -28.0841   22.7074 H   0  0  0  0  0  0
  -24.5913  -30.7055   25.7732 H   0  0  0  0  0  0
  -24.8848  -32.2883   26.4819 H   0  0  0  0  0  0
  -25.7994  -30.8933   27.0244 H   0  0  0  0  0  0
  -26.2946  -29.6726   24.1242 H   0  0  0  0  0  0
  -27.4131  -29.7308   25.4670 H   0  0  0  0  0  0
  -27.8775  -30.4309   23.9356 H   0  0  0  0  0  0
  -27.2714  -33.3665   26.2007 H   0  0  0  0  0  0
  -28.3890  -32.6844   25.0301 H   0  0  0  0  0  0
  -28.0705  -31.8478   26.5424 H   0  0  0  0  0  0
  -28.2599  -38.0073   24.7478 H   0  0  0  0  0  0
  -28.1058  -36.2598   24.6342 H   0  0  0  0  0  0
  -27.2266  -37.1515   25.8859 H   0  0  0  0  0  0
  -20.9390  -29.8784   21.6857 H   0  0  0  0  0  0
  -26.0191  -38.2836   24.1392 H   0  0  0  0  0  0
  -33.0425  -19.4061   20.2105 H   0  0  0  0  0  0
  -31.3877  -21.2150   20.2338 H   0  0  0  0  0  0
  -32.4170  -17.0779   20.3927 H   0  0  0  0  0  0
  -28.2527  -18.2608   20.6183 H   0  0  0  0  0  0
  -27.6013  -23.4307   18.0818 H   0  0  0  0  0  0
  -26.6858  -22.9469   19.5024 H   0  0  0  0  0  0
  -27.7709  -20.9655   21.0127 H   0  0  0  0  0  0
  -29.5592  -23.9110   19.4022 H   0  0  0  0  0  0
  -28.6323  -25.0279   21.6644 H   0  0  0  0  0  0
  -27.0856  -24.8331   20.9569 H   0  0  0  0  0  0
  -28.9224  -15.7620   20.8273 H   0  0  0  0  0  0
  -28.8708  -21.4583   18.2895 H   0  0  0  0  0  0
  -27.3754  -20.9194   18.6567 H   0  0  0  0  0  0
  1 25  1  0  0  0
  1 30  2  0  0  0
  1 81  1  0  0  0
  2  3  1  0  0  0
  2 25  1  0  0  0
  2 84  1  0  0  0
  2 85  1  0  0  0
  3  4  1  0  0  0
  3 86  1  0  0  0
  3 87  1  0  0  0
  4  5  1  0  0  0
  4 88  1  0  0  0
  4 89  1  0  0  0
  5  6  1  0  0  0
  5 26  1  0  0  0
  5 90  1  0  0  0
  6 25  1  0  0  0
  6 91  1  0  0  0
  6 92  1  0  0  0
  7  8  2  0  0  0
  7 26  1  0  0  0
  7 29  1  0  0  0
  8  9  1  0  0  0
  8 22  1  0  0  0
  9 10  1  0  0  0
  9 27  2  0  0  0
 10 11  2  0  0  0
 10 15  1  0  0  0
 11 12  1  0  0  0
 11 93  1  0  0  0
 12 13  2  0  0  0
 12 94  1  0  0  0
 13 14  1  0  0  0
 13 31  1  0  0  0
 14 15  2  0  0  0
 14 95  1  0  0  0
 15 96  1  0  0  0
 16 17  2  0  0  0
 16 21  1  0  0  0
 16 31  1  0  0  0
 17 18  1  0  0  0
 17 97  1  0  0  0
 18 19  2  0  0  0
 18 98  1  0  0  0
 19 20  1  0  0  0
 19 24  1  0  0  0
 20 21  2  0  0  0
 20 99  1  0  0  0
 21 23  1  0  0  0
 22 28  1  0  0  0
 22 32  2  0  0  0
 26 27  1  0  0  0
 28100  1  0  0  0
 28101  1  0  0  0
 29102  1  0  0  0
 29103  1  0  0  0
 33 34  1  0  0  0
 33 66  1  0  0  0
 33 70  2  0  0  0
 34 36  1  0  0  0
 34 59  1  0  0  0
 34104  1  0  0  0
 35 44  2  0  0  0
 35 45  1  0  0  0
 35 68  1  0  0  0
 36 56  1  0  0  0
 36105  1  0  0  0
 37 39  1  0  0  0
 37 47  1  0  0  0
 37 66  1  0  0  0
 37106  1  0  0  0
 38 43  2  0  0  0
 38 46  1  0  0  0
 38 47  1  0  0  0
 39 64  1  0  0  0
 39 67  2  0  0  0
 40 52  1  0  0  0
 40 53  2  0  0  0
 40 58  1  0  0  0
 41107  1  0  0  0
 41108  1  0  0  0
 41109  1  0  0  0
 41 48  1  0  0  0
 42 43  1  0  0  0
 42 66  1  0  0  0
 42110  1  0  0  0
 42111  1  0  0  0
 43 44  1  0  0  0
 44112  1  0  0  0
 45 46  2  0  0  0
 45113  1  0  0  0
 46114  1  0  0  0
 47115  1  0  0  0
 47116  1  0  0  0
 48 56  1  0  0  0
 48 65  1  0  0  0
 48117  1  0  0  0
 49 50  1  0  0  0
 49 53  1  0  0  0
 49 64  1  0  0  0
 49118  1  0  0  0
 50 51  1  0  0  0
 50119  1  0  0  0
 50120  1  0  0  0
 51 52  1  0  0  0
 51121  1  0  0  0
 51122  1  0  0  0
 52123  1  0  0  0
 52124  1  0  0  0
 53 54  1  0  0  0
 54 55  2  0  0  0
 54125  1  0  0  0
 55 57  1  0  0  0
 55126  1  0  0  0
 56 69  2  0  0  0
 57 58  2  0  0  0
 57127  1  0  0  0
 58128  1  0  0  0
 59 60  1  0  0  0
 59 61  1  0  0  0
 59 62  1  0  0  0
 60129  1  0  0  0
 60130  1  0  0  0
 60131  1  0  0  0
 61132  1  0  0  0
 61133  1  0  0  0
 61134  1  0  0  0
 62135  1  0  0  0
 62136  1  0  0  0
 62137  1  0  0  0
 63 65  1  0  0  0
 63138  1  0  0  0
 63139  1  0  0  0
 63140  1  0  0  0
 64141  1  0  0  0
 65142  1  0  0  0
 68 80  1  0  0  0
 71 72  2  0  0  0
 71 73  1  0  0  0
 71143  1  0  0  0
 72 75  1  0  0  0
 72144  1  0  0  0
 73 76  2  0  0  0
 73145  1  0  0  0
 74 75  2  0  0  0
 74 76  1  0  0  0
 74146  1  0  0  0
 75 78  1  0  0  0
 76 81  1  0  0  0
 77 79  1  0  0  0
 77 82  1  0  0  0
 77147  1  0  0  0
 77148  1  0  0  0
 78 82  1  0  0  0
 78 83  1  0  0  0
 78149  1  0  0  0
 79 80  1  0  0  0
 79 83  1  0  0  0
 79150  1  0  0  0
 80151  1  0  0  0
 80152  1  0  0  0
 81153  1  0  0  0
 82154  1  0  0  0
 82155  1  0  0  0
M  CHG  1  82   1
M  ISO  4   1 100  68 101  80 101  81 100
M  END
> <chiral flag>
0

> <version>
0

> <s_m_source_file>
/data/baiqing/PycharmProjects/Reinvent-master-3.2/result/LINK_invent/BTK/process_docking_weight1_custom_product_contain_oxygen_bond_distance_aromatic_linkinvent_7_9_3/rearranged_h_0152.sdf

> <i_m_source_file_index>
52

> <r_mmod_Potential_Energy-OPLS-2005>
-3.29594993591309

> <r_mmod_Stretch_Energy-OPLS-2005>
139.583084106445

> <r_mmod_Bend_Energy-OPLS-2005>
186.483932495117

> <r_mmod_Torsional_Energy-OPLS-2005>
258.993499755859

> <r_mmod_Improper_Torsional_Energy-OPLS-2005>
4.65092945098877

> <r_mmod_Van_der_Waal_Energy-OPLS-2005>
134.077911376953

> <r_mmod_Electrostatic_Energy-OPLS-2005>
-319.512298583984

> <r_mmod_Solvation_Energy-OPLS-2005>
-496.563232421875

> <b_mmod_Minimization_Converged-OPLS-2005>
0

> <r_mmod_RMS_Derivative-OPLS-2005>
2.892733335495

$$$$
52
                    3D
 Structure written by MMmdl.
160169  0  0  1  0            999 V2000
  -30.6226  -14.7529   20.4686 C   0  0  0  0  0  0
  -30.4333  -12.4627   19.4741 C   0  0  0  0  0  0
  -29.5103  -12.5108   18.2367 C   0  0  0  0  0  0
  -28.0372  -12.3287   18.6524 C   0  0  0  0  0  0
  -27.6414  -13.2329   19.8505 C   0  0  2  0  0  0
  -28.6888  -13.1785   20.9867 C   0  0  0  0  0  0
  -25.2522  -13.8199   20.5682 C   0  0  0  0  0  0
  -24.1814  -13.0455   20.9221 C   0  0  0  0  0  0
  -24.6402  -11.6929   20.8769 C   0  0  0  0  0  0
  -23.9078  -10.4305   21.0435 C   0  0  0  0  0  0
  -24.3626   -9.4212   21.9207 C   0  0  0  0  0  0
  -23.6295   -8.2250   22.0767 C   0  0  0  0  0  0
  -22.4283   -8.0293   21.3541 C   0  0  0  0  0  0
  -21.9917   -9.0281   20.4652 C   0  0  0  0  0  0
  -22.7251  -10.2161   20.3077 C   0  0  0  0  0  0
  -21.6859   -6.0755   22.5284 C   0  0  0  0  0  0
  -21.4011   -6.5652   23.8218 C   0  0  0  0  0  0
  -21.3647   -5.6798   24.9172 C   0  0  0  0  0  0
  -21.6037   -4.3064   24.7219 C   0  0  0  0  0  0
  -21.8808   -3.8156   23.4342 C   0  0  0  0  0  0
  -21.9186   -4.6977   22.3400 C   0  0  0  0  0  0
  -22.7829  -13.5262   21.1860 C   0  0  0  0  0  0
  -22.1659   -4.2160   21.0979 F   0  0  0  0  0  0
  -21.5623   -3.4549   25.7734 F   0  0  0  0  0  0
  -29.9925  -13.5282   20.4063 N   0  0  0  0  0  0
  -26.2944  -12.9402   20.3285 N   0  0  0  0  0  0
  -25.9334  -11.6550   20.5774 N   0  0  0  0  0  0
  -22.0441  -12.8277   22.0406 N   0  0  0  0  0  0
  -25.4223  -15.1919   20.4044 N   0  0  0  0  0  0
  -31.8093  -14.8402   20.1445 O   0  0  0  0  0  0
  -21.6640   -6.8898   21.4246 O   0  0  0  0  0  0
  -22.3536  -14.5574   20.6694 O   0  0  0  0  0  0
  -24.6365  -31.8577   23.2045 C   0  0  0  0  0  0
  -25.9187  -32.4767   23.8366 C   0  0  1  0  0  0
  -27.1972  -27.2292   20.1085 C   0  0  0  0  0  0
  -25.5983  -33.8573   24.2285 N   0  0  0  0  0  0
  -23.4313  -30.4895   21.5504 C   0  0  2  0  0  0
  -24.8746  -28.9544   20.1031 C   0  0  0  0  0  0
  -22.7524  -29.4636   22.4916 C   0  0  0  0  0  0
  -18.0310  -28.1399   22.8483 C   0  0  0  0  0  0
  -24.1487  -36.7284   23.2634 C   0  0  0  0  0  0
  -25.9860  -30.7548   21.3982 C   0  0  0  0  0  0
  -26.0516  -29.3804   20.7318 C   0  0  0  0  0  0
  -27.2117  -28.5287   20.7351 C   0  0  0  0  0  0
  -26.0118  -26.9374   19.3934 C   0  0  0  0  0  0
  -24.8633  -27.7373   19.4206 C   0  0  0  0  0  0
  -23.6498  -29.8439   20.1606 C   0  0  0  0  0  0
  -25.4112  -36.3075   24.0330 C   0  0  1  0  0  0
  -20.5915  -28.3730   23.1271 C   0  0  2  0  0  0
  -20.6826  -26.9452   22.5394 C   0  0  0  0  0  0
  -19.5808  -26.6440   21.5184 C   0  0  0  0  0  0
  -18.1972  -26.7960   22.1587 C   0  0  0  0  0  0
  -19.1556  -28.8873   23.2882 C   0  0  0  0  0  0
  -18.9475  -30.1465   23.8919 C   0  0  0  0  0  0
  -17.6470  -30.6589   24.0585 C   0  0  0  0  0  0
  -25.9064  -34.9447   23.5102 C   0  0  0  0  0  0
  -16.5369  -29.9080   23.6335 C   0  0  0  0  0  0
  -16.7289  -28.6503   23.0343 C   0  0  0  0  0  0
  -26.4527  -31.6595   25.0776 C   0  0  0  0  0  0
  -25.3725  -31.3765   26.1483 C   0  0  0  0  0  0
  -27.0383  -30.2995   24.6315 C   0  0  0  0  0  0
  -27.6080  -32.4335   25.7551 C   0  0  0  0  0  0
  -27.5566  -37.1803   24.8463 C   0  0  0  0  0  0
  -21.4226  -29.3080   22.3663 N   0  0  0  0  0  0
  -26.4281  -37.3773   23.9409 N   0  0  0  0  0  0
  -24.7042  -31.0514   22.1050 N   0  0  0  0  0  0
  -23.4213  -28.8139   23.2994 O   0  0  0  0  0  0
  -28.2397  -26.2514   20.2094 O   0  0  0  0  0  0
  -26.5623  -34.8921   22.4659 O   0  0  0  0  0  0
  -23.5516  -32.1441   23.7308 O   0  0  0  0  0  0
  -29.0944  -18.3604   20.5538 C   0  0  0  0  0  0
  -30.6631  -20.2158   20.4121 C   0  0  0  0  0  0
  -31.4521  -17.8692   20.5805 C   0  0  0  0  0  0
  -29.3182  -19.8038   20.4423 C   0  0  0  0  0  0
  -30.1328  -17.3505   20.5983 C   0  0  0  0  0  0
  -31.7052  -19.2639   20.4946 C   0  0  0  0  0  0
  -28.1665  -20.8127   20.3330 C   0  0  0  0  0  0
  -26.7364  -24.2733   20.6934 C   0  0  0  0  0  0
  -26.6515  -22.7675   20.4716 C   0  0  0  0  0  0
  -28.9057  -23.4972   20.4344 C   0  0  0  0  0  0
  -27.9901  -24.7581   19.9288 C   0  0  1  0  0  0
  -27.9289  -24.5963   18.3832 C   0  0  0  0  0  0
  -28.0322  -22.2251   20.3970 N   0  0  0  0  0  0
  -29.8424  -15.8854   20.6861 N   0  0  0  0  0  0
  -27.0107  -20.1800   20.1078 N   0  3  0  0  0  0
  -32.9884  -19.7020   20.4920 F   0  0  0  0  0  0
  -31.4747  -12.5845   19.1717 H   0  0  0  0  0  0
  -30.3755  -11.4871   19.9590 H   0  0  0  0  0  0
  -29.7975  -11.7399   17.5202 H   0  0  0  0  0  0
  -29.6311  -13.4656   17.7226 H   0  0  0  0  0  0
  -27.9015  -11.2793   18.9207 H   0  0  0  0  0  0
  -27.3774  -12.5123   17.8035 H   0  0  0  0  0  0
  -27.6296  -14.2519   19.4645 H   0  0  0  0  0  0
  -28.7276  -12.1835   21.4304 H   0  0  0  0  0  0
  -28.4226  -13.8650   21.7935 H   0  0  0  0  0  0
  -25.2771   -9.5694   22.4785 H   0  0  0  0  0  0
  -23.9992   -7.4649   22.7503 H   0  0  0  0  0  0
  -21.0835   -8.8816   19.8979 H   0  0  0  0  0  0
  -22.3709  -10.9707   19.6192 H   0  0  0  0  0  0
  -21.2009   -7.6159   23.9723 H   0  0  0  0  0  0
  -21.1476   -6.0532   25.9077 H   0  0  0  0  0  0
  -22.0594   -2.7619   23.2840 H   0  0  0  0  0  0
  -22.4027  -11.9945   22.4823 H   0  0  0  0  0  0
  -21.1071  -13.1350   22.2591 H   0  0  0  0  0  0
  -24.6494  -15.8420   20.4959 H   0  0  0  0  0  0
  -26.2514  -15.6163   20.0109 H   0  0  0  0  0  0
  -26.7249  -32.5420   23.1098 H   0  0  0  0  0  0
  -25.0141  -33.9711   25.0440 H   0  0  0  0  0  0
  -22.7285  -31.3140   21.4123 H   0  0  0  0  0  0
  -23.3752  -35.9606   23.3297 H   0  0  0  0  0  0
  -24.3562  -36.8915   22.2041 H   0  0  0  0  0  0
  -23.7250  -37.6495   23.6652 H   0  0  0  0  0  0
  -26.1403  -31.5171   20.6331 H   0  0  0  0  0  0
  -26.8585  -30.7937   22.0373 H   0  0  0  0  0  0
  -28.1005  -28.8406   21.2678 H   0  0  0  0  0  0
  -25.8974  -26.0502   18.8083 H   0  0  0  0  0  0
  -23.9764  -27.4142   18.8909 H   0  0  0  0  0  0
  -23.7815  -30.6324   19.4185 H   0  0  0  0  0  0
  -22.7643  -29.2888   19.8455 H   0  0  0  0  0  0
  -25.1278  -36.1912   25.0819 H   0  0  0  0  0  0
  -20.9993  -28.3283   24.1389 H   0  0  0  0  0  0
  -20.5742  -26.2336   23.3592 H   0  0  0  0  0  0
  -21.6713  -26.7518   22.1192 H   0  0  0  0  0  0
  -19.6983  -25.6364   21.1174 H   0  0  0  0  0  0
  -19.6761  -27.3297   20.6752 H   0  0  0  0  0  0
  -17.4257  -26.6730   21.3967 H   0  0  0  0  0  0
  -18.0357  -26.0078   22.8951 H   0  0  0  0  0  0
  -19.7953  -30.7281   24.2300 H   0  0  0  0  0  0
  -17.5026  -31.6273   24.5192 H   0  0  0  0  0  0
  -15.5375  -30.2987   23.7661 H   0  0  0  0  0  0
  -15.8697  -28.0829   22.7030 H   0  0  0  0  0  0
  -24.5903  -30.7106   25.7815 H   0  0  0  0  0  0
  -24.8916  -32.2946   26.4860 H   0  0  0  0  0  0
  -25.8027  -30.8983   27.0294 H   0  0  0  0  0  0
  -26.2996  -29.6744   24.1289 H   0  0  0  0  0  0
  -27.3976  -29.7259   25.4871 H   0  0  0  0  0  0
  -27.8912  -30.4243   23.9644 H   0  0  0  0  0  0
  -27.2676  -33.3630   26.2114 H   0  0  0  0  0  0
  -28.3895  -32.6905   25.0389 H   0  0  0  0  0  0
  -28.0736  -31.8481   26.5490 H   0  0  0  0  0  0
  -28.2591  -38.0089   24.7487 H   0  0  0  0  0  0
  -28.1063  -36.2628   24.6305 H   0  0  0  0  0  0
  -27.2293  -37.1467   25.8871 H   0  0  0  0  0  0
  -20.9430  -29.8842   21.6893 H   0  0  0  0  0  0
  -26.0168  -38.2853   24.1401 H   0  0  0  0  0  0
  -28.0822  -17.9883   20.6011 H   0  0  0  0  0  0
  -30.9092  -21.2644   20.3304 H   0  0  0  0  0  0
  -32.3044  -17.2111   20.6436 H   0  0  0  0  0  0
  -26.8400  -24.4879   21.7587 H   0  0  0  0  0  0
  -25.7862  -24.6978   20.3945 H   0  0  0  0  0  0
  -26.1278  -22.5727   19.5330 H   0  0  0  0  0  0
  -26.0731  -22.3071   21.2750 H   0  0  0  0  0  0
  -29.2442  -23.6606   21.4578 H   0  0  0  0  0  0
  -29.8015  -23.3838   19.8225 H   0  0  0  0  0  0
  -28.4172  -23.6822   18.0437 H   0  0  0  0  0  0
  -28.4469  -25.4140   17.8806 H   0  0  0  0  0  0
  -26.9220  -24.5305   17.9807 H   0  0  0  0  0  0
  -28.8769  -15.6560   20.8592 H   0  0  0  0  0  0
  -27.0207  -19.1844   19.9634 H   0  0  0  0  0  0
  -26.1411  -20.6661   19.9915 H   0  0  0  0  0  0
  1 25  1  0  0  0
  1 30  2  0  0  0
  1 84  1  0  0  0
  2  3  1  0  0  0
  2 25  1  0  0  0
  2 87  1  0  0  0
  2 88  1  0  0  0
  3  4  1  0  0  0
  3 89  1  0  0  0
  3 90  1  0  0  0
  4  5  1  0  0  0
  4 91  1  0  0  0
  4 92  1  0  0  0
  5  6  1  0  0  0
  5 26  1  0  0  0
  5 93  1  0  0  0
  6 25  1  0  0  0
  6 94  1  0  0  0
  6 95  1  0  0  0
  7  8  2  0  0  0
  7 26  1  0  0  0
  7 29  1  0  0  0
  8  9  1  0  0  0
  8 22  1  0  0  0
  9 10  1  0  0  0
  9 27  2  0  0  0
 10 11  2  0  0  0
 10 15  1  0  0  0
 11 12  1  0  0  0
 11 96  1  0  0  0
 12 13  2  0  0  0
 12 97  1  0  0  0
 13 14  1  0  0  0
 13 31  1  0  0  0
 14 15  2  0  0  0
 14 98  1  0  0  0
 15 99  1  0  0  0
 16 17  2  0  0  0
 16 21  1  0  0  0
 16 31  1  0  0  0
 17 18  1  0  0  0
 17100  1  0  0  0
 18 19  2  0  0  0
 18101  1  0  0  0
 19 20  1  0  0  0
 19 24  1  0  0  0
 20 21  2  0  0  0
 20102  1  0  0  0
 21 23  1  0  0  0
 22 28  1  0  0  0
 22 32  2  0  0  0
 26 27  1  0  0  0
 28103  1  0  0  0
 28104  1  0  0  0
 29105  1  0  0  0
 29106  1  0  0  0
 33 34  1  0  0  0
 33 66  1  0  0  0
 33 70  2  0  0  0
 34 36  1  0  0  0
 34 59  1  0  0  0
 34107  1  0  0  0
 35 44  2  0  0  0
 35 45  1  0  0  0
 35 68  1  0  0  0
 36 56  1  0  0  0
 36108  1  0  0  0
 37 39  1  0  0  0
 37 47  1  0  0  0
 37 66  1  0  0  0
 37109  1  0  0  0
 38 43  2  0  0  0
 38 46  1  0  0  0
 38 47  1  0  0  0
 39 64  1  0  0  0
 39 67  2  0  0  0
 40 52  1  0  0  0
 40 53  2  0  0  0
 40 58  1  0  0  0
 41110  1  0  0  0
 41111  1  0  0  0
 41112  1  0  0  0
 41 48  1  0  0  0
 42 43  1  0  0  0
 42 66  1  0  0  0
 42113  1  0  0  0
 42114  1  0  0  0
 43 44  1  0  0  0
 44115  1  0  0  0
 45 46  2  0  0  0
 45116  1  0  0  0
 46117  1  0  0  0
 47118  1  0  0  0
 47119  1  0  0  0
 48 56  1  0  0  0
 48 65  1  0  0  0
 48120  1  0  0  0
 49 50  1  0  0  0
 49 53  1  0  0  0
 49 64  1  0  0  0
 49121  1  0  0  0
 50 51  1  0  0  0
 50122  1  0  0  0
 50123  1  0  0  0
 51 52  1  0  0  0
 51124  1  0  0  0
 51125  1  0  0  0
 52126  1  0  0  0
 52127  1  0  0  0
 53 54  1  0  0  0
 54 55  2  0  0  0
 54128  1  0  0  0
 55 57  1  0  0  0
 55129  1  0  0  0
 56 69  2  0  0  0
 57 58  2  0  0  0
 57130  1  0  0  0
 58131  1  0  0  0
 59 60  1  0  0  0
 59 61  1  0  0  0
 59 62  1  0  0  0
 60132  1  0  0  0
 60133  1  0  0  0
 60134  1  0  0  0
 61135  1  0  0  0
 61136  1  0  0  0
 61137  1  0  0  0
 62138  1  0  0  0
 62139  1  0  0  0
 62140  1  0  0  0
 63 65  1  0  0  0
 63141  1  0  0  0
 63142  1  0  0  0
 63143  1  0  0  0
 64144  1  0  0  0
 65145  1  0  0  0
 68 81  1  0  0  0
 71 74  2  0  0  0
 71 75  1  0  0  0
 71146  1  0  0  0
 72 74  1  0  0  0
 72 76  2  0  0  0
 72147  1  0  0  0
 73 75  2  0  0  0
 73 76  1  0  0  0
 73148  1  0  0  0
 74 77  1  0  0  0
 75 84  1  0  0  0
 76 86  1  0  0  0
 77 83  1  0  0  0
 77 85  2  0  0  0
 78 79  1  0  0  0
 78 81  1  0  0  0
 78149  1  0  0  0
 78150  1  0  0  0
 79 83  1  0  0  0
 79151  1  0  0  0
 79152  1  0  0  0
 80 81  1  0  0  0
 80 83  1  0  0  0
 80153  1  0  0  0
 80154  1  0  0  0
 81 82  1  0  0  0
 82155  1  0  0  0
 82156  1  0  0  0
 82157  1  0  0  0
 84158  1  0  0  0
 85159  1  0  0  0
 85160  1  0  0  0
M  CHG  1  85   1
M  ISO  4   1 100  68 101  81 101  84 100
M  END
> <chiral flag>
0

> <version>
0

> <s_m_source_file>
/data/baiqing/PycharmProjects/Reinvent-master-3.2/result/LINK_invent/BTK/process_docking_weight1_custom_product_contain_oxygen_bond_distance_aromatic_linkinvent_7_9_3/rearranged_h_0152.sdf

> <i_m_source_file_index>
53

> <r_mmod_Potential_Energy-OPLS-2005>
141.798812866211

> <r_mmod_Stretch_Energy-OPLS-2005>
153.536148071289

> <r_mmod_Bend_Energy-OPLS-2005>
273.164306640625

> <r_mmod_Torsional_Energy-OPLS-2005>
278.794708251953

> <r_mmod_Improper_Torsional_Energy-OPLS-2005>
5.29072332382202

> <r_mmod_Van_der_Waal_Energy-OPLS-2005>
176.693801879883

> <r_mmod_Electrostatic_Energy-OPLS-2005>
-425.823486328125

> <r_mmod_Solvation_Energy-OPLS-2005>
-426.017974853516

> <b_mmod_Minimization_Converged-OPLS-2005>
0

> <r_mmod_RMS_Derivative-OPLS-2005>
2.61514401435852

$$$$
53
                    3D
 Structure written by MMmdl.
162170  0  0  1  0            999 V2000
  -30.5144  -14.9932   20.4076 C   0  0  0  0  0  0
  -30.4375  -12.6114   19.5226 C   0  0  0  0  0  0
  -29.5278  -12.5511   18.2719 C   0  0  0  0  0  0
  -28.0612  -12.3284   18.6813 C   0  0  0  0  0  0
  -27.6320  -13.2558   19.8482 C   0  0  2  0  0  0
  -28.6685  -13.2888   20.9934 C   0  0  0  0  0  0
  -25.2467  -13.8235   20.5739 C   0  0  0  0  0  0
  -24.1780  -13.0444   20.9211 C   0  0  0  0  0  0
  -24.6405  -11.6934   20.8736 C   0  0  0  0  0  0
  -23.9090  -10.4294   21.0396 C   0  0  0  0  0  0
  -24.3635   -9.4210   21.9174 C   0  0  0  0  0  0
  -23.6304   -8.2249   22.0746 C   0  0  0  0  0  0
  -22.4284   -8.0282   21.3542 C   0  0  0  0  0  0
  -21.9925   -9.0255   20.4641 C   0  0  0  0  0  0
  -22.7259  -10.2134   20.3049 C   0  0  0  0  0  0
  -21.6855   -6.0741   22.5283 C   0  0  0  0  0  0
  -21.4015   -6.5644   23.8216 C   0  0  0  0  0  0
  -21.3663   -5.6793   24.9176 C   0  0  0  0  0  0
  -21.6046   -4.3053   24.7227 C   0  0  0  0  0  0
  -21.8819   -3.8150   23.4345 C   0  0  0  0  0  0
  -21.9194   -4.6969   22.3405 C   0  0  0  0  0  0
  -22.7804  -13.5204   21.1869 C   0  0  0  0  0  0
  -22.1659   -4.2157   21.0981 F   0  0  0  0  0  0
  -21.5631   -3.4538   25.7741 F   0  0  0  0  0  0
  -29.9487  -13.7125   20.4108 N   0  0  0  0  0  0
  -26.2899  -12.9481   20.3289 N   0  0  0  0  0  0
  -25.9342  -11.6595   20.5744 N   0  0  0  0  0  0
  -22.0469  -12.8180   22.0430 N   0  0  0  0  0  0
  -25.4155  -15.1973   20.4229 N   0  0  0  0  0  0
  -31.6858  -15.0718   20.0182 O   0  0  0  0  0  0
  -21.6643   -6.8884   21.4241 O   0  0  0  0  0  0
  -22.3484  -14.5509   20.6718 O   0  0  0  0  0  0
  -24.6436  -31.8403   23.1815 C   0  0  0  0  0  0
  -25.9198  -32.4676   23.8224 C   0  0  1  0  0  0
  -27.2303  -27.1064   20.1574 C   0  0  0  0  0  0
  -25.5939  -33.8490   24.2144 N   0  0  0  0  0  0
  -23.4508  -30.4533   21.5258 C   0  0  2  0  0  0
  -24.9045  -28.8676   20.1040 C   0  0  0  0  0  0
  -22.7559  -29.4525   22.4825 C   0  0  0  0  0  0
  -18.0304  -28.1396   22.8471 C   0  0  0  0  0  0
  -24.1496  -36.7250   23.2642 C   0  0  0  0  0  0
  -26.0056  -30.7018   21.3863 C   0  0  0  0  0  0
  -26.0767  -29.3088   20.7286 C   0  0  0  0  0  0
  -27.2346  -28.4419   20.7389 C   0  0  0  0  0  0
  -26.0339  -26.7657   19.4918 C   0  0  0  0  0  0
  -24.8979  -27.6120   19.4699 C   0  0  0  0  0  0
  -23.6785  -29.7706   20.1483 C   0  0  0  0  0  0
  -25.4137  -36.3023   24.0301 C   0  0  1  0  0  0
  -20.5917  -28.3741   23.1227 C   0  0  2  0  0  0
  -20.6791  -26.9442   22.5403 C   0  0  0  0  0  0
  -19.5768  -26.6381   21.5211 C   0  0  0  0  0  0
  -18.1947  -26.7936   22.1617 C   0  0  0  0  0  0
  -19.1559  -28.8885   23.2842 C   0  0  0  0  0  0
  -18.9475  -30.1475   23.8877 C   0  0  0  0  0  0
  -17.6473  -30.6600   24.0561 C   0  0  0  0  0  0
  -25.9078  -34.9401   23.5038 C   0  0  0  0  0  0
  -16.5366  -29.9090   23.6340 C   0  0  0  0  0  0
  -16.7289  -28.6503   23.0364 C   0  0  0  0  0  0
  -26.4518  -31.6562   25.0683 C   0  0  0  0  0  0
  -25.3681  -31.3757   26.1352 C   0  0  0  0  0  0
  -27.0399  -30.2951   24.6315 C   0  0  0  0  0  0
  -27.6048  -32.4338   25.7468 C   0  0  0  0  0  0
  -27.5582  -37.1780   24.8463 C   0  0  0  0  0  0
  -21.4248  -29.3062   22.3584 N   0  0  0  0  0  0
  -26.4300  -37.3735   23.9395 N   0  0  0  0  0  0
  -24.7197  -31.0210   22.0870 N   0  0  0  0  0  0
  -23.4182  -28.8093   23.3010 O   0  0  0  0  0  0
  -28.3049  -26.1455   20.2884 O   0  0  0  0  0  0
  -26.5679  -34.8908   22.4630 O   0  0  0  0  0  0
  -23.5553  -32.1307   23.7010 O   0  0  0  0  0  0
  -28.5209  -19.9490   18.7478 C   0  0  0  0  0  0
  -28.9343  -17.4968   18.8482 C   0  0  0  0  0  0
  -29.5715  -18.9433   20.6901 C   0  0  0  0  0  0
  -28.4406  -18.6490   18.1841 C   0  0  0  0  0  0
  -29.0962  -20.1990   20.0107 C   0  0  0  0  0  0
  -29.5130  -17.5475   20.1340 C   0  0  0  0  0  0
  -27.8192  -18.4888   16.8698 C   0  0  0  0  0  0
  -26.8467  -22.6529   20.2699 C   0  0  0  0  0  0
  -28.3367  -23.5335   22.0470 C   0  0  0  0  0  0
  -29.3409  -21.8118   20.3833 C   0  0  0  0  0  0
  -28.4261  -24.6657   19.7688 C   0  0  0  0  0  0
  -28.2717  -23.1537   20.5560 C   0  0  0  0  0  0
  -26.6704  -19.0987   16.5910 N   0  0  0  0  0  0
  -29.7793  -16.1649   20.7784 N   0  0  0  0  0  0
  -28.3881  -17.7271   15.9383 N   0  3  0  0  0  0
  -31.4753  -12.7572   19.2199 H   0  0  0  0  0  0
  -30.4207  -11.6580   20.0538 H   0  0  0  0  0  0
  -29.8565  -11.7547   17.6020 H   0  0  0  0  0  0
  -29.6151  -13.4822   17.7093 H   0  0  0  0  0  0
  -27.9592  -11.2845   18.9801 H   0  0  0  0  0  0
  -27.4012  -12.4646   17.8236 H   0  0  0  0  0  0
  -27.5938  -14.2596   19.4232 H   0  0  0  0  0  0
  -28.7595  -12.3118   21.4710 H   0  0  0  0  0  0
  -28.3552  -13.9835   21.7738 H   0  0  0  0  0  0
  -25.2783   -9.5688   22.4746 H   0  0  0  0  0  0
  -24.0013   -7.4641   22.7463 H   0  0  0  0  0  0
  -21.0854   -8.8772   19.8950 H   0  0  0  0  0  0
  -22.3710  -10.9666   19.6155 H   0  0  0  0  0  0
  -21.2006   -7.6152   23.9723 H   0  0  0  0  0  0
  -21.1486   -6.0522   25.9077 H   0  0  0  0  0  0
  -22.0598   -2.7612   23.2846 H   0  0  0  0  0  0
  -22.4093  -11.9841   22.4807 H   0  0  0  0  0  0
  -21.1088  -13.1201   22.2652 H   0  0  0  0  0  0
  -24.6483  -15.8496   20.5404 H   0  0  0  0  0  0
  -26.2701  -15.6446   20.1180 H   0  0  0  0  0  0
  -26.7257  -32.5267   23.0941 H   0  0  0  0  0  0
  -25.0051  -33.9614   25.0266 H   0  0  0  0  0  0
  -22.7562  -31.2803   21.3623 H   0  0  0  0  0  0
  -23.3771  -35.9568   23.3292 H   0  0  0  0  0  0
  -24.3573  -36.8901   22.2058 H   0  0  0  0  0  0
  -23.7240  -37.6433   23.6702 H   0  0  0  0  0  0
  -26.1673  -31.4547   20.6140 H   0  0  0  0  0  0
  -26.8738  -30.7527   22.0316 H   0  0  0  0  0  0
  -28.1256  -28.7726   21.2534 H   0  0  0  0  0  0
  -25.9466  -25.7967   19.0228 H   0  0  0  0  0  0
  -24.0005  -27.2685   18.9738 H   0  0  0  0  0  0
  -23.8088  -30.5384   19.3856 H   0  0  0  0  0  0
  -22.7948  -29.2055   19.8446 H   0  0  0  0  0  0
  -25.1329  -36.1850   25.0792 H   0  0  0  0  0  0
  -21.0016  -28.3347   24.1346 H   0  0  0  0  0  0
  -20.5688  -26.2363   23.3628 H   0  0  0  0  0  0
  -21.6659  -26.7440   22.1207 H   0  0  0  0  0  0
  -19.6947  -25.6281   21.1269 H   0  0  0  0  0  0
  -19.6716  -27.3164   20.6721 H   0  0  0  0  0  0
  -17.4218  -26.6678   21.4014 H   0  0  0  0  0  0
  -18.0355  -26.0078   22.9016 H   0  0  0  0  0  0
  -19.7951  -30.7292   24.2246 H   0  0  0  0  0  0
  -17.5030  -31.6277   24.5163 H   0  0  0  0  0  0
  -15.5369  -30.2992   23.7678 H   0  0  0  0  0  0
  -15.8678  -28.0811   22.7114 H   0  0  0  0  0  0
  -24.5873  -30.7108   25.7634 H   0  0  0  0  0  0
  -24.8857  -32.2940   26.4709 H   0  0  0  0  0  0
  -25.7923  -30.8944   27.0170 H   0  0  0  0  0  0
  -26.3024  -29.6643   24.1335 H   0  0  0  0  0  0
  -27.3995  -29.7287   25.4916 H   0  0  0  0  0  0
  -27.8934  -30.4162   23.9642 H   0  0  0  0  0  0
  -27.2646  -33.3669   26.1974 H   0  0  0  0  0  0
  -28.3888  -32.6853   25.0311 H   0  0  0  0  0  0
  -28.0688  -31.8509   26.5435 H   0  0  0  0  0  0
  -28.2585  -38.0088   24.7511 H   0  0  0  0  0  0
  -28.1085  -36.2616   24.6291 H   0  0  0  0  0  0
  -27.2287  -37.1415   25.8860 H   0  0  0  0  0  0
  -20.9471  -29.8745   21.6726 H   0  0  0  0  0  0
  -26.0164  -38.2801   24.1399 H   0  0  0  0  0  0
  -28.1744  -20.7906   18.1633 H   0  0  0  0  0  0
  -28.8082  -16.5348   18.3717 H   0  0  0  0  0  0
  -30.0202  -19.0573   21.6663 H   0  0  0  0  0  0
  -26.5858  -21.8025   20.9008 H   0  0  0  0  0  0
  -26.7360  -22.3431   19.2309 H   0  0  0  0  0  0
  -26.1097  -23.4358   20.4562 H   0  0  0  0  0  0
  -28.1661  -22.6721   22.6924 H   0  0  0  0  0  0
  -27.5878  -24.2843   22.3048 H   0  0  0  0  0  0
  -29.3122  -23.9510   22.3008 H   0  0  0  0  0  0
  -30.0439  -22.1323   19.6134 H   0  0  0  0  0  0
  -29.9701  -21.7810   21.2736 H   0  0  0  0  0  0
  -27.8673  -24.6104   18.8346 H   0  0  0  0  0  0
  -29.4599  -24.6539   19.4243 H   0  0  0  0  0  0
  -26.2186  -19.6387   17.3143 H   0  0  0  0  0  0
  -26.1993  -19.0085   15.7048 H   0  0  0  0  0  0
  -29.0272  -15.9054   21.3993 H   0  0  0  0  0  0
  -29.3017  -17.3354   16.1146 H   0  0  0  0  0  0
  -27.9725  -17.5762   15.0334 H   0  0  0  0  0  0
  1 25  1  0  0  0
  1 30  2  0  0  0
  1 84  1  0  0  0
  2  3  1  0  0  0
  2 25  1  0  0  0
  2 86  1  0  0  0
  2 87  1  0  0  0
  3  4  1  0  0  0
  3 88  1  0  0  0
  3 89  1  0  0  0
  4  5  1  0  0  0
  4 90  1  0  0  0
  4 91  1  0  0  0
  5  6  1  0  0  0
  5 26  1  0  0  0
  5 92  1  0  0  0
  6 25  1  0  0  0
  6 93  1  0  0  0
  6 94  1  0  0  0
  7  8  2  0  0  0
  7 26  1  0  0  0
  7 29  1  0  0  0
  8  9  1  0  0  0
  8 22  1  0  0  0
  9 10  1  0  0  0
  9 27  2  0  0  0
 10 11  2  0  0  0
 10 15  1  0  0  0
 11 12  1  0  0  0
 11 95  1  0  0  0
 12 13  2  0  0  0
 12 96  1  0  0  0
 13 14  1  0  0  0
 13 31  1  0  0  0
 14 15  2  0  0  0
 14 97  1  0  0  0
 15 98  1  0  0  0
 16 17  2  0  0  0
 16 21  1  0  0  0
 16 31  1  0  0  0
 17 18  1  0  0  0
 17 99  1  0  0  0
 18 19  2  0  0  0
 18100  1  0  0  0
 19 20  1  0  0  0
 19 24  1  0  0  0
 20 21  2  0  0  0
 20101  1  0  0  0
 21 23  1  0  0  0
 22 28  1  0  0  0
 22 32  2  0  0  0
 26 27  1  0  0  0
 28102  1  0  0  0
 28103  1  0  0  0
 29104  1  0  0  0
 29105  1  0  0  0
 33 34  1  0  0  0
 33 66  1  0  0  0
 33 70  2  0  0  0
 34 36  1  0  0  0
 34 59  1  0  0  0
 34106  1  0  0  0
 35 44  2  0  0  0
 35 45  1  0  0  0
 35 68  1  0  0  0
 36 56  1  0  0  0
 36107  1  0  0  0
 37 39  1  0  0  0
 37 47  1  0  0  0
 37 66  1  0  0  0
 37108  1  0  0  0
 38 43  2  0  0  0
 38 46  1  0  0  0
 38 47  1  0  0  0
 39 64  1  0  0  0
 39 67  2  0  0  0
 40 52  1  0  0  0
 40 53  2  0  0  0
 40 58  1  0  0  0
 41109  1  0  0  0
 41110  1  0  0  0
 41111  1  0  0  0
 41 48  1  0  0  0
 42 43  1  0  0  0
 42 66  1  0  0  0
 42112  1  0  0  0
 42113  1  0  0  0
 43 44  1  0  0  0
 44114  1  0  0  0
 45 46  2  0  0  0
 45115  1  0  0  0
 46116  1  0  0  0
 47117  1  0  0  0
 47118  1  0  0  0
 48 56  1  0  0  0
 48 65  1  0  0  0
 48119  1  0  0  0
 49 50  1  0  0  0
 49 53  1  0  0  0
 49 64  1  0  0  0
 49120  1  0  0  0
 50 51  1  0  0  0
 50121  1  0  0  0
 50122  1  0  0  0
 51 52  1  0  0  0
 51123  1  0  0  0
 51124  1  0  0  0
 52125  1  0  0  0
 52126  1  0  0  0
 53 54  1  0  0  0
 54 55  2  0  0  0
 54127  1  0  0  0
 55 57  1  0  0  0
 55128  1  0  0  0
 56 69  2  0  0  0
 57 58  2  0  0  0
 57129  1  0  0  0
 58130  1  0  0  0
 59 60  1  0  0  0
 59 61  1  0  0  0
 59 62  1  0  0  0
 60131  1  0  0  0
 60132  1  0  0  0
 60133  1  0  0  0
 61134  1  0  0  0
 61135  1  0  0  0
 61136  1  0  0  0
 62137  1  0  0  0
 62138  1  0  0  0
 62139  1  0  0  0
 63 65  1  0  0  0
 63140  1  0  0  0
 63141  1  0  0  0
 63142  1  0  0  0
 64143  1  0  0  0
 65144  1  0  0  0
 68 81  1  0  0  0
 71 74  2  0  0  0
 71 75  1  0  0  0
 71145  1  0  0  0
 72 74  1  0  0  0
 72 76  2  0  0  0
 72146  1  0  0  0
 73 75  2  0  0  0
 73 76  1  0  0  0
 73147  1  0  0  0
 74 77  1  0  0  0
 75 80  1  0  0  0
 76 84  1  0  0  0
 77 83  1  0  0  0
 77 85  2  0  0  0
 78148  1  0  0  0
 78149  1  0  0  0
 78150  1  0  0  0
 78 82  1  0  0  0
 79 82  1  0  0  0
 79151  1  0  0  0
 79152  1  0  0  0
 79153  1  0  0  0
 80 82  1  0  0  0
 80154  1  0  0  0
 80155  1  0  0  0
 81 82  1  0  0  0
 81156  1  0  0  0
 81157  1  0  0  0
 83158  1  0  0  0
 83159  1  0  0  0
 84160  1  0  0  0
 85161  1  0  0  0
 85162  1  0  0  0
M  CHG  1  85   1
M  ISO  4   1 100  68 101  81 101  84 100
M  END
> <chiral flag>
0

> <version>
0

> <s_m_source_file>
/data/baiqing/PycharmProjects/Reinvent-master-3.2/result/LINK_invent/BTK/process_docking_weight1_custom_product_contain_oxygen_bond_distance_aromatic_linkinvent_7_9_3/rearranged_h_0152.sdf

> <i_m_source_file_index>
54

> <r_mmod_Potential_Energy-OPLS-2005>
395.796600341797

> <r_mmod_Stretch_Energy-OPLS-2005>
314.395355224609

> <r_mmod_Bend_Energy-OPLS-2005>
331.157928466797

> <r_mmod_Torsional_Energy-OPLS-2005>
262.740295410156

> <r_mmod_Improper_Torsional_Energy-OPLS-2005>
6.09598016738892

> <r_mmod_Van_der_Waal_Energy-OPLS-2005>
120.454879760742

> <r_mmod_Electrostatic_Energy-OPLS-2005>
-415.893310546875

> <r_mmod_Solvation_Energy-OPLS-2005>
-443.987518310547

> <b_mmod_Minimization_Converged-OPLS-2005>
0

> <r_mmod_RMS_Derivative-OPLS-2005>
1.50703310966492

$$$$
54
                    3D
 Structure written by MMmdl.
154163  0  0  1  0            999 V2000
  -30.2709  -15.7074   20.3196 C   0  0  0  0  0  0
  -30.4192  -13.1311   19.5511 C   0  0  0  0  0  0
  -29.5542  -12.6737   18.3385 C   0  0  0  0  0  0
  -28.1333  -12.3003   18.7833 C   0  0  0  0  0  0
  -27.5939  -13.3144   19.8156 C   0  0  2  0  0  0
  -28.6027  -13.6751   20.9345 C   0  0  0  0  0  0
  -25.2306  -13.8291   20.5806 C   0  0  0  0  0  0
  -24.1703  -13.0435   20.9300 C   0  0  0  0  0  0
  -24.6413  -11.6950   20.8770 C   0  0  0  0  0  0
  -23.9115  -10.4295   21.0397 C   0  0  0  0  0  0
  -24.3650   -9.4205   21.9177 C   0  0  0  0  0  0
  -23.6314   -8.2245   22.0747 C   0  0  0  0  0  0
  -22.4294   -8.0289   21.3542 C   0  0  0  0  0  0
  -21.9941   -9.0263   20.4639 C   0  0  0  0  0  0
  -22.7280  -10.2135   20.3046 C   0  0  0  0  0  0
  -21.6861   -6.0741   22.5281 C   0  0  0  0  0  0
  -21.4022   -6.5642   23.8216 C   0  0  0  0  0  0
  -21.3661   -5.6792   24.9177 C   0  0  0  0  0  0
  -21.6043   -4.3054   24.7225 C   0  0  0  0  0  0
  -21.8817   -3.8148   23.4345 C   0  0  0  0  0  0
  -21.9192   -4.6967   22.3403 C   0  0  0  0  0  0
  -22.7713  -13.5161   21.1935 C   0  0  0  0  0  0
  -22.1660   -4.2153   21.0979 F   0  0  0  0  0  0
  -21.5627   -3.4536   25.7735 F   0  0  0  0  0  0
  -29.7698  -14.3208   20.2827 N   0  0  0  0  0  0
  -26.2763  -12.9636   20.3248 N   0  0  0  0  0  0
  -25.9361  -11.6701   20.5700 N   0  0  0  0  0  0
  -22.0375  -12.8143   22.0485 N   0  0  0  0  0  0
  -25.3895  -15.2032   20.4233 N   0  0  0  0  0  0
  -31.5021  -15.6406   20.1235 O   0  0  0  0  0  0
  -21.6648   -6.8890   21.4244 O   0  0  0  0  0  0
  -22.3394  -14.5462   20.6766 O   0  0  0  0  0  0
  -24.6890  -31.7919   23.1459 C   0  0  0  0  0  0
  -25.9446  -32.4426   23.8021 C   0  0  1  0  0  0
  -27.2299  -26.6399   20.2196 C   0  0  0  0  0  0
  -25.6002  -33.8254   24.1905 N   0  0  0  0  0  0
  -23.5183  -30.3907   21.5002 C   0  0  2  0  0  0
  -24.9776  -28.7193   20.1151 C   0  0  0  0  0  0
  -22.7790  -29.4271   22.4683 C   0  0  0  0  0  0
  -18.0342  -28.1429   22.8453 C   0  0  0  0  0  0
  -24.1497  -36.7136   23.2653 C   0  0  0  0  0  0
  -26.1004  -30.5039   21.4202 C   0  0  0  0  0  0
  -26.1649  -29.0620   20.7715 C   0  0  0  0  0  0
  -27.2694  -28.0504   20.7932 C   0  0  0  0  0  0
  -26.0124  -26.5249   19.4960 C   0  0  0  0  0  0
  -24.9445  -27.4781   19.4535 C   0  0  0  0  0  0
  -23.7756  -29.6814   20.1376 C   0  0  0  0  0  0
  -25.4149  -36.2869   24.0275 C   0  0  1  0  0  0
  -20.5982  -28.3789   23.1137 C   0  0  2  0  0  0
  -20.6808  -26.9441   22.5413 C   0  0  0  0  0  0
  -19.5787  -26.6371   21.5225 C   0  0  0  0  0  0
  -18.1966  -26.7957   22.1618 C   0  0  0  0  0  0
  -19.1611  -28.8936   23.2774 C   0  0  0  0  0  0
  -18.9514  -30.1519   23.8820 C   0  0  0  0  0  0
  -17.6502  -30.6609   24.0553 C   0  0  0  0  0  0
  -25.9132  -34.9262   23.4931 C   0  0  0  0  0  0
  -16.5393  -29.9090   23.6355 C   0  0  0  0  0  0
  -16.7323  -28.6515   23.0367 C   0  0  0  0  0  0
  -26.4604  -31.6488   25.0668 C   0  0  0  0  0  0
  -25.3656  -31.3829   26.1274 C   0  0  0  0  0  0
  -27.0547  -30.2819   24.6615 C   0  0  0  0  0  0
  -27.6041  -32.4362   25.7490 C   0  0  0  0  0  0
  -27.5560  -37.1722   24.8465 C   0  0  0  0  0  0
  -21.4432  -29.3021   22.3441 N   0  0  0  0  0  0
  -26.4268  -37.3639   23.9406 N   0  0  0  0  0  0
  -24.7934  -30.9303   22.0744 N   0  0  0  0  0  0
  -23.4208  -28.7882   23.3055 O   0  0  0  0  0  0
  -28.1826  -25.3947   20.3426 O   0  0  0  0  0  0
  -26.5782  -34.8855   22.4553 O   0  0  0  0  0  0
  -23.5901  -32.1020   23.6381 O   0  0  0  0  0  0
  -29.9571  -20.8350   17.9626 C   0  0  0  0  0  0
  -31.1110  -20.1589   18.7775 C   0  0  0  0  0  0
  -30.2605  -21.3933   20.8216 C   0  0  0  0  0  0
  -28.5069  -20.4494   18.4116 C   0  0  0  0  0  0
  -30.6931  -19.9037   20.2550 C   0  0  1  0  0  0
  -28.7523  -21.8057   20.5027 C   0  0  2  0  0  0
  -29.4784  -18.8861   20.1671 C   0  0  1  0  0  0
  -28.1329  -23.6320   19.9933 C   0  0  0  0  0  0
  -29.4948  -17.0799   20.3958 N   0  0  0  0  0  0
  -28.4617  -20.2424   19.8887 N   0  3  2  0  0  0
  -31.4081  -13.4009   19.1792 H   0  0  0  0  0  0
  -30.5962  -12.2984   20.2340 H   0  0  0  0  0  0
  -30.0231  -11.8313   17.8283 H   0  0  0  0  0  0
  -29.5034  -13.4850   17.6109 H   0  0  0  0  0  0
  -28.1750  -11.3096   19.2379 H   0  0  0  0  0  0
  -27.4646  -12.2194   17.9251 H   0  0  0  0  0  0
  -27.4491  -14.2262   19.2343 H   0  0  0  0  0  0
  -28.8758  -12.8024   21.5300 H   0  0  0  0  0  0
  -28.1524  -14.3878   21.6266 H   0  0  0  0  0  0
  -25.2788   -9.5684   22.4766 H   0  0  0  0  0  0
  -24.0015   -7.4638   22.7473 H   0  0  0  0  0  0
  -21.0868   -8.8790   19.8952 H   0  0  0  0  0  0
  -22.3732  -10.9677   19.6165 H   0  0  0  0  0  0
  -21.2019   -7.6151   23.9724 H   0  0  0  0  0  0
  -21.1485   -6.0519   25.9081 H   0  0  0  0  0  0
  -22.0592   -2.7610   23.2843 H   0  0  0  0  0  0
  -22.4011  -11.9817   22.4887 H   0  0  0  0  0  0
  -21.0981  -13.1143   22.2679 H   0  0  0  0  0  0
  -24.6144  -15.8482   20.5317 H   0  0  0  0  0  0
  -26.2187  -15.6395   20.0442 H   0  0  0  0  0  0
  -26.7528  -32.4877   23.0729 H   0  0  0  0  0  0
  -25.0053  -33.9278   24.9995 H   0  0  0  0  0  0
  -22.8471  -31.2297   21.3054 H   0  0  0  0  0  0
  -23.3777  -35.9445   23.3259 H   0  0  0  0  0  0
  -24.3564  -36.8859   22.2079 H   0  0  0  0  0  0
  -23.7241  -37.6290   23.6774 H   0  0  0  0  0  0
  -26.3097  -31.2243   20.6283 H   0  0  0  0  0  0
  -26.9492  -30.5741   22.0880 H   0  0  0  0  0  0
  -28.1562  -28.3172   21.3507 H   0  0  0  0  0  0
  -25.8347  -25.5885   18.9867 H   0  0  0  0  0  0
  -24.0501  -27.2083   18.9083 H   0  0  0  0  0  0
  -23.9537  -30.4385   19.3733 H   0  0  0  0  0  0
  -22.8792  -29.1498   19.8138 H   0  0  0  0  0  0
  -25.1364  -36.1615   25.0765 H   0  0  0  0  0  0
  -21.0066  -28.3426   24.1263 H   0  0  0  0  0  0
  -20.5671  -26.2413   23.3680 H   0  0  0  0  0  0
  -21.6667  -26.7377   22.1231 H   0  0  0  0  0  0
  -19.6940  -25.6262   21.1303 H   0  0  0  0  0  0
  -19.6738  -27.3140   20.6724 H   0  0  0  0  0  0
  -17.4240  -26.6708   21.4016 H   0  0  0  0  0  0
  -18.0344  -26.0118   22.9029 H   0  0  0  0  0  0
  -19.7988  -30.7358   24.2153 H   0  0  0  0  0  0
  -17.5052  -31.6280   24.5170 H   0  0  0  0  0  0
  -15.5390  -30.2966   23.7728 H   0  0  0  0  0  0
  -15.8723  -28.0812   22.7121 H   0  0  0  0  0  0
  -24.5873  -30.7143   25.7576 H   0  0  0  0  0  0
  -24.8811  -32.3059   26.4466 H   0  0  0  0  0  0
  -25.7820  -30.9146   27.0201 H   0  0  0  0  0  0
  -26.3278  -29.6412   24.1615 H   0  0  0  0  0  0
  -27.3956  -29.7291   25.5378 H   0  0  0  0  0  0
  -27.9261  -30.3926   24.0162 H   0  0  0  0  0  0
  -27.2575  -33.3743   26.1835 H   0  0  0  0  0  0
  -28.3971  -32.6792   25.0407 H   0  0  0  0  0  0
  -28.0576  -31.8645   26.5596 H   0  0  0  0  0  0
  -28.2543  -38.0048   24.7511 H   0  0  0  0  0  0
  -28.1089  -36.2569   24.6294 H   0  0  0  0  0  0
  -27.2274  -37.1358   25.8866 H   0  0  0  0  0  0
  -20.9749  -29.8657   21.6481 H   0  0  0  0  0  0
  -26.0086  -38.2679   24.1429 H   0  0  0  0  0  0
  -30.0824  -20.6418   16.8967 H   0  0  0  0  0  0
  -30.0661  -21.9157   18.0607 H   0  0  0  0  0  0
  -32.0040  -20.7850   18.7395 H   0  0  0  0  0  0
  -31.4045  -19.2196   18.3048 H   0  0  0  0  0  0
  -30.3933  -21.4002   21.9043 H   0  0  0  0  0  0
  -30.9438  -22.1593   20.4531 H   0  0  0  0  0  0
  -28.1590  -19.5572   17.8882 H   0  0  0  0  0  0
  -27.8052  -21.2319   18.1223 H   0  0  0  0  0  0
  -31.5269  -19.4846   20.8186 H   0  0  0  0  0  0
  -28.2643  -21.7210   21.4743 H   0  0  0  0  0  0
  -29.5120  -18.5212   19.1436 H   0  0  0  0  0  0
  -28.4141  -23.6604   18.9410 H   0  0  0  0  0  0
  -27.0532  -23.4853   19.9602 H   0  0  0  0  0  0
  -28.5410  -16.8182   20.5957 H   0  0  0  0  0  0
  -27.5130  -19.9854   20.1211 H   0  0  0  0  0  0
  1 25  1  0  0  0
  1 30  2  0  0  0
  1 79  1  0  0  0
  2  3  1  0  0  0
  2 25  1  0  0  0
  2 81  1  0  0  0
  2 82  1  0  0  0
  3  4  1  0  0  0
  3 83  1  0  0  0
  3 84  1  0  0  0
  4  5  1  0  0  0
  4 85  1  0  0  0
  4 86  1  0  0  0
  5  6  1  0  0  0
  5 26  1  0  0  0
  5 87  1  0  0  0
  6 25  1  0  0  0
  6 88  1  0  0  0
  6 89  1  0  0  0
  7  8  2  0  0  0
  7 26  1  0  0  0
  7 29  1  0  0  0
  8  9  1  0  0  0
  8 22  1  0  0  0
  9 10  1  0  0  0
  9 27  2  0  0  0
 10 11  2  0  0  0
 10 15  1  0  0  0
 11 12  1  0  0  0
 11 90  1  0  0  0
 12 13  2  0  0  0
 12 91  1  0  0  0
 13 14  1  0  0  0
 13 31  1  0  0  0
 14 15  2  0  0  0
 14 92  1  0  0  0
 15 93  1  0  0  0
 16 17  2  0  0  0
 16 21  1  0  0  0
 16 31  1  0  0  0
 17 18  1  0  0  0
 17 94  1  0  0  0
 18 19  2  0  0  0
 18 95  1  0  0  0
 19 20  1  0  0  0
 19 24  1  0  0  0
 20 21  2  0  0  0
 20 96  1  0  0  0
 21 23  1  0  0  0
 22 28  1  0  0  0
 22 32  2  0  0  0
 26 27  1  0  0  0
 28 97  1  0  0  0
 28 98  1  0  0  0
 29 99  1  0  0  0
 29100  1  0  0  0
 33 34  1  0  0  0
 33 66  1  0  0  0
 33 70  2  0  0  0
 34 36  1  0  0  0
 34 59  1  0  0  0
 34101  1  0  0  0
 35 44  2  0  0  0
 35 45  1  0  0  0
 35 68  1  0  0  0
 36 56  1  0  0  0
 36102  1  0  0  0
 37 39  1  0  0  0
 37 47  1  0  0  0
 37 66  1  0  0  0
 37103  1  0  0  0
 38 43  2  0  0  0
 38 46  1  0  0  0
 38 47  1  0  0  0
 39 64  1  0  0  0
 39 67  2  0  0  0
 40 52  1  0  0  0
 40 53  2  0  0  0
 40 58  1  0  0  0
 41104  1  0  0  0
 41105  1  0  0  0
 41106  1  0  0  0
 41 48  1  0  0  0
 42 43  1  0  0  0
 42 66  1  0  0  0
 42107  1  0  0  0
 42108  1  0  0  0
 43 44  1  0  0  0
 44109  1  0  0  0
 45 46  2  0  0  0
 45110  1  0  0  0
 46111  1  0  0  0
 47112  1  0  0  0
 47113  1  0  0  0
 48 56  1  0  0  0
 48 65  1  0  0  0
 48114  1  0  0  0
 49 50  1  0  0  0
 49 53  1  0  0  0
 49 64  1  0  0  0
 49115  1  0  0  0
 50 51  1  0  0  0
 50116  1  0  0  0
 50117  1  0  0  0
 51 52  1  0  0  0
 51118  1  0  0  0
 51119  1  0  0  0
 52120  1  0  0  0
 52121  1  0  0  0
 53 54  1  0  0  0
 54 55  2  0  0  0
 54122  1  0  0  0
 55 57  1  0  0  0
 55123  1  0  0  0
 56 69  2  0  0  0
 57 58  2  0  0  0
 57124  1  0  0  0
 58125  1  0  0  0
 59 60  1  0  0  0
 59 61  1  0  0  0
 59 62  1  0  0  0
 60126  1  0  0  0
 60127  1  0  0  0
 60128  1  0  0  0
 61129  1  0  0  0
 61130  1  0  0  0
 61131  1  0  0  0
 62132  1  0  0  0
 62133  1  0  0  0
 62134  1  0  0  0
 63 65  1  0  0  0
 63135  1  0  0  0
 63136  1  0  0  0
 63137  1  0  0  0
 64138  1  0  0  0
 65139  1  0  0  0
 68 78  1  0  0  0
 71 72  1  0  0  0
 71 74  1  0  0  0
 71140  1  0  0  0
 71141  1  0  0  0
 72142  1  0  0  0
 72143  1  0  0  0
 72 75  1  0  0  0
 73 75  1  0  0  0
 73 76  1  0  0  0
 73144  1  0  0  0
 73145  1  0  0  0
 74146  1  0  0  0
 74147  1  0  0  0
 74 80  1  0  0  0
 75 77  1  0  0  0
 75148  1  0  0  0
 76 78  1  0  0  0
 76 80  1  0  0  0
 76149  1  0  0  0
 77 79  1  0  0  0
 77 80  1  0  0  0
 77150  1  0  0  0
 78151  1  0  0  0
 78152  1  0  0  0
 79153  1  0  0  0
 80154  1  0  0  0
M  CHG  1  80   1
M  ISO  4   1 100  68 101  78 101  79 100
M  END
> <chiral flag>
0

> <version>
0

> <s_m_source_file>
/data/baiqing/PycharmProjects/Reinvent-master-3.2/result/LINK_invent/BTK/process_docking_weight1_custom_product_contain_oxygen_bond_distance_aromatic_linkinvent_7_9_3/rearranged_h_0152.sdf

> <i_m_source_file_index>
55

> <r_mmod_Potential_Energy-OPLS-2005>
2827.32275390625

> <r_mmod_Stretch_Energy-OPLS-2005>
1200.65356445312

> <r_mmod_Bend_Energy-OPLS-2005>
853.691467285156

> <r_mmod_Torsional_Energy-OPLS-2005>
314.167633056641

> <r_mmod_Improper_Torsional_Energy-OPLS-2005>
3.8269419670105

> <r_mmod_Van_der_Waal_Energy-OPLS-2005>
135.701293945312

> <r_mmod_Electrostatic_Energy-OPLS-2005>
-245.613555908203

> <r_mmod_Solvation_Energy-OPLS-2005>
-459.852478027344

> <b_mmod_Minimization_Converged-OPLS-2005>
0

> <r_mmod_RMS_Derivative-OPLS-2005>
0.70709353685379

$$$$
55
                    3D
 Structure written by MMmdl.
147155  0  0  1  0            999 V2000
  -30.6158  -14.7523   20.4643 C   0  0  0  0  0  0
  -30.4352  -12.4589   19.4890 C   0  0  0  0  0  0
  -29.5215  -12.5305   18.2446 C   0  0  0  0  0  0
  -28.0419  -12.3606   18.6423 C   0  0  0  0  0  0
  -27.6480  -13.2387   19.8615 C   0  0  2  0  0  0
  -28.6893  -13.1500   20.9967 C   0  0  0  0  0  0
  -25.2538  -13.8211   20.5729 C   0  0  0  0  0  0
  -24.1825  -13.0442   20.9197 C   0  0  0  0  0  0
  -24.6431  -11.6921   20.8740 C   0  0  0  0  0  0
  -23.9114  -10.4297   21.0401 C   0  0  0  0  0  0
  -24.3665   -9.4205   21.9172 C   0  0  0  0  0  0
  -23.6327   -8.2246   22.0751 C   0  0  0  0  0  0
  -22.4302   -8.0290   21.3544 C   0  0  0  0  0  0
  -21.9940   -9.0265   20.4644 C   0  0  0  0  0  0
  -22.7282  -10.2141   20.3049 C   0  0  0  0  0  0
  -21.6861   -6.0760   22.5279 C   0  0  0  0  0  0
  -21.4017   -6.5662   23.8217 C   0  0  0  0  0  0
  -21.3661   -5.6806   24.9177 C   0  0  0  0  0  0
  -21.6046   -4.3067   24.7210 C   0  0  0  0  0  0
  -21.8819   -3.8168   23.4332 C   0  0  0  0  0  0
  -21.9193   -4.6990   22.3399 C   0  0  0  0  0  0
  -22.7846  -13.5221   21.1846 C   0  0  0  0  0  0
  -22.1659   -4.2188   21.0968 F   0  0  0  0  0  0
  -21.5630   -3.4544   25.7722 F   0  0  0  0  0  0
  -29.9946  -13.5175   20.4319 N   0  0  0  0  0  0
  -26.2982  -12.9440   20.3325 N   0  0  0  0  0  0
  -25.9370  -11.6572   20.5747 N   0  0  0  0  0  0
  -22.0498  -12.8220   22.0416 N   0  0  0  0  0  0
  -25.4230  -15.1931   20.4172 N   0  0  0  0  0  0
  -31.7847  -14.8273   20.0751 O   0  0  0  0  0  0
  -21.6651   -6.8894   21.4235 O   0  0  0  0  0  0
  -22.3524  -14.5520   20.6677 O   0  0  0  0  0  0
  -24.6336  -31.8548   23.2014 C   0  0  0  0  0  0
  -25.9165  -32.4749   23.8341 C   0  0  1  0  0  0
  -27.2100  -27.2374   20.1200 C   0  0  0  0  0  0
  -25.5977  -33.8554   24.2257 N   0  0  0  0  0  0
  -23.4300  -30.4808   21.5443 C   0  0  2  0  0  0
  -24.8759  -28.9320   20.1053 C   0  0  0  0  0  0
  -22.7501  -29.4612   22.4904 C   0  0  0  0  0  0
  -18.0295  -28.1403   22.8469 C   0  0  0  0  0  0
  -24.1495  -36.7270   23.2642 C   0  0  0  0  0  0
  -25.9803  -30.7536   21.3939 C   0  0  0  0  0  0
  -26.0464  -29.3776   20.7300 C   0  0  0  0  0  0
  -27.2101  -28.5392   20.7347 C   0  0  0  0  0  0
  -26.0186  -26.8843   19.4408 C   0  0  0  0  0  0
  -24.8700  -27.6958   19.4489 C   0  0  0  0  0  0
  -23.6490  -29.8214   20.1582 C   0  0  0  0  0  0
  -25.4130  -36.3065   24.0319 C   0  0  1  0  0  0
  -20.5899  -28.3723   23.1274 C   0  0  2  0  0  0
  -20.6789  -26.9430   22.5452 C   0  0  0  0  0  0
  -19.5803  -26.6386   21.5220 C   0  0  0  0  0  0
  -18.1950  -26.7961   22.1566 C   0  0  0  0  0  0
  -19.1542  -28.8879   23.2872 C   0  0  0  0  0  0
  -18.9458  -30.1464   23.8923 C   0  0  0  0  0  0
  -17.6458  -30.6598   24.0572 C   0  0  0  0  0  0
  -25.9070  -34.9433   23.5079 C   0  0  0  0  0  0
  -16.5353  -29.9093   23.6337 C   0  0  0  0  0  0
  -16.7277  -28.6504   23.0367 C   0  0  0  0  0  0
  -26.4519  -31.6591   25.0747 C   0  0  0  0  0  0
  -25.3715  -31.3789   26.1452 C   0  0  0  0  0  0
  -27.0350  -30.2982   24.6294 C   0  0  0  0  0  0
  -27.6095  -32.4323   25.7499 C   0  0  0  0  0  0
  -27.5591  -37.1789   24.8447 C   0  0  0  0  0  0
  -21.4210  -29.3048   22.3638 N   0  0  0  0  0  0
  -26.4304  -37.3762   23.9400 N   0  0  0  0  0  0
  -24.6996  -31.0491   22.1012 N   0  0  0  0  0  0
  -23.4180  -28.8161   23.3023 O   0  0  0  0  0  0
  -28.2992  -26.3284   20.2160 O   0  0  0  0  0  0
  -26.5620  -34.8909   22.4636 O   0  0  0  0  0  0
  -23.5482  -32.1391   23.7294 O   0  0  0  0  0  0
  -29.6371  -19.8650   19.9591 C   0  0  0  0  0  0
  -28.6315  -20.7237   21.8804 C   0  0  0  0  0  0
  -29.0841  -21.0582   20.6282 C   0  0  0  0  0  0
  -29.6058  -18.6630   20.6982 C   0  0  0  0  0  0
  -30.1142  -17.2822   20.3957 C   0  0  0  0  0  0
  -29.8395  -15.9947   20.8546 C   0  0  0  0  0  0
  -28.7111  -23.6776   20.6016 C   0  0  0  0  0  0
  -28.2316  -24.9082   19.6865 C   0  0  0  0  0  0
  -28.9301  -22.4200   20.0396 N   0  0  0  0  0  0
  -28.8673  -23.8748   21.8101 O   0  0  0  0  0  0
  -28.8169  -19.0006   22.2265 S   0  0  0  0  0  0
  -31.4797  -12.5704   19.1950 H   0  0  0  0  0  0
  -30.3686  -11.4772   19.9606 H   0  0  0  0  0  0
  -29.8099  -11.7687   17.5196 H   0  0  0  0  0  0
  -29.6567  -13.4920   17.7462 H   0  0  0  0  0  0
  -27.8816  -11.3065   18.8729 H   0  0  0  0  0  0
  -27.3959  -12.5869   17.7931 H   0  0  0  0  0  0
  -27.6503  -14.2699   19.5075 H   0  0  0  0  0  0
  -28.7258  -12.1396   21.4071 H   0  0  0  0  0  0
  -28.4174  -13.7963   21.8305 H   0  0  0  0  0  0
  -25.2816   -9.5683   22.4737 H   0  0  0  0  0  0
  -24.0050   -7.4640   22.7464 H   0  0  0  0  0  0
  -21.0878   -8.8776   19.8949 H   0  0  0  0  0  0
  -22.3733  -10.9679   19.6161 H   0  0  0  0  0  0
  -21.2004   -7.6171   23.9743 H   0  0  0  0  0  0
  -21.1486   -6.0528   25.9087 H   0  0  0  0  0  0
  -22.0595   -2.7632   23.2822 H   0  0  0  0  0  0
  -22.4136  -11.9913   22.4843 H   0  0  0  0  0  0
  -21.1096  -13.1213   22.2580 H   0  0  0  0  0  0
  -24.6597  -15.8498   20.5413 H   0  0  0  0  0  0
  -26.2842  -15.6362   20.1210 H   0  0  0  0  0  0
  -26.7227  -32.5375   23.1069 H   0  0  0  0  0  0
  -25.0187  -33.9695   25.0448 H   0  0  0  0  0  0
  -22.7280  -31.3053   21.4006 H   0  0  0  0  0  0
  -23.3766  -35.9589   23.3290 H   0  0  0  0  0  0
  -24.3594  -36.8912   22.2059 H   0  0  0  0  0  0
  -23.7221  -37.6453   23.6684 H   0  0  0  0  0  0
  -26.1343  -31.5160   20.6296 H   0  0  0  0  0  0
  -26.8519  -30.7938   22.0353 H   0  0  0  0  0  0
  -28.0994  -28.8676   21.2540 H   0  0  0  0  0  0
  -25.9116  -25.9673   18.8888 H   0  0  0  0  0  0
  -23.9803  -27.3598   18.9349 H   0  0  0  0  0  0
  -23.7737  -30.6001   19.4045 H   0  0  0  0  0  0
  -22.7657  -29.2572   19.8534 H   0  0  0  0  0  0
  -25.1318  -36.1913   25.0810 H   0  0  0  0  0  0
  -20.9981  -28.3328   24.1401 H   0  0  0  0  0  0
  -20.5660  -26.2339   23.3668 H   0  0  0  0  0  0
  -21.6670  -26.7462   22.1282 H   0  0  0  0  0  0
  -19.6986  -25.6284   21.1286 H   0  0  0  0  0  0
  -19.6798  -27.3166   20.6732 H   0  0  0  0  0  0
  -17.4264  -26.6765   21.3912 H   0  0  0  0  0  0
  -18.0295  -26.0080   22.8921 H   0  0  0  0  0  0
  -19.7932  -30.7266   24.2321 H   0  0  0  0  0  0
  -17.5013  -31.6286   24.5156 H   0  0  0  0  0  0
  -15.5354  -30.3000   23.7673 H   0  0  0  0  0  0
  -15.8666  -28.0821   22.7109 H   0  0  0  0  0  0
  -24.6016  -30.6964   25.7833 H   0  0  0  0  0  0
  -24.8749  -32.2953   26.4650 H   0  0  0  0  0  0
  -25.8034  -30.9202   27.0356 H   0  0  0  0  0  0
  -26.2940  -29.6730   24.1300 H   0  0  0  0  0  0
  -27.3954  -29.7271   25.4858 H   0  0  0  0  0  0
  -27.8866  -30.4203   23.9600 H   0  0  0  0  0  0
  -27.2740  -33.3642   26.2058 H   0  0  0  0  0  0
  -28.3912  -32.6838   25.0318 H   0  0  0  0  0  0
  -28.0761  -31.8452   26.5418 H   0  0  0  0  0  0
  -28.2618  -38.0076   24.7485 H   0  0  0  0  0  0
  -28.1079  -36.2610   24.6272 H   0  0  0  0  0  0
  -27.2332  -37.1443   25.8858 H   0  0  0  0  0  0
  -20.9403  -29.8718   21.6797 H   0  0  0  0  0  0
  -26.0179  -38.2837   24.1412 H   0  0  0  0  0  0
  -30.0490  -19.9298   18.9621 H   0  0  0  0  0  0
  -28.1680  -21.3688   22.6165 H   0  0  0  0  0  0
  -30.9212  -17.3160   19.6760 H   0  0  0  0  0  0
  -29.0310  -15.8864   21.5603 H   0  0  0  0  0  0
  -27.2239  -24.6013   19.4373 H   0  0  0  0  0  0
  -28.7873  -24.8755   18.7488 H   0  0  0  0  0  0
  -28.9183  -22.4359   19.0288 H   0  0  0  0  0  0
  1 25  1  0  0  0
  1 30  2  0  0  0
  1 76  1  0  0  0
  2  3  1  0  0  0
  2 25  1  0  0  0
  2 82  1  0  0  0
  2 83  1  0  0  0
  3  4  1  0  0  0
  3 84  1  0  0  0
  3 85  1  0  0  0
  4  5  1  0  0  0
  4 86  1  0  0  0
  4 87  1  0  0  0
  5  6  1  0  0  0
  5 26  1  0  0  0
  5 88  1  0  0  0
  6 25  1  0  0  0
  6 89  1  0  0  0
  6 90  1  0  0  0
  7  8  2  0  0  0
  7 26  1  0  0  0
  7 29  1  0  0  0
  8  9  1  0  0  0
  8 22  1  0  0  0
  9 10  1  0  0  0
  9 27  2  0  0  0
 10 11  2  0  0  0
 10 15  1  0  0  0
 11 12  1  0  0  0
 11 91  1  0  0  0
 12 13  2  0  0  0
 12 92  1  0  0  0
 13 14  1  0  0  0
 13 31  1  0  0  0
 14 15  2  0  0  0
 14 93  1  0  0  0
 15 94  1  0  0  0
 16 17  2  0  0  0
 16 21  1  0  0  0
 16 31  1  0  0  0
 17 18  1  0  0  0
 17 95  1  0  0  0
 18 19  2  0  0  0
 18 96  1  0  0  0
 19 20  1  0  0  0
 19 24  1  0  0  0
 20 21  2  0  0  0
 20 97  1  0  0  0
 21 23  1  0  0  0
 22 28  1  0  0  0
 22 32  2  0  0  0
 26 27  1  0  0  0
 28 98  1  0  0  0
 28 99  1  0  0  0
 29100  1  0  0  0
 29101  1  0  0  0
 33 34  1  0  0  0
 33 66  1  0  0  0
 33 70  2  0  0  0
 34 36  1  0  0  0
 34 59  1  0  0  0
 34102  1  0  0  0
 35 44  2  0  0  0
 35 45  1  0  0  0
 35 68  1  0  0  0
 36 56  1  0  0  0
 36103  1  0  0  0
 37 39  1  0  0  0
 37 47  1  0  0  0
 37 66  1  0  0  0
 37104  1  0  0  0
 38 43  2  0  0  0
 38 46  1  0  0  0
 38 47  1  0  0  0
 39 64  1  0  0  0
 39 67  2  0  0  0
 40 52  1  0  0  0
 40 53  2  0  0  0
 40 58  1  0  0  0
 41105  1  0  0  0
 41106  1  0  0  0
 41107  1  0  0  0
 41 48  1  0  0  0
 42 43  1  0  0  0
 42 66  1  0  0  0
 42108  1  0  0  0
 42109  1  0  0  0
 43 44  1  0  0  0
 44110  1  0  0  0
 45 46  2  0  0  0
 45111  1  0  0  0
 46112  1  0  0  0
 47113  1  0  0  0
 47114  1  0  0  0
 48 56  1  0  0  0
 48 65  1  0  0  0
 48115  1  0  0  0
 49 50  1  0  0  0
 49 53  1  0  0  0
 49 64  1  0  0  0
 49116  1  0  0  0
 50 51  1  0  0  0
 50117  1  0  0  0
 50118  1  0  0  0
 51 52  1  0  0  0
 51119  1  0  0  0
 51120  1  0  0  0
 52121  1  0  0  0
 52122  1  0  0  0
 53 54  1  0  0  0
 54 55  2  0  0  0
 54123  1  0  0  0
 55 57  1  0  0  0
 55124  1  0  0  0
 56 69  2  0  0  0
 57 58  2  0  0  0
 57125  1  0  0  0
 58126  1  0  0  0
 59 60  1  0  0  0
 59 61  1  0  0  0
 59 62  1  0  0  0
 60127  1  0  0  0
 60128  1  0  0  0
 60129  1  0  0  0
 61130  1  0  0  0
 61131  1  0  0  0
 61132  1  0  0  0
 62133  1  0  0  0
 62134  1  0  0  0
 62135  1  0  0  0
 63 65  1  0  0  0
 63136  1  0  0  0
 63137  1  0  0  0
 63138  1  0  0  0
 64139  1  0  0  0
 65140  1  0  0  0
 68 78  1  0  0  0
 71 73  1  0  0  0
 71 74  2  0  0  0
 71141  1  0  0  0
 72 73  2  0  0  0
 72 81  1  0  0  0
 72142  1  0  0  0
 73 79  1  0  0  0
 74 75  1  0  0  0
 74 81  1  0  0  0
 75 76  2  0  0  0
 75143  1  0  0  0
 76144  1  0  0  0
 77 78  1  0  0  0
 77 79  1  0  0  0
 77 80  2  0  0  0
 78145  1  0  0  0
 78146  1  0  0  0
 79147  1  0  0  0
M  ISO  4   1 100  68 101  76 100  78 101
M  END
> <chiral flag>
0

> <version>
0

> <s_m_source_file>
/data/baiqing/PycharmProjects/Reinvent-master-3.2/result/LINK_invent/BTK/process_docking_weight1_custom_product_contain_oxygen_bond_distance_aromatic_linkinvent_7_9_3/rearranged_h_0152.sdf

> <i_m_source_file_index>
56

> <r_mmod_Potential_Energy-OPLS-2005>
155.319900512695

> <r_mmod_Stretch_Energy-OPLS-2005>
124.544731140137

> <r_mmod_Bend_Energy-OPLS-2005>
171.764312744141

> <r_mmod_Torsional_Energy-OPLS-2005>
197.998382568359

> <r_mmod_Improper_Torsional_Energy-OPLS-2005>
3.24935054779053

> <r_mmod_Van_der_Waal_Energy-OPLS-2005>
125.115997314453

> <r_mmod_Electrostatic_Energy-OPLS-2005>
-324.437316894531

> <r_mmod_Solvation_Energy-OPLS-2005>
-235.326278686523

> <b_mmod_Minimization_Converged-OPLS-2005>
0

> <r_mmod_RMS_Derivative-OPLS-2005>
1.83354079723358

$$$$
56
                    3D
 Structure written by MMmdl.
151160  0  0  1  0            999 V2000
  -30.5548  -14.9715   20.4328 C   0  0  0  0  0  0
  -30.4345  -12.6085   19.4975 C   0  0  0  0  0  0
  -29.5183  -12.5372   18.2550 C   0  0  0  0  0  0
  -28.0538  -12.3188   18.6763 C   0  0  0  0  0  0
  -27.6271  -13.2554   19.8370 C   0  0  2  0  0  0
  -28.6692  -13.3012   20.9735 C   0  0  0  0  0  0
  -25.2454  -13.8234   20.5733 C   0  0  0  0  0  0
  -24.1770  -13.0444   20.9221 C   0  0  0  0  0  0
  -24.6395  -11.6933   20.8743 C   0  0  0  0  0  0
  -23.9082  -10.4298   21.0399 C   0  0  0  0  0  0
  -24.3629   -9.4213   21.9178 C   0  0  0  0  0  0
  -23.6301   -8.2248   22.0752 C   0  0  0  0  0  0
  -22.4281   -8.0284   21.3544 C   0  0  0  0  0  0
  -21.9920   -9.0259   20.4646 C   0  0  0  0  0  0
  -22.7252  -10.2136   20.3053 C   0  0  0  0  0  0
  -21.6857   -6.0737   22.5278 C   0  0  0  0  0  0
  -21.4019   -6.5640   23.8212 C   0  0  0  0  0  0
  -21.3660   -5.6792   24.9173 C   0  0  0  0  0  0
  -21.6044   -4.3055   24.7224 C   0  0  0  0  0  0
  -21.8818   -3.8148   23.4344 C   0  0  0  0  0  0
  -21.9195   -4.6965   22.3401 C   0  0  0  0  0  0
  -22.7790  -13.5209   21.1880 C   0  0  0  0  0  0
  -22.1662   -4.2150   21.0979 F   0  0  0  0  0  0
  -21.5628   -3.4538   25.7736 F   0  0  0  0  0  0
  -29.9411  -13.7169   20.3691 N   0  0  0  0  0  0
  -26.2880  -12.9479   20.3258 N   0  0  0  0  0  0
  -25.9332  -11.6597   20.5735 N   0  0  0  0  0  0
  -22.0446  -12.8194   22.0437 N   0  0  0  0  0  0
  -25.4133  -15.1967   20.4207 N   0  0  0  0  0  0
  -31.7543  -15.0072   20.1322 O   0  0  0  0  0  0
  -21.6644   -6.8881   21.4240 O   0  0  0  0  0  0
  -22.3467  -14.5512   20.6727 O   0  0  0  0  0  0
  -24.6467  -31.8414   23.1868 C   0  0  0  0  0  0
  -25.9227  -32.4680   23.8265 C   0  0  1  0  0  0
  -27.2116  -27.1029   20.1511 C   0  0  0  0  0  0
  -25.5962  -33.8489   24.2177 N   0  0  0  0  0  0
  -23.4518  -30.4613   21.5328 C   0  0  2  0  0  0
  -24.9018  -28.8864   20.1073 C   0  0  0  0  0  0
  -22.7586  -29.4533   22.4844 C   0  0  0  0  0  0
  -18.0308  -28.1396   22.8475 C   0  0  0  0  0  0
  -24.1494  -36.7249   23.2643 C   0  0  0  0  0  0
  -26.0110  -30.7031   21.3932 C   0  0  0  0  0  0
  -26.0801  -29.3121   20.7334 C   0  0  0  0  0  0
  -27.2345  -28.4356   20.7413 C   0  0  0  0  0  0
  -26.0109  -26.7974   19.4704 C   0  0  0  0  0  0
  -24.8823  -27.6439   19.4596 C   0  0  0  0  0  0
  -23.6805  -29.7924   20.1516 C   0  0  0  0  0  0
  -25.4127  -36.3024   24.0312 C   0  0  1  0  0  0
  -20.5924  -28.3728   23.1224 C   0  0  2  0  0  0
  -20.6791  -26.9428   22.5401 C   0  0  0  0  0  0
  -19.5764  -26.6380   21.5210 C   0  0  0  0  0  0
  -18.1947  -26.7933   22.1623 C   0  0  0  0  0  0
  -19.1566  -28.8880   23.2841 C   0  0  0  0  0  0
  -18.9481  -30.1474   23.8871 C   0  0  0  0  0  0
  -17.6477  -30.6592   24.0558 C   0  0  0  0  0  0
  -25.9080  -34.9399   23.5055 C   0  0  0  0  0  0
  -16.5368  -29.9084   23.6336 C   0  0  0  0  0  0
  -16.7293  -28.6501   23.0358 C   0  0  0  0  0  0
  -26.4534  -31.6560   25.0721 C   0  0  0  0  0  0
  -25.3706  -31.3761   26.1407 C   0  0  0  0  0  0
  -27.0405  -30.2949   24.6335 C   0  0  0  0  0  0
  -27.6057  -32.4333   25.7510 C   0  0  0  0  0  0
  -27.5574  -37.1787   24.8468 C   0  0  0  0  0  0
  -21.4273  -29.3050   22.3593 N   0  0  0  0  0  0
  -26.4289  -37.3738   23.9403 N   0  0  0  0  0  0
  -24.7232  -31.0239   22.0923 N   0  0  0  0  0  0
  -23.4214  -28.8081   23.3005 O   0  0  0  0  0  0
  -28.2347  -26.0764   20.2431 O   0  0  0  0  0  0
  -26.5669  -34.8901   22.4635 O   0  0  0  0  0  0
  -23.5577  -32.1309   23.7063 O   0  0  0  0  0  0
  -29.6052  -19.7754   21.2387 C   0  0  0  0  0  0
  -28.6964  -19.5106   19.0044 C   0  0  0  0  0  0
  -29.8230  -18.3316   21.1930 C   0  0  0  0  0  0
  -29.4996  -17.4441   20.1067 C   0  0  0  0  0  0
  -28.9939  -20.4454   20.0906 C   0  0  0  0  0  0
  -28.9225  -18.0633   18.9754 C   0  0  0  0  0  0
  -28.7907  -23.2340   20.4207 C   0  0  0  0  0  0
  -30.2811  -17.0766   21.9656 C   0  0  0  0  0  0
  -27.9125  -24.5707   19.9232 C   0  0  0  0  0  0
  -29.8583  -16.1652   20.8022 N   0  0  0  0  0  0
  -28.5463  -17.2864   17.8820 N   0  0  0  0  0  0
  -28.5383  -21.9202   19.9218 N   0  0  0  0  0  0
  -29.6777  -23.4057   21.2608 O   0  0  0  0  0  0
  -31.4686  -12.7599   19.1842 H   0  0  0  0  0  0
  -30.4268  -11.6614   20.0394 H   0  0  0  0  0  0
  -29.8414  -11.7352   17.5898 H   0  0  0  0  0  0
  -29.6022  -13.4633   17.6838 H   0  0  0  0  0  0
  -27.9547  -11.2786   18.9887 H   0  0  0  0  0  0
  -27.3890  -12.4448   17.8211 H   0  0  0  0  0  0
  -27.5853  -14.2556   19.4043 H   0  0  0  0  0  0
  -28.7620  -12.3325   21.4664 H   0  0  0  0  0  0
  -28.3630  -14.0136   21.7413 H   0  0  0  0  0  0
  -25.2770   -9.5692   22.4756 H   0  0  0  0  0  0
  -24.0010   -7.4640   22.7472 H   0  0  0  0  0  0
  -21.0850   -8.8781   19.8953 H   0  0  0  0  0  0
  -22.3707  -10.9675   19.6166 H   0  0  0  0  0  0
  -21.2013   -7.6148   23.9716 H   0  0  0  0  0  0
  -21.1483   -6.0521   25.9076 H   0  0  0  0  0  0
  -22.0597   -2.7610   23.2843 H   0  0  0  0  0  0
  -22.4075  -11.9865   22.4836 H   0  0  0  0  0  0
  -21.1060  -13.1210   22.2640 H   0  0  0  0  0  0
  -24.6496  -15.8521   20.5445 H   0  0  0  0  0  0
  -26.2738  -15.6422   20.1274 H   0  0  0  0  0  0
  -26.7290  -32.5275   23.0988 H   0  0  0  0  0  0
  -25.0085  -33.9598   25.0309 H   0  0  0  0  0  0
  -22.7559  -31.2885   21.3778 H   0  0  0  0  0  0
  -23.3757  -35.9580   23.3301 H   0  0  0  0  0  0
  -24.3575  -36.8888   22.2058 H   0  0  0  0  0  0
  -23.7250  -37.6444   23.6685 H   0  0  0  0  0  0
  -26.1734  -31.4565   20.6213 H   0  0  0  0  0  0
  -26.8787  -30.7519   22.0394 H   0  0  0  0  0  0
  -28.1269  -28.7524   21.2628 H   0  0  0  0  0  0
  -25.9009  -25.8549   18.9566 H   0  0  0  0  0  0
  -23.9859  -27.3165   18.9508 H   0  0  0  0  0  0
  -23.8210  -30.5682   19.3980 H   0  0  0  0  0  0
  -22.7941  -29.2379   19.8383 H   0  0  0  0  0  0
  -25.1319  -36.1848   25.0804 H   0  0  0  0  0  0
  -21.0014  -28.3321   24.1346 H   0  0  0  0  0  0
  -20.5681  -26.2345   23.3625 H   0  0  0  0  0  0
  -21.6657  -26.7429   22.1203 H   0  0  0  0  0  0
  -19.6928  -25.6283   21.1260 H   0  0  0  0  0  0
  -19.6698  -27.3172   20.6724 H   0  0  0  0  0  0
  -17.4215  -26.6673   21.4029 H   0  0  0  0  0  0
  -18.0351  -26.0082   22.9028 H   0  0  0  0  0  0
  -19.7956  -30.7296   24.2231 H   0  0  0  0  0  0
  -17.5031  -31.6269   24.5162 H   0  0  0  0  0  0
  -15.5367  -30.2977   23.7674 H   0  0  0  0  0  0
  -15.8693  -28.0810   22.7090 H   0  0  0  0  0  0
  -24.5893  -30.7103   25.7725 H   0  0  0  0  0  0
  -24.8888  -32.2947   26.4765 H   0  0  0  0  0  0
  -25.7978  -30.8977   27.0230 H   0  0  0  0  0  0
  -26.3034  -29.6662   24.1327 H   0  0  0  0  0  0
  -27.3983  -29.7261   25.4928 H   0  0  0  0  0  0
  -27.8958  -30.4170   23.9686 H   0  0  0  0  0  0
  -27.2646  -33.3654   26.2026 H   0  0  0  0  0  0
  -28.3901  -32.6860   25.0363 H   0  0  0  0  0  0
  -28.0690  -31.8501   26.5478 H   0  0  0  0  0  0
  -28.2594  -38.0080   24.7496 H   0  0  0  0  0  0
  -28.1066  -36.2607   24.6319 H   0  0  0  0  0  0
  -27.2288  -37.1463   25.8872 H   0  0  0  0  0  0
  -20.9491  -29.8764   21.6769 H   0  0  0  0  0  0
  -26.0154  -38.2809   24.1390 H   0  0  0  0  0  0
  -29.8512  -20.3356   22.1299 H   0  0  0  0  0  0
  -28.2318  -19.9368   18.1269 H   0  0  0  0  0  0
  -29.7111  -16.9199   22.8820 H   0  0  0  0  0  0
  -31.3537  -17.0827   22.1664 H   0  0  0  0  0  0
  -26.9122  -24.3747   20.3100 H   0  0  0  0  0  0
  -27.8314  -24.4928   18.8388 H   0  0  0  0  0  0
  -27.8889  -17.6658   17.2083 H   0  0  0  0  0  0
  -28.4714  -16.2817   17.9936 H   0  0  0  0  0  0
  -27.8405  -21.9977   19.1938 H   0  0  0  0  0  0
  1 25  1  0  0  0
  1 30  2  0  0  0
  1 80  1  0  0  0
  2  3  1  0  0  0
  2 25  1  0  0  0
  2 84  1  0  0  0
  2 85  1  0  0  0
  3  4  1  0  0  0
  3 86  1  0  0  0
  3 87  1  0  0  0
  4  5  1  0  0  0
  4 88  1  0  0  0
  4 89  1  0  0  0
  5  6  1  0  0  0
  5 26  1  0  0  0
  5 90  1  0  0  0
  6 25  1  0  0  0
  6 91  1  0  0  0
  6 92  1  0  0  0
  7  8  2  0  0  0
  7 26  1  0  0  0
  7 29  1  0  0  0
  8  9  1  0  0  0
  8 22  1  0  0  0
  9 10  1  0  0  0
  9 27  2  0  0  0
 10 11  2  0  0  0
 10 15  1  0  0  0
 11 12  1  0  0  0
 11 93  1  0  0  0
 12 13  2  0  0  0
 12 94  1  0  0  0
 13 14  1  0  0  0
 13 31  1  0  0  0
 14 15  2  0  0  0
 14 95  1  0  0  0
 15 96  1  0  0  0
 16 17  2  0  0  0
 16 21  1  0  0  0
 16 31  1  0  0  0
 17 18  1  0  0  0
 17 97  1  0  0  0
 18 19  2  0  0  0
 18 98  1  0  0  0
 19 20  1  0  0  0
 19 24  1  0  0  0
 20 21  2  0  0  0
 20 99  1  0  0  0
 21 23  1  0  0  0
 22 28  1  0  0  0
 22 32  2  0  0  0
 26 27  1  0  0  0
 28100  1  0  0  0
 28101  1  0  0  0
 29102  1  0  0  0
 29103  1  0  0  0
 33 34  1  0  0  0
 33 66  1  0  0  0
 33 70  2  0  0  0
 34 36  1  0  0  0
 34 59  1  0  0  0
 34104  1  0  0  0
 35 44  2  0  0  0
 35 45  1  0  0  0
 35 68  1  0  0  0
 36 56  1  0  0  0
 36105  1  0  0  0
 37 39  1  0  0  0
 37 47  1  0  0  0
 37 66  1  0  0  0
 37106  1  0  0  0
 38 43  2  0  0  0
 38 46  1  0  0  0
 38 47  1  0  0  0
 39 64  1  0  0  0
 39 67  2  0  0  0
 40 52  1  0  0  0
 40 53  2  0  0  0
 40 58  1  0  0  0
 41107  1  0  0  0
 41108  1  0  0  0
 41109  1  0  0  0
 41 48  1  0  0  0
 42 43  1  0  0  0
 42 66  1  0  0  0
 42110  1  0  0  0
 42111  1  0  0  0
 43 44  1  0  0  0
 44112  1  0  0  0
 45 46  2  0  0  0
 45113  1  0  0  0
 46114  1  0  0  0
 47115  1  0  0  0
 47116  1  0  0  0
 48 56  1  0  0  0
 48 65  1  0  0  0
 48117  1  0  0  0
 49 50  1  0  0  0
 49 53  1  0  0  0
 49 64  1  0  0  0
 49118  1  0  0  0
 50 51  1  0  0  0
 50119  1  0  0  0
 50120  1  0  0  0
 51 52  1  0  0  0
 51121  1  0  0  0
 51122  1  0  0  0
 52123  1  0  0  0
 52124  1  0  0  0
 53 54  1  0  0  0
 54 55  2  0  0  0
 54125  1  0  0  0
 55 57  1  0  0  0
 55126  1  0  0  0
 56 69  2  0  0  0
 57 58  2  0  0  0
 57127  1  0  0  0
 58128  1  0  0  0
 59 60  1  0  0  0
 59 61  1  0  0  0
 59 62  1  0  0  0
 60129  1  0  0  0
 60130  1  0  0  0
 60131  1  0  0  0
 61132  1  0  0  0
 61133  1  0  0  0
 61134  1  0  0  0
 62135  1  0  0  0
 62136  1  0  0  0
 62137  1  0  0  0
 63 65  1  0  0  0
 63138  1  0  0  0
 63139  1  0  0  0
 63140  1  0  0  0
 64141  1  0  0  0
 65142  1  0  0  0
 68 79  1  0  0  0
 71 73  2  0  0  0
 71 75  1  0  0  0
 71143  1  0  0  0
 72 75  2  0  0  0
 72 76  1  0  0  0
 72144  1  0  0  0
 73 74  1  0  0  0
 73 78  1  0  0  0
 74 76  2  0  0  0
 74 80  1  0  0  0
 75 82  1  0  0  0
 76 81  1  0  0  0
 77 79  1  0  0  0
 77 82  1  0  0  0
 77 83  2  0  0  0
 78 80  1  0  0  0
 78145  1  0  0  0
 78146  1  0  0  0
 79147  1  0  0  0
 79148  1  0  0  0
 81149  1  0  0  0
 81150  1  0  0  0
 82151  1  0  0  0
M  ISO  4   1 100  68 101  79 101  80 100
M  END
> <chiral flag>
0

> <version>
0

> <s_m_source_file>
/data/baiqing/PycharmProjects/Reinvent-master-3.2/result/LINK_invent/BTK/process_docking_weight1_custom_product_contain_oxygen_bond_distance_aromatic_linkinvent_7_9_3/rearranged_h_0152.sdf

> <i_m_source_file_index>
57

> <r_mmod_Potential_Energy-OPLS-2005>
953.964599609375

> <r_mmod_Stretch_Energy-OPLS-2005>
267.072052001953

> <r_mmod_Bend_Energy-OPLS-2005>
691.963806152344

> <r_mmod_Torsional_Energy-OPLS-2005>
276.417846679688

> <r_mmod_Improper_Torsional_Energy-OPLS-2005>
11.384126663208

> <r_mmod_Van_der_Waal_Energy-OPLS-2005>
121.479858398438

> <r_mmod_Electrostatic_Energy-OPLS-2005>
-383.399017333984

> <r_mmod_Solvation_Energy-OPLS-2005>
-249.222412109375

> <b_mmod_Minimization_Converged-OPLS-2005>
0

> <r_mmod_RMS_Derivative-OPLS-2005>
0.40042918920517

$$$$
57
                    3D
 Structure written by MMmdl.
156165  0  0  1  0            999 V2000
  -30.4959  -15.0317   20.4024 C   0  0  0  0  0  0
  -30.4441  -12.6387   19.5120 C   0  0  0  0  0  0
  -29.5294  -12.5451   18.2670 C   0  0  0  0  0  0
  -28.0644  -12.3107   18.6844 C   0  0  0  0  0  0
  -27.6263  -13.2520   19.8359 C   0  0  2  0  0  0
  -28.6663  -13.3097   20.9755 C   0  0  0  0  0  0
  -25.2454  -13.8220   20.5711 C   0  0  0  0  0  0
  -24.1776  -13.0438   20.9224 C   0  0  0  0  0  0
  -24.6390  -11.6923   20.8750 C   0  0  0  0  0  0
  -23.9083  -10.4286   21.0395 C   0  0  0  0  0  0
  -24.3624   -9.4207   21.9185 C   0  0  0  0  0  0
  -23.6291   -8.2249   22.0762 C   0  0  0  0  0  0
  -22.4280   -8.0281   21.3546 C   0  0  0  0  0  0
  -21.9915   -9.0257   20.4653 C   0  0  0  0  0  0
  -22.7246  -10.2131   20.3057 C   0  0  0  0  0  0
  -21.6860   -6.0734   22.5276 C   0  0  0  0  0  0
  -21.4017   -6.5635   23.8209 C   0  0  0  0  0  0
  -21.3654   -5.6791   24.9175 C   0  0  0  0  0  0
  -21.6046   -4.3056   24.7229 C   0  0  0  0  0  0
  -21.8810   -3.8143   23.4349 C   0  0  0  0  0  0
  -21.9191   -4.6959   22.3403 C   0  0  0  0  0  0
  -22.7794  -13.5210   21.1877 C   0  0  0  0  0  0
  -22.1660   -4.2144   21.0982 F   0  0  0  0  0  0
  -21.5622   -3.4539   25.7743 F   0  0  0  0  0  0
  -29.9351  -13.7473   20.3763 N   0  0  0  0  0  0
  -26.2869  -12.9449   20.3231 N   0  0  0  0  0  0
  -25.9325  -11.6575   20.5737 N   0  0  0  0  0  0
  -22.0446  -12.8207   22.0431 N   0  0  0  0  0  0
  -25.4108  -15.1954   20.4131 N   0  0  0  0  0  0
  -31.7017  -15.1063   20.1339 O   0  0  0  0  0  0
  -21.6640   -6.8880   21.4243 O   0  0  0  0  0  0
  -22.3480  -14.5515   20.6715 O   0  0  0  0  0  0
  -24.6477  -31.8359   23.1818 C   0  0  0  0  0  0
  -25.9221  -32.4658   23.8224 C   0  0  1  0  0  0
  -27.2240  -27.0771   20.1545 C   0  0  0  0  0  0
  -25.5940  -33.8467   24.2130 N   0  0  0  0  0  0
  -23.4551  -30.4527   21.5279 C   0  0  2  0  0  0
  -24.9072  -28.8659   20.1097 C   0  0  0  0  0  0
  -22.7586  -29.4498   22.4825 C   0  0  0  0  0  0
  -18.0307  -28.1400   22.8454 C   0  0  0  0  0  0
  -24.1502  -36.7236   23.2645 C   0  0  0  0  0  0
  -26.0142  -30.6906   21.3901 C   0  0  0  0  0  0
  -26.0856  -29.2964   20.7297 C   0  0  0  0  0  0
  -27.2420  -28.4194   20.7337 C   0  0  0  0  0  0
  -26.0171  -26.7593   19.4964 C   0  0  0  0  0  0
  -24.8876  -27.6115   19.4789 C   0  0  0  0  0  0
  -23.6863  -29.7759   20.1500 C   0  0  0  0  0  0
  -25.4139  -36.3007   24.0305 C   0  0  1  0  0  0
  -20.5922  -28.3729   23.1223 C   0  0  2  0  0  0
  -20.6798  -26.9427   22.5407 C   0  0  0  0  0  0
  -19.5782  -26.6373   21.5210 C   0  0  0  0  0  0
  -18.1950  -26.7932   22.1606 C   0  0  0  0  0  0
  -19.1566  -28.8884   23.2824 C   0  0  0  0  0  0
  -18.9488  -30.1470   23.8868 C   0  0  0  0  0  0
  -17.6486  -30.6597   24.0556 C   0  0  0  0  0  0
  -25.9090  -34.9386   23.5037 C   0  0  0  0  0  0
  -16.5373  -29.9089   23.6344 C   0  0  0  0  0  0
  -16.7289  -28.6510   23.0359 C   0  0  0  0  0  0
  -26.4530  -31.6550   25.0696 C   0  0  0  0  0  0
  -25.3691  -31.3755   26.1377 C   0  0  0  0  0  0
  -27.0413  -30.2941   24.6322 C   0  0  0  0  0  0
  -27.6043  -32.4339   25.7480 C   0  0  0  0  0  0
  -27.5578  -37.1773   24.8464 C   0  0  0  0  0  0
  -21.4275  -29.3037   22.3581 N   0  0  0  0  0  0
  -26.4295  -37.3726   23.9406 N   0  0  0  0  0  0
  -24.7257  -31.0159   22.0881 N   0  0  0  0  0  0
  -23.4206  -28.8048   23.3007 O   0  0  0  0  0  0
  -28.2767  -26.0724   20.2350 O   0  0  0  0  0  0
  -26.5684  -34.8891   22.4620 O   0  0  0  0  0  0
  -23.5581  -32.1255   23.7005 O   0  0  0  0  0  0
  -30.8397  -18.4918   20.0862 C   0  0  0  0  0  0
  -30.5893  -19.9514   19.9719 C   0  0  0  0  0  0
  -29.3113  -20.4713   20.2250 C   0  0  0  0  0  0
  -29.7762  -17.6517   20.4021 C   0  0  0  0  0  0
  -31.7159  -20.7900   19.5607 C   0  0  0  0  0  0
  -27.1130  -23.7077   20.8083 C   0  0  0  0  0  0
  -27.2923  -22.1685   20.4877 C   0  0  0  0  0  0
  -29.2827  -23.3131   20.0367 C   0  0  0  0  0  0
  -28.1227  -24.5151   19.9567 C   0  0  2  0  0  0
  -28.7075  -21.8836   20.2250 N   0  0  0  0  0  0
  -32.8684  -20.7516   20.2379 N   0  0  0  0  0  0
  -29.6667  -16.1998   20.5465 N   0  0  0  0  0  0
  -31.6228  -21.5692   18.4776 N   0  3  0  0  0  0
  -28.4203  -18.8980   20.5927 S   0  0  0  0  0  0
  -31.4764  -12.8094   19.2030 H   0  0  0  0  0  0
  -30.4506  -11.6947   20.0602 H   0  0  0  0  0  0
  -29.8646  -11.7446   17.6070 H   0  0  0  0  0  0
  -29.5998  -13.4690   17.6909 H   0  0  0  0  0  0
  -27.9782  -11.2729   19.0084 H   0  0  0  0  0  0
  -27.3995  -12.4195   17.8271 H   0  0  0  0  0  0
  -27.5792  -14.2458   19.3912 H   0  0  0  0  0  0
  -28.7706  -12.3405   21.4648 H   0  0  0  0  0  0
  -28.3501  -14.0125   21.7475 H   0  0  0  0  0  0
  -25.2760   -9.5688   22.4769 H   0  0  0  0  0  0
  -23.9993   -7.4647   22.7488 H   0  0  0  0  0  0
  -21.0845   -8.8773   19.8967 H   0  0  0  0  0  0
  -22.3694  -10.9671   19.6172 H   0  0  0  0  0  0
  -21.2013   -7.6144   23.9715 H   0  0  0  0  0  0
  -21.1485   -6.0523   25.9078 H   0  0  0  0  0  0
  -22.0594   -2.7605   23.2852 H   0  0  0  0  0  0
  -22.4058  -11.9867   22.4828 H   0  0  0  0  0  0
  -21.1065  -13.1238   22.2639 H   0  0  0  0  0  0
  -24.6330  -15.8399   20.5086 H   0  0  0  0  0  0
  -26.2433  -15.6357   20.0453 H   0  0  0  0  0  0
  -26.7273  -32.5240   23.0928 H   0  0  0  0  0  0
  -25.0074  -33.9579   25.0270 H   0  0  0  0  0  0
  -22.7604  -31.2801   21.3669 H   0  0  0  0  0  0
  -23.3776  -35.9555   23.3289 H   0  0  0  0  0  0
  -24.3577  -36.8897   22.2059 H   0  0  0  0  0  0
  -23.7263  -37.6424   23.6703 H   0  0  0  0  0  0
  -26.1797  -31.4441   20.6189 H   0  0  0  0  0  0
  -26.8797  -30.7381   22.0391 H   0  0  0  0  0  0
  -28.1378  -28.7452   21.2433 H   0  0  0  0  0  0
  -25.9152  -25.8006   19.0109 H   0  0  0  0  0  0
  -23.9867  -27.2737   18.9860 H   0  0  0  0  0  0
  -23.8291  -30.5483   19.3937 H   0  0  0  0  0  0
  -22.8004  -29.2220   19.8358 H   0  0  0  0  0  0
  -25.1339  -36.1812   25.0803 H   0  0  0  0  0  0
  -20.9991  -28.3324   24.1351 H   0  0  0  0  0  0
  -20.5712  -26.2334   23.3625 H   0  0  0  0  0  0
  -21.6671  -26.7443   22.1196 H   0  0  0  0  0  0
  -19.6965  -25.6275   21.1267 H   0  0  0  0  0  0
  -19.6748  -27.3162   20.6722 H   0  0  0  0  0  0
  -17.4228  -26.6663   21.3997 H   0  0  0  0  0  0
  -18.0349  -26.0080   22.9016 H   0  0  0  0  0  0
  -19.7972  -30.7279   24.2227 H   0  0  0  0  0  0
  -17.5055  -31.6284   24.5151 H   0  0  0  0  0  0
  -15.5379  -30.2998   23.7698 H   0  0  0  0  0  0
  -15.8677  -28.0833   22.7102 H   0  0  0  0  0  0
  -24.5892  -30.7089   25.7678 H   0  0  0  0  0  0
  -24.8867  -32.2945   26.4716 H   0  0  0  0  0  0
  -25.7953  -30.8976   27.0208 H   0  0  0  0  0  0
  -26.3044  -29.6641   24.1329 H   0  0  0  0  0  0
  -27.4005  -29.7275   25.4922 H   0  0  0  0  0  0
  -27.8957  -30.4176   23.9667 H   0  0  0  0  0  0
  -27.2629  -33.3675   26.1963 H   0  0  0  0  0  0
  -28.3891  -32.6841   25.0329 H   0  0  0  0  0  0
  -28.0662  -31.8530   26.5472 H   0  0  0  0  0  0
  -28.2571  -38.0086   24.7508 H   0  0  0  0  0  0
  -28.1094  -36.2612   24.6300 H   0  0  0  0  0  0
  -27.2279  -37.1429   25.8860 H   0  0  0  0  0  0
  -20.9483  -29.8748   21.6755 H   0  0  0  0  0  0
  -26.0151  -38.2786   24.1421 H   0  0  0  0  0  0
  -31.8342  -18.1147   19.8947 H   0  0  0  0  0  0
  -27.3290  -23.8782   21.8631 H   0  0  0  0  0  0
  -26.0841  -24.0277   20.6430 H   0  0  0  0  0  0
  -26.7262  -21.9102   19.5906 H   0  0  0  0  0  0
  -26.9051  -21.5532   21.2999 H   0  0  0  0  0  0
  -29.9469  -23.5144   20.8798 H   0  0  0  0  0  0
  -29.9025  -23.3644   19.1439 H   0  0  0  0  0  0
  -27.7627  -24.4716   18.9281 H   0  0  0  0  0  0
  -32.9371  -20.1842   21.0695 H   0  0  0  0  0  0
  -33.6756  -21.3002   19.9901 H   0  0  0  0  0  0
  -28.7242  -15.9115   20.7621 H   0  0  0  0  0  0
  -30.7648  -21.5602   17.9459 H   0  0  0  0  0  0
  -32.3791  -22.1380   18.1339 H   0  0  0  0  0  0
  1 25  1  0  0  0
  1 30  2  0  0  0
  1 82  1  0  0  0
  2  3  1  0  0  0
  2 25  1  0  0  0
  2 85  1  0  0  0
  2 86  1  0  0  0
  3  4  1  0  0  0
  3 87  1  0  0  0
  3 88  1  0  0  0
  4  5  1  0  0  0
  4 89  1  0  0  0
  4 90  1  0  0  0
  5  6  1  0  0  0
  5 26  1  0  0  0
  5 91  1  0  0  0
  6 25  1  0  0  0
  6 92  1  0  0  0
  6 93  1  0  0  0
  7  8  2  0  0  0
  7 26  1  0  0  0
  7 29  1  0  0  0
  8  9  1  0  0  0
  8 22  1  0  0  0
  9 10  1  0  0  0
  9 27  2  0  0  0
 10 11  2  0  0  0
 10 15  1  0  0  0
 11 12  1  0  0  0
 11 94  1  0  0  0
 12 13  2  0  0  0
 12 95  1  0  0  0
 13 14  1  0  0  0
 13 31  1  0  0  0
 14 15  2  0  0  0
 14 96  1  0  0  0
 15 97  1  0  0  0
 16 17  2  0  0  0
 16 21  1  0  0  0
 16 31  1  0  0  0
 17 18  1  0  0  0
 17 98  1  0  0  0
 18 19  2  0  0  0
 18 99  1  0  0  0
 19 20  1  0  0  0
 19 24  1  0  0  0
 20 21  2  0  0  0
 20100  1  0  0  0
 21 23  1  0  0  0
 22 28  1  0  0  0
 22 32  2  0  0  0
 26 27  1  0  0  0
 28101  1  0  0  0
 28102  1  0  0  0
 29103  1  0  0  0
 29104  1  0  0  0
 33 34  1  0  0  0
 33 66  1  0  0  0
 33 70  2  0  0  0
 34 36  1  0  0  0
 34 59  1  0  0  0
 34105  1  0  0  0
 35 44  2  0  0  0
 35 45  1  0  0  0
 35 68  1  0  0  0
 36 56  1  0  0  0
 36106  1  0  0  0
 37 39  1  0  0  0
 37 47  1  0  0  0
 37 66  1  0  0  0
 37107  1  0  0  0
 38 43  2  0  0  0
 38 46  1  0  0  0
 38 47  1  0  0  0
 39 64  1  0  0  0
 39 67  2  0  0  0
 40 52  1  0  0  0
 40 53  2  0  0  0
 40 58  1  0  0  0
 41108  1  0  0  0
 41109  1  0  0  0
 41110  1  0  0  0
 41 48  1  0  0  0
 42 43  1  0  0  0
 42 66  1  0  0  0
 42111  1  0  0  0
 42112  1  0  0  0
 43 44  1  0  0  0
 44113  1  0  0  0
 45 46  2  0  0  0
 45114  1  0  0  0
 46115  1  0  0  0
 47116  1  0  0  0
 47117  1  0  0  0
 48 56  1  0  0  0
 48 65  1  0  0  0
 48118  1  0  0  0
 49 50  1  0  0  0
 49 53  1  0  0  0
 49 64  1  0  0  0
 49119  1  0  0  0
 50 51  1  0  0  0
 50120  1  0  0  0
 50121  1  0  0  0
 51 52  1  0  0  0
 51122  1  0  0  0
 51123  1  0  0  0
 52124  1  0  0  0
 52125  1  0  0  0
 53 54  1  0  0  0
 54 55  2  0  0  0
 54126  1  0  0  0
 55 57  1  0  0  0
 55127  1  0  0  0
 56 69  2  0  0  0
 57 58  2  0  0  0
 57128  1  0  0  0
 58129  1  0  0  0
 59 60  1  0  0  0
 59 61  1  0  0  0
 59 62  1  0  0  0
 60130  1  0  0  0
 60131  1  0  0  0
 60132  1  0  0  0
 61133  1  0  0  0
 61134  1  0  0  0
 61135  1  0  0  0
 62136  1  0  0  0
 62137  1  0  0  0
 62138  1  0  0  0
 63 65  1  0  0  0
 63139  1  0  0  0
 63140  1  0  0  0
 63141  1  0  0  0
 64142  1  0  0  0
 65143  1  0  0  0
 68 79  1  0  0  0
 71 72  1  0  0  0
 71 74  2  0  0  0
 71144  1  0  0  0
 72 73  2  0  0  0
 72 75  1  0  0  0
 73 80  1  0  0  0
 73 84  1  0  0  0
 74 82  1  0  0  0
 74 84  1  0  0  0
 75 81  1  0  0  0
 75 83  2  0  0  0
 76 77  1  0  0  0
 76 79  1  0  0  0
 76145  1  0  0  0
 76146  1  0  0  0
 77 80  1  0  0  0
 77147  1  0  0  0
 77148  1  0  0  0
 78 79  1  0  0  0
 78 80  1  0  0  0
 78149  1  0  0  0
 78150  1  0  0  0
 79151  1  0  0  0
 81152  1  0  0  0
 81153  1  0  0  0
 82154  1  0  0  0
 83155  1  0  0  0
 83156  1  0  0  0
M  CHG  1  83   1
M  ISO  4   1 100  68 101  79 101  82 100
M  END
> <chiral flag>
0

> <version>
0

> <s_m_source_file>
/data/baiqing/PycharmProjects/Reinvent-master-3.2/result/LINK_invent/BTK/process_docking_weight1_custom_product_contain_oxygen_bond_distance_aromatic_linkinvent_7_9_3/rearranged_h_0152.sdf

> <i_m_source_file_index>
58

> <r_mmod_Potential_Energy-OPLS-2005>
494.125946044922

> <r_mmod_Stretch_Energy-OPLS-2005>
284.153625488281

> <r_mmod_Bend_Energy-OPLS-2005>
347.436065673828

> <r_mmod_Torsional_Energy-OPLS-2005>
257.704895019531

> <r_mmod_Improper_Torsional_Energy-OPLS-2005>
4.25877857208252

> <r_mmod_Van_der_Waal_Energy-OPLS-2005>
102.946098327637

> <r_mmod_Electrostatic_Energy-OPLS-2005>
-251.253387451172

> <r_mmod_Solvation_Energy-OPLS-2005>
-502.72509765625

> <b_mmod_Minimization_Converged-OPLS-2005>
0

> <r_mmod_RMS_Derivative-OPLS-2005>
1.7531031370163

$$$$
58
                    3D
 Structure written by MMmdl.
149158  0  0  1  0            999 V2000
  -30.6487  -14.8523   20.4447 C   0  0  0  0  0  0
  -30.4167  -12.5355   19.4871 C   0  0  0  0  0  0
  -29.5047  -12.5121   18.2434 C   0  0  0  0  0  0
  -28.0382  -12.3153   18.6653 C   0  0  0  0  0  0
  -27.6261  -13.2470   19.8358 C   0  0  2  0  0  0
  -28.6735  -13.2732   20.9708 C   0  0  0  0  0  0
  -25.2422  -13.8207   20.5703 C   0  0  0  0  0  0
  -24.1755  -13.0428   20.9245 C   0  0  0  0  0  0
  -24.6383  -11.6920   20.8773 C   0  0  0  0  0  0
  -23.9075  -10.4288   21.0415 C   0  0  0  0  0  0
  -24.3626   -9.4201   21.9189 C   0  0  0  0  0  0
  -23.6299   -8.2238   22.0755 C   0  0  0  0  0  0
  -22.4281   -8.0279   21.3545 C   0  0  0  0  0  0
  -21.9919   -9.0253   20.4648 C   0  0  0  0  0  0
  -22.7248  -10.2131   20.3061 C   0  0  0  0  0  0
  -21.6854   -6.0736   22.5279 C   0  0  0  0  0  0
  -21.4014   -6.5640   23.8211 C   0  0  0  0  0  0
  -21.3659   -5.6792   24.9174 C   0  0  0  0  0  0
  -21.6044   -4.3056   24.7224 C   0  0  0  0  0  0
  -21.8819   -3.8147   23.4344 C   0  0  0  0  0  0
  -21.9192   -4.6964   22.3402 C   0  0  0  0  0  0
  -22.7776  -13.5199   21.1891 C   0  0  0  0  0  0
  -22.1662   -4.2149   21.0980 F   0  0  0  0  0  0
  -21.5629   -3.4539   25.7737 F   0  0  0  0  0  0
  -29.9528  -13.6517   20.3596 N   0  0  0  0  0  0
  -26.2864  -12.9455   20.3255 N   0  0  0  0  0  0
  -25.9317  -11.6585   20.5767 N   0  0  0  0  0  0
  -22.0428  -12.8191   22.0448 N   0  0  0  0  0  0
  -25.4012  -15.1927   20.4071 N   0  0  0  0  0  0
  -31.8552  -14.8081   20.1806 O   0  0  0  0  0  0
  -21.6641   -6.8879   21.4241 O   0  0  0  0  0  0
  -22.3460  -14.5501   20.6727 O   0  0  0  0  0  0
  -24.6387  -31.8498   23.1946 C   0  0  0  0  0  0
  -25.9183  -32.4725   23.8312 C   0  0  1  0  0  0
  -27.2071  -27.1869   20.1447 C   0  0  0  0  0  0
  -25.5955  -33.8530   24.2230 N   0  0  0  0  0  0
  -23.4389  -30.4727   21.5396 C   0  0  2  0  0  0
  -24.8867  -28.9123   20.1101 C   0  0  0  0  0  0
  -22.7542  -29.4579   22.4885 C   0  0  0  0  0  0
  -18.0300  -28.1391   22.8479 C   0  0  0  0  0  0
  -24.1492  -36.7268   23.2641 C   0  0  0  0  0  0
  -25.9924  -30.7386   21.3883 C   0  0  0  0  0  0
  -26.0629  -29.3553   20.7296 C   0  0  0  0  0  0
  -27.2278  -28.5073   20.7338 C   0  0  0  0  0  0
  -26.0151  -26.8470   19.4679 C   0  0  0  0  0  0
  -24.8728  -27.6695   19.4638 C   0  0  0  0  0  0
  -23.6618  -29.8082   20.1564 C   0  0  0  0  0  0
  -25.4121  -36.3051   24.0321 C   0  0  1  0  0  0
  -20.5910  -28.3713   23.1246 C   0  0  2  0  0  0
  -20.6786  -26.9423   22.5402 C   0  0  0  0  0  0
  -19.5759  -26.6381   21.5210 C   0  0  0  0  0  0
  -18.1942  -26.7932   22.1624 C   0  0  0  0  0  0
  -19.1555  -28.8870   23.2855 C   0  0  0  0  0  0
  -18.9472  -30.1468   23.8878 C   0  0  0  0  0  0
  -17.6470  -30.6590   24.0557 C   0  0  0  0  0  0
  -25.9068  -34.9423   23.5079 C   0  0  0  0  0  0
  -16.5361  -29.9083   23.6335 C   0  0  0  0  0  0
  -16.7285  -28.6501   23.0357 C   0  0  0  0  0  0
  -26.4520  -31.6574   25.0733 C   0  0  0  0  0  0
  -25.3719  -31.3756   26.1439 C   0  0  0  0  0  0
  -27.0373  -30.2972   24.6286 C   0  0  0  0  0  0
  -27.6063  -32.4328   25.7508 C   0  0  0  0  0  0
  -27.5578  -37.1791   24.8464 C   0  0  0  0  0  0
  -21.4241  -29.3049   22.3626 N   0  0  0  0  0  0
  -26.4290  -37.3757   23.9408 N   0  0  0  0  0  0
  -24.7094  -31.0401   22.0960 N   0  0  0  0  0  0
  -23.4210  -28.8117   23.3008 O   0  0  0  0  0  0
  -28.2489  -26.2074   20.1959 O   0  0  0  0  0  0
  -26.5641  -34.8908   22.4650 O   0  0  0  0  0  0
  -23.5518  -32.1353   23.7197 O   0  0  0  0  0  0
  -29.9206  -20.1305   20.1013 C   0  0  0  0  0  0
  -29.9046  -18.6556   20.2730 C   0  0  0  0  0  0
  -28.7974  -18.1981   20.8608 C   0  0  0  0  0  0
  -28.7826  -20.8212   20.5741 C   0  0  0  0  0  0
  -28.8000  -23.4580   20.2697 C   0  0  0  0  0  0
  -30.7662  -17.4022   19.9940 C   0  0  0  0  0  0
  -28.7653  -16.6727   21.0380 C   0  0  0  0  0  0
  -27.8586  -24.7640   20.5612 C   0  0  0  0  0  0
  -30.0380  -16.1347   20.4455 N   0  0  0  0  0  0
  -28.3462  -22.1790   20.6302 N   0  0  0  0  0  0
  -29.8996  -23.6143   19.7320 O   0  0  0  0  0  0
  -27.7057  -19.5403   21.2380 S   0  0  0  0  0  0
  -31.4563  -12.6440   19.1747 H   0  0  0  0  0  0
  -30.3702  -11.5846   20.0202 H   0  0  0  0  0  0
  -29.8096  -11.7154   17.5636 H   0  0  0  0  0  0
  -29.6087  -13.4467   17.6898 H   0  0  0  0  0  0
  -27.9231  -11.2735   18.9662 H   0  0  0  0  0  0
  -27.3741  -12.4597   17.8122 H   0  0  0  0  0  0
  -27.5902  -14.2467   19.4043 H   0  0  0  0  0  0
  -28.7457  -12.3013   21.4613 H   0  0  0  0  0  0
  -28.3880  -13.9867   21.7441 H   0  0  0  0  0  0
  -25.2766   -9.5680   22.4770 H   0  0  0  0  0  0
  -24.0006   -7.4629   22.7474 H   0  0  0  0  0  0
  -21.0850   -8.8775   19.8953 H   0  0  0  0  0  0
  -22.3706  -10.9674   19.6176 H   0  0  0  0  0  0
  -21.2006   -7.6147   23.9715 H   0  0  0  0  0  0
  -21.1482   -6.0522   25.9077 H   0  0  0  0  0  0
  -22.0599   -2.7609   23.2843 H   0  0  0  0  0  0
  -22.4053  -11.9861   22.4845 H   0  0  0  0  0  0
  -21.1042  -13.1208   22.2651 H   0  0  0  0  0  0
  -24.6244  -15.8362   20.5126 H   0  0  0  0  0  0
  -26.2299  -15.6329   20.0315 H   0  0  0  0  0  0
  -26.7249  -32.5348   23.1046 H   0  0  0  0  0  0
  -25.0096  -33.9656   25.0372 H   0  0  0  0  0  0
  -22.7390  -31.2976   21.3910 H   0  0  0  0  0  0
  -23.3758  -35.9596   23.3295 H   0  0  0  0  0  0
  -24.3579  -36.8901   22.2056 H   0  0  0  0  0  0
  -23.7242  -37.6464   23.6673 H   0  0  0  0  0  0
  -26.1441  -31.4958   20.6180 H   0  0  0  0  0  0
  -26.8648  -30.7856   22.0284 H   0  0  0  0  0  0
  -28.1233  -28.8383   21.2410 H   0  0  0  0  0  0
  -25.9380  -25.9123   18.9336 H   0  0  0  0  0  0
  -23.9799  -27.3320   18.9556 H   0  0  0  0  0  0
  -23.7941  -30.5852   19.4026 H   0  0  0  0  0  0
  -22.7777  -29.2480   19.8468 H   0  0  0  0  0  0
  -25.1308  -36.1888   25.0814 H   0  0  0  0  0  0
  -21.0002  -28.3297   24.1366 H   0  0  0  0  0  0
  -20.5683  -26.2326   23.3615 H   0  0  0  0  0  0
  -21.6653  -26.7436   22.1197 H   0  0  0  0  0  0
  -19.6920  -25.6287   21.1253 H   0  0  0  0  0  0
  -19.6696  -27.3179   20.6730 H   0  0  0  0  0  0
  -17.4210  -26.6672   21.4029 H   0  0  0  0  0  0
  -18.0345  -26.0079   22.9026 H   0  0  0  0  0  0
  -19.7948  -30.7288   24.2239 H   0  0  0  0  0  0
  -17.5024  -31.6270   24.5161 H   0  0  0  0  0  0
  -15.5361  -30.2978   23.7670 H   0  0  0  0  0  0
  -15.8685  -28.0812   22.7085 H   0  0  0  0  0  0
  -24.5886  -30.7118   25.7760 H   0  0  0  0  0  0
  -24.8924  -32.2938   26.4840 H   0  0  0  0  0  0
  -25.8011  -30.8937   27.0233 H   0  0  0  0  0  0
  -26.2979  -29.6706   24.1285 H   0  0  0  0  0  0
  -27.3985  -29.7260   25.4848 H   0  0  0  0  0  0
  -27.8892  -30.4212   23.9596 H   0  0  0  0  0  0
  -27.2667  -33.3642   26.2051 H   0  0  0  0  0  0
  -28.3891  -32.6865   25.0348 H   0  0  0  0  0  0
  -28.0713  -31.8476   26.5453 H   0  0  0  0  0  0
  -28.2593  -38.0091   24.7510 H   0  0  0  0  0  0
  -28.1077  -36.2621   24.6294 H   0  0  0  0  0  0
  -27.2295  -37.1443   25.8867 H   0  0  0  0  0  0
  -20.9440  -29.8770   21.6819 H   0  0  0  0  0  0
  -26.0163  -38.2828   24.1405 H   0  0  0  0  0  0
  -30.7635  -20.6234   19.6370 H   0  0  0  0  0  0
  -31.7214  -17.4779   20.5155 H   0  0  0  0  0  0
  -30.9928  -17.3212   18.9301 H   0  0  0  0  0  0
  -27.9069  -16.2516   20.5222 H   0  0  0  0  0  0
  -28.6960  -16.4056   22.0930 H   0  0  0  0  0  0
  -27.6846  -24.7716   21.6374 H   0  0  0  0  0  0
  -26.8957  -24.4997   20.1323 H   0  0  0  0  0  0
  -27.4325  -22.2561   21.0577 H   0  0  0  0  0  0
  1 25  1  0  0  0
  1 30  2  0  0  0
  1 79  1  0  0  0
  2  3  1  0  0  0
  2 25  1  0  0  0
  2 83  1  0  0  0
  2 84  1  0  0  0
  3  4  1  0  0  0
  3 85  1  0  0  0
  3 86  1  0  0  0
  4  5  1  0  0  0
  4 87  1  0  0  0
  4 88  1  0  0  0
  5  6  1  0  0  0
  5 26  1  0  0  0
  5 89  1  0  0  0
  6 25  1  0  0  0
  6 90  1  0  0  0
  6 91  1  0  0  0
  7  8  2  0  0  0
  7 26  1  0  0  0
  7 29  1  0  0  0
  8  9  1  0  0  0
  8 22  1  0  0  0
  9 10  1  0  0  0
  9 27  2  0  0  0
 10 11  2  0  0  0
 10 15  1  0  0  0
 11 12  1  0  0  0
 11 92  1  0  0  0
 12 13  2  0  0  0
 12 93  1  0  0  0
 13 14  1  0  0  0
 13 31  1  0  0  0
 14 15  2  0  0  0
 14 94  1  0  0  0
 15 95  1  0  0  0
 16 17  2  0  0  0
 16 21  1  0  0  0
 16 31  1  0  0  0
 17 18  1  0  0  0
 17 96  1  0  0  0
 18 19  2  0  0  0
 18 97  1  0  0  0
 19 20  1  0  0  0
 19 24  1  0  0  0
 20 21  2  0  0  0
 20 98  1  0  0  0
 21 23  1  0  0  0
 22 28  1  0  0  0
 22 32  2  0  0  0
 26 27  1  0  0  0
 28 99  1  0  0  0
 28100  1  0  0  0
 29101  1  0  0  0
 29102  1  0  0  0
 33 34  1  0  0  0
 33 66  1  0  0  0
 33 70  2  0  0  0
 34 36  1  0  0  0
 34 59  1  0  0  0
 34103  1  0  0  0
 35 44  2  0  0  0
 35 45  1  0  0  0
 35 68  1  0  0  0
 36 56  1  0  0  0
 36104  1  0  0  0
 37 39  1  0  0  0
 37 47  1  0  0  0
 37 66  1  0  0  0
 37105  1  0  0  0
 38 43  2  0  0  0
 38 46  1  0  0  0
 38 47  1  0  0  0
 39 64  1  0  0  0
 39 67  2  0  0  0
 40 52  1  0  0  0
 40 53  2  0  0  0
 40 58  1  0  0  0
 41106  1  0  0  0
 41107  1  0  0  0
 41108  1  0  0  0
 41 48  1  0  0  0
 42 43  1  0  0  0
 42 66  1  0  0  0
 42109  1  0  0  0
 42110  1  0  0  0
 43 44  1  0  0  0
 44111  1  0  0  0
 45 46  2  0  0  0
 45112  1  0  0  0
 46113  1  0  0  0
 47114  1  0  0  0
 47115  1  0  0  0
 48 56  1  0  0  0
 48 65  1  0  0  0
 48116  1  0  0  0
 49 50  1  0  0  0
 49 53  1  0  0  0
 49 64  1  0  0  0
 49117  1  0  0  0
 50 51  1  0  0  0
 50118  1  0  0  0
 50119  1  0  0  0
 51 52  1  0  0  0
 51120  1  0  0  0
 51121  1  0  0  0
 52122  1  0  0  0
 52123  1  0  0  0
 53 54  1  0  0  0
 54 55  2  0  0  0
 54124  1  0  0  0
 55 57  1  0  0  0
 55125  1  0  0  0
 56 69  2  0  0  0
 57 58  2  0  0  0
 57126  1  0  0  0
 58127  1  0  0  0
 59 60  1  0  0  0
 59 61  1  0  0  0
 59 62  1  0  0  0
 60128  1  0  0  0
 60129  1  0  0  0
 60130  1  0  0  0
 61131  1  0  0  0
 61132  1  0  0  0
 61133  1  0  0  0
 62134  1  0  0  0
 62135  1  0  0  0
 62136  1  0  0  0
 63 65  1  0  0  0
 63137  1  0  0  0
 63138  1  0  0  0
 63139  1  0  0  0
 64140  1  0  0  0
 65141  1  0  0  0
 68 78  1  0  0  0
 71 72  1  0  0  0
 71 74  2  0  0  0
 71142  1  0  0  0
 72 73  2  0  0  0
 72 76  1  0  0  0
 73 77  1  0  0  0
 73 82  1  0  0  0
 74 80  1  0  0  0
 74 82  1  0  0  0
 75 78  1  0  0  0
 75 80  1  0  0  0
 75 81  2  0  0  0
 76 79  1  0  0  0
 76143  1  0  0  0
 76144  1  0  0  0
 77 79  1  0  0  0
 77145  1  0  0  0
 77146  1  0  0  0
 78147  1  0  0  0
 78148  1  0  0  0
 80149  1  0  0  0
M  ISO  4   1 100  68 101  78 101  79 100
M  END
> <chiral flag>
0

> <version>
0

> <s_m_source_file>
/data/baiqing/PycharmProjects/Reinvent-master-3.2/result/LINK_invent/BTK/process_docking_weight1_custom_product_contain_oxygen_bond_distance_aromatic_linkinvent_7_9_3/rearranged_h_0152.sdf

> <i_m_source_file_index>
59

> <r_mmod_Potential_Energy-OPLS-2005>
427.202453613281

> <r_mmod_Stretch_Energy-OPLS-2005>
167.784561157227

> <r_mmod_Bend_Energy-OPLS-2005>
306.031890869141

> <r_mmod_Torsional_Energy-OPLS-2005>
257.585876464844

> <r_mmod_Improper_Torsional_Energy-OPLS-2005>
10.344162940979

> <r_mmod_Van_der_Waal_Energy-OPLS-2005>
111.17017364502

> <r_mmod_Electrostatic_Energy-OPLS-2005>
-329.476287841797

> <r_mmod_Solvation_Energy-OPLS-2005>
-240.983840942383

> <b_mmod_Minimization_Converged-OPLS-2005>
0

> <r_mmod_RMS_Derivative-OPLS-2005>
0.333023279905319

$$$$
59
                    3D
 Structure written by MMmdl.
169178  0  0  1  0            999 V2000
  -30.7163  -14.5104   20.5594 C   0  0  0  0  0  0
  -30.4153  -12.3260   19.4377 C   0  0  0  0  0  0
  -29.4936  -12.4994   18.2135 C   0  0  0  0  0  0
  -28.0162  -12.3588   18.6261 C   0  0  0  0  0  0
  -27.6567  -13.2155   19.8706 C   0  0  2  0  0  0
  -28.7006  -13.0396   20.9979 C   0  0  0  0  0  0
  -25.2562  -13.8178   20.5687 C   0  0  0  0  0  0
  -24.1826  -13.0442   20.9186 C   0  0  0  0  0  0
  -24.6389  -11.6911   20.8735 C   0  0  0  0  0  0
  -23.9057  -10.4294   21.0399 C   0  0  0  0  0  0
  -24.3609   -9.4212   21.9177 C   0  0  0  0  0  0
  -23.6285   -8.2247   22.0752 C   0  0  0  0  0  0
  -22.4270   -8.0278   21.3541 C   0  0  0  0  0  0
  -21.9903   -9.0251   20.4641 C   0  0  0  0  0  0
  -22.7231  -10.2131   20.3049 C   0  0  0  0  0  0
  -21.6851   -6.0726   22.5273 C   0  0  0  0  0  0
  -21.4015   -6.5632   23.8204 C   0  0  0  0  0  0
  -21.3658   -5.6789   24.9168 C   0  0  0  0  0  0
  -21.6047   -4.3051   24.7223 C   0  0  0  0  0  0
  -21.8821   -3.8140   23.4345 C   0  0  0  0  0  0
  -21.9195   -4.6955   22.3400 C   0  0  0  0  0  0
  -22.7849  -13.5233   21.1847 C   0  0  0  0  0  0
  -22.1663   -4.2141   21.0977 F   0  0  0  0  0  0
  -21.5631   -3.4536   25.7737 F   0  0  0  0  0  0
  -30.0263  -13.3393   20.4359 N   0  0  0  0  0  0
  -26.3001  -12.9362   20.3357 N   0  0  0  0  0  0
  -25.9320  -11.6515   20.5772 N   0  0  0  0  0  0
  -22.0492  -12.8219   22.0399 N   0  0  0  0  0  0
  -25.4275  -15.1896   20.4085 N   0  0  0  0  0  0
  -31.8477  -14.6374   20.0856 O   0  0  0  0  0  0
  -21.6638   -6.8871   21.4235 O   0  0  0  0  0  0
  -22.3538  -14.5542   20.6699 O   0  0  0  0  0  0
  -24.6172  -31.8660   23.2075 C   0  0  0  0  0  0
  -25.9061  -32.4808   23.8378 C   0  0  1  0  0  0
  -27.2262  -27.4048   20.1001 C   0  0  0  0  0  0
  -25.5915  -33.8605   24.2314 N   0  0  0  0  0  0
  -23.4074  -30.4902   21.5482 C   0  0  2  0  0  0
  -24.8550  -28.9546   20.1126 C   0  0  0  0  0  0
  -22.7429  -29.4655   22.4970 C   0  0  0  0  0  0
  -18.0279  -28.1385   22.8496 C   0  0  0  0  0  0
  -24.1483  -36.7297   23.2643 C   0  0  0  0  0  0
  -25.9397  -30.8219   21.3671 C   0  0  0  0  0  0
  -26.0182  -29.4547   20.7131 C   0  0  0  0  0  0
  -27.2106  -28.6868   20.7057 C   0  0  0  0  0  0
  -26.0499  -26.9321   19.4847 C   0  0  0  0  0  0
  -24.8667  -27.6926   19.4947 C   0  0  0  0  0  0
  -23.6179  -29.8245   20.1625 C   0  0  0  0  0  0
  -25.4111  -36.3098   24.0334 C   0  0  1  0  0  0
  -20.5871  -28.3674   23.1307 C   0  0  2  0  0  0
  -20.6772  -26.9410   22.5412 C   0  0  0  0  0  0
  -19.5748  -26.6387   21.5215 C   0  0  0  0  0  0
  -18.1923  -26.7931   22.1625 C   0  0  0  0  0  0
  -19.1531  -28.8847   23.2893 C   0  0  0  0  0  0
  -18.9463  -30.1453   23.8906 C   0  0  0  0  0  0
  -17.6467  -30.6590   24.0571 C   0  0  0  0  0  0
  -25.9046  -34.9466   23.5124 C   0  0  0  0  0  0
  -16.5356  -29.9094   23.6336 C   0  0  0  0  0  0
  -16.7268  -28.6509   23.0356 C   0  0  0  0  0  0
  -26.4479  -31.6595   25.0715 C   0  0  0  0  0  0
  -25.3738  -31.3696   26.1455 C   0  0  0  0  0  0
  -27.0331  -30.3042   24.6106 C   0  0  0  0  0  0
  -27.6038  -32.4329   25.7486 C   0  0  0  0  0  0
  -27.5574  -37.1799   24.8473 C   0  0  0  0  0  0
  -21.4155  -29.3034   22.3708 N   0  0  0  0  0  0
  -26.4293  -37.3785   23.9410 N   0  0  0  0  0  0
  -24.6727  -31.0743   22.0989 N   0  0  0  0  0  0
  -23.4184  -28.8202   23.3030 O   0  0  0  0  0  0
  -28.3461  -26.5932   20.1095 O   0  0  0  0  0  0
  -26.5605  -34.8924   22.4682 O   0  0  0  0  0  0
  -23.5361  -32.1431   23.7455 O   0  0  0  0  0  0
  -32.3084  -18.5539   21.6577 C   0  0  0  0  0  0
  -31.3774  -19.6040   21.7445 C   0  0  0  0  0  0
  -31.8798  -17.2354   21.4225 C   0  0  0  0  0  0
  -29.5754  -18.0152   21.3211 C   0  0  0  0  0  0
  -29.9996  -19.3600   21.5631 C   0  0  0  0  0  0
  -30.5046  -16.9331   21.2504 C   0  0  0  0  0  0
  -29.0266  -20.4582   21.8204 C   0  0  0  0  0  0
  -29.9468  -23.7208   20.1936 C   0  0  0  0  0  0
  -30.0907  -22.1893   20.3272 C   0  0  0  0  0  0
  -28.5081  -24.0361   20.6330 C   0  0  2  0  0  0
  -28.3325  -22.9711   21.7944 C   0  0  0  0  0  0
  -27.5646  -23.7312   19.4420 C   0  0  0  0  0  0
  -26.8262  -22.7104   22.0689 C   0  0  0  0  0  0
  -28.9811  -23.4537   23.1158 C   0  0  0  0  0  0
  -28.3023  -25.5355   21.1006 C   0  0  0  0  0  0
  -29.0862  -21.7483   21.3278 N   0  0  0  0  0  0
  -30.0414  -15.5712   21.0746 N   0  0  0  0  0  0
  -28.0536  -20.1432   22.6688 N   0  3  0  0  0  0
  -31.4615  -12.4049   19.1372 H   0  0  0  0  0  0
  -30.3063  -11.3248   19.8588 H   0  0  0  0  0  0
  -29.7382  -11.7601   17.4494 H   0  0  0  0  0  0
  -29.6595  -13.4774   17.7582 H   0  0  0  0  0  0
  -27.8330  -11.3046   18.8375 H   0  0  0  0  0  0
  -27.3644  -12.6165   17.7904 H   0  0  0  0  0  0
  -27.6877  -14.2571   19.5502 H   0  0  0  0  0  0
  -28.6846  -12.0157   21.3743 H   0  0  0  0  0  0
  -28.4617  -13.6719   21.8537 H   0  0  0  0  0  0
  -25.2750   -9.5690   22.4751 H   0  0  0  0  0  0
  -23.9993   -7.4642   22.7475 H   0  0  0  0  0  0
  -21.0834   -8.8761   19.8948 H   0  0  0  0  0  0
  -22.3680  -10.9665   19.6155 H   0  0  0  0  0  0
  -21.2003   -7.6140   23.9703 H   0  0  0  0  0  0
  -21.1480   -6.0518   25.9070 H   0  0  0  0  0  0
  -22.0602   -2.7603   23.2846 H   0  0  0  0  0  0
  -22.4110  -11.9874   22.4775 H   0  0  0  0  0  0
  -21.1108  -13.1237   22.2607 H   0  0  0  0  0  0
  -24.6569  -15.8416   20.5073 H   0  0  0  0  0  0
  -26.2710  -15.6257   20.0585 H   0  0  0  0  0  0
  -26.7130  -32.5515   23.1135 H   0  0  0  0  0  0
  -25.0056  -33.9755   25.0457 H   0  0  0  0  0  0
  -22.6974  -31.3079   21.4084 H   0  0  0  0  0  0
  -23.3743  -35.9631   23.3324 H   0  0  0  0  0  0
  -24.3576  -36.8901   22.2055 H   0  0  0  0  0  0
  -23.7232  -37.6503   23.6657 H   0  0  0  0  0  0
  -26.0578  -31.5879   20.5992 H   0  0  0  0  0  0
  -26.8244  -30.8727   21.9900 H   0  0  0  0  0  0
  -28.1065  -29.0622   21.1796 H   0  0  0  0  0  0
  -26.0403  -25.9700   18.9968 H   0  0  0  0  0  0
  -23.9745  -27.3033   19.0237 H   0  0  0  0  0  0
  -23.7284  -30.6005   19.4040 H   0  0  0  0  0  0
  -22.7408  -29.2467   19.8661 H   0  0  0  0  0  0
  -25.1281  -36.1957   25.0823 H   0  0  0  0  0  0
  -20.9963  -28.3253   24.1430 H   0  0  0  0  0  0
  -20.5706  -26.2281   23.3600 H   0  0  0  0  0  0
  -21.6637  -26.7470   22.1188 H   0  0  0  0  0  0
  -19.6916  -25.6302   21.1237 H   0  0  0  0  0  0
  -19.6690  -27.3208   20.6752 H   0  0  0  0  0  0
  -17.4195  -26.6692   21.4022 H   0  0  0  0  0  0
  -18.0317  -26.0068   22.9018 H   0  0  0  0  0  0
  -19.7944  -30.7258   24.2283 H   0  0  0  0  0  0
  -17.5029  -31.6276   24.5163 H   0  0  0  0  0  0
  -15.5359  -30.2997   23.7665 H   0  0  0  0  0  0
  -15.8666  -28.0834   22.7069 H   0  0  0  0  0  0
  -24.5912  -30.7053   25.7777 H   0  0  0  0  0  0
  -24.8927  -32.2849   26.4918 H   0  0  0  0  0  0
  -25.8075  -30.8847   27.0210 H   0  0  0  0  0  0
  -26.2884  -29.6773   24.1192 H   0  0  0  0  0  0
  -27.4143  -29.7307   25.4564 H   0  0  0  0  0  0
  -27.8693  -30.4367   23.9235 H   0  0  0  0  0  0
  -27.2654  -33.3631   26.2063 H   0  0  0  0  0  0
  -28.3846  -32.6894   25.0314 H   0  0  0  0  0  0
  -28.0710  -31.8463   26.5408 H   0  0  0  0  0  0
  -28.2590  -38.0095   24.7518 H   0  0  0  0  0  0
  -28.1062  -36.2624   24.6300 H   0  0  0  0  0  0
  -27.2287  -37.1448   25.8874 H   0  0  0  0  0  0
  -20.9330  -29.8744   21.6911 H   0  0  0  0  0  0
  -26.0178  -38.2857   24.1423 H   0  0  0  0  0  0
  -33.3597  -18.7519   21.8128 H   0  0  0  0  0  0
  -31.7343  -20.5864   22.0173 H   0  0  0  0  0  0
  -32.6365  -16.4660   21.4148 H   0  0  0  0  0  0
  -28.5181  -17.8107   21.2210 H   0  0  0  0  0  0
  -30.1447  -24.0566   19.1753 H   0  0  0  0  0  0
  -30.6774  -24.2175   20.8321 H   0  0  0  0  0  0
  -31.1183  -21.9485   20.5882 H   0  0  0  0  0  0
  -29.8768  -21.7041   19.3734 H   0  0  0  0  0  0
  -27.6418  -22.6961   19.1082 H   0  0  0  0  0  0
  -27.7933  -24.3640   18.5845 H   0  0  0  0  0  0
  -26.5194  -23.9024   19.6951 H   0  0  0  0  0  0
  -26.2416  -23.6273   21.9982 H   0  0  0  0  0  0
  -26.6456  -22.3298   23.0737 H   0  0  0  0  0  0
  -26.3955  -22.0060   21.3564 H   0  0  0  0  0  0
  -28.4559  -24.3122   23.5348 H   0  0  0  0  0  0
  -30.0261  -23.7367   22.9917 H   0  0  0  0  0  0
  -28.9543  -22.6777   23.8806 H   0  0  0  0  0  0
  -29.0747  -25.7969   21.8239 H   0  0  0  0  0  0
  -27.3676  -25.5936   21.6618 H   0  0  0  0  0  0
  -29.0792  -15.3879   21.3119 H   0  0  0  0  0  0
  -28.0519  -19.2366   23.1097 H   0  0  0  0  0  0
  -27.3277  -20.8013   22.8901 H   0  0  0  0  0  0
  1 25  1  0  0  0
  1 30  2  0  0  0
  1 87  1  0  0  0
  2  3  1  0  0  0
  2 25  1  0  0  0
  2 89  1  0  0  0
  2 90  1  0  0  0
  3  4  1  0  0  0
  3 91  1  0  0  0
  3 92  1  0  0  0
  4  5  1  0  0  0
  4 93  1  0  0  0
  4 94  1  0  0  0
  5  6  1  0  0  0
  5 26  1  0  0  0
  5 95  1  0  0  0
  6 25  1  0  0  0
  6 96  1  0  0  0
  6 97  1  0  0  0
  7  8  2  0  0  0
  7 26  1  0  0  0
  7 29  1  0  0  0
  8  9  1  0  0  0
  8 22  1  0  0  0
  9 10  1  0  0  0
  9 27  2  0  0  0
 10 11  2  0  0  0
 10 15  1  0  0  0
 11 12  1  0  0  0
 11 98  1  0  0  0
 12 13  2  0  0  0
 12 99  1  0  0  0
 13 14  1  0  0  0
 13 31  1  0  0  0
 14 15  2  0  0  0
 14100  1  0  0  0
 15101  1  0  0  0
 16 17  2  0  0  0
 16 21  1  0  0  0
 16 31  1  0  0  0
 17 18  1  0  0  0
 17102  1  0  0  0
 18 19  2  0  0  0
 18103  1  0  0  0
 19 20  1  0  0  0
 19 24  1  0  0  0
 20 21  2  0  0  0
 20104  1  0  0  0
 21 23  1  0  0  0
 22 28  1  0  0  0
 22 32  2  0  0  0
 26 27  1  0  0  0
 28105  1  0  0  0
 28106  1  0  0  0
 29107  1  0  0  0
 29108  1  0  0  0
 33 34  1  0  0  0
 33 66  1  0  0  0
 33 70  2  0  0  0
 34 36  1  0  0  0
 34 59  1  0  0  0
 34109  1  0  0  0
 35 44  2  0  0  0
 35 45  1  0  0  0
 35 68  1  0  0  0
 36 56  1  0  0  0
 36110  1  0  0  0
 37 39  1  0  0  0
 37 47  1  0  0  0
 37 66  1  0  0  0
 37111  1  0  0  0
 38 43  2  0  0  0
 38 46  1  0  0  0
 38 47  1  0  0  0
 39 64  1  0  0  0
 39 67  2  0  0  0
 40 52  1  0  0  0
 40 53  2  0  0  0
 40 58  1  0  0  0
 41112  1  0  0  0
 41113  1  0  0  0
 41114  1  0  0  0
 41 48  1  0  0  0
 42 43  1  0  0  0
 42 66  1  0  0  0
 42115  1  0  0  0
 42116  1  0  0  0
 43 44  1  0  0  0
 44117  1  0  0  0
 45 46  2  0  0  0
 45118  1  0  0  0
 46119  1  0  0  0
 47120  1  0  0  0
 47121  1  0  0  0
 48 56  1  0  0  0
 48 65  1  0  0  0
 48122  1  0  0  0
 49 50  1  0  0  0
 49 53  1  0  0  0
 49 64  1  0  0  0
 49123  1  0  0  0
 50 51  1  0  0  0
 50124  1  0  0  0
 50125  1  0  0  0
 51 52  1  0  0  0
 51126  1  0  0  0
 51127  1  0  0  0
 52128  1  0  0  0
 52129  1  0  0  0
 53 54  1  0  0  0
 54 55  2  0  0  0
 54130  1  0  0  0
 55 57  1  0  0  0
 55131  1  0  0  0
 56 69  2  0  0  0
 57 58  2  0  0  0
 57132  1  0  0  0
 58133  1  0  0  0
 59 60  1  0  0  0
 59 61  1  0  0  0
 59 62  1  0  0  0
 60134  1  0  0  0
 60135  1  0  0  0
 60136  1  0  0  0
 61137  1  0  0  0
 61138  1  0  0  0
 61139  1  0  0  0
 62140  1  0  0  0
 62141  1  0  0  0
 62142  1  0  0  0
 63 65  1  0  0  0
 63143  1  0  0  0
 63144  1  0  0  0
 63145  1  0  0  0
 64146  1  0  0  0
 65147  1  0  0  0
 68 85  1  0  0  0
 71 72  2  0  0  0
 71 73  1  0  0  0
 71148  1  0  0  0
 72 75  1  0  0  0
 72149  1  0  0  0
 73 76  2  0  0  0
 73150  1  0  0  0
 74 75  2  0  0  0
 74 76  1  0  0  0
 74151  1  0  0  0
 75 77  1  0  0  0
 76 87  1  0  0  0
 77 86  1  0  0  0
 77 88  2  0  0  0
 78 79  1  0  0  0
 78 80  1  0  0  0
 78152  1  0  0  0
 78153  1  0  0  0
 79 86  1  0  0  0
 79154  1  0  0  0
 79155  1  0  0  0
 80 81  1  0  0  0
 80 82  1  0  0  0
 80 85  1  0  0  0
 81 83  1  0  0  0
 81 84  1  0  0  0
 81 86  1  0  0  0
 82156  1  0  0  0
 82157  1  0  0  0
 82158  1  0  0  0
 83159  1  0  0  0
 83160  1  0  0  0
 83161  1  0  0  0
 84162  1  0  0  0
 84163  1  0  0  0
 84164  1  0  0  0
 85165  1  0  0  0
 85166  1  0  0  0
 87167  1  0  0  0
 88168  1  0  0  0
 88169  1  0  0  0
M  CHG  1  88   1
M  ISO  4   1 100  68 101  85 101  87 100
M  END
> <chiral flag>
0

> <version>
0

> <s_m_source_file>
/data/baiqing/PycharmProjects/Reinvent-master-3.2/result/LINK_invent/BTK/process_docking_weight1_custom_product_contain_oxygen_bond_distance_aromatic_linkinvent_7_9_3/rearranged_h_0152.sdf

> <i_m_source_file_index>
60

> <r_mmod_Potential_Energy-OPLS-2005>
-40.9075355529785

> <r_mmod_Stretch_Energy-OPLS-2005>
60.3880729675293

> <r_mmod_Bend_Energy-OPLS-2005>
149.470779418945

> <r_mmod_Torsional_Energy-OPLS-2005>
344.723815917969

> <r_mmod_Improper_Torsional_Energy-OPLS-2005>
5.13742399215698

> <r_mmod_Van_der_Waal_Energy-OPLS-2005>
172.452423095703

> <r_mmod_Electrostatic_Energy-OPLS-2005>
-408.117034912109

> <r_mmod_Solvation_Energy-OPLS-2005>
-384.743865966797

> <b_mmod_Minimization_Converged-OPLS-2005>
0

> <r_mmod_RMS_Derivative-OPLS-2005>
0.996918261051178

$$$$
60
                    3D
 Structure written by MMmdl.
161170  0  0  1  0            999 V2000
  -30.6663  -14.5892   20.5173 C   0  0  0  0  0  0
  -30.4333  -12.3617   19.4571 C   0  0  0  0  0  0
  -29.5143  -12.5042   18.2241 C   0  0  0  0  0  0
  -28.0329  -12.3520   18.6280 C   0  0  0  0  0  0
  -27.6602  -13.2149   19.8658 C   0  0  2  0  0  0
  -28.7018  -13.0627   20.9984 C   0  0  0  0  0  0
  -25.2617  -13.8169   20.5666 C   0  0  0  0  0  0
  -24.1867  -13.0457   20.9160 C   0  0  0  0  0  0
  -24.6430  -11.6916   20.8719 C   0  0  0  0  0  0
  -23.9092  -10.4303   21.0398 C   0  0  0  0  0  0
  -24.3648   -9.4219   21.9177 C   0  0  0  0  0  0
  -23.6330   -8.2255   22.0754 C   0  0  0  0  0  0
  -22.4301   -8.0296   21.3529 C   0  0  0  0  0  0
  -21.9932   -9.0283   20.4644 C   0  0  0  0  0  0
  -22.7258  -10.2162   20.3040 C   0  0  0  0  0  0
  -21.6861   -6.0771   22.5275 C   0  0  0  0  0  0
  -21.4023   -6.5663   23.8216 C   0  0  0  0  0  0
  -21.3652   -5.6800   24.9167 C   0  0  0  0  0  0
  -21.6033   -4.3058   24.7205 C   0  0  0  0  0  0
  -21.8817   -3.8167   23.4324 C   0  0  0  0  0  0
  -21.9206   -4.6994   22.3395 C   0  0  0  0  0  0
  -22.7890  -13.5270   21.1810 C   0  0  0  0  0  0
  -22.1659   -4.2173   21.0971 F   0  0  0  0  0  0
  -21.5628   -3.4538   25.7728 F   0  0  0  0  0  0
  -30.0278  -13.3802   20.4457 N   0  0  0  0  0  0
  -26.3039  -12.9346   20.3320 N   0  0  0  0  0  0
  -25.9358  -11.6503   20.5741 N   0  0  0  0  0  0
  -22.0489  -12.8292   22.0374 N   0  0  0  0  0  0
  -25.4372  -15.1895   20.4102 N   0  0  0  0  0  0
  -31.8067  -14.7516   20.0759 O   0  0  0  0  0  0
  -21.6646   -6.8913   21.4240 O   0  0  0  0  0  0
  -22.3582  -14.5582   20.6684 O   0  0  0  0  0  0
  -24.6235  -31.8636   23.2079 C   0  0  0  0  0  0
  -25.9099  -32.4803   23.8388 C   0  0  1  0  0  0
  -27.2176  -27.3533   20.0998 C   0  0  0  0  0  0
  -25.5937  -33.8607   24.2313 N   0  0  0  0  0  0
  -23.4138  -30.4917   21.5519 C   0  0  2  0  0  0
  -24.8551  -28.9564   20.1090 C   0  0  0  0  0  0
  -22.7464  -29.4653   22.4972 C   0  0  0  0  0  0
  -18.0283  -28.1394   22.8492 C   0  0  0  0  0  0
  -24.1489  -36.7309   23.2637 C   0  0  0  0  0  0
  -25.9529  -30.8014   21.3749 C   0  0  0  0  0  0
  -26.0234  -29.4332   20.7163 C   0  0  0  0  0  0
  -27.2068  -28.6436   20.7052 C   0  0  0  0  0  0
  -26.0243  -26.9253   19.4662 C   0  0  0  0  0  0
  -24.8555  -27.7055   19.4772 C   0  0  0  0  0  0
  -23.6229  -29.8338   20.1644 C   0  0  0  0  0  0
  -25.4106  -36.3096   24.0332 C   0  0  1  0  0  0
  -20.5880  -28.3689   23.1300 C   0  0  2  0  0  0
  -20.6779  -26.9420   22.5406 C   0  0  0  0  0  0
  -19.5744  -26.6395   21.5218 C   0  0  0  0  0  0
  -18.1930  -26.7943   22.1632 C   0  0  0  0  0  0
  -19.1536  -28.8859   23.2895 C   0  0  0  0  0  0
  -18.9457  -30.1467   23.8904 C   0  0  0  0  0  0
  -17.6457  -30.6598   24.0564 C   0  0  0  0  0  0
  -25.9045  -34.9466   23.5119 C   0  0  0  0  0  0
  -16.5352  -29.9100   23.6326 C   0  0  0  0  0  0
  -16.7276  -28.6516   23.0361 C   0  0  0  0  0  0
  -26.4488  -31.6609   25.0748 C   0  0  0  0  0  0
  -25.3725  -31.3756   26.1489 C   0  0  0  0  0  0
  -27.0316  -30.3033   24.6189 C   0  0  0  0  0  0
  -27.6066  -32.4324   25.7496 C   0  0  0  0  0  0
  -27.5577  -37.1803   24.8459 C   0  0  0  0  0  0
  -21.4186  -29.3045   22.3703 N   0  0  0  0  0  0
  -26.4282  -37.3783   23.9420 N   0  0  0  0  0  0
  -24.6824  -31.0689   22.1018 N   0  0  0  0  0  0
  -23.4210  -28.8177   23.3030 O   0  0  0  0  0  0
  -28.3413  -26.5205   20.1498 O   0  0  0  0  0  0
  -26.5613  -34.8918   22.4681 O   0  0  0  0  0  0
  -23.5404  -32.1431   23.7417 O   0  0  0  0  0  0
  -29.0530  -18.0985   18.2794 C   0  0  0  0  0  0
  -29.1898  -16.9114   19.0151 C   0  0  0  0  0  0
  -30.2033  -18.1824   20.8185 C   0  0  0  0  0  0
  -30.0969  -19.4150   20.0761 C   0  0  0  0  0  0
  -29.5453  -19.3318   18.7602 C   0  0  0  0  0  0
  -29.8091  -16.9158   20.2792 C   0  0  0  0  0  0
  -30.4159  -24.3463   20.7951 C   0  0  0  0  0  0
  -29.1935  -24.0815   20.3463 C   0  0  0  0  0  0
  -30.7513  -20.6599   20.6238 C   0  0  0  0  0  0
  -31.2149  -23.0955   21.0675 C   0  0  0  0  0  0
  -28.9844  -22.5623   20.2469 C   0  0  0  0  0  0
  -29.5143  -20.4727   17.7539 C   0  0  0  0  0  0
  -28.0955  -25.0880   19.9373 C   0  0  0  0  0  0
  -30.3157  -21.9749   20.6364 N   0  0  0  0  0  0
  -29.9413  -15.6498   20.9713 N   0  0  0  0  0  0
  -31.9581  -20.4443   21.1478 N   0  3  0  0  0  0
  -31.4793  -12.4587   19.1611 H   0  0  0  0  0  0
  -30.3416  -11.3636   19.8906 H   0  0  0  0  0  0
  -29.7826  -11.7615   17.4718 H   0  0  0  0  0  0
  -29.6702  -13.4772   17.7524 H   0  0  0  0  0  0
  -27.8577  -11.2978   18.8470 H   0  0  0  0  0  0
  -27.3836  -12.5952   17.7874 H   0  0  0  0  0  0
  -27.6827  -14.2525   19.5376 H   0  0  0  0  0  0
  -28.6984  -12.0445   21.3916 H   0  0  0  0  0  0
  -28.4502  -13.7043   21.8457 H   0  0  0  0  0  0
  -25.2781   -9.5727   22.4741 H   0  0  0  0  0  0
  -24.0036   -7.4670   22.7500 H   0  0  0  0  0  0
  -21.0836   -8.8826   19.8989 H   0  0  0  0  0  0
  -22.3710  -10.9716   19.6155 H   0  0  0  0  0  0
  -21.2020   -7.6166   23.9740 H   0  0  0  0  0  0
  -21.1458   -6.0502   25.9073 H   0  0  0  0  0  0
  -22.0615   -2.7628   23.2803 H   0  0  0  0  0  0
  -22.4074  -11.9958   22.4785 H   0  0  0  0  0  0
  -21.1128  -13.1371   22.2572 H   0  0  0  0  0  0
  -24.6752  -15.8449   20.5438 H   0  0  0  0  0  0
  -26.2990  -15.6343   20.1211 H   0  0  0  0  0  0
  -26.7176  -32.5468   23.1147 H   0  0  0  0  0  0
  -25.0077  -33.9759   25.0457 H   0  0  0  0  0  0
  -22.7028  -31.3100   21.4182 H   0  0  0  0  0  0
  -23.3740  -35.9650   23.3292 H   0  0  0  0  0  0
  -24.3580  -36.8934   22.2050 H   0  0  0  0  0  0
  -23.7243  -37.6513   23.6660 H   0  0  0  0  0  0
  -26.0825  -31.5647   20.6060 H   0  0  0  0  0  0
  -26.8347  -30.8467   22.0030 H   0  0  0  0  0  0
  -28.1011  -29.0033   21.1937 H   0  0  0  0  0  0
  -25.9561  -25.9759   18.9559 H   0  0  0  0  0  0
  -23.9618  -27.3359   18.9920 H   0  0  0  0  0  0
  -23.7379  -30.6152   19.4130 H   0  0  0  0  0  0
  -22.7405  -29.2672   19.8612 H   0  0  0  0  0  0
  -25.1277  -36.1954   25.0819 H   0  0  0  0  0  0
  -20.9975  -28.3266   24.1426 H   0  0  0  0  0  0
  -20.5710  -26.2302   23.3609 H   0  0  0  0  0  0
  -21.6648  -26.7482   22.1183 H   0  0  0  0  0  0
  -19.6907  -25.6312   21.1254 H   0  0  0  0  0  0
  -19.6681  -27.3202   20.6749 H   0  0  0  0  0  0
  -17.4201  -26.6699   21.4037 H   0  0  0  0  0  0
  -18.0325  -26.0098   22.9035 H   0  0  0  0  0  0
  -19.7934  -30.7285   24.2284 H   0  0  0  0  0  0
  -17.5013  -31.6277   24.5172 H   0  0  0  0  0  0
  -15.5355  -30.3000   23.7651 H   0  0  0  0  0  0
  -15.8684  -28.0837   22.7072 H   0  0  0  0  0  0
  -24.5886  -30.7124   25.7826 H   0  0  0  0  0  0
  -24.8930  -32.2931   26.4920 H   0  0  0  0  0  0
  -25.8041  -30.8929   27.0275 H   0  0  0  0  0  0
  -26.2889  -29.6803   24.1206 H   0  0  0  0  0  0
  -27.4017  -29.7268   25.4684 H   0  0  0  0  0  0
  -27.8760  -30.4328   23.9409 H   0  0  0  0  0  0
  -27.2717  -33.3625   26.2111 H   0  0  0  0  0  0
  -28.3857  -32.6905   25.0303 H   0  0  0  0  0  0
  -28.0792  -31.8442   26.5386 H   0  0  0  0  0  0
  -28.2596  -38.0098   24.7506 H   0  0  0  0  0  0
  -28.1071  -36.2633   24.6279 H   0  0  0  0  0  0
  -27.2310  -37.1444   25.8865 H   0  0  0  0  0  0
  -20.9365  -29.8773   21.6916 H   0  0  0  0  0  0
  -26.0170  -38.2860   24.1420 H   0  0  0  0  0  0
  -28.6054  -18.0375   17.2978 H   0  0  0  0  0  0
  -28.8320  -15.9927   18.5765 H   0  0  0  0  0  0
  -30.6530  -18.2005   21.8028 H   0  0  0  0  0  0
  -30.8259  -25.3352   20.9467 H   0  0  0  0  0  0
  -31.4641  -23.0353   22.1273 H   0  0  0  0  0  0
  -32.1398  -23.1145   20.4877 H   0  0  0  0  0  0
  -28.6785  -22.3202   19.2351 H   0  0  0  0  0  0
  -28.1968  -22.2363   20.9285 H   0  0  0  0  0  0
  -29.8438  -20.1171   16.7770 H   0  0  0  0  0  0
  -30.1737  -21.3025   18.0026 H   0  0  0  0  0  0
  -28.4951  -20.8406   17.6304 H   0  0  0  0  0  0
  -27.2078  -24.7858   20.4955 H   0  0  0  0  0  0
  -27.8960  -24.9134   18.8794 H   0  0  0  0  0  0
  -29.1106  -15.3641   21.4670 H   0  0  0  0  0  0
  -32.3465  -19.5155   21.0914 H   0  0  0  0  0  0
  -32.4999  -21.1637   21.5952 H   0  0  0  0  0  0
  1 25  1  0  0  0
  1 30  2  0  0  0
  1 85  1  0  0  0
  2  3  1  0  0  0
  2 25  1  0  0  0
  2 87  1  0  0  0
  2 88  1  0  0  0
  3  4  1  0  0  0
  3 89  1  0  0  0
  3 90  1  0  0  0
  4  5  1  0  0  0
  4 91  1  0  0  0
  4 92  1  0  0  0
  5  6  1  0  0  0
  5 26  1  0  0  0
  5 93  1  0  0  0
  6 25  1  0  0  0
  6 94  1  0  0  0
  6 95  1  0  0  0
  7  8  2  0  0  0
  7 26  1  0  0  0
  7 29  1  0  0  0
  8  9  1  0  0  0
  8 22  1  0  0  0
  9 10  1  0  0  0
  9 27  2  0  0  0
 10 11  2  0  0  0
 10 15  1  0  0  0
 11 12  1  0  0  0
 11 96  1  0  0  0
 12 13  2  0  0  0
 12 97  1  0  0  0
 13 14  1  0  0  0
 13 31  1  0  0  0
 14 15  2  0  0  0
 14 98  1  0  0  0
 15 99  1  0  0  0
 16 17  2  0  0  0
 16 21  1  0  0  0
 16 31  1  0  0  0
 17 18  1  0  0  0
 17100  1  0  0  0
 18 19  2  0  0  0
 18101  1  0  0  0
 19 20  1  0  0  0
 19 24  1  0  0  0
 20 21  2  0  0  0
 20102  1  0  0  0
 21 23  1  0  0  0
 22 28  1  0  0  0
 22 32  2  0  0  0
 26 27  1  0  0  0
 28103  1  0  0  0
 28104  1  0  0  0
 29105  1  0  0  0
 29106  1  0  0  0
 33 34  1  0  0  0
 33 66  1  0  0  0
 33 70  2  0  0  0
 34 36  1  0  0  0
 34 59  1  0  0  0
 34107  1  0  0  0
 35 44  2  0  0  0
 35 45  1  0  0  0
 35 68  1  0  0  0
 36 56  1  0  0  0
 36108  1  0  0  0
 37 39  1  0  0  0
 37 47  1  0  0  0
 37 66  1  0  0  0
 37109  1  0  0  0
 38 43  2  0  0  0
 38 46  1  0  0  0
 38 47  1  0  0  0
 39 64  1  0  0  0
 39 67  2  0  0  0
 40 52  1  0  0  0
 40 53  2  0  0  0
 40 58  1  0  0  0
 41110  1  0  0  0
 41111  1  0  0  0
 41112  1  0  0  0
 41 48  1  0  0  0
 42 43  1  0  0  0
 42 66  1  0  0  0
 42113  1  0  0  0
 42114  1  0  0  0
 43 44  1  0  0  0
 44115  1  0  0  0
 45 46  2  0  0  0
 45116  1  0  0  0
 46117  1  0  0  0
 47118  1  0  0  0
 47119  1  0  0  0
 48 56  1  0  0  0
 48 65  1  0  0  0
 48120  1  0  0  0
 49 50  1  0  0  0
 49 53  1  0  0  0
 49 64  1  0  0  0
 49121  1  0  0  0
 50 51  1  0  0  0
 50122  1  0  0  0
 50123  1  0  0  0
 51 52  1  0  0  0
 51124  1  0  0  0
 51125  1  0  0  0
 52126  1  0  0  0
 52127  1  0  0  0
 53 54  1  0  0  0
 54 55  2  0  0  0
 54128  1  0  0  0
 55 57  1  0  0  0
 55129  1  0  0  0
 56 69  2  0  0  0
 57 58  2  0  0  0
 57130  1  0  0  0
 58131  1  0  0  0
 59 60  1  0  0  0
 59 61  1  0  0  0
 59 62  1  0  0  0
 60132  1  0  0  0
 60133  1  0  0  0
 60134  1  0  0  0
 61135  1  0  0  0
 61136  1  0  0  0
 61137  1  0  0  0
 62138  1  0  0  0
 62139  1  0  0  0
 62140  1  0  0  0
 63 65  1  0  0  0
 63141  1  0  0  0
 63142  1  0  0  0
 63143  1  0  0  0
 64144  1  0  0  0
 65145  1  0  0  0
 68 83  1  0  0  0
 71 72  2  0  0  0
 71 75  1  0  0  0
 71146  1  0  0  0
 72 76  1  0  0  0
 72147  1  0  0  0
 73 74  1  0  0  0
 73 76  2  0  0  0
 73148  1  0  0  0
 74 75  2  0  0  0
 74 79  1  0  0  0
 75 82  1  0  0  0
 76 85  1  0  0  0
 77 78  2  0  0  0
 77 80  1  0  0  0
 77149  1  0  0  0
 78 81  1  0  0  0
 78 83  1  0  0  0
 79 84  1  0  0  0
 79 86  2  0  0  0
 80 84  1  0  0  0
 80150  1  0  0  0
 80151  1  0  0  0
 81 84  1  0  0  0
 81152  1  0  0  0
 81153  1  0  0  0
 82154  1  0  0  0
 82155  1  0  0  0
 82156  1  0  0  0
 83157  1  0  0  0
 83158  1  0  0  0
 85159  1  0  0  0
 86160  1  0  0  0
 86161  1  0  0  0
M  CHG  1  86   1
M  ISO  4   1 100  68 101  83 101  85 100
M  END
> <chiral flag>
0

> <version>
0

> <s_m_source_file>
/data/baiqing/PycharmProjects/Reinvent-master-3.2/result/LINK_invent/BTK/process_docking_weight1_custom_product_contain_oxygen_bond_distance_aromatic_linkinvent_7_9_3/rearranged_h_0152.sdf

> <i_m_source_file_index>
61

> <r_mmod_Potential_Energy-OPLS-2005>
-66.0305480957031

> <r_mmod_Stretch_Energy-OPLS-2005>
68.7693405151367

> <r_mmod_Bend_Energy-OPLS-2005>
179.865219116211

> <r_mmod_Torsional_Energy-OPLS-2005>
246.631912231445

> <r_mmod_Improper_Torsional_Energy-OPLS-2005>
7.27110815048218

> <r_mmod_Van_der_Waal_Energy-OPLS-2005>
155.72004699707

> <r_mmod_Electrostatic_Energy-OPLS-2005>
-359.651611328125

> <r_mmod_Solvation_Energy-OPLS-2005>
-400.004150390625

> <b_mmod_Minimization_Converged-OPLS-2005>
0

> <r_mmod_RMS_Derivative-OPLS-2005>
3.58945178985596

$$$$
61
                    3D
 Structure written by MMmdl.
176185  0  0  1  0            999 V2000
  -30.6447  -14.5628   20.5369 C   0  0  0  0  0  0
  -30.4332  -12.3526   19.4424 C   0  0  0  0  0  0
  -29.5058  -12.5146   18.2187 C   0  0  0  0  0  0
  -28.0280  -12.3589   18.6278 C   0  0  0  0  0  0
  -27.6580  -13.2105   19.8710 C   0  0  2  0  0  0
  -28.6986  -13.0229   20.9988 C   0  0  0  0  0  0
  -25.2573  -13.8160   20.5684 C   0  0  0  0  0  0
  -24.1828  -13.0428   20.9182 C   0  0  0  0  0  0
  -24.6387  -11.6897   20.8718 C   0  0  0  0  0  0
  -23.9047  -10.4280   21.0378 C   0  0  0  0  0  0
  -24.3600   -9.4205   21.9169 C   0  0  0  0  0  0
  -23.6270   -8.2239   22.0746 C   0  0  0  0  0  0
  -22.4254   -8.0274   21.3527 C   0  0  0  0  0  0
  -21.9875   -9.0248   20.4633 C   0  0  0  0  0  0
  -22.7212  -10.2123   20.3042 C   0  0  0  0  0  0
  -21.6859   -6.0715   22.5266 C   0  0  0  0  0  0
  -21.4024   -6.5616   23.8197 C   0  0  0  0  0  0
  -21.3655   -5.6772   24.9155 C   0  0  0  0  0  0
  -21.6048   -4.3035   24.7217 C   0  0  0  0  0  0
  -21.8824   -3.8120   23.4335 C   0  0  0  0  0  0
  -21.9194   -4.6940   22.3389 C   0  0  0  0  0  0
  -22.7849  -13.5230   21.1842 C   0  0  0  0  0  0
  -22.1669   -4.2124   21.0962 F   0  0  0  0  0  0
  -21.5611   -3.4526   25.7738 F   0  0  0  0  0  0
  -30.0235  -13.3502   20.4465 N   0  0  0  0  0  0
  -26.2997  -12.9337   20.3315 N   0  0  0  0  0  0
  -25.9314  -11.6497   20.5729 N   0  0  0  0  0  0
  -22.0484  -12.8242   22.0406 N   0  0  0  0  0  0
  -25.4266  -15.1884   20.4118 N   0  0  0  0  0  0
  -31.7863  -14.7471   20.1086 O   0  0  0  0  0  0
  -21.6630   -6.8873   21.4235 O   0  0  0  0  0  0
  -22.3547  -14.5530   20.6671 O   0  0  0  0  0  0
  -24.6202  -31.8634   23.2051 C   0  0  0  0  0  0
  -25.9071  -32.4798   23.8369 C   0  0  1  0  0  0
  -27.2395  -27.3695   20.1190 C   0  0  0  0  0  0
  -25.5911  -33.8591   24.2306 N   0  0  0  0  0  0
  -23.4129  -30.4847   21.5461 C   0  0  2  0  0  0
  -24.8628  -28.9397   20.1167 C   0  0  0  0  0  0
  -22.7449  -29.4629   22.4959 C   0  0  0  0  0  0
  -18.0289  -28.1388   22.8490 C   0  0  0  0  0  0
  -24.1476  -36.7280   23.2635 C   0  0  0  0  0  0
  -25.9476  -30.8121   21.3667 C   0  0  0  0  0  0
  -26.0259  -29.4398   20.7156 C   0  0  0  0  0  0
  -27.2172  -28.6651   20.7058 C   0  0  0  0  0  0
  -26.0575  -26.9056   19.4999 C   0  0  0  0  0  0
  -24.8762  -27.6752   19.5034 C   0  0  0  0  0  0
  -23.6277  -29.8160   20.1614 C   0  0  0  0  0  0
  -25.4095  -36.3080   24.0341 C   0  0  1  0  0  0
  -20.5882  -28.3673   23.1305 C   0  0  2  0  0  0
  -20.6782  -26.9402   22.5419 C   0  0  0  0  0  0
  -19.5752  -26.6388   21.5223 C   0  0  0  0  0  0
  -18.1934  -26.7931   22.1640 C   0  0  0  0  0  0
  -19.1539  -28.8847   23.2903 C   0  0  0  0  0  0
  -18.9466  -30.1445   23.8934 C   0  0  0  0  0  0
  -17.6467  -30.6581   24.0584 C   0  0  0  0  0  0
  -25.9041  -34.9455   23.5125 C   0  0  0  0  0  0
  -16.5359  -29.9096   23.6314 C   0  0  0  0  0  0
  -16.7276  -28.6512   23.0336 C   0  0  0  0  0  0
  -26.4473  -31.6590   25.0713 C   0  0  0  0  0  0
  -25.3736  -31.3769   26.1479 C   0  0  0  0  0  0
  -27.0266  -30.3005   24.6127 C   0  0  0  0  0  0
  -27.6073  -32.4290   25.7454 C   0  0  0  0  0  0
  -27.5567  -37.1790   24.8460 C   0  0  0  0  0  0
  -21.4175  -29.3020   22.3685 N   0  0  0  0  0  0
  -26.4265  -37.3775   23.9424 N   0  0  0  0  0  0
  -24.6786  -31.0686   22.0981 N   0  0  0  0  0  0
  -23.4191  -28.8181   23.3027 O   0  0  0  0  0  0
  -28.4026  -26.5999   20.1195 O   0  0  0  0  0  0
  -26.5604  -34.8923   22.4688 O   0  0  0  0  0  0
  -23.5382  -32.1408   23.7419 O   0  0  0  0  0  0
  -31.0908  -17.7158   20.3756 C   0  0  0  0  0  0
  -28.7776  -17.7916   20.9742 C   0  0  0  0  0  0
  -31.0298  -19.1179   20.1450 C   0  0  0  0  0  0
  -29.9368  -17.0084   20.7795 C   0  0  0  0  0  0
  -29.8068  -19.8136   20.3698 C   0  0  0  0  0  0
  -30.4447  -23.5619   20.5337 C   0  0  0  0  0  0
  -28.6055  -23.0695   18.8437 C   0  0  0  0  0  0
  -30.1631  -22.1530   21.1423 C   0  0  0  0  0  0
  -28.4011  -21.7154   19.5801 C   0  0  0  0  0  0
  -29.3312  -24.2158   19.6316 C   0  0  0  0  0  0
  -30.0587  -25.0947   18.5836 C   0  0  0  0  0  0
  -32.8409  -18.2592   17.6653 C   0  0  0  0  0  0
  -31.2545  -20.1667   17.3176 C   0  0  0  0  0  0
  -33.6895  -20.6056   17.6801 C   0  0  0  0  0  0
  -32.2903  -19.8106   19.6207 C   0  0  0  0  0  0
  -28.3244  -25.1636   20.4176 C   0  0  0  0  0  0
  -32.5077  -19.7050   18.0835 C   0  0  0  0  0  0
  -28.7125  -19.1355   20.7798 N   0  0  0  0  0  0
  -29.6582  -21.2153   20.1379 N   0  0  0  0  0  0
  -29.8615  -15.5753   20.9956 N   0  0  0  0  0  0
  -31.4772  -12.4664   19.1452 H   0  0  0  0  0  0
  -30.3478  -11.3476   19.8574 H   0  0  0  0  0  0
  -29.7576  -11.7833   17.4499 H   0  0  0  0  0  0
  -29.6640  -13.4972   17.7700 H   0  0  0  0  0  0
  -27.8519  -11.3034   18.8390 H   0  0  0  0  0  0
  -27.3789  -12.6130   17.7890 H   0  0  0  0  0  0
  -27.6902  -14.2531   19.5553 H   0  0  0  0  0  0
  -28.6915  -11.9918   21.3528 H   0  0  0  0  0  0
  -28.4490  -13.6293   21.8702 H   0  0  0  0  0  0
  -25.2736   -9.5674   22.4750 H   0  0  0  0  0  0
  -23.9961   -7.4641   22.7471 H   0  0  0  0  0  0
  -21.0787   -8.8761   19.8965 H   0  0  0  0  0  0
  -22.3643  -10.9655   19.6148 H   0  0  0  0  0  0
  -21.2033   -7.6131   23.9695 H   0  0  0  0  0  0
  -21.1466   -6.0498   25.9054 H   0  0  0  0  0  0
  -22.0608   -2.7585   23.2846 H   0  0  0  0  0  0
  -22.4073  -11.9902   22.4812 H   0  0  0  0  0  0
  -21.1102  -13.1287   22.2616 H   0  0  0  0  0  0
  -24.6482  -15.8312   20.5116 H   0  0  0  0  0  0
  -26.2500  -15.6218   20.0160 H   0  0  0  0  0  0
  -26.7148  -32.5502   23.1136 H   0  0  0  0  0  0
  -25.0038  -33.9738   25.0438 H   0  0  0  0  0  0
  -22.7035  -31.3028   21.4030 H   0  0  0  0  0  0
  -23.3749  -35.9598   23.3272 H   0  0  0  0  0  0
  -24.3573  -36.8925   22.2056 H   0  0  0  0  0  0
  -23.7213  -37.6469   23.6674 H   0  0  0  0  0  0
  -26.0663  -31.5772   20.5978 H   0  0  0  0  0  0
  -26.8321  -30.8692   21.9890 H   0  0  0  0  0  0
  -28.1164  -29.0478   21.1679 H   0  0  0  0  0  0
  -26.0407  -25.9488   18.9987 H   0  0  0  0  0  0
  -23.9840  -27.2889   19.0290 H   0  0  0  0  0  0
  -23.7470  -30.5936   19.4054 H   0  0  0  0  0  0
  -22.7478  -29.2462   19.8569 H   0  0  0  0  0  0
  -25.1265  -36.1931   25.0831 H   0  0  0  0  0  0
  -20.9981  -28.3262   24.1427 H   0  0  0  0  0  0
  -20.5686  -26.2284   23.3612 H   0  0  0  0  0  0
  -21.6657  -26.7445   22.1215 H   0  0  0  0  0  0
  -19.6916  -25.6310   21.1222 H   0  0  0  0  0  0
  -19.6673  -27.3221   20.6774 H   0  0  0  0  0  0
  -17.4190  -26.6657   21.4059 H   0  0  0  0  0  0
  -18.0342  -26.0081   22.9045 H   0  0  0  0  0  0
  -19.7942  -30.7247   24.2330 H   0  0  0  0  0  0
  -17.5020  -31.6250   24.5204 H   0  0  0  0  0  0
  -15.5358  -30.3010   23.7616 H   0  0  0  0  0  0
  -15.8682  -28.0843   22.7034 H   0  0  0  0  0  0
  -24.5784  -30.7268   25.7811 H   0  0  0  0  0  0
  -24.9092  -32.2977   26.5025 H   0  0  0  0  0  0
  -25.8047  -30.8802   27.0177 H   0  0  0  0  0  0
  -26.2794  -29.6777   24.1189 H   0  0  0  0  0  0
  -27.4005  -29.7248   25.4603 H   0  0  0  0  0  0
  -27.8660  -30.4274   23.9287 H   0  0  0  0  0  0
  -27.2742  -33.3627   26.1999 H   0  0  0  0  0  0
  -28.3898  -32.6774   25.0269 H   0  0  0  0  0  0
  -28.0705  -31.8412   26.5390 H   0  0  0  0  0  0
  -28.2586  -38.0087   24.7518 H   0  0  0  0  0  0
  -28.1060  -36.2625   24.6250 H   0  0  0  0  0  0
  -27.2298  -37.1414   25.8867 H   0  0  0  0  0  0
  -20.9347  -29.8703   21.6870 H   0  0  0  0  0  0
  -26.0144  -38.2837   24.1469 H   0  0  0  0  0  0
  -32.0257  -17.1988   20.2168 H   0  0  0  0  0  0
  -27.8530  -17.3270   21.2840 H   0  0  0  0  0  0
  -31.3524  -23.4451   19.9387 H   0  0  0  0  0  0
  -30.7269  -24.2499   21.3319 H   0  0  0  0  0  0
  -27.6455  -23.4251   18.4678 H   0  0  0  0  0  0
  -29.1809  -22.8373   17.9467 H   0  0  0  0  0  0
  -29.4328  -22.2331   21.9484 H   0  0  0  0  0  0
  -31.0720  -21.7589   21.5986 H   0  0  0  0  0  0
  -27.9920  -20.9809   18.8854 H   0  0  0  0  0  0
  -27.6686  -21.8252   20.3809 H   0  0  0  0  0  0
  -30.7509  -24.5139   17.9713 H   0  0  0  0  0  0
  -30.6445  -25.8814   19.0602 H   0  0  0  0  0  0
  -29.3553  -25.5729   17.9008 H   0  0  0  0  0  0
  -33.1010  -18.2009   16.6074 H   0  0  0  0  0  0
  -31.9960  -17.5877   17.8139 H   0  0  0  0  0  0
  -33.6853  -17.8638   18.2315 H   0  0  0  0  0  0
  -31.4228  -20.1731   16.2401 H   0  0  0  0  0  0
  -30.9660  -21.1763   17.6109 H   0  0  0  0  0  0
  -30.4025  -19.5129   17.5051 H   0  0  0  0  0  0
  -33.8910  -20.5404   16.6094 H   0  0  0  0  0  0
  -34.6063  -20.3201   18.1977 H   0  0  0  0  0  0
  -33.4961  -21.6543   17.9095 H   0  0  0  0  0  0
  -33.1542  -19.3963   20.1447 H   0  0  0  0  0  0
  -32.2739  -20.8606   19.9066 H   0  0  0  0  0  0
  -28.5237  -25.0711   21.4849 H   0  0  0  0  0  0
  -27.3117  -24.7763   20.3185 H   0  0  0  0  0  0
  -28.9772  -15.2476   21.3542 H   0  0  0  0  0  0
  1 25  1  0  0  0
  1 30  2  0  0  0
  1 90  1  0  0  0
  2  3  1  0  0  0
  2 25  1  0  0  0
  2 91  1  0  0  0
  2 92  1  0  0  0
  3  4  1  0  0  0
  3 93  1  0  0  0
  3 94  1  0  0  0
  4  5  1  0  0  0
  4 95  1  0  0  0
  4 96  1  0  0  0
  5  6  1  0  0  0
  5 26  1  0  0  0
  5 97  1  0  0  0
  6 25  1  0  0  0
  6 98  1  0  0  0
  6 99  1  0  0  0
  7  8  2  0  0  0
  7 26  1  0  0  0
  7 29  1  0  0  0
  8  9  1  0  0  0
  8 22  1  0  0  0
  9 10  1  0  0  0
  9 27  2  0  0  0
 10 11  2  0  0  0
 10 15  1  0  0  0
 11 12  1  0  0  0
 11100  1  0  0  0
 12 13  2  0  0  0
 12101  1  0  0  0
 13 14  1  0  0  0
 13 31  1  0  0  0
 14 15  2  0  0  0
 14102  1  0  0  0
 15103  1  0  0  0
 16 17  2  0  0  0
 16 21  1  0  0  0
 16 31  1  0  0  0
 17 18  1  0  0  0
 17104  1  0  0  0
 18 19  2  0  0  0
 18105  1  0  0  0
 19 20  1  0  0  0
 19 24  1  0  0  0
 20 21  2  0  0  0
 20106  1  0  0  0
 21 23  1  0  0  0
 22 28  1  0  0  0
 22 32  2  0  0  0
 26 27  1  0  0  0
 28107  1  0  0  0
 28108  1  0  0  0
 29109  1  0  0  0
 29110  1  0  0  0
 33 34  1  0  0  0
 33 66  1  0  0  0
 33 70  2  0  0  0
 34 36  1  0  0  0
 34 59  1  0  0  0
 34111  1  0  0  0
 35 44  2  0  0  0
 35 45  1  0  0  0
 35 68  1  0  0  0
 36 56  1  0  0  0
 36112  1  0  0  0
 37 39  1  0  0  0
 37 47  1  0  0  0
 37 66  1  0  0  0
 37113  1  0  0  0
 38 43  2  0  0  0
 38 46  1  0  0  0
 38 47  1  0  0  0
 39 64  1  0  0  0
 39 67  2  0  0  0
 40 52  1  0  0  0
 40 53  2  0  0  0
 40 58  1  0  0  0
 41114  1  0  0  0
 41115  1  0  0  0
 41116  1  0  0  0
 41 48  1  0  0  0
 42 43  1  0  0  0
 42 66  1  0  0  0
 42117  1  0  0  0
 42118  1  0  0  0
 43 44  1  0  0  0
 44119  1  0  0  0
 45 46  2  0  0  0
 45120  1  0  0  0
 46121  1  0  0  0
 47122  1  0  0  0
 47123  1  0  0  0
 48 56  1  0  0  0
 48 65  1  0  0  0
 48124  1  0  0  0
 49 50  1  0  0  0
 49 53  1  0  0  0
 49 64  1  0  0  0
 49125  1  0  0  0
 50 51  1  0  0  0
 50126  1  0  0  0
 50127  1  0  0  0
 51 52  1  0  0  0
 51128  1  0  0  0
 51129  1  0  0  0
 52130  1  0  0  0
 52131  1  0  0  0
 53 54  1  0  0  0
 54 55  2  0  0  0
 54132  1  0  0  0
 55 57  1  0  0  0
 55133  1  0  0  0
 56 69  2  0  0  0
 57 58  2  0  0  0
 57134  1  0  0  0
 58135  1  0  0  0
 59 60  1  0  0  0
 59 61  1  0  0  0
 59 62  1  0  0  0
 60136  1  0  0  0
 60137  1  0  0  0
 60138  1  0  0  0
 61139  1  0  0  0
 61140  1  0  0  0
 61141  1  0  0  0
 62142  1  0  0  0
 62143  1  0  0  0
 62144  1  0  0  0
 63 65  1  0  0  0
 63145  1  0  0  0
 63146  1  0  0  0
 63147  1  0  0  0
 64148  1  0  0  0
 65149  1  0  0  0
 68 86  1  0  0  0
 71 73  2  0  0  0
 71 74  1  0  0  0
 71150  1  0  0  0
 72 74  2  0  0  0
 72 88  1  0  0  0
 72151  1  0  0  0
 73 75  1  0  0  0
 73 85  1  0  0  0
 74 90  1  0  0  0
 75 88  2  0  0  0
 75 89  1  0  0  0
 76 78  1  0  0  0
 76 80  1  0  0  0
 76152  1  0  0  0
 76153  1  0  0  0
 77 79  1  0  0  0
 77 80  1  0  0  0
 77154  1  0  0  0
 77155  1  0  0  0
 78 89  1  0  0  0
 78156  1  0  0  0
 78157  1  0  0  0
 79 89  1  0  0  0
 79158  1  0  0  0
 79159  1  0  0  0
 80 81  1  0  0  0
 80 86  1  0  0  0
 81160  1  0  0  0
 81161  1  0  0  0
 81162  1  0  0  0
 82163  1  0  0  0
 82164  1  0  0  0
 82165  1  0  0  0
 82 87  1  0  0  0
 83 87  1  0  0  0
 83166  1  0  0  0
 83167  1  0  0  0
 83168  1  0  0  0
 84 87  1  0  0  0
 84169  1  0  0  0
 84170  1  0  0  0
 84171  1  0  0  0
 85 87  1  0  0  0
 85172  1  0  0  0
 85173  1  0  0  0
 86174  1  0  0  0
 86175  1  0  0  0
 90176  1  0  0  0
M  ISO  4   1 100  68 101  86 101  90 100
M  END
> <chiral flag>
0

> <version>
0

> <s_m_source_file>
/data/baiqing/PycharmProjects/Reinvent-master-3.2/result/LINK_invent/BTK/process_docking_weight1_custom_product_contain_oxygen_bond_distance_aromatic_linkinvent_7_9_3/rearranged_h_0152.sdf

> <i_m_source_file_index>
62

> <r_mmod_Potential_Energy-OPLS-2005>
-151.335952758789

> <r_mmod_Stretch_Energy-OPLS-2005>
62.6238746643066

> <r_mmod_Bend_Energy-OPLS-2005>
144.182113647461

> <r_mmod_Torsional_Energy-OPLS-2005>
301.542572021484

> <r_mmod_Improper_Torsional_Energy-OPLS-2005>
8.11400127410889

> <r_mmod_Van_der_Waal_Energy-OPLS-2005>
157.622817993164

> <r_mmod_Electrostatic_Energy-OPLS-2005>
-646.664733886719

> <r_mmod_Solvation_Energy-OPLS-2005>
-204.875854492188

> <b_mmod_Minimization_Converged-OPLS-2005>
0

> <r_mmod_RMS_Derivative-OPLS-2005>
2.48205351829529

$$$$
62
                    3D
 Structure written by MMmdl.
147155  0  0  1  0            999 V2000
  -30.1379  -16.1389   20.2983 C   0  0  0  0  0  0
  -30.3694  -13.4654   19.5406 C   0  0  0  0  0  0
  -29.5599  -12.7969   18.3757 C   0  0  0  0  0  0
  -28.1821  -12.3258   18.8483 C   0  0  0  0  0  0
  -27.5788  -13.3646   19.8112 C   0  0  2  0  0  0
  -28.5563  -13.9150   20.8947 C   0  0  0  0  0  0
  -25.2232  -13.8367   20.5884 C   0  0  0  0  0  0
  -24.1679  -13.0443   20.9339 C   0  0  0  0  0  0
  -24.6456  -11.6979   20.8769 C   0  0  0  0  0  0
  -23.9167  -10.4301   21.0376 C   0  0  0  0  0  0
  -24.3682   -9.4212   21.9169 C   0  0  0  0  0  0
  -23.6331   -8.2258   22.0751 C   0  0  0  0  0  0
  -22.4308   -8.0299   21.3546 C   0  0  0  0  0  0
  -21.9965   -9.0276   20.4640 C   0  0  0  0  0  0
  -22.7322  -10.2142   20.3038 C   0  0  0  0  0  0
  -21.6864   -6.0748   22.5281 C   0  0  0  0  0  0
  -21.4028   -6.5647   23.8217 C   0  0  0  0  0  0
  -21.3665   -5.6795   24.9176 C   0  0  0  0  0  0
  -21.6041   -4.3057   24.7222 C   0  0  0  0  0  0
  -21.8815   -3.8153   23.4342 C   0  0  0  0  0  0
  -21.9195   -4.6974   22.3401 C   0  0  0  0  0  0
  -22.7677  -13.5133   21.1943 C   0  0  0  0  0  0
  -22.1661   -4.2159   21.0978 F   0  0  0  0  0  0
  -21.5625   -3.4538   25.7733 F   0  0  0  0  0  0
  -29.6428  -14.6947   20.2043 N   0  0  0  0  0  0
  -26.2750  -12.9811   20.3342 N   0  0  0  0  0  0
  -25.9428  -11.6818   20.5692 N   0  0  0  0  0  0
  -22.0347  -12.8101   22.0489 N   0  0  0  0  0  0
  -25.3743  -15.2116   20.4296 N   0  0  0  0  0  0
  -31.3773  -15.9487   20.1663 O   0  0  0  0  0  0
  -21.6658   -6.8902   21.4247 O   0  0  0  0  0  0
  -22.3349  -14.5426   20.6769 O   0  0  0  0  0  0
  -24.7156  -31.7588   23.1218 C   0  0  0  0  0  0
  -25.9570  -32.4263   23.7894 C   0  0  1  0  0  0
  -27.2441  -26.3553   20.2435 C   0  0  0  0  0  0
  -25.6011  -33.8108   24.1747 N   0  0  0  0  0  0
  -23.5584  -30.3440   21.4833 C   0  0  2  0  0  0
  -25.0211  -28.6122   20.1248 C   0  0  0  0  0  0
  -22.7909  -29.4090   22.4607 C   0  0  0  0  0  0
  -18.0359  -28.1442   22.8432 C   0  0  0  0  0  0
  -24.1494  -36.7063   23.2662 C   0  0  0  0  0  0
  -26.1514  -30.3755   21.4405 C   0  0  0  0  0  0
  -26.2131  -28.9016   20.7966 C   0  0  0  0  0  0
  -27.2891  -27.8121   20.8166 C   0  0  0  0  0  0
  -26.0186  -26.3668   19.5005 C   0  0  0  0  0  0
  -24.9837  -27.3746   19.4516 C   0  0  0  0  0  0
  -23.8326  -29.6088   20.1333 C   0  0  0  0  0  0
  -25.4155  -36.2773   24.0259 C   0  0  1  0  0  0
  -20.6010  -28.3814   23.1078 C   0  0  2  0  0  0
  -20.6809  -26.9440   22.5412 C   0  0  0  0  0  0
  -19.5792  -26.6358   21.5222 C   0  0  0  0  0  0
  -18.1971  -26.7963   22.1610 C   0  0  0  0  0  0
  -19.1635  -28.8958   23.2727 C   0  0  0  0  0  0
  -18.9537  -30.1532   23.8791 C   0  0  0  0  0  0
  -17.6526  -30.6616   24.0542 C   0  0  0  0  0  0
  -25.9160  -34.9175   23.4866 C   0  0  0  0  0  0
  -16.5411  -29.9093   23.6362 C   0  0  0  0  0  0
  -16.7338  -28.6519   23.0372 C   0  0  0  0  0  0
  -26.4643  -31.6449   25.0661 C   0  0  0  0  0  0
  -25.3612  -31.3869   26.1207 C   0  0  0  0  0  0
  -27.0632  -30.2751   24.6818 C   0  0  0  0  0  0
  -27.6028  -32.4396   25.7491 C   0  0  0  0  0  0
  -27.5554  -37.1673   24.8460 C   0  0  0  0  0  0
  -21.4526  -29.2994   22.3357 N   0  0  0  0  0  0
  -26.4244  -37.3578   23.9422 N   0  0  0  0  0  0
  -24.8360  -30.8680   22.0670 N   0  0  0  0  0  0
  -23.4193  -28.7739   23.3103 O   0  0  0  0  0  0
  -28.1610  -24.9802   20.3501 O   0  0  0  0  0  0
  -26.5850  -34.8824   22.4517 O   0  0  0  0  0  0
  -23.6101  -32.0825   23.5951 O   0  0  0  0  0  0
  -29.8009  -19.4372   20.0237 C   0  0  0  0  0  0
  -28.1692  -18.3355   20.8014 C   0  0  0  0  0  0
  -28.7517  -21.0045   20.4887 C   0  0  1  0  0  0
  -26.5933  -20.2122   21.5150 C   0  0  0  0  0  0
  -28.1667  -23.0566   20.0540 C   0  0  0  0  0  0
  -29.4874  -17.6954   20.2929 N   0  0  0  0  0  0
  -27.6967  -19.8699   20.5905 N   0  3  2  0  0  0
  -31.3210  -13.7851   19.1152 H   0  0  0  0  0  0
  -30.6514  -12.7208   20.2875 H   0  0  0  0  0  0
  -30.1186  -11.9633   17.9482 H   0  0  0  0  0  0
  -29.4331  -13.5242   17.5725 H   0  0  0  0  0  0
  -28.3057  -11.3768   19.3718 H   0  0  0  0  0  0
  -27.5201  -12.1344   18.0024 H   0  0  0  0  0  0
  -27.3728  -14.2121   19.1554 H   0  0  0  0  0  0
  -28.9297  -13.1244   21.5476 H   0  0  0  0  0  0
  -28.0248  -14.6066   21.5495 H   0  0  0  0  0  0
  -25.2817   -9.5682   22.4761 H   0  0  0  0  0  0
  -24.0023   -7.4655   22.7482 H   0  0  0  0  0  0
  -21.0892   -8.8809   19.8948 H   0  0  0  0  0  0
  -22.3779  -10.9681   19.6150 H   0  0  0  0  0  0
  -21.2030   -7.6156   23.9726 H   0  0  0  0  0  0
  -21.1489   -6.0524   25.9080 H   0  0  0  0  0  0
  -22.0586   -2.7614   23.2839 H   0  0  0  0  0  0
  -22.3997  -11.9785   22.4891 H   0  0  0  0  0  0
  -21.0947  -13.1083   22.2669 H   0  0  0  0  0  0
  -24.5848  -15.8439   20.5051 H   0  0  0  0  0  0
  -26.1959  -15.6400   20.0270 H   0  0  0  0  0  0
  -26.7684  -32.4653   23.0624 H   0  0  0  0  0  0
  -25.0019  -33.9091   24.9810 H   0  0  0  0  0  0
  -22.9039  -31.1898   21.2629 H   0  0  0  0  0  0
  -23.3790  -35.9353   23.3220 H   0  0  0  0  0  0
  -24.3559  -36.8848   22.2097 H   0  0  0  0  0  0
  -23.7216  -37.6184   23.6835 H   0  0  0  0  0  0
  -26.3891  -31.0756   20.6384 H   0  0  0  0  0  0
  -26.9901  -30.4564   22.1185 H   0  0  0  0  0  0
  -28.1738  -28.0525   21.3893 H   0  0  0  0  0  0
  -25.7944  -25.4553   18.9652 H   0  0  0  0  0  0
  -24.0951  -27.1379   18.8828 H   0  0  0  0  0  0
  -24.0361  -30.3545   19.3642 H   0  0  0  0  0  0
  -22.9312  -29.0922   19.8000 H   0  0  0  0  0  0
  -25.1374  -36.1478   25.0745 H   0  0  0  0  0  0
  -21.0084  -28.3469   24.1209 H   0  0  0  0  0  0
  -20.5645  -26.2443   23.3704 H   0  0  0  0  0  0
  -21.6664  -26.7328   22.1246 H   0  0  0  0  0  0
  -19.6944  -25.6241   21.1318 H   0  0  0  0  0  0
  -19.6754  -27.3113   20.6711 H   0  0  0  0  0  0
  -17.4244  -26.6709   21.4010 H   0  0  0  0  0  0
  -18.0344  -26.0134   22.9032 H   0  0  0  0  0  0
  -19.8015  -30.7368   24.2118 H   0  0  0  0  0  0
  -17.5079  -31.6286   24.5164 H   0  0  0  0  0  0
  -15.5409  -30.2964   23.7751 H   0  0  0  0  0  0
  -15.8736  -28.0804   22.7154 H   0  0  0  0  0  0
  -24.5851  -30.7173   25.7482 H   0  0  0  0  0  0
  -24.8748  -32.3121   26.4307 H   0  0  0  0  0  0
  -25.7696  -30.9234   27.0195 H   0  0  0  0  0  0
  -26.3411  -29.6249   24.1871 H   0  0  0  0  0  0
  -27.3979  -29.7349   25.5683 H   0  0  0  0  0  0
  -27.9416  -30.3799   24.0450 H   0  0  0  0  0  0
  -27.2531  -33.3812   26.1736 H   0  0  0  0  0  0
  -28.3994  -32.6774   25.0428 H   0  0  0  0  0  0
  -28.0527  -31.8757   26.5674 H   0  0  0  0  0  0
  -28.2481  -38.0050   24.7552 H   0  0  0  0  0  0
  -28.1136  -36.2568   24.6221 H   0  0  0  0  0  0
  -27.2279  -37.1215   25.8861 H   0  0  0  0  0  0
  -20.9909  -29.8610   21.6338 H   0  0  0  0  0  0
  -26.0035  -38.2597   24.1488 H   0  0  0  0  0  0
  -30.8022  -19.6125   20.4188 H   0  0  0  0  0  0
  -29.9431  -19.5002   18.9437 H   0  0  0  0  0  0
  -28.1940  -18.1720   21.8800 H   0  0  0  0  0  0
  -27.3576  -17.6989   20.4475 H   0  0  0  0  0  0
  -29.0661  -21.1511   21.5226 H   0  0  0  0  0  0
  -25.8055  -19.4594   21.4698 H   0  0  0  0  0  0
  -26.1403  -21.1696   21.2628 H   0  0  0  0  0  0
  -26.9500  -20.2660   22.5437 H   0  0  0  0  0  0
  -27.0901  -22.9398   20.1640 H   0  0  0  0  0  0
  -28.2959  -23.0635   18.9722 H   0  0  0  0  0  0
  -27.2710  -19.8595   19.6747 H   0  0  0  0  0  0
  1 25  1  0  0  0
  1 30  2  0  0  0
  1 76  1  0  0  0
  2  3  1  0  0  0
  2 25  1  0  0  0
  2 78  1  0  0  0
  2 79  1  0  0  0
  3  4  1  0  0  0
  3 80  1  0  0  0
  3 81  1  0  0  0
  4  5  1  0  0  0
  4 82  1  0  0  0
  4 83  1  0  0  0
  5  6  1  0  0  0
  5 26  1  0  0  0
  5 84  1  0  0  0
  6 25  1  0  0  0
  6 85  1  0  0  0
  6 86  1  0  0  0
  7  8  2  0  0  0
  7 26  1  0  0  0
  7 29  1  0  0  0
  8  9  1  0  0  0
  8 22  1  0  0  0
  9 10  1  0  0  0
  9 27  2  0  0  0
 10 11  2  0  0  0
 10 15  1  0  0  0
 11 12  1  0  0  0
 11 87  1  0  0  0
 12 13  2  0  0  0
 12 88  1  0  0  0
 13 14  1  0  0  0
 13 31  1  0  0  0
 14 15  2  0  0  0
 14 89  1  0  0  0
 15 90  1  0  0  0
 16 17  2  0  0  0
 16 21  1  0  0  0
 16 31  1  0  0  0
 17 18  1  0  0  0
 17 91  1  0  0  0
 18 19  2  0  0  0
 18 92  1  0  0  0
 19 20  1  0  0  0
 19 24  1  0  0  0
 20 21  2  0  0  0
 20 93  1  0  0  0
 21 23  1  0  0  0
 22 28  1  0  0  0
 22 32  2  0  0  0
 26 27  1  0  0  0
 28 94  1  0  0  0
 28 95  1  0  0  0
 29 96  1  0  0  0
 29 97  1  0  0  0
 33 34  1  0  0  0
 33 66  1  0  0  0
 33 70  2  0  0  0
 34 36  1  0  0  0
 34 59  1  0  0  0
 34 98  1  0  0  0
 35 44  2  0  0  0
 35 45  1  0  0  0
 35 68  1  0  0  0
 36 56  1  0  0  0
 36 99  1  0  0  0
 37 39  1  0  0  0
 37 47  1  0  0  0
 37 66  1  0  0  0
 37100  1  0  0  0
 38 43  2  0  0  0
 38 46  1  0  0  0
 38 47  1  0  0  0
 39 64  1  0  0  0
 39 67  2  0  0  0
 40 52  1  0  0  0
 40 53  2  0  0  0
 40 58  1  0  0  0
 41101  1  0  0  0
 41102  1  0  0  0
 41103  1  0  0  0
 41 48  1  0  0  0
 42 43  1  0  0  0
 42 66  1  0  0  0
 42104  1  0  0  0
 42105  1  0  0  0
 43 44  1  0  0  0
 44106  1  0  0  0
 45 46  2  0  0  0
 45107  1  0  0  0
 46108  1  0  0  0
 47109  1  0  0  0
 47110  1  0  0  0
 48 56  1  0  0  0
 48 65  1  0  0  0
 48111  1  0  0  0
 49 50  1  0  0  0
 49 53  1  0  0  0
 49 64  1  0  0  0
 49112  1  0  0  0
 50 51  1  0  0  0
 50113  1  0  0  0
 50114  1  0  0  0
 51 52  1  0  0  0
 51115  1  0  0  0
 51116  1  0  0  0
 52117  1  0  0  0
 52118  1  0  0  0
 53 54  1  0  0  0
 54 55  2  0  0  0
 54119  1  0  0  0
 55 57  1  0  0  0
 55120  1  0  0  0
 56 69  2  0  0  0
 57 58  2  0  0  0
 57121  1  0  0  0
 58122  1  0  0  0
 59 60  1  0  0  0
 59 61  1  0  0  0
 59 62  1  0  0  0
 60123  1  0  0  0
 60124  1  0  0  0
 60125  1  0  0  0
 61126  1  0  0  0
 61127  1  0  0  0
 61128  1  0  0  0
 62129  1  0  0  0
 62130  1  0  0  0
 62131  1  0  0  0
 63 65  1  0  0  0
 63132  1  0  0  0
 63133  1  0  0  0
 63134  1  0  0  0
 64135  1  0  0  0
 65136  1  0  0  0
 68 75  1  0  0  0
 71 73  1  0  0  0
 71 76  1  0  0  0
 71137  1  0  0  0
 71138  1  0  0  0
 72 76  1  0  0  0
 72 77  1  0  0  0
 72139  1  0  0  0
 72140  1  0  0  0
 73 75  1  0  0  0
 73 77  1  0  0  0
 73141  1  0  0  0
 74142  1  0  0  0
 74143  1  0  0  0
 74144  1  0  0  0
 74 77  1  0  0  0
 75145  1  0  0  0
 75146  1  0  0  0
 77147  1  0  0  0
M  CHG  1  77   1
M  ISO  4   1 100  68 101  75 101  76 100
M  END
> <chiral flag>
0

> <version>
0

> <s_m_source_file>
/data/baiqing/PycharmProjects/Reinvent-master-3.2/result/LINK_invent/BTK/process_docking_weight1_custom_product_contain_oxygen_bond_distance_aromatic_linkinvent_7_9_3/rearranged_h_0152.sdf

> <i_m_source_file_index>
63

> <r_mmod_Potential_Energy-OPLS-2005>
4593.4248046875

> <r_mmod_Stretch_Energy-OPLS-2005>
1947.03649902344

> <r_mmod_Bend_Energy-OPLS-2005>
1069.66430664062

> <r_mmod_Torsional_Energy-OPLS-2005>
326.398040771484

> <r_mmod_Improper_Torsional_Energy-OPLS-2005>
7.20011472702026

> <r_mmod_Van_der_Waal_Energy-OPLS-2005>
111.13842010498

> <r_mmod_Electrostatic_Energy-OPLS-2005>
-182.460693359375

> <r_mmod_Solvation_Energy-OPLS-2005>
-481.723999023438

> <b_mmod_Minimization_Converged-OPLS-2005>
0

> <r_mmod_RMS_Derivative-OPLS-2005>
0.620701670646667

$$$$
63
                    3D
 Structure written by MMmdl.
158167  0  0  1  0            999 V2000
  -30.5980  -14.7388   20.4111 C   0  0  0  0  0  0
  -30.4167  -12.4403   19.4770 C   0  0  0  0  0  0
  -29.5114  -12.5255   18.2346 C   0  0  0  0  0  0
  -28.0400  -12.3186   18.6485 C   0  0  0  0  0  0
  -27.6413  -13.2371   19.8428 C   0  0  2  0  0  0
  -28.6731  -13.1758   20.9843 C   0  0  0  0  0  0
  -25.2456  -13.8257   20.5495 C   0  0  0  0  0  0
  -24.1772  -13.0497   20.9119 C   0  0  0  0  0  0
  -24.6393  -11.7002   20.8739 C   0  0  0  0  0  0
  -23.9072  -10.4382   21.0382 C   0  0  0  0  0  0
  -24.3683   -9.4327   21.9155 C   0  0  0  0  0  0
  -23.6374   -8.2341   22.0747 C   0  0  0  0  0  0
  -22.4342   -8.0354   21.3554 C   0  0  0  0  0  0
  -21.9960   -9.0303   20.4653 C   0  0  0  0  0  0
  -22.7245  -10.2188   20.3040 C   0  0  0  0  0  0
  -21.6886   -6.0790   22.5290 C   0  0  0  0  0  0
  -21.4016   -6.5663   23.8230 C   0  0  0  0  0  0
  -21.3651   -5.6775   24.9177 C   0  0  0  0  0  0
  -21.6088   -4.3058   24.7204 C   0  0  0  0  0  0
  -21.8800   -3.8166   23.4295 C   0  0  0  0  0  0
  -21.9219   -4.7006   22.3379 C   0  0  0  0  0  0
  -22.7843  -13.5319   21.1820 C   0  0  0  0  0  0
  -22.1668   -4.2223   21.0942 F   0  0  0  0  0  0
  -21.5677   -3.4528   25.7699 F   0  0  0  0  0  0
  -29.9856  -13.5077   20.4150 N   0  0  0  0  0  0
  -26.2921  -12.9456   20.3196 N   0  0  0  0  0  0
  -25.9333  -11.6631   20.5727 N   0  0  0  0  0  0
  -22.0518  -12.8266   22.0364 N   0  0  0  0  0  0
  -25.4091  -15.1930   20.3605 N   0  0  0  0  0  0
  -31.7870  -14.8221   20.0812 O   0  0  0  0  0  0
  -21.6677   -6.8959   21.4271 O   0  0  0  0  0  0
  -22.3528  -14.5641   20.6712 O   0  0  0  0  0  0
  -24.6274  -31.8509   23.1961 C   0  0  0  0  0  0
  -25.9099  -32.4717   23.8279 C   0  0  1  0  0  0
  -27.2208  -27.2466   20.1441 C   0  0  0  0  0  0
  -25.5920  -33.8545   24.2186 N   0  0  0  0  0  0
  -23.4245  -30.4750   21.5372 C   0  0  2  0  0  0
  -24.8714  -28.9038   20.1215 C   0  0  0  0  0  0
  -22.7503  -29.4583   22.4872 C   0  0  0  0  0  0
  -18.0304  -28.1350   22.8470 C   0  0  0  0  0  0
  -24.1512  -36.7300   23.2616 C   0  0  0  0  0  0
  -25.9703  -30.7636   21.3744 C   0  0  0  0  0  0
  -26.0467  -29.3838   20.7173 C   0  0  0  0  0  0
  -27.2273  -28.5714   20.7021 C   0  0  0  0  0  0
  -26.0202  -26.8211   19.5449 C   0  0  0  0  0  0
  -24.8631  -27.6273   19.5298 C   0  0  0  0  0  0
  -23.6463  -29.7988   20.1580 C   0  0  0  0  0  0
  -25.4121  -36.3066   24.0286 C   0  0  1  0  0  0
  -20.5903  -28.3738   23.1241 C   0  0  2  0  0  0
  -20.6800  -26.9355   22.5598 C   0  0  0  0  0  0
  -19.5779  -26.6024   21.5482 C   0  0  0  0  0  0
  -18.1975  -26.7732   22.1928 C   0  0  0  0  0  0
  -19.1545  -28.8896   23.2761 C   0  0  0  0  0  0
  -18.9462  -30.1547   23.8643 C   0  0  0  0  0  0
  -17.6462  -30.6643   24.0348 C   0  0  0  0  0  0
  -25.9032  -34.9445   23.5064 C   0  0  0  0  0  0
  -16.5359  -29.9084   23.6249 C   0  0  0  0  0  0
  -16.7282  -28.6463   23.0363 C   0  0  0  0  0  0
  -26.4453  -31.6605   25.0705 C   0  0  0  0  0  0
  -25.3634  -31.3903   26.1411 C   0  0  0  0  0  0
  -27.0259  -30.2978   24.6314 C   0  0  0  0  0  0
  -27.5978  -32.4365   25.7493 C   0  0  0  0  0  0
  -27.5588  -37.1787   24.8436 C   0  0  0  0  0  0
  -21.4223  -29.2965   22.3501 N   0  0  0  0  0  0
  -26.4306  -37.3764   23.9374 N   0  0  0  0  0  0
  -24.6932  -31.0452   22.0953 N   0  0  0  0  0  0
  -23.4173  -28.8167   23.3060 O   0  0  0  0  0  0
  -28.3446  -26.3977   20.0721 O   0  0  0  0  0  0
  -26.5666  -34.8936   22.4644 O   0  0  0  0  0  0
  -23.5438  -32.1358   23.7276 O   0  0  0  0  0  0
  -30.2778  -17.2226   18.5769 C   0  0  0  0  0  0
  -29.3081  -18.4587   20.5188 C   0  0  0  0  0  0
  -30.1120  -18.4308   17.8935 C   0  0  0  0  0  0
  -29.5867  -19.6241   18.4749 C   0  0  0  0  0  0
  -29.8440  -17.2007   19.9401 C   0  0  0  0  0  0
  -29.1925  -19.7503   19.8104 C   0  0  0  0  0  0
  -28.9129  -22.3407   19.9109 C   0  0  0  0  0  0
  -30.1397  -19.0205   16.4989 C   0  0  0  0  0  0
  -29.5000  -20.3329   17.1447 C   0  0  0  0  0  0
  -26.5807  -23.1483   20.7234 C   0  0  0  0  0  0
  -28.4010  -25.0160   20.6796 C   0  0  0  0  0  0
  -27.8984  -23.5930   20.0502 C   0  0  1  0  0  0
  -28.5920  -21.0318   20.2727 N   0  0  0  0  0  0
  -29.8290  -15.8772   20.6302 N   0  0  0  0  0  0
  -30.0266  -22.5810   19.4393 O   0  0  0  0  0  0
  -31.4679  -12.5245   19.1886 H   0  0  0  0  0  0
  -30.3055  -11.4583   19.9457 H   0  0  0  0  0  0
  -29.8007  -11.7831   17.4901 H   0  0  0  0  0  0
  -29.6245  -13.4998   17.7601 H   0  0  0  0  0  0
  -27.9223  -11.2699   18.9336 H   0  0  0  0  0  0
  -27.3732  -12.4776   17.8020 H   0  0  0  0  0  0
  -27.6388  -14.2548   19.4589 H   0  0  0  0  0  0
  -28.6808  -12.1735   21.4156 H   0  0  0  0  0  0
  -28.4012  -13.8497   21.7991 H   0  0  0  0  0  0
  -25.2842   -9.5811   22.4683 H   0  0  0  0  0  0
  -24.0127   -7.4732   22.7429 H   0  0  0  0  0  0
  -21.0916   -8.8818   19.8932 H   0  0  0  0  0  0
  -22.3728  -10.9736   19.6156 H   0  0  0  0  0  0
  -21.1958   -7.6158   23.9769 H   0  0  0  0  0  0
  -21.1470   -6.0485   25.9086 H   0  0  0  0  0  0
  -22.0553   -2.7637   23.2773 H   0  0  0  0  0  0
  -22.4231  -11.9904   22.4587 H   0  0  0  0  0  0
  -21.1140  -13.1206   22.2597 H   0  0  0  0  0  0
  -24.6134  -15.8215   20.4085 H   0  0  0  0  0  0
  -26.2064  -15.6086   19.8901 H   0  0  0  0  0  0
  -26.7163  -32.5398   23.1015 H   0  0  0  0  0  0
  -25.0028  -33.9688   25.0309 H   0  0  0  0  0  0
  -22.7185  -31.2962   21.3831 H   0  0  0  0  0  0
  -23.3778  -35.9641   23.3263 H   0  0  0  0  0  0
  -24.3598  -36.8928   22.2032 H   0  0  0  0  0  0
  -23.7300  -37.6489   23.6685 H   0  0  0  0  0  0
  -26.1141  -31.5295   20.6117 H   0  0  0  0  0  0
  -26.8468  -30.8063   22.0121 H   0  0  0  0  0  0
  -28.1386  -28.9528   21.1402 H   0  0  0  0  0  0
  -25.9783  -25.8445   19.0922 H   0  0  0  0  0  0
  -23.9524  -27.2479   19.0822 H   0  0  0  0  0  0
  -23.7790  -30.5724   19.4009 H   0  0  0  0  0  0
  -22.7667  -29.2311   19.8513 H   0  0  0  0  0  0
  -25.1313  -36.1850   25.0781 H   0  0  0  0  0  0
  -20.9919  -28.3507   24.1402 H   0  0  0  0  0  0
  -20.5785  -26.2384   23.3933 H   0  0  0  0  0  0
  -21.6657  -26.7311   22.1400 H   0  0  0  0  0  0
  -19.6882  -25.5722   21.1999 H   0  0  0  0  0  0
  -19.6773  -27.2420   20.6716 H   0  0  0  0  0  0
  -17.4193  -26.6133   21.4445 H   0  0  0  0  0  0
  -18.0583  -26.0159   22.9673 H   0  0  0  0  0  0
  -19.7959  -30.7452   24.1818 H   0  0  0  0  0  0
  -17.5061  -31.6348   24.4875 H   0  0  0  0  0  0
  -15.5332  -30.2979   23.7672 H   0  0  0  0  0  0
  -15.8688  -28.0687   22.7282 H   0  0  0  0  0  0
  -24.5767  -30.7281   25.7781 H   0  0  0  0  0  0
  -24.8883  -32.3163   26.4701 H   0  0  0  0  0  0
  -25.7860  -30.9161   27.0270 H   0  0  0  0  0  0
  -26.2907  -29.6757   24.1234 H   0  0  0  0  0  0
  -27.3702  -29.7239   25.4909 H   0  0  0  0  0  0
  -27.8871  -30.4126   23.9746 H   0  0  0  0  0  0
  -27.2541  -33.3636   26.2109 H   0  0  0  0  0  0
  -28.3802  -32.6965   25.0359 H   0  0  0  0  0  0
  -28.0672  -31.8481   26.5380 H   0  0  0  0  0  0
  -28.2578  -38.0112   24.7474 H   0  0  0  0  0  0
  -28.1107  -36.2625   24.6257 H   0  0  0  0  0  0
  -27.2319  -37.1424   25.8850 H   0  0  0  0  0  0
  -20.9382  -29.8601   21.6669 H   0  0  0  0  0  0
  -26.0152  -38.2816   24.1419 H   0  0  0  0  0  0
  -30.6194  -16.3456   18.0510 H   0  0  0  0  0  0
  -28.9568  -18.4119   21.5384 H   0  0  0  0  0  0
  -29.4842  -18.5306   15.7723 H   0  0  0  0  0  0
  -31.1411  -19.1877   16.1032 H   0  0  0  0  0  0
  -30.1055  -21.2338   17.0639 H   0  0  0  0  0  0
  -28.4681  -20.4948   16.8289 H   0  0  0  0  0  0
  -26.0785  -22.3612   20.1584 H   0  0  0  0  0  0
  -25.8686  -23.9721   20.7882 H   0  0  0  0  0  0
  -26.7498  -22.7858   21.7386 H   0  0  0  0  0  0
  -29.4680  -24.8870   20.8681 H   0  0  0  0  0  0
  -27.9783  -25.1184   21.6749 H   0  0  0  0  0  0
  -27.6350  -23.8114   19.0127 H   0  0  0  0  0  0
  -27.7650  -20.9450   20.8487 H   0  0  0  0  0  0
  -29.0191  -15.7191   21.2094 H   0  0  0  0  0  0
  1 25  1  0  0  0
  1 30  2  0  0  0
  1 84  1  0  0  0
  2  3  1  0  0  0
  2 25  1  0  0  0
  2 86  1  0  0  0
  2 87  1  0  0  0
  3  4  1  0  0  0
  3 88  1  0  0  0
  3 89  1  0  0  0
  4  5  1  0  0  0
  4 90  1  0  0  0
  4 91  1  0  0  0
  5  6  1  0  0  0
  5 26  1  0  0  0
  5 92  1  0  0  0
  6 25  1  0  0  0
  6 93  1  0  0  0
  6 94  1  0  0  0
  7  8  2  0  0  0
  7 26  1  0  0  0
  7 29  1  0  0  0
  8  9  1  0  0  0
  8 22  1  0  0  0
  9 10  1  0  0  0
  9 27  2  0  0  0
 10 11  2  0  0  0
 10 15  1  0  0  0
 11 12  1  0  0  0
 11 95  1  0  0  0
 12 13  2  0  0  0
 12 96  1  0  0  0
 13 14  1  0  0  0
 13 31  1  0  0  0
 14 15  2  0  0  0
 14 97  1  0  0  0
 15 98  1  0  0  0
 16 17  2  0  0  0
 16 21  1  0  0  0
 16 31  1  0  0  0
 17 18  1  0  0  0
 17 99  1  0  0  0
 18 19  2  0  0  0
 18100  1  0  0  0
 19 20  1  0  0  0
 19 24  1  0  0  0
 20 21  2  0  0  0
 20101  1  0  0  0
 21 23  1  0  0  0
 22 28  1  0  0  0
 22 32  2  0  0  0
 26 27  1  0  0  0
 28102  1  0  0  0
 28103  1  0  0  0
 29104  1  0  0  0
 29105  1  0  0  0
 33 34  1  0  0  0
 33 66  1  0  0  0
 33 70  2  0  0  0
 34 36  1  0  0  0
 34 59  1  0  0  0
 34106  1  0  0  0
 35 44  2  0  0  0
 35 45  1  0  0  0
 35 68  1  0  0  0
 36 56  1  0  0  0
 36107  1  0  0  0
 37 39  1  0  0  0
 37 47  1  0  0  0
 37 66  1  0  0  0
 37108  1  0  0  0
 38 43  2  0  0  0
 38 46  1  0  0  0
 38 47  1  0  0  0
 39 64  1  0  0  0
 39 67  2  0  0  0
 40 52  1  0  0  0
 40 53  2  0  0  0
 40 58  1  0  0  0
 41109  1  0  0  0
 41110  1  0  0  0
 41111  1  0  0  0
 41 48  1  0  0  0
 42 43  1  0  0  0
 42 66  1  0  0  0
 42112  1  0  0  0
 42113  1  0  0  0
 43 44  1  0  0  0
 44114  1  0  0  0
 45 46  2  0  0  0
 45115  1  0  0  0
 46116  1  0  0  0
 47117  1  0  0  0
 47118  1  0  0  0
 48 56  1  0  0  0
 48 65  1  0  0  0
 48119  1  0  0  0
 49 50  1  0  0  0
 49 53  1  0  0  0
 49 64  1  0  0  0
 49120  1  0  0  0
 50 51  1  0  0  0
 50121  1  0  0  0
 50122  1  0  0  0
 51 52  1  0  0  0
 51123  1  0  0  0
 51124  1  0  0  0
 52125  1  0  0  0
 52126  1  0  0  0
 53 54  1  0  0  0
 54 55  2  0  0  0
 54127  1  0  0  0
 55 57  1  0  0  0
 55128  1  0  0  0
 56 69  2  0  0  0
 57 58  2  0  0  0
 57129  1  0  0  0
 58130  1  0  0  0
 59 60  1  0  0  0
 59 61  1  0  0  0
 59 62  1  0  0  0
 60131  1  0  0  0
 60132  1  0  0  0
 60133  1  0  0  0
 61134  1  0  0  0
 61135  1  0  0  0
 61136  1  0  0  0
 62137  1  0  0  0
 62138  1  0  0  0
 62139  1  0  0  0
 63 65  1  0  0  0
 63140  1  0  0  0
 63141  1  0  0  0
 63142  1  0  0  0
 64143  1  0  0  0
 65144  1  0  0  0
 68 81  1  0  0  0
 71 73  2  0  0  0
 71 75  1  0  0  0
 71145  1  0  0  0
 72 75  2  0  0  0
 72 76  1  0  0  0
 72146  1  0  0  0
 73 74  1  0  0  0
 73 78  1  0  0  0
 74 76  2  0  0  0
 74 79  1  0  0  0
 75 84  1  0  0  0
 76 83  1  0  0  0
 77 82  1  0  0  0
 77 83  1  0  0  0
 77 85  2  0  0  0
 78 79  1  0  0  0
 78147  1  0  0  0
 78148  1  0  0  0
 79149  1  0  0  0
 79150  1  0  0  0
 80151  1  0  0  0
 80152  1  0  0  0
 80153  1  0  0  0
 80 82  1  0  0  0
 81 82  1  0  0  0
 81154  1  0  0  0
 81155  1  0  0  0
 82156  1  0  0  0
 83157  1  0  0  0
 84158  1  0  0  0
M  ISO  4   1 100  68 101  81 101  84 100
M  END
> <chiral flag>
0

> <version>
0

> <s_m_source_file>
/data/baiqing/PycharmProjects/Reinvent-master-3.2/result/LINK_invent/BTK/process_docking_weight1_custom_product_contain_oxygen_bond_distance_aromatic_linkinvent_7_9_3/rearranged_h_0152.sdf

> <i_m_source_file_index>
64

> <r_mmod_Potential_Energy-OPLS-2005>
603.990112304688

> <r_mmod_Stretch_Energy-OPLS-2005>
158.297286987305

> <r_mmod_Bend_Energy-OPLS-2005>
547.222351074219

> <r_mmod_Torsional_Energy-OPLS-2005>
308.597747802734

> <r_mmod_Improper_Torsional_Energy-OPLS-2005>
8.62311553955078

> <r_mmod_Van_der_Waal_Energy-OPLS-2005>
127.949577331543

> <r_mmod_Electrostatic_Energy-OPLS-2005>
-392.199920654297

> <r_mmod_Solvation_Energy-OPLS-2005>
-239.082092285156

> <b_mmod_Minimization_Converged-OPLS-2005>
0

> <r_mmod_RMS_Derivative-OPLS-2005>
9.29643726348877

$$$$
64
                    3D
 Structure written by MMmdl.
156164  0  0  1  0            999 V2000
  -30.5907  -14.7535   20.4852 C   0  0  0  0  0  0
  -30.4386  -12.4697   19.4565 C   0  0  0  0  0  0
  -29.5079  -12.5098   18.2239 C   0  0  0  0  0  0
  -28.0358  -12.3259   18.6453 C   0  0  0  0  0  0
  -27.6406  -13.2252   19.8466 C   0  0  2  0  0  0
  -28.6886  -13.1480   20.9764 C   0  0  0  0  0  0
  -25.2510  -13.8172   20.5694 C   0  0  0  0  0  0
  -24.1801  -13.0423   20.9223 C   0  0  0  0  0  0
  -24.6384  -11.6905   20.8752 C   0  0  0  0  0  0
  -23.9065  -10.4282   21.0409 C   0  0  0  0  0  0
  -24.3620   -9.4198   21.9186 C   0  0  0  0  0  0
  -23.6295   -8.2233   22.0758 C   0  0  0  0  0  0
  -22.4275   -8.0269   21.3544 C   0  0  0  0  0  0
  -21.9905   -9.0247   20.4651 C   0  0  0  0  0  0
  -22.7242  -10.2127   20.3055 C   0  0  0  0  0  0
  -21.6844   -6.0734   22.5289 C   0  0  0  0  0  0
  -21.4008   -6.5647   23.8218 C   0  0  0  0  0  0
  -21.3661   -5.6799   24.9179 C   0  0  0  0  0  0
  -21.6044   -4.3059   24.7233 C   0  0  0  0  0  0
  -21.8816   -3.8151   23.4350 C   0  0  0  0  0  0
  -21.9199   -4.6963   22.3410 C   0  0  0  0  0  0
  -22.7825  -13.5205   21.1906 C   0  0  0  0  0  0
  -22.1661   -4.2146   21.0986 F   0  0  0  0  0  0
  -21.5632   -3.4539   25.7750 F   0  0  0  0  0  0
  -29.9816  -13.5218   20.3909 N   0  0  0  0  0  0
  -26.2925  -12.9372   20.3264 N   0  0  0  0  0  0
  -25.9306  -11.6518   20.5733 N   0  0  0  0  0  0
  -22.0487  -12.8179   22.0455 N   0  0  0  0  0  0
  -25.4190  -15.1898   20.4097 N   0  0  0  0  0  0
  -31.7885  -14.8728   20.2095 O   0  0  0  0  0  0
  -21.6642   -6.8870   21.4244 O   0  0  0  0  0  0
  -22.3507  -14.5526   20.6776 O   0  0  0  0  0  0
  -24.6316  -31.8532   23.1962 C   0  0  0  0  0  0
  -25.9135  -32.4751   23.8314 C   0  0  1  0  0  0
  -27.2309  -27.2610   20.1416 C   0  0  0  0  0  0
  -25.5931  -33.8561   24.2237 N   0  0  0  0  0  0
  -23.4298  -30.4737   21.5383 C   0  0  2  0  0  0
  -24.8817  -28.9157   20.1124 C   0  0  0  0  0  0
  -22.7496  -29.4597   22.4893 C   0  0  0  0  0  0
  -18.0287  -28.1398   22.8509 C   0  0  0  0  0  0
  -24.1479  -36.7272   23.2645 C   0  0  0  0  0  0
  -25.9744  -30.7710   21.3716 C   0  0  0  0  0  0
  -26.0520  -29.3894   20.7188 C   0  0  0  0  0  0
  -27.2330  -28.5778   20.7161 C   0  0  0  0  0  0
  -26.0374  -26.8484   19.5127 C   0  0  0  0  0  0
  -24.8793  -27.6532   19.4970 C   0  0  0  0  0  0
  -23.6493  -29.8011   20.1567 C   0  0  0  0  0  0
  -25.4107  -36.3074   24.0332 C   0  0  1  0  0  0
  -20.5893  -28.3705   23.1274 C   0  0  2  0  0  0
  -20.6784  -26.9414   22.5421 C   0  0  0  0  0  0
  -19.5759  -26.6385   21.5232 C   0  0  0  0  0  0
  -18.1932  -26.7950   22.1631 C   0  0  0  0  0  0
  -19.1541  -28.8869   23.2890 C   0  0  0  0  0  0
  -18.9464  -30.1472   23.8901 C   0  0  0  0  0  0
  -17.6474  -30.6605   24.0564 C   0  0  0  0  0  0
  -25.9047  -34.9449   23.5085 C   0  0  0  0  0  0
  -16.5355  -29.9105   23.6344 C   0  0  0  0  0  0
  -16.7277  -28.6521   23.0374 C   0  0  0  0  0  0
  -26.4505  -31.6587   25.0702 C   0  0  0  0  0  0
  -25.3732  -31.3762   26.1433 C   0  0  0  0  0  0
  -27.0357  -30.3022   24.6187 C   0  0  0  0  0  0
  -27.6052  -32.4342   25.7482 C   0  0  0  0  0  0
  -27.5567  -37.1779   24.8471 C   0  0  0  0  0  0
  -21.4196  -29.3047   22.3651 N   0  0  0  0  0  0
  -26.4277  -37.3772   23.9426 N   0  0  0  0  0  0
  -24.6979  -31.0509   22.0917 N   0  0  0  0  0  0
  -23.4191  -28.8129   23.2993 O   0  0  0  0  0  0
  -28.3330  -26.3760   20.1448 O   0  0  0  0  0  0
  -26.5609  -34.8933   22.4644 O   0  0  0  0  0  0
  -23.5467  -32.1324   23.7264 O   0  0  0  0  0  0
  -29.3913  -19.9036   20.7974 C   0  0  0  0  0  0
  -30.0254  -18.5184   18.8958 C   0  0  0  0  0  0
  -29.5630  -20.9207   18.6064 C   0  0  0  0  0  0
  -29.7783  -18.5924   20.2762 C   0  0  0  0  0  0
  -29.2642  -21.1083   19.9791 C   0  0  0  0  0  0
  -29.9505  -19.6622   18.0756 C   0  0  0  0  0  0
  -28.7890  -23.7299   19.9177 C   0  0  0  0  0  0
  -31.1993  -20.5626   16.2146 C   0  0  0  0  0  0
  -30.0940  -17.2948   21.1487 C   0  0  0  0  0  0
  -28.1522  -24.9829   20.7003 C   0  0  0  0  0  0
  -28.8499  -22.4551   20.4959 N   0  0  0  0  0  0
  -30.3095  -19.5255   16.7284 N   0  0  0  0  0  0
  -29.7820  -15.8592   20.7105 N   0  0  0  0  0  0
  -29.2286  -23.9485   18.7853 O   0  0  0  0  0  0
  -31.4755  -12.6159   19.1522 H   0  0  0  0  0  0
  -30.4000  -11.4911   19.9374 H   0  0  0  0  0  0
  -29.7903  -11.7330   17.5113 H   0  0  0  0  0  0
  -29.6233  -13.4614   17.7014 H   0  0  0  0  0  0
  -27.9035  -11.2771   18.9152 H   0  0  0  0  0  0
  -27.3710  -12.5098   17.8001 H   0  0  0  0  0  0
  -27.6349  -14.2467   19.4657 H   0  0  0  0  0  0
  -28.7360  -12.1414   21.3951 H   0  0  0  0  0  0
  -28.4234  -13.8085   21.8029 H   0  0  0  0  0  0
  -25.2759   -9.5682   22.4765 H   0  0  0  0  0  0
  -24.0018   -7.4610   22.7463 H   0  0  0  0  0  0
  -21.0844   -8.8755   19.8947 H   0  0  0  0  0  0
  -22.3695  -10.9659   19.6169 H   0  0  0  0  0  0
  -21.1984   -7.6151   23.9721 H   0  0  0  0  0  0
  -21.1483   -6.0530   25.9086 H   0  0  0  0  0  0
  -22.0591   -2.7610   23.2858 H   0  0  0  0  0  0
  -22.4115  -11.9813   22.4791 H   0  0  0  0  0  0
  -21.1105  -13.1186   22.2703 H   0  0  0  0  0  0
  -24.6465  -15.8397   20.5124 H   0  0  0  0  0  0
  -26.2588  -15.6311   20.0583 H   0  0  0  0  0  0
  -26.7204  -32.5425   23.1066 H   0  0  0  0  0  0
  -25.0129  -33.9695   25.0426 H   0  0  0  0  0  0
  -22.7279  -31.2963   21.3869 H   0  0  0  0  0  0
  -23.3757  -35.9589   23.3323 H   0  0  0  0  0  0
  -24.3573  -36.8872   22.2059 H   0  0  0  0  0  0
  -23.7218  -37.6469   23.6661 H   0  0  0  0  0  0
  -26.1055  -31.5298   20.5988 H   0  0  0  0  0  0
  -26.8539  -30.8285   22.0008 H   0  0  0  0  0  0
  -28.1342  -28.9404   21.1912 H   0  0  0  0  0  0
  -25.9955  -25.8789   19.0353 H   0  0  0  0  0  0
  -23.9850  -27.2797   19.0178 H   0  0  0  0  0  0
  -23.7655  -30.5742   19.3960 H   0  0  0  0  0  0
  -22.7698  -29.2277   19.8568 H   0  0  0  0  0  0
  -25.1287  -36.1907   25.0826 H   0  0  0  0  0  0
  -20.9991  -28.3283   24.1391 H   0  0  0  0  0  0
  -20.5704  -26.2304   23.3630 H   0  0  0  0  0  0
  -21.6637  -26.7441   22.1183 H   0  0  0  0  0  0
  -19.6913  -25.6287   21.1270 H   0  0  0  0  0  0
  -19.6716  -27.3199   20.6767 H   0  0  0  0  0  0
  -17.4201  -26.6733   21.4024 H   0  0  0  0  0  0
  -18.0294  -26.0087   22.9016 H   0  0  0  0  0  0
  -19.7938  -30.7295   24.2263 H   0  0  0  0  0  0
  -17.5025  -31.6287   24.5156 H   0  0  0  0  0  0
  -15.5354  -30.3019   23.7683 H   0  0  0  0  0  0
  -15.8667  -28.0842   22.7097 H   0  0  0  0  0  0
  -24.5910  -30.7092   25.7790 H   0  0  0  0  0  0
  -24.8908  -32.2937   26.4812 H   0  0  0  0  0  0
  -25.8048  -30.8984   27.0240 H   0  0  0  0  0  0
  -26.2928  -29.6778   24.1212 H   0  0  0  0  0  0
  -27.4056  -29.7287   25.4696 H   0  0  0  0  0  0
  -27.8811  -30.4314   23.9429 H   0  0  0  0  0  0
  -27.2646  -33.3673   26.1999 H   0  0  0  0  0  0
  -28.3907  -32.6852   25.0334 H   0  0  0  0  0  0
  -28.0697  -31.8506   26.5448 H   0  0  0  0  0  0
  -28.2567  -38.0084   24.7504 H   0  0  0  0  0  0
  -28.1051  -36.2608   24.6286 H   0  0  0  0  0  0
  -27.2289  -37.1414   25.8871 H   0  0  0  0  0  0
  -20.9374  -29.8782   21.6868 H   0  0  0  0  0  0
  -26.0154  -38.2836   24.1445 H   0  0  0  0  0  0
  -29.2081  -19.9914   21.8596 H   0  0  0  0  0  0
  -30.3412  -17.5719   18.4774 H   0  0  0  0  0  0
  -29.4975  -21.7522   17.9259 H   0  0  0  0  0  0
  -31.7380  -20.2038   15.3372 H   0  0  0  0  0  0
  -31.9425  -20.8517   16.9603 H   0  0  0  0  0  0
  -30.6427  -21.4531   15.9240 H   0  0  0  0  0  0
  -29.5915  -17.4324   22.1066 H   0  0  0  0  0  0
  -31.1586  -17.3338   21.3867 H   0  0  0  0  0  0
  -28.6058  -24.9897   21.6916 H   0  0  0  0  0  0
  -27.0964  -24.7713   20.8662 H   0  0  0  0  0  0
  -28.5289  -22.4490   21.4548 H   0  0  0  0  0  0
  -30.5703  -18.5803   16.4500 H   0  0  0  0  0  0
  -28.8035  -15.6258   20.7763 H   0  0  0  0  0  0
  1 25  1  0  0  0
  1 30  2  0  0  0
  1 83  1  0  0  0
  2  3  1  0  0  0
  2 25  1  0  0  0
  2 85  1  0  0  0
  2 86  1  0  0  0
  3  4  1  0  0  0
  3 87  1  0  0  0
  3 88  1  0  0  0
  4  5  1  0  0  0
  4 89  1  0  0  0
  4 90  1  0  0  0
  5  6  1  0  0  0
  5 26  1  0  0  0
  5 91  1  0  0  0
  6 25  1  0  0  0
  6 92  1  0  0  0
  6 93  1  0  0  0
  7  8  2  0  0  0
  7 26  1  0  0  0
  7 29  1  0  0  0
  8  9  1  0  0  0
  8 22  1  0  0  0
  9 10  1  0  0  0
  9 27  2  0  0  0
 10 11  2  0  0  0
 10 15  1  0  0  0
 11 12  1  0  0  0
 11 94  1  0  0  0
 12 13  2  0  0  0
 12 95  1  0  0  0
 13 14  1  0  0  0
 13 31  1  0  0  0
 14 15  2  0  0  0
 14 96  1  0  0  0
 15 97  1  0  0  0
 16 17  2  0  0  0
 16 21  1  0  0  0
 16 31  1  0  0  0
 17 18  1  0  0  0
 17 98  1  0  0  0
 18 19  2  0  0  0
 18 99  1  0  0  0
 19 20  1  0  0  0
 19 24  1  0  0  0
 20 21  2  0  0  0
 20100  1  0  0  0
 21 23  1  0  0  0
 22 28  1  0  0  0
 22 32  2  0  0  0
 26 27  1  0  0  0
 28101  1  0  0  0
 28102  1  0  0  0
 29103  1  0  0  0
 29104  1  0  0  0
 33 34  1  0  0  0
 33 66  1  0  0  0
 33 70  2  0  0  0
 34 36  1  0  0  0
 34 59  1  0  0  0
 34105  1  0  0  0
 35 44  2  0  0  0
 35 45  1  0  0  0
 35 68  1  0  0  0
 36 56  1  0  0  0
 36106  1  0  0  0
 37 39  1  0  0  0
 37 47  1  0  0  0
 37 66  1  0  0  0
 37107  1  0  0  0
 38 43  2  0  0  0
 38 46  1  0  0  0
 38 47  1  0  0  0
 39 64  1  0  0  0
 39 67  2  0  0  0
 40 52  1  0  0  0
 40 53  2  0  0  0
 40 58  1  0  0  0
 41108  1  0  0  0
 41109  1  0  0  0
 41110  1  0  0  0
 41 48  1  0  0  0
 42 43  1  0  0  0
 42 66  1  0  0  0
 42111  1  0  0  0
 42112  1  0  0  0
 43 44  1  0  0  0
 44113  1  0  0  0
 45 46  2  0  0  0
 45114  1  0  0  0
 46115  1  0  0  0
 47116  1  0  0  0
 47117  1  0  0  0
 48 56  1  0  0  0
 48 65  1  0  0  0
 48118  1  0  0  0
 49 50  1  0  0  0
 49 53  1  0  0  0
 49 64  1  0  0  0
 49119  1  0  0  0
 50 51  1  0  0  0
 50120  1  0  0  0
 50121  1  0  0  0
 51 52  1  0  0  0
 51122  1  0  0  0
 51123  1  0  0  0
 52124  1  0  0  0
 52125  1  0  0  0
 53 54  1  0  0  0
 54 55  2  0  0  0
 54126  1  0  0  0
 55 57  1  0  0  0
 55127  1  0  0  0
 56 69  2  0  0  0
 57 58  2  0  0  0
 57128  1  0  0  0
 58129  1  0  0  0
 59 60  1  0  0  0
 59 61  1  0  0  0
 59 62  1  0  0  0
 60130  1  0  0  0
 60131  1  0  0  0
 60132  1  0  0  0
 61133  1  0  0  0
 61134  1  0  0  0
 61135  1  0  0  0
 62136  1  0  0  0
 62137  1  0  0  0
 62138  1  0  0  0
 63 65  1  0  0  0
 63139  1  0  0  0
 63140  1  0  0  0
 63141  1  0  0  0
 64142  1  0  0  0
 65143  1  0  0  0
 68 80  1  0  0  0
 71 74  2  0  0  0
 71 75  1  0  0  0
 71144  1  0  0  0
 72 74  1  0  0  0
 72 76  2  0  0  0
 72145  1  0  0  0
 73 75  2  0  0  0
 73 76  1  0  0  0
 73146  1  0  0  0
 74 79  1  0  0  0
 75 81  1  0  0  0
 76 82  1  0  0  0
 77 80  1  0  0  0
 77 81  1  0  0  0
 77 84  2  0  0  0
 78 82  1  0  0  0
 78147  1  0  0  0
 78148  1  0  0  0
 78149  1  0  0  0
 79 83  1  0  0  0
 79150  1  0  0  0
 79151  1  0  0  0
 80152  1  0  0  0
 80153  1  0  0  0
 81154  1  0  0  0
 82155  1  0  0  0
 83156  1  0  0  0
M  ISO  4   1 100  68 101  80 101  83 100
M  END
> <chiral flag>
0

> <version>
0

> <s_m_source_file>
/data/baiqing/PycharmProjects/Reinvent-master-3.2/result/LINK_invent/BTK/process_docking_weight1_custom_product_contain_oxygen_bond_distance_aromatic_linkinvent_7_9_3/rearranged_h_0152.sdf

> <i_m_source_file_index>
65

> <r_mmod_Potential_Energy-OPLS-2005>
106.102851867676

> <r_mmod_Stretch_Energy-OPLS-2005>
132.205993652344

> <r_mmod_Bend_Energy-OPLS-2005>
167.260345458984

> <r_mmod_Torsional_Energy-OPLS-2005>
233.09245300293

> <r_mmod_Improper_Torsional_Energy-OPLS-2005>
9.06893730163574

> <r_mmod_Van_der_Waal_Energy-OPLS-2005>
137.196533203125

> <r_mmod_Electrostatic_Energy-OPLS-2005>
-391.060272216797

> <r_mmod_Solvation_Energy-OPLS-2005>
-268.417785644531

> <b_mmod_Minimization_Converged-OPLS-2005>
0

> <r_mmod_RMS_Derivative-OPLS-2005>
2.43745875358582

$$$$
65
                    3D
 Structure written by MMmdl.
148156  0  0  1  0            999 V2000
  -30.5839  -14.7907   20.4180 C   0  0  0  0  0  0
  -30.4282  -12.4642   19.4985 C   0  0  0  0  0  0
  -29.5111  -12.4853   18.2539 C   0  0  0  0  0  0
  -28.0349  -12.3232   18.6576 C   0  0  0  0  0  0
  -27.6393  -13.2348   19.8498 C   0  0  2  0  0  0
  -28.6810  -13.1924   20.9898 C   0  0  0  0  0  0
  -25.2504  -13.8225   20.5693 C   0  0  0  0  0  0
  -24.1813  -13.0456   20.9222 C   0  0  0  0  0  0
  -24.6419  -11.6938   20.8785 C   0  0  0  0  0  0
  -23.9106  -10.4304   21.0435 C   0  0  0  0  0  0
  -24.3654   -9.4213   21.9192 C   0  0  0  0  0  0
  -23.6321   -8.2253   22.0765 C   0  0  0  0  0  0
  -22.4291   -8.0319   21.3568 C   0  0  0  0  0  0
  -21.9941   -9.0300   20.4658 C   0  0  0  0  0  0
  -22.7290  -10.2158   20.3074 C   0  0  0  0  0  0
  -21.6855   -6.0775   22.5296 C   0  0  0  0  0  0
  -21.4024   -6.5671   23.8237 C   0  0  0  0  0  0
  -21.3640   -5.6822   24.9192 C   0  0  0  0  0  0
  -21.6037   -4.3088   24.7237 C   0  0  0  0  0  0
  -21.8809   -3.8184   23.4347 C   0  0  0  0  0  0
  -21.9191   -4.7006   22.3407 C   0  0  0  0  0  0
  -22.7837  -13.5241   21.1880 C   0  0  0  0  0  0
  -22.1649   -4.2198   21.0989 F   0  0  0  0  0  0
  -21.5611   -3.4548   25.7733 F   0  0  0  0  0  0
  -29.9808  -13.5460   20.4111 N   0  0  0  0  0  0
  -26.2932  -12.9438   20.3292 N   0  0  0  0  0  0
  -25.9363  -11.6582   20.5809 N   0  0  0  0  0  0
  -22.0462  -12.8248   22.0431 N   0  0  0  0  0  0
  -25.4153  -15.1952   20.4084 N   0  0  0  0  0  0
  -31.7624  -14.8849   20.0645 O   0  0  0  0  0  0
  -21.6658   -6.8919   21.4265 O   0  0  0  0  0  0
  -22.3502  -14.5525   20.6707 O   0  0  0  0  0  0
  -24.6384  -31.8524   23.1968 C   0  0  0  0  0  0
  -25.9191  -32.4737   23.8345 C   0  0  1  0  0  0
  -27.2240  -27.2126   20.1128 C   0  0  0  0  0  0
  -25.5958  -33.8533   24.2278 N   0  0  0  0  0  0
  -23.4362  -30.4758   21.5419 C   0  0  2  0  0  0
  -24.8807  -28.9118   20.1123 C   0  0  0  0  0  0
  -22.7511  -29.4612   22.4902 C   0  0  0  0  0  0
  -18.0297  -28.1386   22.8507 C   0  0  0  0  0  0
  -24.1474  -36.7249   23.2638 C   0  0  0  0  0  0
  -25.9882  -30.7439   21.3849 C   0  0  0  0  0  0
  -26.0577  -29.3623   20.7228 C   0  0  0  0  0  0
  -27.2279  -28.5256   20.7136 C   0  0  0  0  0  0
  -26.0224  -26.8510   19.4608 C   0  0  0  0  0  0
  -24.8723  -27.6657   19.4722 C   0  0  0  0  0  0
  -23.6534  -29.8060   20.1619 C   0  0  0  0  0  0
  -25.4108  -36.3057   24.0339 C   0  0  1  0  0  0
  -20.5912  -28.3733   23.1230 C   0  0  2  0  0  0
  -20.6784  -26.9443   22.5390 C   0  0  0  0  0  0
  -19.5755  -26.6402   21.5200 C   0  0  0  0  0  0
  -18.1942  -26.7940   22.1627 C   0  0  0  0  0  0
  -19.1555  -28.8877   23.2871 C   0  0  0  0  0  0
  -18.9469  -30.1468   23.8908 C   0  0  0  0  0  0
  -17.6465  -30.6598   24.0563 C   0  0  0  0  0  0
  -25.9054  -34.9418   23.5111 C   0  0  0  0  0  0
  -16.5354  -29.9089   23.6336 C   0  0  0  0  0  0
  -16.7280  -28.6486   23.0401 C   0  0  0  0  0  0
  -26.4549  -31.6568   25.0740 C   0  0  0  0  0  0
  -25.3736  -31.3745   26.1429 C   0  0  0  0  0  0
  -27.0400  -30.2967   24.6278 C   0  0  0  0  0  0
  -27.6099  -32.4320   25.7511 C   0  0  0  0  0  0
  -27.5577  -37.1777   24.8479 C   0  0  0  0  0  0
  -21.4220  -29.3062   22.3603 N   0  0  0  0  0  0
  -26.4294  -37.3753   23.9421 N   0  0  0  0  0  0
  -24.7072  -31.0436   22.0967 N   0  0  0  0  0  0
  -23.4176  -28.8156   23.3035 O   0  0  0  0  0  0
  -28.3051  -26.2790   20.1735 O   0  0  0  0  0  0
  -26.5623  -34.8900   22.4677 O   0  0  0  0  0  0
  -23.5518  -32.1371   23.7224 O   0  0  0  0  0  0
  -30.1746  -19.1281   18.9516 C   0  0  0  0  0  0
  -30.3810  -17.7002   19.0419 C   0  0  0  0  0  0
  -29.5666  -19.5598   20.1096 C   0  0  0  0  0  0
  -29.9050  -17.2686   20.2569 C   0  0  0  0  0  0
  -29.0500  -22.0723   19.7528 C   0  0  0  0  0  0
  -29.0212  -23.5571   20.4145 C   0  0  0  0  0  0
  -28.1073  -24.7986   19.8332 C   0  0  0  0  0  0
  -29.2876  -20.8996   20.4844 N   0  0  0  0  0  0
  -29.8083  -15.9226   20.6894 N   0  0  0  0  0  0
  -28.8662  -22.0040   18.5351 O   0  0  0  0  0  0
  -29.3897  -18.4099   20.9251 O   0  0  0  0  0  0
  -31.4685  -12.5828   19.1955 H   0  0  0  0  0  0
  -30.3771  -11.4984   20.0043 H   0  0  0  0  0  0
  -29.7912  -11.6879   17.5638 H   0  0  0  0  0  0
  -29.6462  -13.4263   17.7169 H   0  0  0  0  0  0
  -27.8828  -11.2779   18.9246 H   0  0  0  0  0  0
  -27.3853  -12.5119   17.8023 H   0  0  0  0  0  0
  -27.6286  -14.2506   19.4566 H   0  0  0  0  0  0
  -28.7213  -12.2068   21.4563 H   0  0  0  0  0  0
  -28.4083  -13.8922   21.7816 H   0  0  0  0  0  0
  -25.2786   -9.5688   22.4792 H   0  0  0  0  0  0
  -24.0026   -7.4642   22.7494 H   0  0  0  0  0  0
  -21.0871   -8.8864   19.8961 H   0  0  0  0  0  0
  -22.3772  -10.9737   19.6206 H   0  0  0  0  0  0
  -21.2026   -7.6177   23.9767 H   0  0  0  0  0  0
  -21.1451   -6.0532   25.9097 H   0  0  0  0  0  0
  -22.0586   -2.7647   23.2841 H   0  0  0  0  0  0
  -22.4085  -11.9917   22.4858 H   0  0  0  0  0  0
  -21.1073  -13.1297   22.2623 H   0  0  0  0  0  0
  -24.6442  -15.8413   20.5423 H   0  0  0  0  0  0
  -26.2609  -15.6525   20.0912 H   0  0  0  0  0  0
  -26.7239  -32.5343   23.1058 H   0  0  0  0  0  0
  -25.0120  -33.9686   25.0432 H   0  0  0  0  0  0
  -22.7369  -31.3026   21.3955 H   0  0  0  0  0  0
  -23.3753  -35.9557   23.3312 H   0  0  0  0  0  0
  -24.3559  -36.8854   22.2046 H   0  0  0  0  0  0
  -23.7197  -37.6442   23.6648 H   0  0  0  0  0  0
  -26.1380  -31.4999   20.6137 H   0  0  0  0  0  0
  -26.8599  -30.7907   22.0260 H   0  0  0  0  0  0
  -28.1237  -28.8711   21.2125 H   0  0  0  0  0  0
  -25.9292  -25.9088   18.9411 H   0  0  0  0  0  0
  -23.9737  -27.3180   18.9809 H   0  0  0  0  0  0
  -23.7714  -30.5803   19.4037 H   0  0  0  0  0  0
  -22.7657  -29.2447   19.8658 H   0  0  0  0  0  0
  -25.1266  -36.1933   25.0837 H   0  0  0  0  0  0
  -21.0039  -28.3338   24.1334 H   0  0  0  0  0  0
  -20.5683  -26.2347   23.3614 H   0  0  0  0  0  0
  -21.6642  -26.7447   22.1173 H   0  0  0  0  0  0
  -19.6921  -25.6312   21.1238 H   0  0  0  0  0  0
  -19.6690  -27.3199   20.6728 H   0  0  0  0  0  0
  -17.4206  -26.6709   21.4039 H   0  0  0  0  0  0
  -18.0340  -26.0072   22.9012 H   0  0  0  0  0  0
  -19.7930  -30.7283   24.2299 H   0  0  0  0  0  0
  -17.5006  -31.6283   24.5149 H   0  0  0  0  0  0
  -15.5354  -30.2992   23.7650 H   0  0  0  0  0  0
  -15.8679  -28.0772   22.7183 H   0  0  0  0  0  0
  -24.5925  -30.7094   25.7740 H   0  0  0  0  0  0
  -24.8903  -32.2905   26.4819 H   0  0  0  0  0  0
  -25.7996  -30.8935   27.0237 H   0  0  0  0  0  0
  -26.3005  -29.6712   24.1262 H   0  0  0  0  0  0
  -27.3998  -29.7260   25.4855 H   0  0  0  0  0  0
  -27.8921  -30.4219   23.9593 H   0  0  0  0  0  0
  -27.2728  -33.3652   26.2048 H   0  0  0  0  0  0
  -28.3922  -32.6850   25.0335 H   0  0  0  0  0  0
  -28.0754  -31.8470   26.5460 H   0  0  0  0  0  0
  -28.2600  -38.0074   24.7506 H   0  0  0  0  0  0
  -28.1088  -36.2597   24.6337 H   0  0  0  0  0  0
  -27.2290  -37.1426   25.8888 H   0  0  0  0  0  0
  -20.9434  -29.8724   21.6728 H   0  0  0  0  0  0
  -26.0189  -38.2833   24.1426 H   0  0  0  0  0  0
  -30.4686  -19.7586   18.1216 H   0  0  0  0  0  0
  -30.8245  -17.0679   18.2824 H   0  0  0  0  0  0
  -30.0583  -23.8898   20.3847 H   0  0  0  0  0  0
  -28.7987  -23.4363   21.4744 H   0  0  0  0  0  0
  -27.0934  -24.5309   20.1299 H   0  0  0  0  0  0
  -28.1162  -24.7286   18.7445 H   0  0  0  0  0  0
  -29.2902  -21.0465   21.4842 H   0  0  0  0  0  0
  -28.9527  -15.7084   21.1788 H   0  0  0  0  0  0
  1 25  1  0  0  0
  1 30  2  0  0  0
  1 79  1  0  0  0
  2  3  1  0  0  0
  2 25  1  0  0  0
  2 82  1  0  0  0
  2 83  1  0  0  0
  3  4  1  0  0  0
  3 84  1  0  0  0
  3 85  1  0  0  0
  4  5  1  0  0  0
  4 86  1  0  0  0
  4 87  1  0  0  0
  5  6  1  0  0  0
  5 26  1  0  0  0
  5 88  1  0  0  0
  6 25  1  0  0  0
  6 89  1  0  0  0
  6 90  1  0  0  0
  7  8  2  0  0  0
  7 26  1  0  0  0
  7 29  1  0  0  0
  8  9  1  0  0  0
  8 22  1  0  0  0
  9 10  1  0  0  0
  9 27  2  0  0  0
 10 11  2  0  0  0
 10 15  1  0  0  0
 11 12  1  0  0  0
 11 91  1  0  0  0
 12 13  2  0  0  0
 12 92  1  0  0  0
 13 14  1  0  0  0
 13 31  1  0  0  0
 14 15  2  0  0  0
 14 93  1  0  0  0
 15 94  1  0  0  0
 16 17  2  0  0  0
 16 21  1  0  0  0
 16 31  1  0  0  0
 17 18  1  0  0  0
 17 95  1  0  0  0
 18 19  2  0  0  0
 18 96  1  0  0  0
 19 20  1  0  0  0
 19 24  1  0  0  0
 20 21  2  0  0  0
 20 97  1  0  0  0
 21 23  1  0  0  0
 22 28  1  0  0  0
 22 32  2  0  0  0
 26 27  1  0  0  0
 28 98  1  0  0  0
 28 99  1  0  0  0
 29100  1  0  0  0
 29101  1  0  0  0
 33 34  1  0  0  0
 33 66  1  0  0  0
 33 70  2  0  0  0
 34 36  1  0  0  0
 34 59  1  0  0  0
 34102  1  0  0  0
 35 44  2  0  0  0
 35 45  1  0  0  0
 35 68  1  0  0  0
 36 56  1  0  0  0
 36103  1  0  0  0
 37 39  1  0  0  0
 37 47  1  0  0  0
 37 66  1  0  0  0
 37104  1  0  0  0
 38 43  2  0  0  0
 38 46  1  0  0  0
 38 47  1  0  0  0
 39 64  1  0  0  0
 39 67  2  0  0  0
 40 52  1  0  0  0
 40 53  2  0  0  0
 40 58  1  0  0  0
 41105  1  0  0  0
 41106  1  0  0  0
 41107  1  0  0  0
 41 48  1  0  0  0
 42 43  1  0  0  0
 42 66  1  0  0  0
 42108  1  0  0  0
 42109  1  0  0  0
 43 44  1  0  0  0
 44110  1  0  0  0
 45 46  2  0  0  0
 45111  1  0  0  0
 46112  1  0  0  0
 47113  1  0  0  0
 47114  1  0  0  0
 48 56  1  0  0  0
 48 65  1  0  0  0
 48115  1  0  0  0
 49 50  1  0  0  0
 49 53  1  0  0  0
 49 64  1  0  0  0
 49116  1  0  0  0
 50 51  1  0  0  0
 50117  1  0  0  0
 50118  1  0  0  0
 51 52  1  0  0  0
 51119  1  0  0  0
 51120  1  0  0  0
 52121  1  0  0  0
 52122  1  0  0  0
 53 54  1  0  0  0
 54 55  2  0  0  0
 54123  1  0  0  0
 55 57  1  0  0  0
 55124  1  0  0  0
 56 69  2  0  0  0
 57 58  2  0  0  0
 57125  1  0  0  0
 58126  1  0  0  0
 59 60  1  0  0  0
 59 61  1  0  0  0
 59 62  1  0  0  0
 60127  1  0  0  0
 60128  1  0  0  0
 60129  1  0  0  0
 61130  1  0  0  0
 61131  1  0  0  0
 61132  1  0  0  0
 62133  1  0  0  0
 62134  1  0  0  0
 62135  1  0  0  0
 63 65  1  0  0  0
 63136  1  0  0  0
 63137  1  0  0  0
 63138  1  0  0  0
 64139  1  0  0  0
 65140  1  0  0  0
 68 77  1  0  0  0
 71 72  1  0  0  0
 71 73  2  0  0  0
 71141  1  0  0  0
 72 74  2  0  0  0
 72142  1  0  0  0
 73 78  1  0  0  0
 73 81  1  0  0  0
 74 79  1  0  0  0
 74 81  1  0  0  0
 75 76  1  0  0  0
 75 78  1  0  0  0
 75 80  2  0  0  0
 76 77  1  0  0  0
 76143  1  0  0  0
 76144  1  0  0  0
 77145  1  0  0  0
 77146  1  0  0  0
 78147  1  0  0  0
 79148  1  0  0  0
M  ISO  4   1 100  68 101  77 101  79 100
M  END
> <chiral flag>
0

> <version>
0

> <s_m_source_file>
/data/baiqing/PycharmProjects/Reinvent-master-3.2/result/LINK_invent/BTK/process_docking_weight1_custom_product_contain_oxygen_bond_distance_aromatic_linkinvent_7_9_3/rearranged_h_0152.sdf

> <i_m_source_file_index>
66

> <r_mmod_Potential_Energy-OPLS-2005>
166.784942626953

> <r_mmod_Stretch_Energy-OPLS-2005>
150.870025634766

> <r_mmod_Bend_Energy-OPLS-2005>
199.475341796875

> <r_mmod_Torsional_Energy-OPLS-2005>
238.975997924805

> <r_mmod_Improper_Torsional_Energy-OPLS-2005>
4.11683177947998

> <r_mmod_Van_der_Waal_Energy-OPLS-2005>
120.055564880371

> <r_mmod_Electrostatic_Energy-OPLS-2005>
-423.062316894531

> <r_mmod_Solvation_Energy-OPLS-2005>
-235.824401855469

> <b_mmod_Minimization_Converged-OPLS-2005>
0

> <r_mmod_RMS_Derivative-OPLS-2005>
4.04584550857544

$$$$
66
                    3D
 Structure written by MMmdl.
162171  0  0  1  0            999 V2000
  -30.6094  -14.7801   20.4271 C   0  0  0  0  0  0
  -30.4244  -12.4767   19.4729 C   0  0  0  0  0  0
  -29.5103  -12.5185   18.2277 C   0  0  0  0  0  0
  -28.0297  -12.3556   18.6314 C   0  0  0  0  0  0
  -27.6359  -13.2434   19.8413 C   0  0  2  0  0  0
  -28.6819  -13.1962   20.9775 C   0  0  0  0  0  0
  -25.2496  -13.8203   20.5670 C   0  0  0  0  0  0
  -24.1817  -13.0447   20.9198 C   0  0  0  0  0  0
  -24.6420  -11.6926   20.8719 C   0  0  0  0  0  0
  -23.9081  -10.4275   21.0379 C   0  0  0  0  0  0
  -24.3621   -9.4198   21.9170 C   0  0  0  0  0  0
  -23.6294   -8.2241   22.0749 C   0  0  0  0  0  0
  -22.4288   -8.0243   21.3523 C   0  0  0  0  0  0
  -21.9897   -9.0228   20.4652 C   0  0  0  0  0  0
  -22.7233  -10.2114   20.3051 C   0  0  0  0  0  0
  -21.6869   -6.0696   22.5256 C   0  0  0  0  0  0
  -21.4042   -6.5611   23.8183 C   0  0  0  0  0  0
  -21.3657   -5.6776   24.9135 C   0  0  0  0  0  0
  -21.6046   -4.3029   24.7219 C   0  0  0  0  0  0
  -21.8830   -3.8118   23.4334 C   0  0  0  0  0  0
  -21.9206   -4.6924   22.3386 C   0  0  0  0  0  0
  -22.7825  -13.5202   21.1810 C   0  0  0  0  0  0
  -22.1680   -4.2100   21.0973 F   0  0  0  0  0  0
  -21.5606   -3.4531   25.7734 F   0  0  0  0  0  0
  -29.9757  -13.5554   20.3857 N   0  0  0  0  0  0
  -26.2911  -12.9441   20.3222 N   0  0  0  0  0  0
  -25.9354  -11.6565   20.5745 N   0  0  0  0  0  0
  -22.0517  -12.8213   22.0399 N   0  0  0  0  0  0
  -25.4112  -15.1941   20.4061 N   0  0  0  0  0  0
  -31.8116  -14.8209   20.1567 O   0  0  0  0  0  0
  -21.6656   -6.8837   21.4209 O   0  0  0  0  0  0
  -22.3507  -14.5476   20.6592 O   0  0  0  0  0  0
  -24.6274  -31.8567   23.2004 C   0  0  0  0  0  0
  -25.9134  -32.4747   23.8313 C   0  0  1  0  0  0
  -27.2345  -27.2882   20.0934 C   0  0  0  0  0  0
  -25.5954  -33.8556   24.2211 N   0  0  0  0  0  0
  -23.4212  -30.4747   21.5466 C   0  0  2  0  0  0
  -24.8660  -28.9114   20.1238 C   0  0  0  0  0  0
  -22.7471  -29.4624   22.4996 C   0  0  0  0  0  0
  -18.0287  -28.1426   22.8471 C   0  0  0  0  0  0
  -24.1501  -36.7263   23.2623 C   0  0  0  0  0  0
  -25.9672  -30.7659   21.3838 C   0  0  0  0  0  0
  -26.0402  -29.3943   20.7152 C   0  0  0  0  0  0
  -27.2229  -28.5926   20.6887 C   0  0  0  0  0  0
  -26.0344  -26.8614   19.4853 C   0  0  0  0  0  0
  -24.8651  -27.6496   19.5057 C   0  0  0  0  0  0
  -23.6381  -29.7945   20.1699 C   0  0  0  0  0  0
  -25.4142  -36.3034   24.0281 C   0  0  1  0  0  0
  -20.5867  -28.3741   23.1278 C   0  0  2  0  0  0
  -20.6805  -26.9485   22.5373 C   0  0  0  0  0  0
  -19.5798  -26.6430   21.5181 C   0  0  0  0  0  0
  -18.1963  -26.7969   22.1595 C   0  0  0  0  0  0
  -19.1530  -28.8908   23.2861 C   0  0  0  0  0  0
  -18.9451  -30.1496   23.8900 C   0  0  0  0  0  0
  -17.6453  -30.6627   24.0574 C   0  0  0  0  0  0
  -25.9081  -34.9423   23.5034 C   0  0  0  0  0  0
  -16.5352  -29.9112   23.6349 C   0  0  0  0  0  0
  -16.7265  -28.6524   23.0360 C   0  0  0  0  0  0
  -26.4487  -31.6599   25.0723 C   0  0  0  0  0  0
  -25.3693  -31.3814   26.1430 C   0  0  0  0  0  0
  -27.0314  -30.2981   24.6276 C   0  0  0  0  0  0
  -27.6011  -32.4382   25.7503 C   0  0  0  0  0  0
  -27.5583  -37.1799   24.8460 C   0  0  0  0  0  0
  -21.4190  -29.3075   22.3691 N   0  0  0  0  0  0
  -26.4314  -37.3748   23.9375 N   0  0  0  0  0  0
  -24.6906  -31.0516   22.0987 N   0  0  0  0  0  0
  -23.4161  -28.8173   23.3107 O   0  0  0  0  0  0
  -28.3760  -26.4638   20.1432 O   0  0  0  0  0  0
  -26.5625  -34.8888   22.4580 O   0  0  0  0  0  0
  -23.5436  -32.1387   23.7328 O   0  0  0  0  0  0
  -30.7651  -20.0927   19.3361 C   0  0  0  0  0  0
  -29.3074  -18.5357   20.5266 C   0  0  0  0  0  0
  -31.3140  -17.6984   19.4505 C   0  0  0  0  0  0
  -29.5895  -19.9058   20.0913 C   0  0  0  0  0  0
  -31.6100  -19.0158   19.0265 C   0  0  0  0  0  0
  -30.1575  -17.3814   20.2123 C   0  0  0  0  0  0
  -28.6762  -21.1377   20.2397 C   0  0  0  0  0  0
  -30.0986  -23.7394   22.1105 C   0  0  0  0  0  0
  -28.6036  -24.1245   22.0240 C   0  0  0  0  0  0
  -30.3812  -22.8394   20.8972 C   0  0  0  0  0  0
  -28.1917  -23.7628   20.5956 C   0  0  2  0  0  0
  -28.4586  -25.0504   19.6407 C   0  0  0  0  0  0
  -29.0408  -22.4816   20.4084 N   0  0  0  0  0  0
  -32.7579  -19.2635   18.2690 N   0  0  0  0  0  0
  -29.8583  -15.9505   20.5778 N   0  0  0  0  0  0
  -27.3717  -20.8955   20.1643 N   0  3  0  0  0  0
  -31.4654  -12.5993   19.1705 H   0  0  0  0  0  0
  -30.3663  -11.5054   19.9674 H   0  0  0  0  0  0
  -29.7957  -11.7439   17.5127 H   0  0  0  0  0  0
  -29.6458  -13.4690   17.7063 H   0  0  0  0  0  0
  -27.8605  -11.3044   18.8711 H   0  0  0  0  0  0
  -27.3873  -12.5741   17.7769 H   0  0  0  0  0  0
  -27.6210  -14.2634   19.4576 H   0  0  0  0  0  0
  -28.7341  -12.2071   21.4382 H   0  0  0  0  0  0
  -28.4193  -13.8925   21.7773 H   0  0  0  0  0  0
  -25.2770   -9.5681   22.4745 H   0  0  0  0  0  0
  -23.9994   -7.4641   22.7499 H   0  0  0  0  0  0
  -21.0812   -8.8748   19.9000 H   0  0  0  0  0  0
  -22.3670  -10.9629   19.6169 H   0  0  0  0  0  0
  -21.2080   -7.6133   23.9656 H   0  0  0  0  0  0
  -21.1463   -6.0520   25.9037 H   0  0  0  0  0  0
  -22.0629   -2.7574   23.2859 H   0  0  0  0  0  0
  -22.4155  -11.9929   22.4845 H   0  0  0  0  0  0
  -21.1107  -13.1215   22.2571 H   0  0  0  0  0  0
  -24.6324  -15.8351   20.5050 H   0  0  0  0  0  0
  -26.2436  -15.6352   20.0361 H   0  0  0  0  0  0
  -26.7198  -32.5352   23.1041 H   0  0  0  0  0  0
  -25.0173  -33.9723   25.0394 H   0  0  0  0  0  0
  -22.7209  -31.2995   21.3983 H   0  0  0  0  0  0
  -23.3755  -35.9612   23.3309 H   0  0  0  0  0  0
  -24.3552  -36.8875   22.2033 H   0  0  0  0  0  0
  -23.7303  -37.6475   23.6660 H   0  0  0  0  0  0
  -26.1197  -31.5349   20.6272 H   0  0  0  0  0  0
  -26.8411  -30.8000   22.0228 H   0  0  0  0  0  0
  -28.1284  -28.9634   21.1508 H   0  0  0  0  0  0
  -25.9703  -25.9033   18.9961 H   0  0  0  0  0  0
  -23.9591  -27.2672   19.0574 H   0  0  0  0  0  0
  -23.7766  -30.5656   19.4143 H   0  0  0  0  0  0
  -22.7541  -29.2332   19.8597 H   0  0  0  0  0  0
  -25.1351  -36.1847   25.0785 H   0  0  0  0  0  0
  -20.9940  -28.3336   24.1411 H   0  0  0  0  0  0
  -20.5782  -26.2355   23.3560 H   0  0  0  0  0  0
  -21.6659  -26.7605   22.1124 H   0  0  0  0  0  0
  -19.6980  -25.6329   21.1234 H   0  0  0  0  0  0
  -19.6716  -27.3215   20.6692 H   0  0  0  0  0  0
  -17.4219  -26.6675   21.4011 H   0  0  0  0  0  0
  -18.0429  -26.0111   22.9011 H   0  0  0  0  0  0
  -19.7911  -30.7307   24.2273 H   0  0  0  0  0  0
  -17.5005  -31.6296   24.5188 H   0  0  0  0  0  0
  -15.5351  -30.3020   23.7698 H   0  0  0  0  0  0
  -15.8648  -28.0846   22.7108 H   0  0  0  0  0  0
  -24.5842  -30.7188   25.7781 H   0  0  0  0  0  0
  -24.8897  -32.3018   26.4799 H   0  0  0  0  0  0
  -25.7966  -30.9022   27.0254 H   0  0  0  0  0  0
  -26.2907  -29.6759   24.1241 H   0  0  0  0  0  0
  -27.3870  -29.7241   25.4858 H   0  0  0  0  0  0
  -27.8862  -30.4199   23.9611 H   0  0  0  0  0  0
  -27.2575  -33.3707   26.2008 H   0  0  0  0  0  0
  -28.3848  -32.6934   25.0356 H   0  0  0  0  0  0
  -28.0648  -31.8568   26.5483 H   0  0  0  0  0  0
  -28.2600  -38.0093   24.7471 H   0  0  0  0  0  0
  -28.1072  -36.2612   24.6348 H   0  0  0  0  0  0
  -27.2257  -37.1516   25.8850 H   0  0  0  0  0  0
  -20.9444  -29.8689   21.6756 H   0  0  0  0  0  0
  -26.0154  -38.2805   24.1377 H   0  0  0  0  0  0
  -31.0139  -21.0757   18.9628 H   0  0  0  0  0  0
  -28.3980  -18.3717   21.0876 H   0  0  0  0  0  0
  -31.9947  -16.9248   19.1376 H   0  0  0  0  0  0
  -30.3131  -23.2060   23.0390 H   0  0  0  0  0  0
  -30.7291  -24.6278   22.0804 H   0  0  0  0  0  0
  -28.4271  -25.1705   22.2776 H   0  0  0  0  0  0
  -28.0141  -23.5335   22.7227 H   0  0  0  0  0  0
  -31.0016  -21.9884   21.1812 H   0  0  0  0  0  0
  -30.9165  -23.3916   20.1245 H   0  0  0  0  0  0
  -27.1241  -23.5440   20.5693 H   0  0  0  0  0  0
  -27.8563  -24.9489   18.7385 H   0  0  0  0  0  0
  -29.4771  -24.9681   19.2599 H   0  0  0  0  0  0
  -33.2210  -18.4670   17.8406 H   0  0  0  0  0  0
  -32.7683  -20.0867   17.6755 H   0  0  0  0  0  0
  -28.9147  -15.7893   20.8979 H   0  0  0  0  0  0
  -27.0673  -19.9433   20.0493 H   0  0  0  0  0  0
  -26.6703  -21.6110   20.2402 H   0  0  0  0  0  0
  1 25  1  0  0  0
  1 30  2  0  0  0
  1 85  1  0  0  0
  2  3  1  0  0  0
  2 25  1  0  0  0
  2 87  1  0  0  0
  2 88  1  0  0  0
  3  4  1  0  0  0
  3 89  1  0  0  0
  3 90  1  0  0  0
  4  5  1  0  0  0
  4 91  1  0  0  0
  4 92  1  0  0  0
  5  6  1  0  0  0
  5 26  1  0  0  0
  5 93  1  0  0  0
  6 25  1  0  0  0
  6 94  1  0  0  0
  6 95  1  0  0  0
  7  8  2  0  0  0
  7 26  1  0  0  0
  7 29  1  0  0  0
  8  9  1  0  0  0
  8 22  1  0  0  0
  9 10  1  0  0  0
  9 27  2  0  0  0
 10 11  2  0  0  0
 10 15  1  0  0  0
 11 12  1  0  0  0
 11 96  1  0  0  0
 12 13  2  0  0  0
 12 97  1  0  0  0
 13 14  1  0  0  0
 13 31  1  0  0  0
 14 15  2  0  0  0
 14 98  1  0  0  0
 15 99  1  0  0  0
 16 17  2  0  0  0
 16 21  1  0  0  0
 16 31  1  0  0  0
 17 18  1  0  0  0
 17100  1  0  0  0
 18 19  2  0  0  0
 18101  1  0  0  0
 19 20  1  0  0  0
 19 24  1  0  0  0
 20 21  2  0  0  0
 20102  1  0  0  0
 21 23  1  0  0  0
 22 28  1  0  0  0
 22 32  2  0  0  0
 26 27  1  0  0  0
 28103  1  0  0  0
 28104  1  0  0  0
 29105  1  0  0  0
 29106  1  0  0  0
 33 34  1  0  0  0
 33 66  1  0  0  0
 33 70  2  0  0  0
 34 36  1  0  0  0
 34 59  1  0  0  0
 34107  1  0  0  0
 35 44  2  0  0  0
 35 45  1  0  0  0
 35 68  1  0  0  0
 36 56  1  0  0  0
 36108  1  0  0  0
 37 39  1  0  0  0
 37 47  1  0  0  0
 37 66  1  0  0  0
 37109  1  0  0  0
 38 43  2  0  0  0
 38 46  1  0  0  0
 38 47  1  0  0  0
 39 64  1  0  0  0
 39 67  2  0  0  0
 40 52  1  0  0  0
 40 53  2  0  0  0
 40 58  1  0  0  0
 41110  1  0  0  0
 41111  1  0  0  0
 41112  1  0  0  0
 41 48  1  0  0  0
 42 43  1  0  0  0
 42 66  1  0  0  0
 42113  1  0  0  0
 42114  1  0  0  0
 43 44  1  0  0  0
 44115  1  0  0  0
 45 46  2  0  0  0
 45116  1  0  0  0
 46117  1  0  0  0
 47118  1  0  0  0
 47119  1  0  0  0
 48 56  1  0  0  0
 48 65  1  0  0  0
 48120  1  0  0  0
 49 50  1  0  0  0
 49 53  1  0  0  0
 49 64  1  0  0  0
 49121  1  0  0  0
 50 51  1  0  0  0
 50122  1  0  0  0
 50123  1  0  0  0
 51 52  1  0  0  0
 51124  1  0  0  0
 51125  1  0  0  0
 52126  1  0  0  0
 52127  1  0  0  0
 53 54  1  0  0  0
 54 55  2  0  0  0
 54128  1  0  0  0
 55 57  1  0  0  0
 55129  1  0  0  0
 56 69  2  0  0  0
 57 58  2  0  0  0
 57130  1  0  0  0
 58131  1  0  0  0
 59 60  1  0  0  0
 59 61  1  0  0  0
 59 62  1  0  0  0
 60132  1  0  0  0
 60133  1  0  0  0
 60134  1  0  0  0
 61135  1  0  0  0
 61136  1  0  0  0
 61137  1  0  0  0
 62138  1  0  0  0
 62139  1  0  0  0
 62140  1  0  0  0
 63 65  1  0  0  0
 63141  1  0  0  0
 63142  1  0  0  0
 63143  1  0  0  0
 64144  1  0  0  0
 65145  1  0  0  0
 68 82  1  0  0  0
 71 74  2  0  0  0
 71 75  1  0  0  0
 71146  1  0  0  0
 72 74  1  0  0  0
 72 76  2  0  0  0
 72147  1  0  0  0
 73 75  2  0  0  0
 73 76  1  0  0  0
 73148  1  0  0  0
 74 77  1  0  0  0
 75 84  1  0  0  0
 76 85  1  0  0  0
 77 83  1  0  0  0
 77 86  2  0  0  0
 78 79  1  0  0  0
 78 80  1  0  0  0
 78149  1  0  0  0
 78150  1  0  0  0
 79 81  1  0  0  0
 79151  1  0  0  0
 79152  1  0  0  0
 80 83  1  0  0  0
 80153  1  0  0  0
 80154  1  0  0  0
 81 82  1  0  0  0
 81 83  1  0  0  0
 81155  1  0  0  0
 82156  1  0  0  0
 82157  1  0  0  0
 84158  1  0  0  0
 84159  1  0  0  0
 85160  1  0  0  0
 86161  1  0  0  0
 86162  1  0  0  0
M  CHG  1  86   1
M  ISO  4   1 100  68 101  82 101  85 100
M  END
> <chiral flag>
0

> <version>
0

> <s_m_source_file>
/data/baiqing/PycharmProjects/Reinvent-master-3.2/result/LINK_invent/BTK/process_docking_weight1_custom_product_contain_oxygen_bond_distance_aromatic_linkinvent_7_9_3/rearranged_h_0152.sdf

> <i_m_source_file_index>
67

> <r_mmod_Potential_Energy-OPLS-2005>
94.3344345092773

> <r_mmod_Stretch_Energy-OPLS-2005>
136.25178527832

> <r_mmod_Bend_Energy-OPLS-2005>
229.474822998047

> <r_mmod_Torsional_Energy-OPLS-2005>
295.032409667969

> <r_mmod_Improper_Torsional_Energy-OPLS-2005>
9.65689086914062

> <r_mmod_Van_der_Waal_Energy-OPLS-2005>
144.053482055664

> <r_mmod_Electrostatic_Energy-OPLS-2005>
-389.770385742188

> <r_mmod_Solvation_Energy-OPLS-2005>
-414.670227050781

> <b_mmod_Minimization_Converged-OPLS-2005>
0

> <r_mmod_RMS_Derivative-OPLS-2005>
5.64206075668335

$$$$
67
                    3D
 Structure written by MMmdl.
153162  0  0  1  0            999 V2000
  -30.5892  -14.7990   20.4480 C   0  0  0  0  0  0
  -30.4370  -12.4845   19.4934 C   0  0  0  0  0  0
  -29.5189  -12.5188   18.2502 C   0  0  0  0  0  0
  -28.0450  -12.3352   18.6584 C   0  0  0  0  0  0
  -27.6433  -13.2375   19.8554 C   0  0  2  0  0  0
  -28.6856  -13.1850   20.9953 C   0  0  0  0  0  0
  -25.2508  -13.8202   20.5703 C   0  0  0  0  0  0
  -24.1803  -13.0439   20.9206 C   0  0  0  0  0  0
  -24.6405  -11.6921   20.8747 C   0  0  0  0  0  0
  -23.9081  -10.4294   21.0404 C   0  0  0  0  0  0
  -24.3628   -9.4206   21.9183 C   0  0  0  0  0  0
  -23.6298   -8.2243   22.0754 C   0  0  0  0  0  0
  -22.4279   -8.0285   21.3544 C   0  0  0  0  0  0
  -21.9921   -9.0259   20.4644 C   0  0  0  0  0  0
  -22.7253  -10.2136   20.3053 C   0  0  0  0  0  0
  -21.6855   -6.0739   22.5280 C   0  0  0  0  0  0
  -21.4015   -6.5641   23.8214 C   0  0  0  0  0  0
  -21.3660   -5.6794   24.9177 C   0  0  0  0  0  0
  -21.6044   -4.3057   24.7227 C   0  0  0  0  0  0
  -21.8819   -3.8147   23.4348 C   0  0  0  0  0  0
  -21.9192   -4.6965   22.3405 C   0  0  0  0  0  0
  -22.7823  -13.5216   21.1864 C   0  0  0  0  0  0
  -22.1660   -4.2150   21.0983 F   0  0  0  0  0  0
  -21.5627   -3.4539   25.7739 F   0  0  0  0  0  0
  -29.9864  -13.5536   20.4210 N   0  0  0  0  0  0
  -26.2946  -12.9423   20.3299 N   0  0  0  0  0  0
  -25.9341  -11.6559   20.5760 N   0  0  0  0  0  0
  -22.0475  -12.8202   22.0420 N   0  0  0  0  0  0
  -25.4188  -15.1928   20.4127 N   0  0  0  0  0  0
  -31.7656  -14.8958   20.0823 O   0  0  0  0  0  0
  -21.6639   -6.8884   21.4244 O   0  0  0  0  0  0
  -22.3506  -14.5520   20.6712 O   0  0  0  0  0  0
  -24.6353  -31.8517   23.1963 C   0  0  0  0  0  0
  -25.9165  -32.4734   23.8318 C   0  0  1  0  0  0
  -27.2159  -27.2152   20.1331 C   0  0  0  0  0  0
  -25.5947  -33.8538   24.2238 N   0  0  0  0  0  0
  -23.4344  -30.4746   21.5401 C   0  0  2  0  0  0
  -24.8826  -28.9192   20.1064 C   0  0  0  0  0  0
  -22.7526  -29.4584   22.4890 C   0  0  0  0  0  0
  -18.0296  -28.1391   22.8482 C   0  0  0  0  0  0
  -24.1492  -36.7272   23.2640 C   0  0  0  0  0  0
  -25.9846  -30.7487   21.3860 C   0  0  0  0  0  0
  -26.0552  -29.3682   20.7265 C   0  0  0  0  0  0
  -27.2209  -28.5275   20.7327 C   0  0  0  0  0  0
  -26.0257  -26.8630   19.4548 C   0  0  0  0  0  0
  -24.8765  -27.6768   19.4580 C   0  0  0  0  0  0
  -23.6552  -29.8105   20.1559 C   0  0  0  0  0  0
  -25.4120  -36.3056   24.0322 C   0  0  1  0  0  0
  -20.5904  -28.3709   23.1257 C   0  0  2  0  0  0
  -20.6783  -26.9421   22.5408 C   0  0  0  0  0  0
  -19.5757  -26.6383   21.5213 C   0  0  0  0  0  0
  -18.1937  -26.7932   22.1624 C   0  0  0  0  0  0
  -19.1552  -28.8867   23.2863 C   0  0  0  0  0  0
  -18.9470  -30.1465   23.8885 C   0  0  0  0  0  0
  -17.6467  -30.6590   24.0562 C   0  0  0  0  0  0
  -25.9064  -34.9428   23.5083 C   0  0  0  0  0  0
  -16.5358  -29.9085   23.6333 C   0  0  0  0  0  0
  -16.7283  -28.6503   23.0356 C   0  0  0  0  0  0
  -26.4516  -31.6572   25.0725 C   0  0  0  0  0  0
  -25.3722  -31.3735   26.1433 C   0  0  0  0  0  0
  -27.0372  -30.2980   24.6253 C   0  0  0  0  0  0
  -27.6059  -32.4323   25.7504 C   0  0  0  0  0  0
  -27.5577  -37.1795   24.8465 C   0  0  0  0  0  0
  -21.4227  -29.3047   22.3637 N   0  0  0  0  0  0
  -26.4291  -37.3760   23.9405 N   0  0  0  0  0  0
  -24.7039  -31.0443   22.0964 N   0  0  0  0  0  0
  -23.4205  -28.8127   23.3009 O   0  0  0  0  0  0
  -28.2873  -26.2769   20.2320 O   0  0  0  0  0  0
  -26.5641  -34.8911   22.4655 O   0  0  0  0  0  0
  -23.5493  -32.1364   23.7228 O   0  0  0  0  0  0
  -30.3856  -19.2042   19.2034 C   0  0  0  0  0  0
  -30.6245  -17.7827   19.2961 C   0  0  0  0  0  0
  -29.5860  -19.5776   20.2529 C   0  0  0  0  0  0
  -29.9493  -17.2953   20.3906 C   0  0  0  0  0  0
  -28.2744  -22.8800   21.7537 C   0  0  0  0  0  0
  -28.8187  -21.4218   21.8965 C   0  0  0  0  0  0
  -29.0816  -22.1447   19.6469 C   0  0  0  0  0  0
  -28.9017  -23.5115   20.4874 C   0  0  1  0  0  0
  -28.0970  -24.8081   19.8628 C   0  0  0  0  0  0
  -29.1247  -20.9408   20.5549 N   0  0  0  0  0  0
  -29.8237  -15.9297   20.7552 N   0  0  0  0  0  0
  -29.2985  -18.4065   21.0021 O   0  0  0  0  0  0
  -31.4785  -12.6095   19.1931 H   0  0  0  0  0  0
  -30.3867  -11.5107   19.9831 H   0  0  0  0  0  0
  -29.8107  -11.7420   17.5420 H   0  0  0  0  0  0
  -29.6402  -13.4700   17.7294 H   0  0  0  0  0  0
  -27.9075  -11.2866   18.9249 H   0  0  0  0  0  0
  -27.3897  -12.5208   17.8066 H   0  0  0  0  0  0
  -27.6342  -14.2575   19.4708 H   0  0  0  0  0  0
  -28.7301  -12.1881   21.4361 H   0  0  0  0  0  0
  -28.4091  -13.8622   21.8048 H   0  0  0  0  0  0
  -25.2776   -9.5677   22.4756 H   0  0  0  0  0  0
  -24.0004   -7.4633   22.7475 H   0  0  0  0  0  0
  -21.0851   -8.8781   19.8949 H   0  0  0  0  0  0
  -22.3713  -10.9674   19.6159 H   0  0  0  0  0  0
  -21.2011   -7.6150   23.9719 H   0  0  0  0  0  0
  -21.1480   -6.0524   25.9081 H   0  0  0  0  0  0
  -22.0598   -2.7609   23.2848 H   0  0  0  0  0  0
  -22.4101  -11.9868   22.4807 H   0  0  0  0  0  0
  -21.1090  -13.1216   22.2628 H   0  0  0  0  0  0
  -24.6486  -15.8441   20.5205 H   0  0  0  0  0  0
  -26.2633  -15.6337   20.0709 H   0  0  0  0  0  0
  -26.7228  -32.5369   23.1051 H   0  0  0  0  0  0
  -25.0086  -33.9668   25.0378 H   0  0  0  0  0  0
  -22.7328  -31.2984   21.3932 H   0  0  0  0  0  0
  -23.3757  -35.9601   23.3299 H   0  0  0  0  0  0
  -24.3580  -36.8901   22.2055 H   0  0  0  0  0  0
  -23.7243  -37.6469   23.6672 H   0  0  0  0  0  0
  -26.1320  -31.5077   20.6164 H   0  0  0  0  0  0
  -26.8589  -30.7965   22.0234 H   0  0  0  0  0  0
  -28.1115  -28.8613   21.2466 H   0  0  0  0  0  0
  -25.9405  -25.9299   18.9203 H   0  0  0  0  0  0
  -23.9843  -27.3339   18.9521 H   0  0  0  0  0  0
  -23.7828  -30.5881   19.4019 H   0  0  0  0  0  0
  -22.7722  -29.2472   19.8487 H   0  0  0  0  0  0
  -25.1304  -36.1897   25.0815 H   0  0  0  0  0  0
  -20.9996  -28.3294   24.1377 H   0  0  0  0  0  0
  -20.5683  -26.2319   23.3618 H   0  0  0  0  0  0
  -21.6650  -26.7437   22.1203 H   0  0  0  0  0  0
  -19.6919  -25.6291   21.1251 H   0  0  0  0  0  0
  -19.6693  -27.3187   20.6738 H   0  0  0  0  0  0
  -17.4207  -26.6678   21.4028 H   0  0  0  0  0  0
  -18.0337  -26.0077   22.9023 H   0  0  0  0  0  0
  -19.7945  -30.7285   24.2249 H   0  0  0  0  0  0
  -17.5021  -31.6270   24.5165 H   0  0  0  0  0  0
  -15.5359  -30.2983   23.7663 H   0  0  0  0  0  0
  -15.8684  -28.0817   22.7079 H   0  0  0  0  0  0
  -24.5912  -30.7068   25.7758 H   0  0  0  0  0  0
  -24.8896  -32.2906   26.4821 H   0  0  0  0  0  0
  -25.8027  -30.8940   27.0232 H   0  0  0  0  0  0
  -26.2972  -29.6714   24.1262 H   0  0  0  0  0  0
  -27.4015  -29.7262   25.4798 H   0  0  0  0  0  0
  -27.8868  -30.4235   23.9537 H   0  0  0  0  0  0
  -27.2665  -33.3638   26.2046 H   0  0  0  0  0  0
  -28.3890  -32.6856   25.0346 H   0  0  0  0  0  0
  -28.0705  -31.8470   26.5449 H   0  0  0  0  0  0
  -28.2591  -38.0095   24.7511 H   0  0  0  0  0  0
  -28.1078  -36.2625   24.6295 H   0  0  0  0  0  0
  -27.2295  -37.1446   25.8869 H   0  0  0  0  0  0
  -20.9421  -29.8764   21.6830 H   0  0  0  0  0  0
  -26.0164  -38.2832   24.1408 H   0  0  0  0  0  0
  -30.7733  -19.8722   18.4480 H   0  0  0  0  0  0
  -31.2090  -17.1884   18.6083 H   0  0  0  0  0  0
  -28.4626  -23.4765   22.6472 H   0  0  0  0  0  0
  -27.1914  -22.8329   21.6306 H   0  0  0  0  0  0
  -28.0991  -20.7730   22.3987 H   0  0  0  0  0  0
  -29.7351  -21.4162   22.4892 H   0  0  0  0  0  0
  -29.9772  -22.1942   19.0257 H   0  0  0  0  0  0
  -28.2364  -22.0220   18.9679 H   0  0  0  0  0  0
  -29.9077  -23.8475   20.7416 H   0  0  0  0  0  0
  -27.0507  -24.5477   20.0094 H   0  0  0  0  0  0
  -28.2482  -24.7761   18.7833 H   0  0  0  0  0  0
  -28.9598  -15.7068   21.2252 H   0  0  0  0  0  0
  1 25  1  0  0  0
  1 30  2  0  0  0
  1 81  1  0  0  0
  2  3  1  0  0  0
  2 25  1  0  0  0
  2 83  1  0  0  0
  2 84  1  0  0  0
  3  4  1  0  0  0
  3 85  1  0  0  0
  3 86  1  0  0  0
  4  5  1  0  0  0
  4 87  1  0  0  0
  4 88  1  0  0  0
  5  6  1  0  0  0
  5 26  1  0  0  0
  5 89  1  0  0  0
  6 25  1  0  0  0
  6 90  1  0  0  0
  6 91  1  0  0  0
  7  8  2  0  0  0
  7 26  1  0  0  0
  7 29  1  0  0  0
  8  9  1  0  0  0
  8 22  1  0  0  0
  9 10  1  0  0  0
  9 27  2  0  0  0
 10 11  2  0  0  0
 10 15  1  0  0  0
 11 12  1  0  0  0
 11 92  1  0  0  0
 12 13  2  0  0  0
 12 93  1  0  0  0
 13 14  1  0  0  0
 13 31  1  0  0  0
 14 15  2  0  0  0
 14 94  1  0  0  0
 15 95  1  0  0  0
 16 17  2  0  0  0
 16 21  1  0  0  0
 16 31  1  0  0  0
 17 18  1  0  0  0
 17 96  1  0  0  0
 18 19  2  0  0  0
 18 97  1  0  0  0
 19 20  1  0  0  0
 19 24  1  0  0  0
 20 21  2  0  0  0
 20 98  1  0  0  0
 21 23  1  0  0  0
 22 28  1  0  0  0
 22 32  2  0  0  0
 26 27  1  0  0  0
 28 99  1  0  0  0
 28100  1  0  0  0
 29101  1  0  0  0
 29102  1  0  0  0
 33 34  1  0  0  0
 33 66  1  0  0  0
 33 70  2  0  0  0
 34 36  1  0  0  0
 34 59  1  0  0  0
 34103  1  0  0  0
 35 44  2  0  0  0
 35 45  1  0  0  0
 35 68  1  0  0  0
 36 56  1  0  0  0
 36104  1  0  0  0
 37 39  1  0  0  0
 37 47  1  0  0  0
 37 66  1  0  0  0
 37105  1  0  0  0
 38 43  2  0  0  0
 38 46  1  0  0  0
 38 47  1  0  0  0
 39 64  1  0  0  0
 39 67  2  0  0  0
 40 52  1  0  0  0
 40 53  2  0  0  0
 40 58  1  0  0  0
 41106  1  0  0  0
 41107  1  0  0  0
 41108  1  0  0  0
 41 48  1  0  0  0
 42 43  1  0  0  0
 42 66  1  0  0  0
 42109  1  0  0  0
 42110  1  0  0  0
 43 44  1  0  0  0
 44111  1  0  0  0
 45 46  2  0  0  0
 45112  1  0  0  0
 46113  1  0  0  0
 47114  1  0  0  0
 47115  1  0  0  0
 48 56  1  0  0  0
 48 65  1  0  0  0
 48116  1  0  0  0
 49 50  1  0  0  0
 49 53  1  0  0  0
 49 64  1  0  0  0
 49117  1  0  0  0
 50 51  1  0  0  0
 50118  1  0  0  0
 50119  1  0  0  0
 51 52  1  0  0  0
 51120  1  0  0  0
 51121  1  0  0  0
 52122  1  0  0  0
 52123  1  0  0  0
 53 54  1  0  0  0
 54 55  2  0  0  0
 54124  1  0  0  0
 55 57  1  0  0  0
 55125  1  0  0  0
 56 69  2  0  0  0
 57 58  2  0  0  0
 57126  1  0  0  0
 58127  1  0  0  0
 59 60  1  0  0  0
 59 61  1  0  0  0
 59 62  1  0  0  0
 60128  1  0  0  0
 60129  1  0  0  0
 60130  1  0  0  0
 61131  1  0  0  0
 61132  1  0  0  0
 61133  1  0  0  0
 62134  1  0  0  0
 62135  1  0  0  0
 62136  1  0  0  0
 63 65  1  0  0  0
 63137  1  0  0  0
 63138  1  0  0  0
 63139  1  0  0  0
 64140  1  0  0  0
 65141  1  0  0  0
 68 79  1  0  0  0
 71 72  1  0  0  0
 71 73  2  0  0  0
 71142  1  0  0  0
 72 74  2  0  0  0
 72143  1  0  0  0
 73 80  1  0  0  0
 73 82  1  0  0  0
 74 81  1  0  0  0
 74 82  1  0  0  0
 75 76  1  0  0  0
 75 78  1  0  0  0
 75144  1  0  0  0
 75145  1  0  0  0
 76 80  1  0  0  0
 76146  1  0  0  0
 76147  1  0  0  0
 77 78  1  0  0  0
 77 80  1  0  0  0
 77148  1  0  0  0
 77149  1  0  0  0
 78 79  1  0  0  0
 78150  1  0  0  0
 79151  1  0  0  0
 79152  1  0  0  0
 81153  1  0  0  0
M  ISO  4   1 100  68 101  79 101  81 100
M  END
> <chiral flag>
0

> <version>
0

> <s_m_source_file>
/data/baiqing/PycharmProjects/Reinvent-master-3.2/result/LINK_invent/BTK/process_docking_weight1_custom_product_contain_oxygen_bond_distance_aromatic_linkinvent_7_9_3/rearranged_h_0152.sdf

> <i_m_source_file_index>
68

> <r_mmod_Potential_Energy-OPLS-2005>
294.834289550781

> <r_mmod_Stretch_Energy-OPLS-2005>
143.863220214844

> <r_mmod_Bend_Energy-OPLS-2005>
229.381378173828

> <r_mmod_Torsional_Energy-OPLS-2005>
285.411834716797

> <r_mmod_Improper_Torsional_Energy-OPLS-2005>
3.95743703842163

> <r_mmod_Van_der_Waal_Energy-OPLS-2005>
118.060913085938

> <r_mmod_Electrostatic_Energy-OPLS-2005>
-369.420715332031

> <r_mmod_Solvation_Energy-OPLS-2005>
-230.661575317383

> <b_mmod_Minimization_Converged-OPLS-2005>
0

> <r_mmod_RMS_Derivative-OPLS-2005>
0.385045021772385

$$$$
68
                    3D
 Structure written by MMmdl.
155163  0  0  1  0            999 V2000
  -30.6120  -14.7009   20.4368 C   0  0  0  0  0  0
  -30.4141  -12.4163   19.4681 C   0  0  0  0  0  0
  -29.5009  -12.5242   18.2279 C   0  0  0  0  0  0
  -28.0233  -12.3628   18.6374 C   0  0  0  0  0  0
  -27.6404  -13.2385   19.8640 C   0  0  2  0  0  0
  -28.6853  -13.1406   20.9965 C   0  0  0  0  0  0
  -25.2466  -13.8247   20.5751 C   0  0  0  0  0  0
  -24.1767  -13.0453   20.9209 C   0  0  0  0  0  0
  -24.6358  -11.6939   20.8727 C   0  0  0  0  0  0
  -23.9035  -10.4307   21.0388 C   0  0  0  0  0  0
  -24.3589   -9.4244   21.9176 C   0  0  0  0  0  0
  -23.6287   -8.2269   22.0780 C   0  0  0  0  0  0
  -22.4275   -8.0278   21.3572 C   0  0  0  0  0  0
  -21.9888   -9.0235   20.4670 C   0  0  0  0  0  0
  -22.7199  -10.2110   20.3055 C   0  0  0  0  0  0
  -21.6859   -6.0730   22.5288 C   0  0  0  0  0  0
  -21.4024   -6.5641   23.8214 C   0  0  0  0  0  0
  -21.3686   -5.6801   24.9188 C   0  0  0  0  0  0
  -21.6061   -4.3065   24.7238 C   0  0  0  0  0  0
  -21.8819   -3.8140   23.4357 C   0  0  0  0  0  0
  -21.9197   -4.6954   22.3409 C   0  0  0  0  0  0
  -22.7789  -13.5213   21.1868 C   0  0  0  0  0  0
  -22.1653   -4.2139   21.0978 F   0  0  0  0  0  0
  -21.5645   -3.4558   25.7758 F   0  0  0  0  0  0
  -29.9952  -13.4720   20.4209 N   0  0  0  0  0  0
  -26.2908  -12.9461   20.3369 N   0  0  0  0  0  0
  -25.9296  -11.6589   20.5783 N   0  0  0  0  0  0
  -22.0414  -12.8205   22.0401 N   0  0  0  0  0  0
  -25.4127  -15.1991   20.4213 N   0  0  0  0  0  0
  -31.7799  -14.8124   20.0497 O   0  0  0  0  0  0
  -21.6670   -6.8859   21.4239 O   0  0  0  0  0  0
  -22.3470  -14.5518   20.6715 O   0  0  0  0  0  0
  -24.6321  -31.8584   23.1993 C   0  0  0  0  0  0
  -25.9140  -32.4773   23.8342 C   0  0  1  0  0  0
  -27.2151  -27.2576   20.1149 C   0  0  0  0  0  0
  -25.5935  -33.8574   24.2247 N   0  0  0  0  0  0
  -23.4281  -30.4821   21.5447 C   0  0  2  0  0  0
  -24.8742  -28.9336   20.1111 C   0  0  0  0  0  0
  -22.7503  -29.4632   22.4927 C   0  0  0  0  0  0
  -18.0298  -28.1390   22.8486 C   0  0  0  0  0  0
  -24.1507  -36.7273   23.2645 C   0  0  0  0  0  0
  -25.9793  -30.7649   21.3877 C   0  0  0  0  0  0
  -26.0496  -29.3906   20.7220 C   0  0  0  0  0  0
  -27.2225  -28.5653   20.7144 C   0  0  0  0  0  0
  -26.0151  -26.8843   19.4623 C   0  0  0  0  0  0
  -24.8611  -27.6864   19.4749 C   0  0  0  0  0  0
  -23.6465  -29.8213   20.1611 C   0  0  0  0  0  0
  -25.4144  -36.3070   24.0322 C   0  0  1  0  0  0
  -20.5889  -28.3726   23.1265 C   0  0  2  0  0  0
  -20.6795  -26.9459   22.5393 C   0  0  0  0  0  0
  -19.5769  -26.6398   21.5218 C   0  0  0  0  0  0
  -18.1949  -26.7930   22.1626 C   0  0  0  0  0  0
  -19.1542  -28.8880   23.2861 C   0  0  0  0  0  0
  -18.9468  -30.1466   23.8905 C   0  0  0  0  0  0
  -17.6467  -30.6592   24.0570 C   0  0  0  0  0  0
  -25.9084  -34.9444   23.5083 C   0  0  0  0  0  0
  -16.5359  -29.9087   23.6338 C   0  0  0  0  0  0
  -16.7287  -28.6492   23.0385 C   0  0  0  0  0  0
  -26.4504  -31.6595   25.0730 C   0  0  0  0  0  0
  -25.3685  -31.3728   26.1408 C   0  0  0  0  0  0
  -27.0403  -30.3017   24.6273 C   0  0  0  0  0  0
  -27.6038  -32.4362   25.7505 C   0  0  0  0  0  0
  -27.5597  -37.1801   24.8470 C   0  0  0  0  0  0
  -21.4218  -29.3051   22.3633 N   0  0  0  0  0  0
  -26.4324  -37.3773   23.9400 N   0  0  0  0  0  0
  -24.6983  -31.0532   22.0986 N   0  0  0  0  0  0
  -23.4194  -28.8200   23.3054 O   0  0  0  0  0  0
  -28.2899  -26.3323   20.1841 O   0  0  0  0  0  0
  -26.5657  -34.8912   22.4658 O   0  0  0  0  0  0
  -23.5457  -32.1440   23.7249 O   0  0  0  0  0  0
  -29.7352  -17.0376   18.5827 C   0  0  0  0  0  0
  -29.4555  -19.4652   18.3727 C   0  0  0  0  0  0
  -29.6393  -18.4341   20.5766 C   0  0  0  0  0  0
  -29.5611  -18.1842   17.7751 C   0  0  0  0  0  0
  -29.7859  -17.1082   19.9926 C   0  0  0  0  0  0
  -29.4788  -19.6434   19.7773 C   0  0  0  0  0  0
  -29.4900  -18.0079   16.3047 C   0  0  0  0  0  0
  -28.9265  -23.6844   20.3113 C   0  0  0  0  0  0
  -28.7100  -22.1506   19.8030 C   0  0  0  0  0  0
  -27.9925  -24.8943   19.8248 C   0  0  0  0  0  0
  -29.2910  -18.9304   15.4602 N   0  0  0  0  0  0
  -27.7530  -21.9754   18.8498 N   0  0  0  0  0  0
  -29.8592  -15.8260   20.7321 N   0  0  0  0  0  0
  -29.4405  -21.0677   20.3089 N   0  3  0  0  0  0
  -29.8422  -23.8993   21.1118 O   0  0  0  0  0  0
  -31.4605  -12.5101   19.1726 H   0  0  0  0  0  0
  -30.3200  -11.4299   19.9267 H   0  0  0  0  0  0
  -29.7666  -11.7716   17.4851 H   0  0  0  0  0  0
  -29.6480  -13.4964   17.7526 H   0  0  0  0  0  0
  -27.8521  -11.3098   18.8664 H   0  0  0  0  0  0
  -27.3706  -12.5976   17.7960 H   0  0  0  0  0  0
  -27.6435  -14.2710   19.5121 H   0  0  0  0  0  0
  -28.6974  -12.1385   21.4264 H   0  0  0  0  0  0
  -28.4352  -13.8198   21.8129 H   0  0  0  0  0  0
  -25.2708   -9.5793   22.4752 H   0  0  0  0  0  0
  -24.0032   -7.4692   22.7517 H   0  0  0  0  0  0
  -21.0834   -8.8730   19.8952 H   0  0  0  0  0  0
  -22.3635  -10.9647   19.6180 H   0  0  0  0  0  0
  -21.1990   -7.6139   23.9724 H   0  0  0  0  0  0
  -21.1524   -6.0529   25.9095 H   0  0  0  0  0  0
  -22.0555   -2.7590   23.2876 H   0  0  0  0  0  0
  -22.3989  -11.9829   22.4754 H   0  0  0  0  0  0
  -21.1044  -13.1294   22.2603 H   0  0  0  0  0  0
  -24.6348  -15.8429   20.5308 H   0  0  0  0  0  0
  -26.2636  -15.6537   20.1157 H   0  0  0  0  0  0
  -26.7214  -32.5411   23.1079 H   0  0  0  0  0  0
  -25.0101  -33.9748   25.0409 H   0  0  0  0  0  0
  -22.7243  -31.3037   21.3993 H   0  0  0  0  0  0
  -23.3784  -35.9587   23.3313 H   0  0  0  0  0  0
  -24.3590  -36.8904   22.2055 H   0  0  0  0  0  0
  -23.7246  -37.6468   23.6687 H   0  0  0  0  0  0
  -26.1370  -31.5334   20.6294 H   0  0  0  0  0  0
  -26.8461  -30.7972   22.0364 H   0  0  0  0  0  0
  -28.1205  -28.9069   21.2082 H   0  0  0  0  0  0
  -25.9196  -25.9438   18.9402 H   0  0  0  0  0  0
  -23.9614  -27.3340   18.9879 H   0  0  0  0  0  0
  -23.7724  -30.5993   19.4070 H   0  0  0  0  0  0
  -22.7634  -29.2553   19.8552 H   0  0  0  0  0  0
  -25.1333  -36.1931   25.0817 H   0  0  0  0  0  0
  -20.9985  -28.3328   24.1386 H   0  0  0  0  0  0
  -20.5769  -26.2364   23.3603 H   0  0  0  0  0  0
  -21.6666  -26.7526   22.1174 H   0  0  0  0  0  0
  -19.6957  -25.6311   21.1264 H   0  0  0  0  0  0
  -19.6689  -27.3195   20.6731 H   0  0  0  0  0  0
  -17.4229  -26.6700   21.4005 H   0  0  0  0  0  0
  -18.0328  -26.0056   22.9000 H   0  0  0  0  0  0
  -19.7950  -30.7269   24.2308 H   0  0  0  0  0  0
  -17.5029  -31.6286   24.5157 H   0  0  0  0  0  0
  -15.5364  -30.3002   23.7657 H   0  0  0  0  0  0
  -15.8682  -28.0798   22.7138 H   0  0  0  0  0  0
  -24.5895  -30.7072   25.7682 H   0  0  0  0  0  0
  -24.8828  -32.2881   26.4787 H   0  0  0  0  0  0
  -25.7937  -30.8919   27.0224 H   0  0  0  0  0  0
  -26.3033  -29.6712   24.1297 H   0  0  0  0  0  0
  -27.4076  -29.7336   25.4831 H   0  0  0  0  0  0
  -27.8899  -30.4308   23.9565 H   0  0  0  0  0  0
  -27.2660  -33.3698   26.2025 H   0  0  0  0  0  0
  -28.3861  -32.6881   25.0326 H   0  0  0  0  0  0
  -28.0710  -31.8537   26.5463 H   0  0  0  0  0  0
  -28.2602  -38.0116   24.7547 H   0  0  0  0  0  0
  -28.1110  -36.2631   24.6281 H   0  0  0  0  0  0
  -27.2302  -37.1437   25.8875 H   0  0  0  0  0  0
  -20.9427  -29.8737   21.6796 H   0  0  0  0  0  0
  -26.0192  -38.2856   24.1371 H   0  0  0  0  0  0
  -29.8011  -16.0743   18.0987 H   0  0  0  0  0  0
  -29.3741  -20.3332   17.7354 H   0  0  0  0  0  0
  -29.6675  -18.5278   21.6521 H   0  0  0  0  0  0
  -29.6182  -16.9853   15.9391 H   0  0  0  0  0  0
  -27.0104  -24.6385   20.2235 H   0  0  0  0  0  0
  -27.9153  -24.8295   18.7401 H   0  0  0  0  0  0
  -29.1724  -19.8364   15.9000 H   0  0  0  0  0  0
  -27.2526  -22.7692   18.4708 H   0  0  0  0  0  0
  -27.4747  -21.0516   18.5416 H   0  0  0  0  0  0
  -29.0518  -15.6330   21.3061 H   0  0  0  0  0  0
  -29.8843  -21.2716   21.1900 H   0  0  0  0  0  0
  1 25  1  0  0  0
  1 30  2  0  0  0
  1 83  1  0  0  0
  2  3  1  0  0  0
  2 25  1  0  0  0
  2 86  1  0  0  0
  2 87  1  0  0  0
  3  4  1  0  0  0
  3 88  1  0  0  0
  3 89  1  0  0  0
  4  5  1  0  0  0
  4 90  1  0  0  0
  4 91  1  0  0  0
  5  6  1  0  0  0
  5 26  1  0  0  0
  5 92  1  0  0  0
  6 25  1  0  0  0
  6 93  1  0  0  0
  6 94  1  0  0  0
  7  8  2  0  0  0
  7 26  1  0  0  0
  7 29  1  0  0  0
  8  9  1  0  0  0
  8 22  1  0  0  0
  9 10  1  0  0  0
  9 27  2  0  0  0
 10 11  2  0  0  0
 10 15  1  0  0  0
 11 12  1  0  0  0
 11 95  1  0  0  0
 12 13  2  0  0  0
 12 96  1  0  0  0
 13 14  1  0  0  0
 13 31  1  0  0  0
 14 15  2  0  0  0
 14 97  1  0  0  0
 15 98  1  0  0  0
 16 17  2  0  0  0
 16 21  1  0  0  0
 16 31  1  0  0  0
 17 18  1  0  0  0
 17 99  1  0  0  0
 18 19  2  0  0  0
 18100  1  0  0  0
 19 20  1  0  0  0
 19 24  1  0  0  0
 20 21  2  0  0  0
 20101  1  0  0  0
 21 23  1  0  0  0
 22 28  1  0  0  0
 22 32  2  0  0  0
 26 27  1  0  0  0
 28102  1  0  0  0
 28103  1  0  0  0
 29104  1  0  0  0
 29105  1  0  0  0
 33 34  1  0  0  0
 33 66  1  0  0  0
 33 70  2  0  0  0
 34 36  1  0  0  0
 34 59  1  0  0  0
 34106  1  0  0  0
 35 44  2  0  0  0
 35 45  1  0  0  0
 35 68  1  0  0  0
 36 56  1  0  0  0
 36107  1  0  0  0
 37 39  1  0  0  0
 37 47  1  0  0  0
 37 66  1  0  0  0
 37108  1  0  0  0
 38 43  2  0  0  0
 38 46  1  0  0  0
 38 47  1  0  0  0
 39 64  1  0  0  0
 39 67  2  0  0  0
 40 52  1  0  0  0
 40 53  2  0  0  0
 40 58  1  0  0  0
 41109  1  0  0  0
 41110  1  0  0  0
 41111  1  0  0  0
 41 48  1  0  0  0
 42 43  1  0  0  0
 42 66  1  0  0  0
 42112  1  0  0  0
 42113  1  0  0  0
 43 44  1  0  0  0
 44114  1  0  0  0
 45 46  2  0  0  0
 45115  1  0  0  0
 46116  1  0  0  0
 47117  1  0  0  0
 47118  1  0  0  0
 48 56  1  0  0  0
 48 65  1  0  0  0
 48119  1  0  0  0
 49 50  1  0  0  0
 49 53  1  0  0  0
 49 64  1  0  0  0
 49120  1  0  0  0
 50 51  1  0  0  0
 50121  1  0  0  0
 50122  1  0  0  0
 51 52  1  0  0  0
 51123  1  0  0  0
 51124  1  0  0  0
 52125  1  0  0  0
 52126  1  0  0  0
 53 54  1  0  0  0
 54 55  2  0  0  0
 54127  1  0  0  0
 55 57  1  0  0  0
 55128  1  0  0  0
 56 69  2  0  0  0
 57 58  2  0  0  0
 57129  1  0  0  0
 58130  1  0  0  0
 59 60  1  0  0  0
 59 61  1  0  0  0
 59 62  1  0  0  0
 60131  1  0  0  0
 60132  1  0  0  0
 60133  1  0  0  0
 61134  1  0  0  0
 61135  1  0  0  0
 61136  1  0  0  0
 62137  1  0  0  0
 62138  1  0  0  0
 62139  1  0  0  0
 63 65  1  0  0  0
 63140  1  0  0  0
 63141  1  0  0  0
 63142  1  0  0  0
 64143  1  0  0  0
 65144  1  0  0  0
 68 80  1  0  0  0
 71 74  2  0  0  0
 71 75  1  0  0  0
 71145  1  0  0  0
 72 74  1  0  0  0
 72 76  2  0  0  0
 72146  1  0  0  0
 73 75  2  0  0  0
 73 76  1  0  0  0
 73147  1  0  0  0
 74 77  1  0  0  0
 75 83  1  0  0  0
 76 84  1  0  0  0
 77 81  2  0  0  0
 77148  1  0  0  0
 78 79  1  0  0  0
 78 80  1  0  0  0
 78 85  2  0  0  0
 79 82  1  0  0  0
 79 84  2  0  0  0
 80149  1  0  0  0
 80150  1  0  0  0
 81151  1  0  0  0
 82152  1  0  0  0
 82153  1  0  0  0
 83154  1  0  0  0
 84155  1  0  0  0
M  CHG  1  84   1
M  ISO  4   1 100  68 101  80 101  83 100
M  END
> <chiral flag>
0

> <version>
0

> <s_m_source_file>
/data/baiqing/PycharmProjects/Reinvent-master-3.2/result/LINK_invent/BTK/process_docking_weight1_custom_product_contain_oxygen_bond_distance_aromatic_linkinvent_7_9_3/rearranged_h_0152.sdf

> <i_m_source_file_index>
69

> <r_mmod_Potential_Energy-OPLS-2005>
32.1519165039062

> <r_mmod_Stretch_Energy-OPLS-2005>
131.771408081055

> <r_mmod_Bend_Energy-OPLS-2005>
153.236938476562

> <r_mmod_Torsional_Energy-OPLS-2005>
240.64143371582

> <r_mmod_Improper_Torsional_Energy-OPLS-2005>
5.82137727737427

> <r_mmod_Van_der_Waal_Energy-OPLS-2005>
146.807510375977

> <r_mmod_Electrostatic_Energy-OPLS-2005>
-163.641540527344

> <r_mmod_Solvation_Energy-OPLS-2005>
-561.891418457031

> <b_mmod_Minimization_Converged-OPLS-2005>
0

> <r_mmod_RMS_Derivative-OPLS-2005>
3.62241744995117

$$$$
69
                    3D
 Structure written by MMmdl.
162171  0  0  1  0            999 V2000
  -30.6085  -14.6965   20.4827 C   0  0  0  0  0  0
  -30.4399  -12.4252   19.4673 C   0  0  0  0  0  0
  -29.5126  -12.5119   18.2336 C   0  0  0  0  0  0
  -28.0374  -12.3387   18.6458 C   0  0  0  0  0  0
  -27.6507  -13.2227   19.8614 C   0  0  2  0  0  0
  -28.6946  -13.1096   20.9957 C   0  0  0  0  0  0
  -25.2547  -13.8179   20.5690 C   0  0  0  0  0  0
  -24.1820  -13.0440   20.9196 C   0  0  0  0  0  0
  -24.6393  -11.6913   20.8735 C   0  0  0  0  0  0
  -23.9062  -10.4294   21.0400 C   0  0  0  0  0  0
  -24.3615   -9.4209   21.9176 C   0  0  0  0  0  0
  -23.6292   -8.2243   22.0747 C   0  0  0  0  0  0
  -22.4273   -8.0278   21.3544 C   0  0  0  0  0  0
  -21.9907   -9.0252   20.4644 C   0  0  0  0  0  0
  -22.7235  -10.2132   20.3052 C   0  0  0  0  0  0
  -21.6856   -6.0732   22.5282 C   0  0  0  0  0  0
  -21.4014   -6.5638   23.8214 C   0  0  0  0  0  0
  -21.3657   -5.6790   24.9176 C   0  0  0  0  0  0
  -21.6046   -4.3052   24.7228 C   0  0  0  0  0  0
  -21.8820   -3.8144   23.4350 C   0  0  0  0  0  0
  -21.9192   -4.6960   22.3407 C   0  0  0  0  0  0
  -22.7842  -13.5228   21.1862 C   0  0  0  0  0  0
  -22.1663   -4.2144   21.0985 F   0  0  0  0  0  0
  -21.5626   -3.4534   25.7738 F   0  0  0  0  0  0
  -30.0060  -13.4614   20.4304 N   0  0  0  0  0  0
  -26.2974  -12.9372   20.3307 N   0  0  0  0  0  0
  -25.9324  -11.6524   20.5749 N   0  0  0  0  0  0
  -22.0485  -12.8214   22.0416 N   0  0  0  0  0  0
  -25.4269  -15.1901   20.4110 N   0  0  0  0  0  0
  -31.7714  -14.8431   20.0927 O   0  0  0  0  0  0
  -21.6644   -6.8874   21.4241 O   0  0  0  0  0  0
  -22.3532  -14.5536   20.6710 O   0  0  0  0  0  0
  -24.6302  -31.8569   23.2012 C   0  0  0  0  0  0
  -25.9135  -32.4764   23.8347 C   0  0  1  0  0  0
  -27.2200  -27.2777   20.1141 C   0  0  0  0  0  0
  -25.5943  -33.8565   24.2272 N   0  0  0  0  0  0
  -23.4252  -30.4819   21.5445 C   0  0  2  0  0  0
  -24.8708  -28.9348   20.1086 C   0  0  0  0  0  0
  -22.7495  -29.4612   22.4916 C   0  0  0  0  0  0
  -18.0287  -28.1388   22.8489 C   0  0  0  0  0  0
  -24.1488  -36.7278   23.2638 C   0  0  0  0  0  0
  -25.9709  -30.7719   21.3824 C   0  0  0  0  0  0
  -26.0405  -29.3966   20.7235 C   0  0  0  0  0  0
  -27.2127  -28.5770   20.7231 C   0  0  0  0  0  0
  -26.0300  -26.8955   19.4495 C   0  0  0  0  0  0
  -24.8700  -27.6912   19.4628 C   0  0  0  0  0  0
  -23.6413  -29.8192   20.1593 C   0  0  0  0  0  0
  -25.4114  -36.3073   24.0331 C   0  0  1  0  0  0
  -20.5893  -28.3697   23.1271 C   0  0  2  0  0  0
  -20.6773  -26.9416   22.5412 C   0  0  0  0  0  0
  -19.5750  -26.6389   21.5212 C   0  0  0  0  0  0
  -18.1928  -26.7937   22.1619 C   0  0  0  0  0  0
  -19.1544  -28.8858   23.2877 C   0  0  0  0  0  0
  -18.9466  -30.1461   23.8895 C   0  0  0  0  0  0
  -17.6465  -30.6590   24.0563 C   0  0  0  0  0  0
  -25.9056  -34.9443   23.5101 C   0  0  0  0  0  0
  -16.5355  -29.9086   23.6335 C   0  0  0  0  0  0
  -16.7277  -28.6503   23.0361 C   0  0  0  0  0  0
  -26.4507  -31.6586   25.0731 C   0  0  0  0  0  0
  -25.3738  -31.3749   26.1462 C   0  0  0  0  0  0
  -27.0342  -30.2998   24.6215 C   0  0  0  0  0  0
  -27.6067  -32.4325   25.7493 C   0  0  0  0  0  0
  -27.5581  -37.1793   24.8460 C   0  0  0  0  0  0
  -21.4201  -29.3047   22.3663 N   0  0  0  0  0  0
  -26.4286  -37.3777   23.9415 N   0  0  0  0  0  0
  -24.6943  -31.0545   22.0988 N   0  0  0  0  0  0
  -23.4200  -28.8152   23.3011 O   0  0  0  0  0  0
  -28.3327  -26.4078   20.1929 O   0  0  0  0  0  0
  -26.5611  -34.8915   22.4659 O   0  0  0  0  0  0
  -23.5455  -32.1385   23.7316 O   0  0  0  0  0  0
  -30.7972  -17.8809   19.8336 C   0  0  0  0  0  0
  -30.6119  -19.3232   19.8619 C   0  0  0  0  0  0
  -29.6063  -19.8079   20.6854 C   0  0  0  0  0  0
  -29.9390  -17.1506   20.6344 C   0  0  0  0  0  0
  -31.5245  -20.1792   19.0965 C   0  0  0  0  0  0
  -28.7454  -22.6896   22.9752 C   0  0  0  0  0  0
  -28.2090  -23.8018   22.0643 C   0  0  0  0  0  0
  -28.5349  -21.2986   22.3575 C   0  0  0  0  0  0
  -28.8797  -22.2805   20.1067 C   0  0  0  0  0  0
  -28.8995  -23.7948   20.6900 C   0  0  1  0  0  0
  -28.2481  -24.9624   19.7935 C   0  0  0  0  0  0
  -29.2207  -21.1636   21.0710 N   0  0  0  0  0  0
  -32.0588  -21.2717   19.6518 N   0  0  0  0  0  0
  -29.8165  -15.7689   20.8406 N   0  0  0  0  0  0
  -31.8550  -19.8641   17.8377 N   0  3  0  0  0  0
  -28.8635  -18.3472   21.4125 S   0  0  0  0  0  0
  -31.4808  -12.5531   19.1651 H   0  0  0  0  0  0
  -30.3823  -11.4358   19.9238 H   0  0  0  0  0  0
  -29.7878  -11.7527   17.5002 H   0  0  0  0  0  0
  -29.6455  -13.4756   17.7393 H   0  0  0  0  0  0
  -27.8879  -11.2874   18.8944 H   0  0  0  0  0  0
  -27.3800  -12.5464   17.8006 H   0  0  0  0  0  0
  -27.6600  -14.2523   19.5037 H   0  0  0  0  0  0
  -28.7174  -12.0959   21.3986 H   0  0  0  0  0  0
  -28.4311  -13.7579   21.8328 H   0  0  0  0  0  0
  -25.2761   -9.5689   22.4744 H   0  0  0  0  0  0
  -24.0008   -7.4635   22.7464 H   0  0  0  0  0  0
  -21.0838   -8.8768   19.8954 H   0  0  0  0  0  0
  -22.3691  -10.9664   19.6157 H   0  0  0  0  0  0
  -21.2010   -7.6147   23.9716 H   0  0  0  0  0  0
  -21.1475   -6.0520   25.9078 H   0  0  0  0  0  0
  -22.0597   -2.7605   23.2853 H   0  0  0  0  0  0
  -22.4098  -11.9871   22.4799 H   0  0  0  0  0  0
  -21.1103  -13.1240   22.2618 H   0  0  0  0  0  0
  -24.6598  -15.8447   20.5164 H   0  0  0  0  0  0
  -26.2756  -15.6271   20.0749 H   0  0  0  0  0  0
  -26.7196  -32.5417   23.1084 H   0  0  0  0  0  0
  -25.0132  -33.9708   25.0445 H   0  0  0  0  0  0
  -22.7218  -31.3050   21.4018 H   0  0  0  0  0  0
  -23.3762  -35.9599   23.3292 H   0  0  0  0  0  0
  -24.3591  -36.8906   22.2056 H   0  0  0  0  0  0
  -23.7223  -37.6472   23.6660 H   0  0  0  0  0  0
  -26.1112  -31.5338   20.6141 H   0  0  0  0  0  0
  -26.8483  -30.8175   22.0157 H   0  0  0  0  0  0
  -28.1048  -28.9232   21.2262 H   0  0  0  0  0  0
  -25.9474  -25.9715   18.9017 H   0  0  0  0  0  0
  -23.9792  -27.3385   18.9609 H   0  0  0  0  0  0
  -23.7633  -30.5968   19.4044 H   0  0  0  0  0  0
  -22.7601  -29.2513   19.8555 H   0  0  0  0  0  0
  -25.1294  -36.1924   25.0825 H   0  0  0  0  0  0
  -20.9991  -28.3272   24.1390 H   0  0  0  0  0  0
  -20.5670  -26.2310   23.3618 H   0  0  0  0  0  0
  -21.6642  -26.7438   22.1213 H   0  0  0  0  0  0
  -19.6912  -25.6299   21.1245 H   0  0  0  0  0  0
  -19.6696  -27.3195   20.6737 H   0  0  0  0  0  0
  -17.4211  -26.6708   21.4005 H   0  0  0  0  0  0
  -18.0309  -26.0070   22.9004 H   0  0  0  0  0  0
  -19.7939  -30.7275   24.2264 H   0  0  0  0  0  0
  -17.5021  -31.6270   24.5165 H   0  0  0  0  0  0
  -15.5357  -30.2987   23.7660 H   0  0  0  0  0  0
  -15.8679  -28.0820   22.7078 H   0  0  0  0  0  0
  -24.5919  -30.7079   25.7815 H   0  0  0  0  0  0
  -24.8920  -32.2924   26.4850 H   0  0  0  0  0  0
  -25.8069  -30.8973   27.0259 H   0  0  0  0  0  0
  -26.2916  -29.6754   24.1235 H   0  0  0  0  0  0
  -27.4013  -29.7257   25.4731 H   0  0  0  0  0  0
  -27.8806  -30.4267   23.9460 H   0  0  0  0  0  0
  -27.2682  -33.3640   26.2040 H   0  0  0  0  0  0
  -28.3885  -32.6860   25.0321 H   0  0  0  0  0  0
  -28.0721  -31.8470   26.5433 H   0  0  0  0  0  0
  -28.2590  -38.0099   24.7524 H   0  0  0  0  0  0
  -28.1083  -36.2631   24.6256 H   0  0  0  0  0  0
  -27.2309  -37.1405   25.8866 H   0  0  0  0  0  0
  -20.9377  -29.8788   21.6890 H   0  0  0  0  0  0
  -26.0165  -38.2850   24.1432 H   0  0  0  0  0  0
  -31.5777  -17.4411   19.2302 H   0  0  0  0  0  0
  -28.2357  -22.7355   23.9387 H   0  0  0  0  0  0
  -29.8037  -22.8521   23.1831 H   0  0  0  0  0  0
  -28.3484  -24.7721   22.5427 H   0  0  0  0  0  0
  -27.1331  -23.6740   21.9351 H   0  0  0  0  0  0
  -27.4696  -21.1003   22.2264 H   0  0  0  0  0  0
  -28.9063  -20.5558   23.0655 H   0  0  0  0  0  0
  -29.5336  -22.2253   19.2361 H   0  0  0  0  0  0
  -27.8773  -22.0771   19.7262 H   0  0  0  0  0  0
  -29.9468  -24.0573   20.8444 H   0  0  0  0  0  0
  -27.2191  -24.6375   19.6813 H   0  0  0  0  0  0
  -28.6788  -24.8989   18.7939 H   0  0  0  0  0  0
  -31.7562  -21.5255   20.5819 H   0  0  0  0  0  0
  -32.7319  -21.8664   19.1970 H   0  0  0  0  0  0
  -28.9408  -15.4838   21.2542 H   0  0  0  0  0  0
  -31.4260  -19.0669   17.3922 H   0  0  0  0  0  0
  -32.4909  -20.4137   17.2830 H   0  0  0  0  0  0
  1 25  1  0  0  0
  1 30  2  0  0  0
  1 84  1  0  0  0
  2  3  1  0  0  0
  2 25  1  0  0  0
  2 87  1  0  0  0
  2 88  1  0  0  0
  3  4  1  0  0  0
  3 89  1  0  0  0
  3 90  1  0  0  0
  4  5  1  0  0  0
  4 91  1  0  0  0
  4 92  1  0  0  0
  5  6  1  0  0  0
  5 26  1  0  0  0
  5 93  1  0  0  0
  6 25  1  0  0  0
  6 94  1  0  0  0
  6 95  1  0  0  0
  7  8  2  0  0  0
  7 26  1  0  0  0
  7 29  1  0  0  0
  8  9  1  0  0  0
  8 22  1  0  0  0
  9 10  1  0  0  0
  9 27  2  0  0  0
 10 11  2  0  0  0
 10 15  1  0  0  0
 11 12  1  0  0  0
 11 96  1  0  0  0
 12 13  2  0  0  0
 12 97  1  0  0  0
 13 14  1  0  0  0
 13 31  1  0  0  0
 14 15  2  0  0  0
 14 98  1  0  0  0
 15 99  1  0  0  0
 16 17  2  0  0  0
 16 21  1  0  0  0
 16 31  1  0  0  0
 17 18  1  0  0  0
 17100  1  0  0  0
 18 19  2  0  0  0
 18101  1  0  0  0
 19 20  1  0  0  0
 19 24  1  0  0  0
 20 21  2  0  0  0
 20102  1  0  0  0
 21 23  1  0  0  0
 22 28  1  0  0  0
 22 32  2  0  0  0
 26 27  1  0  0  0
 28103  1  0  0  0
 28104  1  0  0  0
 29105  1  0  0  0
 29106  1  0  0  0
 33 34  1  0  0  0
 33 66  1  0  0  0
 33 70  2  0  0  0
 34 36  1  0  0  0
 34 59  1  0  0  0
 34107  1  0  0  0
 35 44  2  0  0  0
 35 45  1  0  0  0
 35 68  1  0  0  0
 36 56  1  0  0  0
 36108  1  0  0  0
 37 39  1  0  0  0
 37 47  1  0  0  0
 37 66  1  0  0  0
 37109  1  0  0  0
 38 43  2  0  0  0
 38 46  1  0  0  0
 38 47  1  0  0  0
 39 64  1  0  0  0
 39 67  2  0  0  0
 40 52  1  0  0  0
 40 53  2  0  0  0
 40 58  1  0  0  0
 41110  1  0  0  0
 41111  1  0  0  0
 41112  1  0  0  0
 41 48  1  0  0  0
 42 43  1  0  0  0
 42 66  1  0  0  0
 42113  1  0  0  0
 42114  1  0  0  0
 43 44  1  0  0  0
 44115  1  0  0  0
 45 46  2  0  0  0
 45116  1  0  0  0
 46117  1  0  0  0
 47118  1  0  0  0
 47119  1  0  0  0
 48 56  1  0  0  0
 48 65  1  0  0  0
 48120  1  0  0  0
 49 50  1  0  0  0
 49 53  1  0  0  0
 49 64  1  0  0  0
 49121  1  0  0  0
 50 51  1  0  0  0
 50122  1  0  0  0
 50123  1  0  0  0
 51 52  1  0  0  0
 51124  1  0  0  0
 51125  1  0  0  0
 52126  1  0  0  0
 52127  1  0  0  0
 53 54  1  0  0  0
 54 55  2  0  0  0
 54128  1  0  0  0
 55 57  1  0  0  0
 55129  1  0  0  0
 56 69  2  0  0  0
 57 58  2  0  0  0
 57130  1  0  0  0
 58131  1  0  0  0
 59 60  1  0  0  0
 59 61  1  0  0  0
 59 62  1  0  0  0
 60132  1  0  0  0
 60133  1  0  0  0
 60134  1  0  0  0
 61135  1  0  0  0
 61136  1  0  0  0
 61137  1  0  0  0
 62138  1  0  0  0
 62139  1  0  0  0
 62140  1  0  0  0
 63 65  1  0  0  0
 63141  1  0  0  0
 63142  1  0  0  0
 63143  1  0  0  0
 64144  1  0  0  0
 65145  1  0  0  0
 68 81  1  0  0  0
 71 72  1  0  0  0
 71 74  2  0  0  0
 71146  1  0  0  0
 72 73  2  0  0  0
 72 75  1  0  0  0
 73 82  1  0  0  0
 73 86  1  0  0  0
 74 84  1  0  0  0
 74 86  1  0  0  0
 75 83  1  0  0  0
 75 85  2  0  0  0
 76 77  1  0  0  0
 76 78  1  0  0  0
 76147  1  0  0  0
 76148  1  0  0  0
 77 80  1  0  0  0
 77149  1  0  0  0
 77150  1  0  0  0
 78 82  1  0  0  0
 78151  1  0  0  0
 78152  1  0  0  0
 79 80  1  0  0  0
 79 82  1  0  0  0
 79153  1  0  0  0
 79154  1  0  0  0
 80 81  1  0  0  0
 80155  1  0  0  0
 81156  1  0  0  0
 81157  1  0  0  0
 83158  1  0  0  0
 83159  1  0  0  0
 84160  1  0  0  0
 85161  1  0  0  0
 85162  1  0  0  0
M  CHG  1  85   1
M  ISO  4   1 100  68 101  81 101  84 100
M  END
> <chiral flag>
0

> <version>
0

> <s_m_source_file>
/data/baiqing/PycharmProjects/Reinvent-master-3.2/result/LINK_invent/BTK/process_docking_weight1_custom_product_contain_oxygen_bond_distance_aromatic_linkinvent_7_9_3/rearranged_h_0152.sdf

> <i_m_source_file_index>
70

> <r_mmod_Potential_Energy-OPLS-2005>
-14.3729124069214

> <r_mmod_Stretch_Energy-OPLS-2005>
105.720413208008

> <r_mmod_Bend_Energy-OPLS-2005>
166.534942626953

> <r_mmod_Torsional_Energy-OPLS-2005>
252.019805908203

> <r_mmod_Improper_Torsional_Energy-OPLS-2005>
6.020339012146

> <r_mmod_Van_der_Waal_Energy-OPLS-2005>
127.865501403809

> <r_mmod_Electrostatic_Energy-OPLS-2005>
-262.859588623047

> <r_mmod_Solvation_Energy-OPLS-2005>
-478.500305175781

> <b_mmod_Minimization_Converged-OPLS-2005>
0

> <r_mmod_RMS_Derivative-OPLS-2005>
0.768012702465057

$$$$
70
                    3D
 Structure written by MMmdl.
154162  0  0  1  0            999 V2000
  -30.7119  -14.5062   20.5611 C   0  0  0  0  0  0
  -30.4300  -12.3282   19.4312 C   0  0  0  0  0  0
  -29.5038  -12.4947   18.2103 C   0  0  0  0  0  0
  -28.0257  -12.3482   18.6230 C   0  0  0  0  0  0
  -27.6597  -13.2138   19.8588 C   0  0  2  0  0  0
  -28.7023  -13.0348   20.9852 C   0  0  0  0  0  0
  -25.2603  -13.8178   20.5650 C   0  0  0  0  0  0
  -24.1875  -13.0448   20.9156 C   0  0  0  0  0  0
  -24.6450  -11.6918   20.8718 C   0  0  0  0  0  0
  -23.9139  -10.4289   21.0390 C   0  0  0  0  0  0
  -24.3679   -9.4180   21.9169 C   0  0  0  0  0  0
  -23.6322   -8.2225   22.0745 C   0  0  0  0  0  0
  -22.4293   -8.0286   21.3535 C   0  0  0  0  0  0
  -21.9954   -9.0277   20.4634 C   0  0  0  0  0  0
  -22.7318  -10.2132   20.3039 C   0  0  0  0  0  0
  -21.6853   -6.0750   22.5281 C   0  0  0  0  0  0
  -21.4008   -6.5650   23.8222 C   0  0  0  0  0  0
  -21.3657   -5.6795   24.9180 C   0  0  0  0  0  0
  -21.6049   -4.3062   24.7218 C   0  0  0  0  0  0
  -21.8823   -3.8161   23.4339 C   0  0  0  0  0  0
  -21.9194   -4.6978   22.3400 C   0  0  0  0  0  0
  -22.7887  -13.5192   21.1866 C   0  0  0  0  0  0
  -22.1662   -4.2185   21.0968 F   0  0  0  0  0  0
  -21.5633   -3.4538   25.7723 F   0  0  0  0  0  0
  -30.0298  -13.3353   20.4253 N   0  0  0  0  0  0
  -26.3048  -12.9369   20.3277 N   0  0  0  0  0  0
  -25.9374  -11.6529   20.5731 N   0  0  0  0  0  0
  -22.0590  -12.8133   22.0430 N   0  0  0  0  0  0
  -25.4303  -15.1905   20.4050 N   0  0  0  0  0  0
  -31.8552  -14.6635   20.1263 O   0  0  0  0  0  0
  -21.6630   -6.8901   21.4245 O   0  0  0  0  0  0
  -22.3535  -14.5496   20.6737 O   0  0  0  0  0  0
  -24.6141  -31.8662   23.2061 C   0  0  0  0  0  0
  -25.9034  -32.4823   23.8342 C   0  0  1  0  0  0
  -27.2302  -27.4077   20.0869 C   0  0  0  0  0  0
  -25.5868  -33.8620   24.2267 N   0  0  0  0  0  0
  -23.4038  -30.4881   21.5534 C   0  0  2  0  0  0
  -24.8483  -28.9620   20.1044 C   0  0  0  0  0  0
  -22.7421  -29.4638   22.5041 C   0  0  0  0  0  0
  -18.0255  -28.1345   22.8491 C   0  0  0  0  0  0
  -24.1516  -36.7335   23.2631 C   0  0  0  0  0  0
  -25.9344  -30.8216   21.3684 C   0  0  0  0  0  0
  -26.0114  -29.4564   20.7070 C   0  0  0  0  0  0
  -27.2001  -28.6852   20.6983 C   0  0  0  0  0  0
  -26.0466  -26.9511   19.4531 C   0  0  0  0  0  0
  -24.8640  -27.7107   19.4703 C   0  0  0  0  0  0
  -23.6052  -29.8224   20.1677 C   0  0  0  0  0  0
  -25.4136  -36.3114   24.0315 C   0  0  1  0  0  0
  -20.5841  -28.3632   23.1338 C   0  0  2  0  0  0
  -20.6785  -26.9386   22.5413 C   0  0  0  0  0  0
  -19.5759  -26.6366   21.5228 C   0  0  0  0  0  0
  -18.1914  -26.7902   22.1624 C   0  0  0  0  0  0
  -19.1499  -28.8813   23.2898 C   0  0  0  0  0  0
  -18.9450  -30.1435   23.8884 C   0  0  0  0  0  0
  -17.6457  -30.6582   24.0547 C   0  0  0  0  0  0
  -25.9040  -34.9472   23.5085 C   0  0  0  0  0  0
  -16.5329  -29.9057   23.6351 C   0  0  0  0  0  0
  -16.7252  -28.6467   23.0361 C   0  0  0  0  0  0
  -26.4436  -31.6613   25.0692 C   0  0  0  0  0  0
  -25.3679  -31.3715   26.1419 C   0  0  0  0  0  0
  -27.0280  -30.3060   24.6093 C   0  0  0  0  0  0
  -27.6000  -32.4343   25.7449 C   0  0  0  0  0  0
  -27.5613  -37.1781   24.8429 C   0  0  0  0  0  0
  -21.4146  -29.2989   22.3768 N   0  0  0  0  0  0
  -26.4324  -37.3783   23.9377 N   0  0  0  0  0  0
  -24.6689  -31.0711   22.1006 N   0  0  0  0  0  0
  -23.4189  -28.8217   23.3113 O   0  0  0  0  0  0
  -28.3928  -26.6477   20.1334 O   0  0  0  0  0  0
  -26.5646  -34.8942   22.4688 O   0  0  0  0  0  0
  -23.5338  -32.1437   23.7454 O   0  0  0  0  0  0
  -29.3966  -18.8436   18.2446 C   0  0  0  0  0  0
  -29.7744  -17.7843   19.0889 C   0  0  0  0  0  0
  -29.3692  -20.1675   18.7250 C   0  0  0  0  0  0
  -30.0932  -19.3799   20.9073 C   0  0  0  0  0  0
  -30.1110  -18.0355   20.4382 C   0  0  0  0  0  0
  -29.7310  -20.4620   20.0605 C   0  0  0  0  0  0
  -29.3338  -24.3191   20.2936 C   0  0  0  0  0  0
  -30.5241  -16.8944   21.3845 C   0  0  0  0  0  0
  -29.4451  -22.9210   19.6422 C   0  0  0  0  0  0
  -28.3157  -25.2858   19.6495 C   0  0  0  0  0  0
  -29.7380  -21.7911   20.5473 N   0  0  0  0  0  0
  -30.0175  -15.5405   21.0761 N   0  0  0  0  0  0
  -30.0034  -24.6250   21.2869 O   0  0  0  0  0  0
  -31.4767  -12.4246   19.1335 H   0  0  0  0  0  0
  -30.3337  -11.3281   19.8582 H   0  0  0  0  0  0
  -29.7537  -11.7583   17.4458 H   0  0  0  0  0  0
  -29.6645  -13.4747   17.7594 H   0  0  0  0  0  0
  -27.8477  -11.2943   18.8439 H   0  0  0  0  0  0
  -27.3739  -12.5925   17.7832 H   0  0  0  0  0  0
  -27.6899  -14.2537   19.5292 H   0  0  0  0  0  0
  -28.6873  -12.0106   21.3595 H   0  0  0  0  0  0
  -28.4604  -13.6630   21.8437 H   0  0  0  0  0  0
  -25.2840   -9.5622   22.4721 H   0  0  0  0  0  0
  -24.0047   -7.4595   22.7438 H   0  0  0  0  0  0
  -21.0902   -8.8803   19.8912 H   0  0  0  0  0  0
  -22.3823  -10.9664   19.6125 H   0  0  0  0  0  0
  -21.1991   -7.6159   23.9737 H   0  0  0  0  0  0
  -21.1478   -6.0514   25.9082 H   0  0  0  0  0  0
  -22.0605   -2.7634   23.2816 H   0  0  0  0  0  0
  -22.4288  -11.9779   22.4724 H   0  0  0  0  0  0
  -21.1206  -13.1080   22.2710 H   0  0  0  0  0  0
  -24.6618  -15.8453   20.5003 H   0  0  0  0  0  0
  -26.2906  -15.6303   20.1016 H   0  0  0  0  0  0
  -26.7123  -32.5516   23.1091 H   0  0  0  0  0  0
  -24.9940  -33.9771   25.0360 H   0  0  0  0  0  0
  -22.6892  -31.3019   21.4190 H   0  0  0  0  0  0
  -23.3787  -35.9661   23.3267 H   0  0  0  0  0  0
  -24.3618  -36.8993   22.2048 H   0  0  0  0  0  0
  -23.7281  -37.6521   23.6700 H   0  0  0  0  0  0
  -26.0491  -31.5972   20.6095 H   0  0  0  0  0  0
  -26.8168  -30.8653   21.9908 H   0  0  0  0  0  0
  -28.0915  -29.0609   21.1814 H   0  0  0  0  0  0
  -25.9959  -26.0096   18.9271 H   0  0  0  0  0  0
  -23.9743  -27.3295   18.9853 H   0  0  0  0  0  0
  -23.6844  -30.5912   19.3994 H   0  0  0  0  0  0
  -22.7320  -29.2235   19.9014 H   0  0  0  0  0  0
  -25.1334  -36.1949   25.0801 H   0  0  0  0  0  0
  -20.9870  -28.3184   24.1487 H   0  0  0  0  0  0
  -20.5737  -26.2228   23.3574 H   0  0  0  0  0  0
  -21.6656  -26.7484   22.1169 H   0  0  0  0  0  0
  -19.6938  -25.6273   21.1258 H   0  0  0  0  0  0
  -19.6719  -27.3196   20.6770 H   0  0  0  0  0  0
  -17.4200  -26.6649   21.3999 H   0  0  0  0  0  0
  -18.0274  -26.0036   22.9004 H   0  0  0  0  0  0
  -19.7940  -30.7233   24.2227 H   0  0  0  0  0  0
  -17.5029  -31.6274   24.5146 H   0  0  0  0  0  0
  -15.5331  -30.2948   23.7730 H   0  0  0  0  0  0
  -15.8638  -28.0805   22.7066 H   0  0  0  0  0  0
  -24.5848  -30.7084   25.7703 H   0  0  0  0  0  0
  -24.8871  -32.2874   26.4867 H   0  0  0  0  0  0
  -25.7987  -30.8841   27.0172 H   0  0  0  0  0  0
  -26.2828  -29.6783   24.1204 H   0  0  0  0  0  0
  -27.4089  -29.7330   25.4546 H   0  0  0  0  0  0
  -27.8635  -30.4358   23.9220 H   0  0  0  0  0  0
  -27.2618  -33.3640   26.2030 H   0  0  0  0  0  0
  -28.3786  -32.6912   25.0253 H   0  0  0  0  0  0
  -28.0709  -31.8484   26.5337 H   0  0  0  0  0  0
  -28.2542  -38.0157   24.7597 H   0  0  0  0  0  0
  -28.1194  -36.2697   24.6136 H   0  0  0  0  0  0
  -27.2320  -37.1253   25.8814 H   0  0  0  0  0  0
  -20.9304  -29.8637   21.6926 H   0  0  0  0  0  0
  -26.0226  -38.2846   24.1428 H   0  0  0  0  0  0
  -29.1277  -18.6460   17.2159 H   0  0  0  0  0  0
  -29.7961  -16.7797   18.6855 H   0  0  0  0  0  0
  -29.0663  -20.9415   18.0346 H   0  0  0  0  0  0
  -30.3622  -19.5780   21.9367 H   0  0  0  0  0  0
  -30.1624  -17.1401   22.3844 H   0  0  0  0  0  0
  -31.6133  -16.8856   21.4702 H   0  0  0  0  0  0
  -30.2202  -22.9675   18.8751 H   0  0  0  0  0  0
  -28.4994  -22.7309   19.1350 H   0  0  0  0  0  0
  -27.3505  -24.8422   19.8909 H   0  0  0  0  0  0
  -28.4397  -25.2762   18.5654 H   0  0  0  0  0  0
  -30.1922  -22.0110   21.4328 H   0  0  0  0  0  0
  -29.0619  -15.3521   21.3372 H   0  0  0  0  0  0
  1 25  1  0  0  0
  1 30  2  0  0  0
  1 82  1  0  0  0
  2  3  1  0  0  0
  2 25  1  0  0  0
  2 84  1  0  0  0
  2 85  1  0  0  0
  3  4  1  0  0  0
  3 86  1  0  0  0
  3 87  1  0  0  0
  4  5  1  0  0  0
  4 88  1  0  0  0
  4 89  1  0  0  0
  5  6  1  0  0  0
  5 26  1  0  0  0
  5 90  1  0  0  0
  6 25  1  0  0  0
  6 91  1  0  0  0
  6 92  1  0  0  0
  7  8  2  0  0  0
  7 26  1  0  0  0
  7 29  1  0  0  0
  8  9  1  0  0  0
  8 22  1  0  0  0
  9 10  1  0  0  0
  9 27  2  0  0  0
 10 11  2  0  0  0
 10 15  1  0  0  0
 11 12  1  0  0  0
 11 93  1  0  0  0
 12 13  2  0  0  0
 12 94  1  0  0  0
 13 14  1  0  0  0
 13 31  1  0  0  0
 14 15  2  0  0  0
 14 95  1  0  0  0
 15 96  1  0  0  0
 16 17  2  0  0  0
 16 21  1  0  0  0
 16 31  1  0  0  0
 17 18  1  0  0  0
 17 97  1  0  0  0
 18 19  2  0  0  0
 18 98  1  0  0  0
 19 20  1  0  0  0
 19 24  1  0  0  0
 20 21  2  0  0  0
 20 99  1  0  0  0
 21 23  1  0  0  0
 22 28  1  0  0  0
 22 32  2  0  0  0
 26 27  1  0  0  0
 28100  1  0  0  0
 28101  1  0  0  0
 29102  1  0  0  0
 29103  1  0  0  0
 33 34  1  0  0  0
 33 66  1  0  0  0
 33 70  2  0  0  0
 34 36  1  0  0  0
 34 59  1  0  0  0
 34104  1  0  0  0
 35 44  2  0  0  0
 35 45  1  0  0  0
 35 68  1  0  0  0
 36 56  1  0  0  0
 36105  1  0  0  0
 37 39  1  0  0  0
 37 47  1  0  0  0
 37 66  1  0  0  0
 37106  1  0  0  0
 38 43  2  0  0  0
 38 46  1  0  0  0
 38 47  1  0  0  0
 39 64  1  0  0  0
 39 67  2  0  0  0
 40 52  1  0  0  0
 40 53  2  0  0  0
 40 58  1  0  0  0
 41107  1  0  0  0
 41108  1  0  0  0
 41109  1  0  0  0
 41 48  1  0  0  0
 42 43  1  0  0  0
 42 66  1  0  0  0
 42110  1  0  0  0
 42111  1  0  0  0
 43 44  1  0  0  0
 44112  1  0  0  0
 45 46  2  0  0  0
 45113  1  0  0  0
 46114  1  0  0  0
 47115  1  0  0  0
 47116  1  0  0  0
 48 56  1  0  0  0
 48 65  1  0  0  0
 48117  1  0  0  0
 49 50  1  0  0  0
 49 53  1  0  0  0
 49 64  1  0  0  0
 49118  1  0  0  0
 50 51  1  0  0  0
 50119  1  0  0  0
 50120  1  0  0  0
 51 52  1  0  0  0
 51121  1  0  0  0
 51122  1  0  0  0
 52123  1  0  0  0
 52124  1  0  0  0
 53 54  1  0  0  0
 54 55  2  0  0  0
 54125  1  0  0  0
 55 57  1  0  0  0
 55126  1  0  0  0
 56 69  2  0  0  0
 57 58  2  0  0  0
 57127  1  0  0  0
 58128  1  0  0  0
 59 60  1  0  0  0
 59 61  1  0  0  0
 59 62  1  0  0  0
 60129  1  0  0  0
 60130  1  0  0  0
 60131  1  0  0  0
 61132  1  0  0  0
 61133  1  0  0  0
 61134  1  0  0  0
 62135  1  0  0  0
 62136  1  0  0  0
 62137  1  0  0  0
 63 65  1  0  0  0
 63138  1  0  0  0
 63139  1  0  0  0
 63140  1  0  0  0
 64141  1  0  0  0
 65142  1  0  0  0
 68 80  1  0  0  0
 71 72  2  0  0  0
 71 73  1  0  0  0
 71143  1  0  0  0
 72 75  1  0  0  0
 72144  1  0  0  0
 73 76  2  0  0  0
 73145  1  0  0  0
 74 75  2  0  0  0
 74 76  1  0  0  0
 74146  1  0  0  0
 75 78  1  0  0  0
 76 81  1  0  0  0
 77 79  1  0  0  0
 77 80  1  0  0  0
 77 83  2  0  0  0
 78 82  1  0  0  0
 78147  1  0  0  0
 78148  1  0  0  0
 79 81  1  0  0  0
 79149  1  0  0  0
 79150  1  0  0  0
 80151  1  0  0  0
 80152  1  0  0  0
 81153  1  0  0  0
 82154  1  0  0  0
M  ISO  4   1 100  68 101  80 101  82 100
M  END
> <chiral flag>
0

> <version>
0

> <s_m_source_file>
/data/baiqing/PycharmProjects/Reinvent-master-3.2/result/LINK_invent/BTK/process_docking_weight1_custom_product_contain_oxygen_bond_distance_aromatic_linkinvent_7_9_3/rearranged_h_0152.sdf

> <i_m_source_file_index>
71

> <r_mmod_Potential_Energy-OPLS-2005>
-102.503532409668

> <r_mmod_Stretch_Energy-OPLS-2005>
42.4701843261719

> <r_mmod_Bend_Energy-OPLS-2005>
109.041946411133

> <r_mmod_Torsional_Energy-OPLS-2005>
180.254348754883

> <r_mmod_Improper_Torsional_Energy-OPLS-2005>
3.72152423858643

> <r_mmod_Van_der_Waal_Energy-OPLS-2005>
157.362258911133

> <r_mmod_Electrostatic_Energy-OPLS-2005>
-367.755645751953

> <r_mmod_Solvation_Energy-OPLS-2005>
-247.178558349609

> <b_mmod_Minimization_Converged-OPLS-2005>
0

> <r_mmod_RMS_Derivative-OPLS-2005>
3.99214005470276

$$$$
71
                    3D
 Structure written by MMmdl.
154163  0  0  1  0            999 V2000
  -30.4849  -15.0746   20.3745 C   0  0  0  0  0  0
  -30.4386  -12.6760   19.4649 C   0  0  0  0  0  0
  -29.5051  -12.5399   18.2376 C   0  0  0  0  0  0
  -28.0412  -12.3144   18.6673 C   0  0  0  0  0  0
  -27.6139  -13.2565   19.8210 C   0  0  2  0  0  0
  -28.6694  -13.3382   20.9420 C   0  0  0  0  0  0
  -25.2369  -13.8238   20.5743 C   0  0  0  0  0  0
  -24.1714  -13.0445   20.9232 C   0  0  0  0  0  0
  -24.6338  -11.6941   20.8728 C   0  0  0  0  0  0
  -23.9019  -10.4301   21.0364 C   0  0  0  0  0  0
  -24.3567   -9.4226   21.9142 C   0  0  0  0  0  0
  -23.6268   -8.2243   22.0718 C   0  0  0  0  0  0
  -22.4257   -8.0243   21.3515 C   0  0  0  0  0  0
  -21.9868   -9.0221   20.4624 C   0  0  0  0  0  0
  -22.7171  -10.2116   20.3041 C   0  0  0  0  0  0
  -21.6843   -6.0703   22.5260 C   0  0  0  0  0  0
  -21.4026   -6.5609   23.8192 C   0  0  0  0  0  0
  -21.3671   -5.6762   24.9145 C   0  0  0  0  0  0
  -21.6055   -4.3028   24.7202 C   0  0  0  0  0  0
  -21.8826   -3.8118   23.4322 C   0  0  0  0  0  0
  -21.9196   -4.6935   22.3379 C   0  0  0  0  0  0
  -22.7732  -13.5185   21.1893 C   0  0  0  0  0  0
  -22.1651   -4.2127   21.0951 F   0  0  0  0  0  0
  -21.5631   -3.4517   25.7716 F   0  0  0  0  0  0
  -29.9123  -13.7949   20.3046 N   0  0  0  0  0  0
  -26.2804  -12.9497   20.3243 N   0  0  0  0  0  0
  -25.9273  -11.6618   20.5725 N   0  0  0  0  0  0
  -22.0400  -12.8200   22.0480 N   0  0  0  0  0  0
  -25.3970  -15.1978   20.4154 N   0  0  0  0  0  0
  -31.7148  -15.1183   20.2679 O   0  0  0  0  0  0
  -21.6620   -6.8843   21.4216 O   0  0  0  0  0  0
  -22.3418  -14.5469   20.6698 O   0  0  0  0  0  0
  -24.6565  -31.8339   23.1784 C   0  0  0  0  0  0
  -25.9287  -32.4636   23.8236 C   0  0  1  0  0  0
  -27.2079  -27.0205   20.1713 C   0  0  0  0  0  0
  -25.5981  -33.8443   24.2145 N   0  0  0  0  0  0
  -23.4646  -30.4507   21.5282 C   0  0  2  0  0  0
  -24.9123  -28.8561   20.1117 C   0  0  0  0  0  0
  -22.7630  -29.4489   22.4820 C   0  0  0  0  0  0
  -18.0323  -28.1402   22.8474 C   0  0  0  0  0  0
  -24.1482  -36.7217   23.2647 C   0  0  0  0  0  0
  -26.0284  -30.6688   21.3940 C   0  0  0  0  0  0
  -26.0948  -29.2682   20.7412 C   0  0  0  0  0  0
  -27.2448  -28.3717   20.7458 C   0  0  0  0  0  0
  -25.9969  -26.7385   19.5004 C   0  0  0  0  0  0
  -24.8827  -27.6086   19.4719 C   0  0  0  0  0  0
  -23.6979  -29.7771   20.1495 C   0  0  0  0  0  0
  -25.4129  -36.3006   24.0318 C   0  0  1  0  0  0
  -20.5949  -28.3742   23.1204 C   0  0  2  0  0  0
  -20.6815  -26.9443   22.5403 C   0  0  0  0  0  0
  -19.5782  -26.6379   21.5215 C   0  0  0  0  0  0
  -18.1960  -26.7946   22.1629 C   0  0  0  0  0  0
  -19.1581  -28.8900   23.2822 C   0  0  0  0  0  0
  -18.9493  -30.1492   23.8852 C   0  0  0  0  0  0
  -17.6482  -30.6599   24.0560 C   0  0  0  0  0  0
  -25.9079  -34.9381   23.5044 C   0  0  0  0  0  0
  -16.5376  -29.9085   23.6344 C   0  0  0  0  0  0
  -16.7304  -28.6511   23.0358 C   0  0  0  0  0  0
  -26.4581  -31.6526   25.0700 C   0  0  0  0  0  0
  -25.3732  -31.3738   26.1362 C   0  0  0  0  0  0
  -27.0460  -30.2914   24.6353 C   0  0  0  0  0  0
  -27.6094  -32.4306   25.7485 C   0  0  0  0  0  0
  -27.5571  -37.1782   24.8477 C   0  0  0  0  0  0
  -21.4318  -29.3039   22.3562 N   0  0  0  0  0  0
  -26.4290  -37.3726   23.9402 N   0  0  0  0  0  0
  -24.7376  -31.0106   22.0870 N   0  0  0  0  0  0
  -23.4237  -28.8057   23.3023 O   0  0  0  0  0  0
  -28.2174  -25.9556   20.2320 O   0  0  0  0  0  0
  -26.5679  -34.8905   22.4627 O   0  0  0  0  0  0
  -23.5652  -32.1234   23.6937 O   0  0  0  0  0  0
  -27.1302  -18.8116   20.9810 C   0  0  0  0  0  0
  -28.5013  -18.8060   20.7515 C   0  0  0  0  0  0
  -29.1564  -20.0837   20.3868 C   0  0  0  0  0  0
  -28.4690  -21.4421   20.3823 C   0  0  0  0  0  0
  -26.5036  -20.0786   20.8586 C   0  0  0  0  0  0
  -28.9030  -23.0490   20.2471 C   0  0  0  0  0  0
  -30.4341  -19.1665   20.1814 C   0  0  0  0  0  0
  -29.7173  -17.8009   20.8312 C   0  0  2  0  0  0
  -24.3853  -20.6307   19.8773 C   0  0  0  0  0  0
  -27.8425  -24.3882   20.1828 C   0  0  0  0  0  0
  -27.1243  -21.2782   20.6025 N   0  0  0  0  0  0
  -25.1234  -20.1415   21.0362 N   0  0  0  0  0  0
  -29.6744  -16.2693   20.3241 N   0  0  0  0  0  0
  -30.1068  -23.3301   20.1946 O   0  0  0  0  0  0
  -31.4562  -12.8765   19.1284 H   0  0  0  0  0  0
  -30.4831  -11.7452   20.0344 H   0  0  0  0  0  0
  -29.8368  -11.7229   17.5931 H   0  0  0  0  0  0
  -29.5726  -13.4500   17.6380 H   0  0  0  0  0  0
  -27.9482  -11.2748   18.9879 H   0  0  0  0  0  0
  -27.3697  -12.4310   17.8152 H   0  0  0  0  0  0
  -27.5526  -14.2472   19.3696 H   0  0  0  0  0  0
  -28.8033  -12.3744   21.4357 H   0  0  0  0  0  0
  -28.3545  -14.0459   21.7109 H   0  0  0  0  0  0
  -25.2695   -9.5725   22.4748 H   0  0  0  0  0  0
  -23.9998   -7.4639   22.7444 H   0  0  0  0  0  0
  -21.0806   -8.8692   19.8938 H   0  0  0  0  0  0
  -22.3566  -10.9644   19.6169 H   0  0  0  0  0  0
  -21.2014   -7.6126   23.9691 H   0  0  0  0  0  0
  -21.1502   -6.0479   25.9053 H   0  0  0  0  0  0
  -22.0609   -2.7596   23.2810 H   0  0  0  0  0  0
  -22.4078  -11.9889   22.4880 H   0  0  0  0  0  0
  -21.1005  -13.1224   22.2718 H   0  0  0  0  0  0
  -24.6057  -15.8296   20.4728 H   0  0  0  0  0  0
  -26.2278  -15.6405   20.0446 H   0  0  0  0  0  0
  -26.7342  -32.5225   23.0948 H   0  0  0  0  0  0
  -25.0154  -33.9521   25.0324 H   0  0  0  0  0  0
  -22.7727  -31.2811   21.3689 H   0  0  0  0  0  0
  -23.3759  -35.9528   23.3306 H   0  0  0  0  0  0
  -24.3552  -36.8837   22.2051 H   0  0  0  0  0  0
  -23.7212  -37.6409   23.6681 H   0  0  0  0  0  0
  -26.1982  -31.4124   20.6136 H   0  0  0  0  0  0
  -26.8961  -30.7243   22.0415 H   0  0  0  0  0  0
  -28.1456  -28.6880   21.2542 H   0  0  0  0  0  0
  -25.8779  -25.7905   18.9989 H   0  0  0  0  0  0
  -23.9855  -27.2908   18.9580 H   0  0  0  0  0  0
  -23.8482  -30.5512   19.3949 H   0  0  0  0  0  0
  -22.8093  -29.2286   19.8338 H   0  0  0  0  0  0
  -25.1309  -36.1836   25.0813 H   0  0  0  0  0  0
  -21.0037  -28.3353   24.1322 H   0  0  0  0  0  0
  -20.5697  -26.2371   23.3638 H   0  0  0  0  0  0
  -21.6683  -26.7421   22.1215 H   0  0  0  0  0  0
  -19.6939  -25.6271   21.1278 H   0  0  0  0  0  0
  -19.6727  -27.3182   20.6731 H   0  0  0  0  0  0
  -17.4239  -26.6679   21.4023 H   0  0  0  0  0  0
  -18.0348  -26.0086   22.9021 H   0  0  0  0  0  0
  -19.7954  -30.7326   24.2208 H   0  0  0  0  0  0
  -17.5023  -31.6272   24.5172 H   0  0  0  0  0  0
  -15.5375  -30.2971   23.7669 H   0  0  0  0  0  0
  -15.8707  -28.0804   22.7084 H   0  0  0  0  0  0
  -24.5951  -30.7038   25.7687 H   0  0  0  0  0  0
  -24.8872  -32.2906   26.4695 H   0  0  0  0  0  0
  -25.7978  -30.8980   27.0202 H   0  0  0  0  0  0
  -26.3102  -29.6615   24.1338 H   0  0  0  0  0  0
  -27.4016  -29.7239   25.4964 H   0  0  0  0  0  0
  -27.9038  -30.4125   23.9733 H   0  0  0  0  0  0
  -27.2715  -33.3665   26.1954 H   0  0  0  0  0  0
  -28.3981  -32.6764   25.0353 H   0  0  0  0  0  0
  -28.0703  -31.8491   26.5477 H   0  0  0  0  0  0
  -28.2605  -38.0066   24.7510 H   0  0  0  0  0  0
  -28.1053  -36.2592   24.6337 H   0  0  0  0  0  0
  -27.2283  -37.1475   25.8883 H   0  0  0  0  0  0
  -20.9564  -29.8719   21.6696 H   0  0  0  0  0  0
  -26.0150  -38.2791   24.1394 H   0  0  0  0  0  0
  -26.5987  -17.9032   21.2316 H   0  0  0  0  0  0
  -31.2979  -19.5051   20.7560 H   0  0  0  0  0  0
  -30.6831  -19.0631   19.1229 H   0  0  0  0  0  0
  -29.9752  -17.7795   21.8895 H   0  0  0  0  0  0
  -23.3413  -20.7998   20.1428 H   0  0  0  0  0  0
  -24.4056  -19.8904   19.0744 H   0  0  0  0  0  0
  -24.7926  -21.5645   19.4874 H   0  0  0  0  0  0
  -27.1142  -24.2214   20.9751 H   0  0  0  0  0  0
  -27.2924  -24.2273   19.2588 H   0  0  0  0  0  0
  -24.7220  -19.2853   21.4095 H   0  0  0  0  0  0
  -28.7236  -16.0229   20.1027 H   0  0  0  0  0  0
  1 25  1  0  0  0
  1 30  2  0  0  0
  1 83  1  0  0  0
  2  3  1  0  0  0
  2 25  1  0  0  0
  2 85  1  0  0  0
  2 86  1  0  0  0
  3  4  1  0  0  0
  3 87  1  0  0  0
  3 88  1  0  0  0
  4  5  1  0  0  0
  4 89  1  0  0  0
  4 90  1  0  0  0
  5  6  1  0  0  0
  5 26  1  0  0  0
  5 91  1  0  0  0
  6 25  1  0  0  0
  6 92  1  0  0  0
  6 93  1  0  0  0
  7  8  2  0  0  0
  7 26  1  0  0  0
  7 29  1  0  0  0
  8  9  1  0  0  0
  8 22  1  0  0  0
  9 10  1  0  0  0
  9 27  2  0  0  0
 10 11  2  0  0  0
 10 15  1  0  0  0
 11 12  1  0  0  0
 11 94  1  0  0  0
 12 13  2  0  0  0
 12 95  1  0  0  0
 13 14  1  0  0  0
 13 31  1  0  0  0
 14 15  2  0  0  0
 14 96  1  0  0  0
 15 97  1  0  0  0
 16 17  2  0  0  0
 16 21  1  0  0  0
 16 31  1  0  0  0
 17 18  1  0  0  0
 17 98  1  0  0  0
 18 19  2  0  0  0
 18 99  1  0  0  0
 19 20  1  0  0  0
 19 24  1  0  0  0
 20 21  2  0  0  0
 20100  1  0  0  0
 21 23  1  0  0  0
 22 28  1  0  0  0
 22 32  2  0  0  0
 26 27  1  0  0  0
 28101  1  0  0  0
 28102  1  0  0  0
 29103  1  0  0  0
 29104  1  0  0  0
 33 34  1  0  0  0
 33 66  1  0  0  0
 33 70  2  0  0  0
 34 36  1  0  0  0
 34 59  1  0  0  0
 34105  1  0  0  0
 35 44  2  0  0  0
 35 45  1  0  0  0
 35 68  1  0  0  0
 36 56  1  0  0  0
 36106  1  0  0  0
 37 39  1  0  0  0
 37 47  1  0  0  0
 37 66  1  0  0  0
 37107  1  0  0  0
 38 43  2  0  0  0
 38 46  1  0  0  0
 38 47  1  0  0  0
 39 64  1  0  0  0
 39 67  2  0  0  0
 40 52  1  0  0  0
 40 53  2  0  0  0
 40 58  1  0  0  0
 41108  1  0  0  0
 41109  1  0  0  0
 41110  1  0  0  0
 41 48  1  0  0  0
 42 43  1  0  0  0
 42 66  1  0  0  0
 42111  1  0  0  0
 42112  1  0  0  0
 43 44  1  0  0  0
 44113  1  0  0  0
 45 46  2  0  0  0
 45114  1  0  0  0
 46115  1  0  0  0
 47116  1  0  0  0
 47117  1  0  0  0
 48 56  1  0  0  0
 48 65  1  0  0  0
 48118  1  0  0  0
 49 50  1  0  0  0
 49 53  1  0  0  0
 49 64  1  0  0  0
 49119  1  0  0  0
 50 51  1  0  0  0
 50120  1  0  0  0
 50121  1  0  0  0
 51 52  1  0  0  0
 51122  1  0  0  0
 51123  1  0  0  0
 52124  1  0  0  0
 52125  1  0  0  0
 53 54  1  0  0  0
 54 55  2  0  0  0
 54126  1  0  0  0
 55 57  1  0  0  0
 55127  1  0  0  0
 56 69  2  0  0  0
 57 58  2  0  0  0
 57128  1  0  0  0
 58129  1  0  0  0
 59 60  1  0  0  0
 59 61  1  0  0  0
 59 62  1  0  0  0
 60130  1  0  0  0
 60131  1  0  0  0
 60132  1  0  0  0
 61133  1  0  0  0
 61134  1  0  0  0
 61135  1  0  0  0
 62136  1  0  0  0
 62137  1  0  0  0
 62138  1  0  0  0
 63 65  1  0  0  0
 63139  1  0  0  0
 63140  1  0  0  0
 63141  1  0  0  0
 64142  1  0  0  0
 65143  1  0  0  0
 68 80  1  0  0  0
 71 72  2  0  0  0
 71 75  1  0  0  0
 71144  1  0  0  0
 72 73  1  0  0  0
 72 78  1  0  0  0
 73 74  2  0  0  0
 73 77  1  0  0  0
 74 76  1  0  0  0
 74 81  1  0  0  0
 75 81  2  0  0  0
 75 82  1  0  0  0
 76 80  1  0  0  0
 76 84  2  0  0  0
 77 78  1  0  0  0
 77145  1  0  0  0
 77146  1  0  0  0
 78 83  1  0  0  0
 78147  1  0  0  0
 79 82  1  0  0  0
 79148  1  0  0  0
 79149  1  0  0  0
 79150  1  0  0  0
 80151  1  0  0  0
 80152  1  0  0  0
 82153  1  0  0  0
 83154  1  0  0  0
M  ISO  4   1 100  68 101  80 101  83 100
M  END
> <chiral flag>
0

> <version>
0

> <s_m_source_file>
/data/baiqing/PycharmProjects/Reinvent-master-3.2/result/LINK_invent/BTK/process_docking_weight1_custom_product_contain_oxygen_bond_distance_aromatic_linkinvent_7_9_3/rearranged_h_0152.sdf

> <i_m_source_file_index>
72

> <r_mmod_Potential_Energy-OPLS-2005>
977.994079589844

> <r_mmod_Stretch_Energy-OPLS-2005>
371.577819824219

> <r_mmod_Bend_Energy-OPLS-2005>
758.044067382812

> <r_mmod_Torsional_Energy-OPLS-2005>
245.574447631836

> <r_mmod_Improper_Torsional_Energy-OPLS-2005>
11.2456855773926

> <r_mmod_Van_der_Waal_Energy-OPLS-2005>
122.847640991211

> <r_mmod_Electrostatic_Energy-OPLS-2005>
-576.390991210938

> <r_mmod_Solvation_Energy-OPLS-2005>
-263.983093261719

> <b_mmod_Minimization_Converged-OPLS-2005>
0

> <r_mmod_RMS_Derivative-OPLS-2005>
3.85813140869141

$$$$
72
                    3D
 Structure written by MMmdl.
155164  0  0  1  0            999 V2000
  -30.5666  -14.6930   20.5062 C   0  0  0  0  0  0
  -30.4501  -12.4277   19.4565 C   0  0  0  0  0  0
  -29.5118  -12.5118   18.2288 C   0  0  0  0  0  0
  -28.0352  -12.3377   18.6395 C   0  0  0  0  0  0
  -27.6518  -13.2096   19.8631 C   0  0  2  0  0  0
  -28.6953  -13.0679   20.9936 C   0  0  0  0  0  0
  -25.2557  -13.8137   20.5659 C   0  0  0  0  0  0
  -24.1826  -13.0425   20.9195 C   0  0  0  0  0  0
  -24.6390  -11.6895   20.8752 C   0  0  0  0  0  0
  -23.9063  -10.4287   21.0413 C   0  0  0  0  0  0
  -24.3617   -9.4202   21.9193 C   0  0  0  0  0  0
  -23.6287   -8.2240   22.0771 C   0  0  0  0  0  0
  -22.4276   -8.0277   21.3548 C   0  0  0  0  0  0
  -21.9907   -9.0249   20.4656 C   0  0  0  0  0  0
  -22.7236  -10.2126   20.3062 C   0  0  0  0  0  0
  -21.6849   -6.0739   22.5278 C   0  0  0  0  0  0
  -21.4009   -6.5647   23.8211 C   0  0  0  0  0  0
  -21.3658   -5.6798   24.9172 C   0  0  0  0  0  0
  -21.6039   -4.3062   24.7221 C   0  0  0  0  0  0
  -21.8821   -3.8158   23.4342 C   0  0  0  0  0  0
  -21.9187   -4.6970   22.3397 C   0  0  0  0  0  0
  -22.7850  -13.5225   21.1841 C   0  0  0  0  0  0
  -22.1662   -4.2156   21.0972 F   0  0  0  0  0  0
  -21.5625   -3.4548   25.7737 F   0  0  0  0  0  0
  -30.0039  -13.4421   20.4334 N   0  0  0  0  0  0
  -26.2978  -12.9303   20.3306 N   0  0  0  0  0  0
  -25.9309  -11.6475   20.5750 N   0  0  0  0  0  0
  -22.0493  -12.8225   22.0399 N   0  0  0  0  0  0
  -25.4269  -15.1857   20.4042 N   0  0  0  0  0  0
  -31.7356  -14.8919   20.1554 O   0  0  0  0  0  0
  -21.6632   -6.8881   21.4240 O   0  0  0  0  0  0
  -22.3548  -14.5531   20.6679 O   0  0  0  0  0  0
  -24.6271  -31.8596   23.1988 C   0  0  0  0  0  0
  -25.9116  -32.4770   23.8335 C   0  0  1  0  0  0
  -27.2279  -27.3066   20.1414 C   0  0  0  0  0  0
  -25.5941  -33.8567   24.2271 N   0  0  0  0  0  0
  -23.4216  -30.4778   21.5433 C   0  0  2  0  0  0
  -24.8707  -28.9178   20.1213 C   0  0  0  0  0  0
  -22.7475  -29.4608   22.4960 C   0  0  0  0  0  0
  -18.0280  -28.1363   22.8474 C   0  0  0  0  0  0
  -24.1496  -36.7292   23.2642 C   0  0  0  0  0  0
  -25.9603  -30.7851   21.3695 C   0  0  0  0  0  0
  -26.0363  -29.4050   20.7264 C   0  0  0  0  0  0
  -27.2232  -28.6121   20.7227 C   0  0  0  0  0  0
  -26.0430  -26.8613   19.5245 C   0  0  0  0  0  0
  -24.8736  -27.6498   19.5131 C   0  0  0  0  0  0
  -23.6407  -29.8037   20.1619 C   0  0  0  0  0  0
  -25.4117  -36.3075   24.0325 C   0  0  1  0  0  0
  -20.5866  -28.3676   23.1281 C   0  0  2  0  0  0
  -20.6780  -26.9402   22.5401 C   0  0  0  0  0  0
  -19.5760  -26.6370   21.5191 C   0  0  0  0  0  0
  -18.1928  -26.7909   22.1596 C   0  0  0  0  0  0
  -19.1530  -28.8832   23.2866 C   0  0  0  0  0  0
  -18.9467  -30.1439   23.8878 C   0  0  0  0  0  0
  -17.6470  -30.6589   24.0543 C   0  0  0  0  0  0
  -25.9049  -34.9446   23.5097 C   0  0  0  0  0  0
  -16.5353  -29.9095   23.6317 C   0  0  0  0  0  0
  -16.7263  -28.6499   23.0338 C   0  0  0  0  0  0
  -26.4499  -31.6575   25.0710 C   0  0  0  0  0  0
  -25.3726  -31.3718   26.1442 C   0  0  0  0  0  0
  -27.0337  -30.3012   24.6137 C   0  0  0  0  0  0
  -27.6057  -32.4316   25.7475 C   0  0  0  0  0  0
  -27.5580  -37.1805   24.8467 C   0  0  0  0  0  0
  -21.4190  -29.3037   22.3706 N   0  0  0  0  0  0
  -26.4296  -37.3773   23.9416 N   0  0  0  0  0  0
  -24.6886  -31.0595   22.0940 N   0  0  0  0  0  0
  -23.4201  -28.8150   23.3042 O   0  0  0  0  0  0
  -28.3580  -26.4825   20.0834 O   0  0  0  0  0  0
  -26.5625  -34.8933   22.4664 O   0  0  0  0  0  0
  -23.5439  -32.1380   23.7328 O   0  0  0  0  0  0
  -30.3147  -19.4559   21.4650 C   0  0  0  0  0  0
  -28.3300  -19.2240   20.1534 C   0  0  0  0  0  0
  -30.5639  -18.0441   21.3674 C   0  0  0  0  0  0
  -28.5600  -17.8137   20.0767 C   0  0  0  0  0  0
  -29.1699  -20.0965   20.8995 C   0  0  0  0  0  0
  -29.6642  -17.1686   20.7012 C   0  0  0  0  0  0
  -26.9829  -23.2065   21.5069 C   0  0  0  0  0  0
  -28.7552  -21.5916   21.3065 C   0  0  2  0  0  0
  -28.0157  -23.7873   20.5164 C   0  0  1  0  0  0
  -28.4572  -25.2814   20.9451 C   0  0  0  0  0  0
  -29.6766  -15.7007   20.8072 N   0  0  0  0  0  0
  -27.2172  -21.7596   21.5561 N   0  3  0  0  0  0
  -29.0126  -22.6818   20.3978 O   0  0  0  0  0  0
  -31.4855  -12.5851   19.1504 H   0  0  0  0  0  0
  -30.4169  -11.4310   19.9007 H   0  0  0  0  0  0
  -29.7861  -11.7553   17.4922 H   0  0  0  0  0  0
  -29.6406  -13.4775   17.7365 H   0  0  0  0  0  0
  -27.8783  -11.2835   18.8722 H   0  0  0  0  0  0
  -27.3794  -12.5626   17.7977 H   0  0  0  0  0  0
  -27.6653  -14.2418   19.5142 H   0  0  0  0  0  0
  -28.7223  -12.0421   21.3641 H   0  0  0  0  0  0
  -28.4264  -13.6831   21.8539 H   0  0  0  0  0  0
  -25.2759   -9.5668   22.4772 H   0  0  0  0  0  0
  -23.9989   -7.4628   22.7501 H   0  0  0  0  0  0
  -21.0839   -8.8765   19.8958 H   0  0  0  0  0  0
  -22.3699  -10.9666   19.6178 H   0  0  0  0  0  0
  -21.2013   -7.6163   23.9712 H   0  0  0  0  0  0
  -21.1475   -6.0536   25.9070 H   0  0  0  0  0  0
  -22.0603   -2.7621   23.2836 H   0  0  0  0  0  0
  -22.4100  -11.9860   22.4741 H   0  0  0  0  0  0
  -21.1121  -13.1259   22.2633 H   0  0  0  0  0  0
  -24.6531  -15.8340   20.5005 H   0  0  0  0  0  0
  -26.2576  -15.6169   20.0237 H   0  0  0  0  0  0
  -26.7184  -32.5463   23.1092 H   0  0  0  0  0  0
  -25.0091  -33.9662   25.0423 H   0  0  0  0  0  0
  -22.7154  -31.2980   21.3962 H   0  0  0  0  0  0
  -23.3744  -35.9640   23.3301 H   0  0  0  0  0  0
  -24.3596  -36.8913   22.2062 H   0  0  0  0  0  0
  -23.7257  -37.6494   23.6671 H   0  0  0  0  0  0
  -26.0839  -31.5401   20.5902 H   0  0  0  0  0  0
  -26.8431  -30.8477   21.9932 H   0  0  0  0  0  0
  -28.1284  -28.9891   21.1800 H   0  0  0  0  0  0
  -26.0217  -25.8940   19.0430 H   0  0  0  0  0  0
  -23.9799  -27.2681   19.0399 H   0  0  0  0  0  0
  -23.7700  -30.5776   19.4046 H   0  0  0  0  0  0
  -22.7583  -29.2372   19.8582 H   0  0  0  0  0  0
  -25.1288  -36.1920   25.0815 H   0  0  0  0  0  0
  -20.9924  -28.3263   24.1409 H   0  0  0  0  0  0
  -20.5689  -26.2291   23.3605 H   0  0  0  0  0  0
  -21.6668  -26.7458   22.1186 H   0  0  0  0  0  0
  -19.6942  -25.6282   21.1221 H   0  0  0  0  0  0
  -19.6701  -27.3200   20.6729 H   0  0  0  0  0  0
  -17.4205  -26.6628   21.3999 H   0  0  0  0  0  0
  -18.0337  -26.0048   22.8989 H   0  0  0  0  0  0
  -19.7955  -30.7226   24.2264 H   0  0  0  0  0  0
  -17.5044  -31.6270   24.5163 H   0  0  0  0  0  0
  -15.5358  -30.2993   23.7676 H   0  0  0  0  0  0
  -15.8641  -28.0831   22.7050 H   0  0  0  0  0  0
  -24.5908  -30.7039   25.7800 H   0  0  0  0  0  0
  -24.8889  -32.2880   26.4854 H   0  0  0  0  0  0
  -25.8047  -30.8932   27.0236 H   0  0  0  0  0  0
  -26.2898  -29.6764   24.1181 H   0  0  0  0  0  0
  -27.4082  -29.7275   25.4617 H   0  0  0  0  0  0
  -27.8748  -30.4315   23.9316 H   0  0  0  0  0  0
  -27.2656  -33.3633   26.2017 H   0  0  0  0  0  0
  -28.3874  -32.6841   25.0297 H   0  0  0  0  0  0
  -28.0703  -31.8450   26.5412 H   0  0  0  0  0  0
  -28.2583  -38.0106   24.7514 H   0  0  0  0  0  0
  -28.1065  -36.2641   24.6276 H   0  0  0  0  0  0
  -27.2301  -37.1437   25.8863 H   0  0  0  0  0  0
  -20.9396  -29.8770   21.6907 H   0  0  0  0  0  0
  -26.0161  -38.2848   24.1415 H   0  0  0  0  0  0
  -30.9941  -20.0486   22.0620 H   0  0  0  0  0  0
  -27.4332  -19.6130   19.6932 H   0  0  0  0  0  0
  -31.4163  -17.6324   21.8882 H   0  0  0  0  0  0
  -27.8250  -17.2130   19.5605 H   0  0  0  0  0  0
  -25.9548  -23.4465   21.2363 H   0  0  0  0  0  0
  -27.1559  -23.5912   22.5129 H   0  0  0  0  0  0
  -29.2411  -21.8619   22.2474 H   0  0  0  0  0  0
  -27.5394  -23.8575   19.5385 H   0  0  0  0  0  0
  -29.5076  -25.2184   21.2290 H   0  0  0  0  0  0
  -27.9597  -25.5471   21.8787 H   0  0  0  0  0  0
  -28.7651  -15.3087   20.9908 H   0  0  0  0  0  0
  -26.6954  -21.3128   20.8201 H   0  0  0  0  0  0
  -26.9366  -21.3555   22.4359 H   0  0  0  0  0  0
  1 25  1  0  0  0
  1 30  2  0  0  0
  1 81  1  0  0  0
  2  3  1  0  0  0
  2 25  1  0  0  0
  2 84  1  0  0  0
  2 85  1  0  0  0
  3  4  1  0  0  0
  3 86  1  0  0  0
  3 87  1  0  0  0
  4  5  1  0  0  0
  4 88  1  0  0  0
  4 89  1  0  0  0
  5  6  1  0  0  0
  5 26  1  0  0  0
  5 90  1  0  0  0
  6 25  1  0  0  0
  6 91  1  0  0  0
  6 92  1  0  0  0
  7  8  2  0  0  0
  7 26  1  0  0  0
  7 29  1  0  0  0
  8  9  1  0  0  0
  8 22  1  0  0  0
  9 10  1  0  0  0
  9 27  2  0  0  0
 10 11  2  0  0  0
 10 15  1  0  0  0
 11 12  1  0  0  0
 11 93  1  0  0  0
 12 13  2  0  0  0
 12 94  1  0  0  0
 13 14  1  0  0  0
 13 31  1  0  0  0
 14 15  2  0  0  0
 14 95  1  0  0  0
 15 96  1  0  0  0
 16 17  2  0  0  0
 16 21  1  0  0  0
 16 31  1  0  0  0
 17 18  1  0  0  0
 17 97  1  0  0  0
 18 19  2  0  0  0
 18 98  1  0  0  0
 19 20  1  0  0  0
 19 24  1  0  0  0
 20 21  2  0  0  0
 20 99  1  0  0  0
 21 23  1  0  0  0
 22 28  1  0  0  0
 22 32  2  0  0  0
 26 27  1  0  0  0
 28100  1  0  0  0
 28101  1  0  0  0
 29102  1  0  0  0
 29103  1  0  0  0
 33 34  1  0  0  0
 33 66  1  0  0  0
 33 70  2  0  0  0
 34 36  1  0  0  0
 34 59  1  0  0  0
 34104  1  0  0  0
 35 44  2  0  0  0
 35 45  1  0  0  0
 35 68  1  0  0  0
 36 56  1  0  0  0
 36105  1  0  0  0
 37 39  1  0  0  0
 37 47  1  0  0  0
 37 66  1  0  0  0
 37106  1  0  0  0
 38 43  2  0  0  0
 38 46  1  0  0  0
 38 47  1  0  0  0
 39 64  1  0  0  0
 39 67  2  0  0  0
 40 52  1  0  0  0
 40 53  2  0  0  0
 40 58  1  0  0  0
 41107  1  0  0  0
 41108  1  0  0  0
 41109  1  0  0  0
 41 48  1  0  0  0
 42 43  1  0  0  0
 42 66  1  0  0  0
 42110  1  0  0  0
 42111  1  0  0  0
 43 44  1  0  0  0
 44112  1  0  0  0
 45 46  2  0  0  0
 45113  1  0  0  0
 46114  1  0  0  0
 47115  1  0  0  0
 47116  1  0  0  0
 48 56  1  0  0  0
 48 65  1  0  0  0
 48117  1  0  0  0
 49 50  1  0  0  0
 49 53  1  0  0  0
 49 64  1  0  0  0
 49118  1  0  0  0
 50 51  1  0  0  0
 50119  1  0  0  0
 50120  1  0  0  0
 51 52  1  0  0  0
 51121  1  0  0  0
 51122  1  0  0  0
 52123  1  0  0  0
 52124  1  0  0  0
 53 54  1  0  0  0
 54 55  2  0  0  0
 54125  1  0  0  0
 55 57  1  0  0  0
 55126  1  0  0  0
 56 69  2  0  0  0
 57 58  2  0  0  0
 57127  1  0  0  0
 58128  1  0  0  0
 59 60  1  0  0  0
 59 61  1  0  0  0
 59 62  1  0  0  0
 60129  1  0  0  0
 60130  1  0  0  0
 60131  1  0  0  0
 61132  1  0  0  0
 61133  1  0  0  0
 61134  1  0  0  0
 62135  1  0  0  0
 62136  1  0  0  0
 62137  1  0  0  0
 63 65  1  0  0  0
 63138  1  0  0  0
 63139  1  0  0  0
 63140  1  0  0  0
 64141  1  0  0  0
 65142  1  0  0  0
 68 80  1  0  0  0
 71 73  2  0  0  0
 71 75  1  0  0  0
 71143  1  0  0  0
 72 74  1  0  0  0
 72 75  2  0  0  0
 72144  1  0  0  0
 73 76  1  0  0  0
 73145  1  0  0  0
 74 76  2  0  0  0
 74146  1  0  0  0
 75 78  1  0  0  0
 76 81  1  0  0  0
 77 79  1  0  0  0
 77 82  1  0  0  0
 77147  1  0  0  0
 77148  1  0  0  0
 78 82  1  0  0  0
 78 83  1  0  0  0
 78149  1  0  0  0
 79 80  1  0  0  0
 79 83  1  0  0  0
 79150  1  0  0  0
 80151  1  0  0  0
 80152  1  0  0  0
 81153  1  0  0  0
 82154  1  0  0  0
 82155  1  0  0  0
M  CHG  1  82   1
M  ISO  4   1 100  68 101  80 101  81 100
M  END
> <chiral flag>
0

> <version>
0

> <s_m_source_file>
/data/baiqing/PycharmProjects/Reinvent-master-3.2/result/LINK_invent/BTK/process_docking_weight1_custom_product_contain_oxygen_bond_distance_aromatic_linkinvent_7_9_3/rearranged_h_0152.sdf

> <i_m_source_file_index>
73

> <r_mmod_Potential_Energy-OPLS-2005>
-17.3332977294922

> <r_mmod_Stretch_Energy-OPLS-2005>
98.8612213134766

> <r_mmod_Bend_Energy-OPLS-2005>
186.294097900391

> <r_mmod_Torsional_Energy-OPLS-2005>
304.966735839844

> <r_mmod_Improper_Torsional_Energy-OPLS-2005>
7.87357234954834

> <r_mmod_Van_der_Waal_Energy-OPLS-2005>
128.048751831055

> <r_mmod_Electrostatic_Energy-OPLS-2005>
-305.704071044922

> <r_mmod_Solvation_Energy-OPLS-2005>
-496.932891845703

> <b_mmod_Minimization_Converged-OPLS-2005>
0

> <r_mmod_RMS_Derivative-OPLS-2005>
2.71834325790405

$$$$
73
                    3D
 Structure written by MMmdl.
150158  0  0  1  0            999 V2000
  -30.5887  -14.7477   20.4652 C   0  0  0  0  0  0
  -30.4414  -12.4537   19.4778 C   0  0  0  0  0  0
  -29.5158  -12.5193   18.2404 C   0  0  0  0  0  0
  -28.0393  -12.3445   18.6483 C   0  0  0  0  0  0
  -27.6473  -13.2303   19.8607 C   0  0  2  0  0  0
  -28.6928  -13.1343   20.9949 C   0  0  0  0  0  0
  -25.2524  -13.8194   20.5715 C   0  0  0  0  0  0
  -24.1811  -13.0441   20.9205 C   0  0  0  0  0  0
  -24.6391  -11.6916   20.8741 C   0  0  0  0  0  0
  -23.9063  -10.4297   21.0397 C   0  0  0  0  0  0
  -24.3613   -9.4210   21.9173 C   0  0  0  0  0  0
  -23.6291   -8.2244   22.0745 C   0  0  0  0  0  0
  -22.4268   -8.0282   21.3539 C   0  0  0  0  0  0
  -21.9900   -9.0252   20.4636 C   0  0  0  0  0  0
  -22.7231  -10.2133   20.3043 C   0  0  0  0  0  0
  -21.6852   -6.0730   22.5282 C   0  0  0  0  0  0
  -21.4010   -6.5640   23.8214 C   0  0  0  0  0  0
  -21.3658   -5.6794   24.9179 C   0  0  0  0  0  0
  -21.6049   -4.3056   24.7230 C   0  0  0  0  0  0
  -21.8819   -3.8144   23.4352 C   0  0  0  0  0  0
  -21.9185   -4.6956   22.3405 C   0  0  0  0  0  0
  -22.7827  -13.5210   21.1865 C   0  0  0  0  0  0
  -22.1651   -4.2147   21.0982 F   0  0  0  0  0  0
  -21.5640   -3.4538   25.7738 F   0  0  0  0  0  0
  -29.9980  -13.5016   20.4271 N   0  0  0  0  0  0
  -26.2963  -12.9402   20.3320 N   0  0  0  0  0  0
  -25.9329  -11.6542   20.5769 N   0  0  0  0  0  0
  -22.0483  -12.8195   22.0424 N   0  0  0  0  0  0
  -25.4201  -15.1926   20.4130 N   0  0  0  0  0  0
  -31.7553  -14.8845   20.0860 O   0  0  0  0  0  0
  -21.6639   -6.8876   21.4243 O   0  0  0  0  0  0
  -22.3501  -14.5511   20.6708 O   0  0  0  0  0  0
  -24.6343  -31.8538   23.1987 C   0  0  0  0  0  0
  -25.9162  -32.4746   23.8333 C   0  0  1  0  0  0
  -27.2138  -27.2396   20.1180 C   0  0  0  0  0  0
  -25.5951  -33.8548   24.2258 N   0  0  0  0  0  0
  -23.4312  -30.4785   21.5430 C   0  0  2  0  0  0
  -24.8763  -28.9274   20.1063 C   0  0  0  0  0  0
  -22.7515  -29.4599   22.4908 C   0  0  0  0  0  0
  -18.0299  -28.1390   22.8488 C   0  0  0  0  0  0
  -24.1491  -36.7273   23.2642 C   0  0  0  0  0  0
  -25.9808  -30.7571   21.3852 C   0  0  0  0  0  0
  -26.0493  -29.3796   20.7240 C   0  0  0  0  0  0
  -27.2170  -28.5467   20.7231 C   0  0  0  0  0  0
  -26.0234  -26.8794   19.4437 C   0  0  0  0  0  0
  -24.8699  -27.6864   19.4553 C   0  0  0  0  0  0
  -23.6483  -29.8162   20.1577 C   0  0  0  0  0  0
  -25.4123  -36.3064   24.0323 C   0  0  1  0  0  0
  -20.5903  -28.3705   23.1265 C   0  0  2  0  0  0
  -20.6782  -26.9421   22.5409 C   0  0  0  0  0  0
  -19.5752  -26.6385   21.5219 C   0  0  0  0  0  0
  -18.1933  -26.7932   22.1628 C   0  0  0  0  0  0
  -19.1550  -28.8868   23.2870 C   0  0  0  0  0  0
  -18.9471  -30.1473   23.8886 C   0  0  0  0  0  0
  -17.6465  -30.6589   24.0564 C   0  0  0  0  0  0
  -25.9062  -34.9431   23.5093 C   0  0  0  0  0  0
  -16.5360  -29.9081   23.6335 C   0  0  0  0  0  0
  -16.7284  -28.6500   23.0357 C   0  0  0  0  0  0
  -26.4515  -31.6576   25.0735 C   0  0  0  0  0  0
  -25.3730  -31.3719   26.1448 C   0  0  0  0  0  0
  -27.0377  -30.2990   24.6246 C   0  0  0  0  0  0
  -27.6067  -32.4321   25.7510 C   0  0  0  0  0  0
  -27.5577  -37.1806   24.8473 C   0  0  0  0  0  0
  -21.4219  -29.3047   22.3647 N   0  0  0  0  0  0
  -26.4300  -37.3764   23.9396 N   0  0  0  0  0  0
  -24.7017  -31.0481   22.0979 N   0  0  0  0  0  0
  -23.4205  -28.8138   23.3014 O   0  0  0  0  0  0
  -28.2981  -26.3234   20.2017 O   0  0  0  0  0  0
  -26.5620  -34.8909   22.4654 O   0  0  0  0  0  0
  -23.5488  -32.1378   23.7268 O   0  0  0  0  0  0
  -29.2856  -18.4074   21.2320 C   0  0  0  0  0  0
  -29.8703  -17.2830   20.5083 C   0  0  0  0  0  0
  -29.5109  -19.5805   20.5036 C   0  0  0  0  0  0
  -30.3961  -17.8858   19.3907 C   0  0  0  0  0  0
  -28.9475  -22.1389   19.9452 C   0  0  0  0  0  0
  -28.1145  -24.8559   19.8636 C   0  0  0  0  0  0
  -28.8879  -23.6296   20.6148 C   0  0  1  0  0  0
  -29.8037  -15.8295   20.8365 N   0  0  0  0  0  0
  -29.1736  -20.9513   20.8650 N   0  0  0  0  0  0
  -30.1888  -19.2609   19.3552 O   0  0  0  0  0  0
  -28.2250  -23.4157   21.8528 O   0  0  0  0  0  0
  -31.0031  -17.2285   18.3730 F   0  0  0  0  0  0
  -31.4818  -12.5849   19.1760 H   0  0  0  0  0  0
  -30.3908  -11.4700   19.9467 H   0  0  0  0  0  0
  -29.7957  -11.7545   17.5134 H   0  0  0  0  0  0
  -29.6449  -13.4813   17.7405 H   0  0  0  0  0  0
  -27.8897  -11.2930   18.8961 H   0  0  0  0  0  0
  -27.3865  -12.5542   17.8001 H   0  0  0  0  0  0
  -27.6492  -14.2589   19.4999 H   0  0  0  0  0  0
  -28.7267  -12.1230   21.4016 H   0  0  0  0  0  0
  -28.4255  -13.7818   21.8304 H   0  0  0  0  0  0
  -25.2756   -9.5693   22.4746 H   0  0  0  0  0  0
  -24.0009   -7.4636   22.7461 H   0  0  0  0  0  0
  -21.0836   -8.8769   19.8935 H   0  0  0  0  0  0
  -22.3690  -10.9673   19.6152 H   0  0  0  0  0  0
  -21.2005   -7.6152   23.9720 H   0  0  0  0  0  0
  -21.1479   -6.0523   25.9084 H   0  0  0  0  0  0
  -22.0594   -2.7601   23.2861 H   0  0  0  0  0  0
  -22.4107  -11.9854   22.4808 H   0  0  0  0  0  0
  -21.1093  -13.1195   22.2636 H   0  0  0  0  0  0
  -24.6509  -15.8444   20.5244 H   0  0  0  0  0  0
  -26.2648  -15.6318   20.0708 H   0  0  0  0  0  0
  -26.7230  -32.5375   23.1068 H   0  0  0  0  0  0
  -25.0125  -33.9688   25.0421 H   0  0  0  0  0  0
  -22.7294  -31.3026   21.3988 H   0  0  0  0  0  0
  -23.3750  -35.9613   23.3335 H   0  0  0  0  0  0
  -24.3568  -36.8867   22.2049 H   0  0  0  0  0  0
  -23.7254  -37.6488   23.6645 H   0  0  0  0  0  0
  -26.1270  -31.5176   20.6170 H   0  0  0  0  0  0
  -26.8552  -30.8007   22.0219 H   0  0  0  0  0  0
  -28.1113  -28.8834   21.2285 H   0  0  0  0  0  0
  -25.9418  -25.9537   18.8968 H   0  0  0  0  0  0
  -23.9772  -27.3451   18.9490 H   0  0  0  0  0  0
  -23.7725  -30.5950   19.4043 H   0  0  0  0  0  0
  -22.7649  -29.2523   19.8517 H   0  0  0  0  0  0
  -25.1306  -36.1924   25.0818 H   0  0  0  0  0  0
  -21.0000  -28.3292   24.1381 H   0  0  0  0  0  0
  -20.5700  -26.2316   23.3614 H   0  0  0  0  0  0
  -21.6646  -26.7442   22.1201 H   0  0  0  0  0  0
  -19.6914  -25.6296   21.1246 H   0  0  0  0  0  0
  -19.6687  -27.3197   20.6747 H   0  0  0  0  0  0
  -17.4208  -26.6704   21.4025 H   0  0  0  0  0  0
  -18.0317  -26.0070   22.9019 H   0  0  0  0  0  0
  -19.7944  -30.7299   24.2241 H   0  0  0  0  0  0
  -17.5014  -31.6265   24.5177 H   0  0  0  0  0  0
  -15.5357  -30.2976   23.7664 H   0  0  0  0  0  0
  -15.8686  -28.0813   22.7070 H   0  0  0  0  0  0
  -24.5936  -30.7033   25.7777 H   0  0  0  0  0  0
  -24.8883  -32.2881   26.4832 H   0  0  0  0  0  0
  -25.8052  -30.8937   27.0250 H   0  0  0  0  0  0
  -26.2977  -29.6720   24.1262 H   0  0  0  0  0  0
  -27.4044  -29.7267   25.4777 H   0  0  0  0  0  0
  -27.8858  -30.4257   23.9514 H   0  0  0  0  0  0
  -27.2684  -33.3645   26.2042 H   0  0  0  0  0  0
  -28.3903  -32.6844   25.0352 H   0  0  0  0  0  0
  -28.0705  -31.8471   26.5463 H   0  0  0  0  0  0
  -28.2619  -38.0079   24.7484 H   0  0  0  0  0  0
  -28.1053  -36.2606   24.6360 H   0  0  0  0  0  0
  -27.2279  -37.1530   25.8875 H   0  0  0  0  0  0
  -20.9415  -29.8767   21.6842 H   0  0  0  0  0  0
  -26.0180  -38.2847   24.1374 H   0  0  0  0  0  0
  -28.7564  -18.3589   22.1732 H   0  0  0  0  0  0
  -29.7056  -22.1312   19.1599 H   0  0  0  0  0  0
  -28.0022  -21.9577   19.4317 H   0  0  0  0  0  0
  -27.0642  -24.5822   19.9348 H   0  0  0  0  0  0
  -28.3559  -24.7813   18.8024 H   0  0  0  0  0  0
  -29.9105  -23.9471   20.8207 H   0  0  0  0  0  0
  -28.9591  -15.5530   21.3134 H   0  0  0  0  0  0
  -28.8437  -21.1334   21.8105 H   0  0  0  0  0  0
  -27.3549  -23.0871   21.6498 H   0  0  0  0  0  0
  1 25  1  0  0  0
  1 30  2  0  0  0
  1 78  1  0  0  0
  2  3  1  0  0  0
  2 25  1  0  0  0
  2 83  1  0  0  0
  2 84  1  0  0  0
  3  4  1  0  0  0
  3 85  1  0  0  0
  3 86  1  0  0  0
  4  5  1  0  0  0
  4 87  1  0  0  0
  4 88  1  0  0  0
  5  6  1  0  0  0
  5 26  1  0  0  0
  5 89  1  0  0  0
  6 25  1  0  0  0
  6 90  1  0  0  0
  6 91  1  0  0  0
  7  8  2  0  0  0
  7 26  1  0  0  0
  7 29  1  0  0  0
  8  9  1  0  0  0
  8 22  1  0  0  0
  9 10  1  0  0  0
  9 27  2  0  0  0
 10 11  2  0  0  0
 10 15  1  0  0  0
 11 12  1  0  0  0
 11 92  1  0  0  0
 12 13  2  0  0  0
 12 93  1  0  0  0
 13 14  1  0  0  0
 13 31  1  0  0  0
 14 15  2  0  0  0
 14 94  1  0  0  0
 15 95  1  0  0  0
 16 17  2  0  0  0
 16 21  1  0  0  0
 16 31  1  0  0  0
 17 18  1  0  0  0
 17 96  1  0  0  0
 18 19  2  0  0  0
 18 97  1  0  0  0
 19 20  1  0  0  0
 19 24  1  0  0  0
 20 21  2  0  0  0
 20 98  1  0  0  0
 21 23  1  0  0  0
 22 28  1  0  0  0
 22 32  2  0  0  0
 26 27  1  0  0  0
 28 99  1  0  0  0
 28100  1  0  0  0
 29101  1  0  0  0
 29102  1  0  0  0
 33 34  1  0  0  0
 33 66  1  0  0  0
 33 70  2  0  0  0
 34 36  1  0  0  0
 34 59  1  0  0  0
 34103  1  0  0  0
 35 44  2  0  0  0
 35 45  1  0  0  0
 35 68  1  0  0  0
 36 56  1  0  0  0
 36104  1  0  0  0
 37 39  1  0  0  0
 37 47  1  0  0  0
 37 66  1  0  0  0
 37105  1  0  0  0
 38 43  2  0  0  0
 38 46  1  0  0  0
 38 47  1  0  0  0
 39 64  1  0  0  0
 39 67  2  0  0  0
 40 52  1  0  0  0
 40 53  2  0  0  0
 40 58  1  0  0  0
 41106  1  0  0  0
 41107  1  0  0  0
 41108  1  0  0  0
 41 48  1  0  0  0
 42 43  1  0  0  0
 42 66  1  0  0  0
 42109  1  0  0  0
 42110  1  0  0  0
 43 44  1  0  0  0
 44111  1  0  0  0
 45 46  2  0  0  0
 45112  1  0  0  0
 46113  1  0  0  0
 47114  1  0  0  0
 47115  1  0  0  0
 48 56  1  0  0  0
 48 65  1  0  0  0
 48116  1  0  0  0
 49 50  1  0  0  0
 49 53  1  0  0  0
 49 64  1  0  0  0
 49117  1  0  0  0
 50 51  1  0  0  0
 50118  1  0  0  0
 50119  1  0  0  0
 51 52  1  0  0  0
 51120  1  0  0  0
 51121  1  0  0  0
 52122  1  0  0  0
 52123  1  0  0  0
 53 54  1  0  0  0
 54 55  2  0  0  0
 54124  1  0  0  0
 55 57  1  0  0  0
 55125  1  0  0  0
 56 69  2  0  0  0
 57 58  2  0  0  0
 57126  1  0  0  0
 58127  1  0  0  0
 59 60  1  0  0  0
 59 61  1  0  0  0
 59 62  1  0  0  0
 60128  1  0  0  0
 60129  1  0  0  0
 60130  1  0  0  0
 61131  1  0  0  0
 61132  1  0  0  0
 61133  1  0  0  0
 62134  1  0  0  0
 62135  1  0  0  0
 62136  1  0  0  0
 63 65  1  0  0  0
 63137  1  0  0  0
 63138  1  0  0  0
 63139  1  0  0  0
 64140  1  0  0  0
 65141  1  0  0  0
 68 76  1  0  0  0
 71 72  1  0  0  0
 71 73  2  0  0  0
 71142  1  0  0  0
 72 74  2  0  0  0
 72 78  1  0  0  0
 73 79  1  0  0  0
 73 80  1  0  0  0
 74 80  1  0  0  0
 74 82  1  0  0  0
 75 77  1  0  0  0
 75 79  1  0  0  0
 75143  1  0  0  0
 75144  1  0  0  0
 76 77  1  0  0  0
 76145  1  0  0  0
 76146  1  0  0  0
 77 81  1  0  0  0
 77147  1  0  0  0
 78148  1  0  0  0
 79149  1  0  0  0
 81150  1  0  0  0
M  ISO  4   1 100  68 101  76 101  78 100
M  END
> <chiral flag>
0

> <version>
0

> <s_m_source_file>
/data/baiqing/PycharmProjects/Reinvent-master-3.2/result/LINK_invent/BTK/process_docking_weight1_custom_product_contain_oxygen_bond_distance_aromatic_linkinvent_7_9_3/rearranged_h_0152.sdf

> <i_m_source_file_index>
74

> <r_mmod_Potential_Energy-OPLS-2005>
143.448150634766

> <r_mmod_Stretch_Energy-OPLS-2005>
127.259239196777

> <r_mmod_Bend_Energy-OPLS-2005>
192.71354675293

> <r_mmod_Torsional_Energy-OPLS-2005>
251.064483642578

> <r_mmod_Improper_Torsional_Energy-OPLS-2005>
4.09799814224243

> <r_mmod_Van_der_Waal_Energy-OPLS-2005>
123.232933044434

> <r_mmod_Electrostatic_Energy-OPLS-2005>
-396.379028320312

> <r_mmod_Solvation_Energy-OPLS-2005>
-250.792251586914

> <b_mmod_Minimization_Converged-OPLS-2005>
0

> <r_mmod_RMS_Derivative-OPLS-2005>
1.53874957561493

$$$$
74
                    3D
 Structure written by MMmdl.
151160  0  0  1  0            999 V2000
  -30.4524  -15.1011   20.3867 C   0  0  0  0  0  0
  -30.4530  -12.6813   19.5265 C   0  0  0  0  0  0
  -29.5408  -12.5586   18.2795 C   0  0  0  0  0  0
  -28.0758  -12.3142   18.6892 C   0  0  0  0  0  0
  -27.6260  -13.2607   19.8305 C   0  0  2  0  0  0
  -28.6601  -13.3379   20.9701 C   0  0  0  0  0  0
  -25.2460  -13.8234   20.5718 C   0  0  0  0  0  0
  -24.1776  -13.0444   20.9206 C   0  0  0  0  0  0
  -24.6405  -11.6932   20.8726 C   0  0  0  0  0  0
  -23.9090  -10.4298   21.0393 C   0  0  0  0  0  0
  -24.3635   -9.4214   21.9176 C   0  0  0  0  0  0
  -23.6304   -8.2251   22.0752 C   0  0  0  0  0  0
  -22.4284   -8.0287   21.3545 C   0  0  0  0  0  0
  -21.9923   -9.0260   20.4645 C   0  0  0  0  0  0
  -22.7257  -10.2136   20.3048 C   0  0  0  0  0  0
  -21.6857   -6.0739   22.5279 C   0  0  0  0  0  0
  -21.4018   -6.5642   23.8213 C   0  0  0  0  0  0
  -21.3661   -5.6793   24.9174 C   0  0  0  0  0  0
  -21.6044   -4.3056   24.7224 C   0  0  0  0  0  0
  -21.8819   -3.8149   23.4344 C   0  0  0  0  0  0
  -21.9194   -4.6966   22.3401 C   0  0  0  0  0  0
  -22.7797  -13.5207   21.1878 C   0  0  0  0  0  0
  -22.1661   -4.2152   21.0979 F   0  0  0  0  0  0
  -21.5628   -3.4538   25.7736 F   0  0  0  0  0  0
  -29.9303  -13.7924   20.3859 N   0  0  0  0  0  0
  -26.2878  -12.9479   20.3201 N   0  0  0  0  0  0
  -25.9338  -11.6595   20.5687 N   0  0  0  0  0  0
  -22.0459  -12.8188   22.0438 N   0  0  0  0  0  0
  -25.4168  -15.1966   20.4221 N   0  0  0  0  0  0
  -31.6554  -15.1656   20.1155 O   0  0  0  0  0  0
  -21.6646   -6.8885   21.4242 O   0  0  0  0  0  0
  -22.3469  -14.5510   20.6729 O   0  0  0  0  0  0
  -24.6547  -31.8336   23.1790 C   0  0  0  0  0  0
  -25.9269  -32.4639   23.8219 C   0  0  1  0  0  0
  -27.2200  -27.0256   20.1533 C   0  0  0  0  0  0
  -25.5973  -33.8449   24.2129 N   0  0  0  0  0  0
  -23.4633  -30.4509   21.5273 C   0  0  2  0  0  0
  -24.9127  -28.8602   20.1096 C   0  0  0  0  0  0
  -22.7624  -29.4497   22.4816 C   0  0  0  0  0  0
  -18.0316  -28.1403   22.8472 C   0  0  0  0  0  0
  -24.1493  -36.7229   23.2645 C   0  0  0  0  0  0
  -26.0280  -30.6723   21.3934 C   0  0  0  0  0  0
  -26.0962  -29.2741   20.7319 C   0  0  0  0  0  0
  -27.2442  -28.3760   20.7326 C   0  0  0  0  0  0
  -25.9924  -26.7349   19.5127 C   0  0  0  0  0  0
  -24.8799  -27.6066   19.4843 C   0  0  0  0  0  0
  -23.6956  -29.7764   20.1493 C   0  0  0  0  0  0
  -25.4131  -36.2998   24.0306 C   0  0  1  0  0  0
  -20.5936  -28.3741   23.1207 C   0  0  2  0  0  0
  -20.6797  -26.9433   22.5400 C   0  0  0  0  0  0
  -19.5769  -26.6380   21.5213 C   0  0  0  0  0  0
  -18.1952  -26.7938   22.1625 C   0  0  0  0  0  0
  -19.1575  -28.8892   23.2829 C   0  0  0  0  0  0
  -18.9488  -30.1484   23.8861 C   0  0  0  0  0  0
  -17.6482  -30.6595   24.0557 C   0  0  0  0  0  0
  -25.9090  -34.9377   23.5033 C   0  0  0  0  0  0
  -16.5373  -29.9084   23.6340 C   0  0  0  0  0  0
  -16.7299  -28.6504   23.0360 C   0  0  0  0  0  0
  -26.4548  -31.6548   25.0708 C   0  0  0  0  0  0
  -25.3699  -31.3771   26.1381 C   0  0  0  0  0  0
  -27.0432  -30.2928   24.6374 C   0  0  0  0  0  0
  -27.6054  -32.4340   25.7506 C   0  0  0  0  0  0
  -27.5573  -37.1772   24.8466 C   0  0  0  0  0  0
  -21.4303  -29.3049   22.3567 N   0  0  0  0  0  0
  -26.4283  -37.3723   23.9408 N   0  0  0  0  0  0
  -24.7362  -31.0094   22.0875 N   0  0  0  0  0  0
  -23.4218  -28.8052   23.3011 O   0  0  0  0  0  0
  -28.2605  -25.9867   20.2555 O   0  0  0  0  0  0
  -26.5688  -34.8895   22.4620 O   0  0  0  0  0  0
  -23.5639  -32.1261   23.6944 O   0  0  0  0  0  0
  -27.7901  -24.2235   18.6074 C   0  0  0  0  0  0
  -28.2044  -21.7820   18.7145 C   0  0  0  0  0  0
  -28.2123  -24.5307   19.8583 C   0  0  0  0  0  0
  -27.7518  -22.8685   18.0410 C   0  0  0  0  0  0
  -28.7757  -23.2383   20.5807 C   0  0  0  0  0  0
  -29.7098  -17.6565   20.4186 C   0  0  0  0  0  0
  -28.6432  -18.8888   20.5130 C   0  0  0  0  0  0
  -30.9447  -18.5498   20.1416 C   0  0  0  0  0  0
  -29.3855  -20.3658   20.5680 C   0  0  2  0  0  0
  -29.5340  -16.2864   20.5481 N   0  0  0  0  0  0
  -28.7360  -21.8309   19.9884 N   0  0  0  0  0  0
  -29.2914  -23.3348   21.6983 O   0  0  0  0  0  0
  -30.5837  -19.9820   19.9079 O   0  0  0  0  0  0
  -27.2680  -22.6918   16.8063 O   0  0  0  0  0  0
  -31.4822  -12.8619   19.2130 H   0  0  0  0  0  0
  -30.4754  -11.7424   20.0826 H   0  0  0  0  0  0
  -29.8888  -11.7529   17.6318 H   0  0  0  0  0  0
  -29.6062  -13.4753   17.6914 H   0  0  0  0  0  0
  -27.9945  -11.2778   19.0190 H   0  0  0  0  0  0
  -27.4156  -12.4136   17.8267 H   0  0  0  0  0  0
  -27.5747  -14.2532   19.3813 H   0  0  0  0  0  0
  -28.7725  -12.3737   21.4682 H   0  0  0  0  0  0
  -28.3286  -14.0433   21.7339 H   0  0  0  0  0  0
  -25.2779   -9.5690   22.4752 H   0  0  0  0  0  0
  -24.0011   -7.4645   22.7475 H   0  0  0  0  0  0
  -21.0853   -8.8781   19.8952 H   0  0  0  0  0  0
  -22.3714  -10.9674   19.6157 H   0  0  0  0  0  0
  -21.2011   -7.6150   23.9718 H   0  0  0  0  0  0
  -21.1483   -6.0522   25.9077 H   0  0  0  0  0  0
  -22.0596   -2.7611   23.2843 H   0  0  0  0  0  0
  -22.4093  -11.9854   22.4822 H   0  0  0  0  0  0
  -21.1075  -13.1199   22.2654 H   0  0  0  0  0  0
  -24.6637  -15.8616   20.5589 H   0  0  0  0  0  0
  -26.2937  -15.6328   20.1625 H   0  0  0  0  0  0
  -26.7336  -32.5204   23.0938 H   0  0  0  0  0  0
  -25.0081  -33.9544   25.0252 H   0  0  0  0  0  0
  -22.7715  -31.2803   21.3662 H   0  0  0  0  0  0
  -23.3764  -35.9552   23.3286 H   0  0  0  0  0  0
  -24.3573  -36.8891   22.2063 H   0  0  0  0  0  0
  -23.7242  -37.6412   23.6706 H   0  0  0  0  0  0
  -26.1985  -31.4222   20.6197 H   0  0  0  0  0  0
  -26.8922  -30.7227   22.0440 H   0  0  0  0  0  0
  -28.1429  -28.6904   21.2442 H   0  0  0  0  0  0
  -25.8259  -25.7676   19.0704 H   0  0  0  0  0  0
  -23.9717  -27.2752   18.9996 H   0  0  0  0  0  0
  -23.8435  -30.5494   19.3943 H   0  0  0  0  0  0
  -22.8067  -29.2274   19.8335 H   0  0  0  0  0  0
  -25.1324  -36.1808   25.0797 H   0  0  0  0  0  0
  -21.0027  -28.3340   24.1329 H   0  0  0  0  0  0
  -20.5687  -26.2358   23.3631 H   0  0  0  0  0  0
  -21.6661  -26.7424   22.1200 H   0  0  0  0  0  0
  -19.6929  -25.6281   21.1267 H   0  0  0  0  0  0
  -19.6704  -27.3169   20.6726 H   0  0  0  0  0  0
  -17.4219  -26.6679   21.4031 H   0  0  0  0  0  0
  -18.0352  -26.0089   22.9031 H   0  0  0  0  0  0
  -19.7963  -30.7311   24.2213 H   0  0  0  0  0  0
  -17.5034  -31.6272   24.5166 H   0  0  0  0  0  0
  -15.5371  -30.2974   23.7685 H   0  0  0  0  0  0
  -15.8700  -28.0810   22.7096 H   0  0  0  0  0  0
  -24.5885  -30.7118   25.7691 H   0  0  0  0  0  0
  -24.8884  -32.2966   26.4721 H   0  0  0  0  0  0
  -25.7951  -30.8992   27.0216 H   0  0  0  0  0  0
  -26.3079  -29.6623   24.1362 H   0  0  0  0  0  0
  -27.3982  -29.7265   25.4994 H   0  0  0  0  0  0
  -27.9013  -30.4134   23.9758 H   0  0  0  0  0  0
  -27.2630  -33.3670   26.1993 H   0  0  0  0  0  0
  -28.3914  -32.6853   25.0372 H   0  0  0  0  0  0
  -28.0669  -31.8527   26.5500 H   0  0  0  0  0  0
  -28.2576  -38.0081   24.7512 H   0  0  0  0  0  0
  -28.1083  -36.2609   24.6295 H   0  0  0  0  0  0
  -27.2289  -37.1418   25.8868 H   0  0  0  0  0  0
  -20.9537  -29.8752   21.6721 H   0  0  0  0  0  0
  -26.0140  -38.2786   24.1413 H   0  0  0  0  0  0
  -27.4949  -25.0389   17.9646 H   0  0  0  0  0  0
  -28.1665  -20.8167   18.2292 H   0  0  0  0  0  0
  -28.0012  -18.7753   21.3859 H   0  0  0  0  0  0
  -28.0066  -18.8561   19.6297 H   0  0  0  0  0  0
  -31.4965  -18.1650   19.2838 H   0  0  0  0  0  0
  -31.6089  -18.4912   21.0043 H   0  0  0  0  0  0
  -29.6404  -20.6148   21.5999 H   0  0  0  0  0  0
  -27.0064  -23.5395   16.4671 H   0  0  0  0  0  0
  1 25  1  0  0  0
  1 30  2  0  0  0
  1 80  1  0  0  0
  2  3  1  0  0  0
  2 25  1  0  0  0
  2 85  1  0  0  0
  2 86  1  0  0  0
  3  4  1  0  0  0
  3 87  1  0  0  0
  3 88  1  0  0  0
  4  5  1  0  0  0
  4 89  1  0  0  0
  4 90  1  0  0  0
  5  6  1  0  0  0
  5 26  1  0  0  0
  5 91  1  0  0  0
  6 25  1  0  0  0
  6 92  1  0  0  0
  6 93  1  0  0  0
  7  8  2  0  0  0
  7 26  1  0  0  0
  7 29  1  0  0  0
  8  9  1  0  0  0
  8 22  1  0  0  0
  9 10  1  0  0  0
  9 27  2  0  0  0
 10 11  2  0  0  0
 10 15  1  0  0  0
 11 12  1  0  0  0
 11 94  1  0  0  0
 12 13  2  0  0  0
 12 95  1  0  0  0
 13 14  1  0  0  0
 13 31  1  0  0  0
 14 15  2  0  0  0
 14 96  1  0  0  0
 15 97  1  0  0  0
 16 17  2  0  0  0
 16 21  1  0  0  0
 16 31  1  0  0  0
 17 18  1  0  0  0
 17 98  1  0  0  0
 18 19  2  0  0  0
 18 99  1  0  0  0
 19 20  1  0  0  0
 19 24  1  0  0  0
 20 21  2  0  0  0
 20100  1  0  0  0
 21 23  1  0  0  0
 22 28  1  0  0  0
 22 32  2  0  0  0
 26 27  1  0  0  0
 28101  1  0  0  0
 28102  1  0  0  0
 29103  1  0  0  0
 29104  1  0  0  0
 33 34  1  0  0  0
 33 66  1  0  0  0
 33 70  2  0  0  0
 34 36  1  0  0  0
 34 59  1  0  0  0
 34105  1  0  0  0
 35 44  2  0  0  0
 35 45  1  0  0  0
 35 68  1  0  0  0
 36 56  1  0  0  0
 36106  1  0  0  0
 37 39  1  0  0  0
 37 47  1  0  0  0
 37 66  1  0  0  0
 37107  1  0  0  0
 38 43  2  0  0  0
 38 46  1  0  0  0
 38 47  1  0  0  0
 39 64  1  0  0  0
 39 67  2  0  0  0
 40 52  1  0  0  0
 40 53  2  0  0  0
 40 58  1  0  0  0
 41108  1  0  0  0
 41109  1  0  0  0
 41110  1  0  0  0
 41 48  1  0  0  0
 42 43  1  0  0  0
 42 66  1  0  0  0
 42111  1  0  0  0
 42112  1  0  0  0
 43 44  1  0  0  0
 44113  1  0  0  0
 45 46  2  0  0  0
 45114  1  0  0  0
 46115  1  0  0  0
 47116  1  0  0  0
 47117  1  0  0  0
 48 56  1  0  0  0
 48 65  1  0  0  0
 48118  1  0  0  0
 49 50  1  0  0  0
 49 53  1  0  0  0
 49 64  1  0  0  0
 49119  1  0  0  0
 50 51  1  0  0  0
 50120  1  0  0  0
 50121  1  0  0  0
 51 52  1  0  0  0
 51122  1  0  0  0
 51123  1  0  0  0
 52124  1  0  0  0
 52125  1  0  0  0
 53 54  1  0  0  0
 54 55  2  0  0  0
 54126  1  0  0  0
 55 57  1  0  0  0
 55127  1  0  0  0
 56 69  2  0  0  0
 57 58  2  0  0  0
 57128  1  0  0  0
 58129  1  0  0  0
 59 60  1  0  0  0
 59 61  1  0  0  0
 59 62  1  0  0  0
 60130  1  0  0  0
 60131  1  0  0  0
 60132  1  0  0  0
 61133  1  0  0  0
 61134  1  0  0  0
 61135  1  0  0  0
 62136  1  0  0  0
 62137  1  0  0  0
 62138  1  0  0  0
 63 65  1  0  0  0
 63139  1  0  0  0
 63140  1  0  0  0
 63141  1  0  0  0
 64142  1  0  0  0
 65143  1  0  0  0
 68 73  1  0  0  0
 71 73  2  0  0  0
 71 74  1  0  0  0
 71144  1  0  0  0
 72 74  2  0  0  0
 72 81  1  0  0  0
 72145  1  0  0  0
 73 75  1  0  0  0
 74 84  1  0  0  0
 75 81  1  0  0  0
 75 82  2  0  0  0
 76 77  1  0  0  0
 76 78  1  0  0  0
 76 80  2  0  0  0
 77 79  1  0  0  0
 77146  1  0  0  0
 77147  1  0  0  0
 78 83  1  0  0  0
 78148  1  0  0  0
 78149  1  0  0  0
 79 81  1  0  0  0
 79 83  1  0  0  0
 79150  1  0  0  0
 84151  1  0  0  0
M  ISO  4   1 100  68 101  73 101  80 100
M  END
> <chiral flag>
0

> <version>
0

> <s_m_source_file>
/data/baiqing/PycharmProjects/Reinvent-master-3.2/result/LINK_invent/BTK/process_docking_weight1_custom_product_contain_oxygen_bond_distance_aromatic_linkinvent_7_9_3/rearranged_h_0152.sdf

> <i_m_source_file_index>
75

> <r_mmod_Potential_Energy-OPLS-2005>
802.607116699219

> <r_mmod_Stretch_Energy-OPLS-2005>
372.857116699219

> <r_mmod_Bend_Energy-OPLS-2005>
353.25634765625

> <r_mmod_Torsional_Energy-OPLS-2005>
179.878707885742

> <r_mmod_Improper_Torsional_Energy-OPLS-2005>
3.82992243766785

> <r_mmod_Van_der_Waal_Energy-OPLS-2005>
128.290420532227

> <r_mmod_Electrostatic_Energy-OPLS-2005>
-326.586517333984

> <r_mmod_Solvation_Energy-OPLS-2005>
-218.261947631836

> <b_mmod_Minimization_Converged-OPLS-2005>
0

> <r_mmod_RMS_Derivative-OPLS-2005>
0.062351182103157

$$$$
75
                    3D
 Structure written by MMmdl.
156165  0  0  1  0            999 V2000
  -30.4510  -15.0551   20.4228 C   0  0  0  0  0  0
  -30.4427  -12.6586   19.5181 C   0  0  0  0  0  0
  -29.5317  -12.5511   18.2704 C   0  0  0  0  0  0
  -28.0656  -12.3141   18.6856 C   0  0  0  0  0  0
  -27.6210  -13.2501   19.8363 C   0  0  2  0  0  0
  -28.6526  -13.3149   20.9798 C   0  0  0  0  0  0
  -25.2429  -13.8229   20.5752 C   0  0  0  0  0  0
  -24.1733  -13.0412   20.9217 C   0  0  0  0  0  0
  -24.6399  -11.6917   20.8747 C   0  0  0  0  0  0
  -23.9109  -10.4254   21.0393 C   0  0  0  0  0  0
  -24.3663   -9.4191   21.9189 C   0  0  0  0  0  0
  -23.6334   -8.2222   22.0785 C   0  0  0  0  0  0
  -22.4303   -8.0280   21.3570 C   0  0  0  0  0  0
  -21.9920   -9.0260   20.4672 C   0  0  0  0  0  0
  -22.7268  -10.2129   20.3065 C   0  0  0  0  0  0
  -21.6848   -6.0733   22.5265 C   0  0  0  0  0  0
  -21.4004   -6.5645   23.8199 C   0  0  0  0  0  0
  -21.3645   -5.6817   24.9175 C   0  0  0  0  0  0
  -21.6040   -4.3070   24.7246 C   0  0  0  0  0  0
  -21.8809   -3.8155   23.4352 C   0  0  0  0  0  0
  -21.9192   -4.6960   22.3405 C   0  0  0  0  0  0
  -22.7788  -13.5218   21.1876 C   0  0  0  0  0  0
  -22.1667   -4.2134   21.0990 F   0  0  0  0  0  0
  -21.5634   -3.4559   25.7759 F   0  0  0  0  0  0
  -29.9104  -13.7640   20.3747 N   0  0  0  0  0  0
  -26.2830  -12.9442   20.3243 N   0  0  0  0  0  0
  -25.9314  -11.6571   20.5692 N   0  0  0  0  0  0
  -22.0525  -12.8143   22.0468 N   0  0  0  0  0  0
  -25.4126  -15.1945   20.4317 N   0  0  0  0  0  0
  -31.6648  -15.1408   20.1937 O   0  0  0  0  0  0
  -21.6662   -6.8861   21.4230 O   0  0  0  0  0  0
  -22.3452  -14.5535   20.6800 O   0  0  0  0  0  0
  -24.6471  -31.8375   23.1800 C   0  0  0  0  0  0
  -25.9165  -32.4681   23.8275 C   0  0  1  0  0  0
  -27.2290  -27.0708   20.1765 C   0  0  0  0  0  0
  -25.5889  -33.8485   24.2181 N   0  0  0  0  0  0
  -23.4589  -30.4500   21.5226 C   0  0  2  0  0  0
  -24.9155  -28.8605   20.1104 C   0  0  0  0  0  0
  -22.7577  -29.4523   22.4782 C   0  0  0  0  0  0
  -18.0274  -28.1321   22.8513 C   0  0  0  0  0  0
  -24.1477  -36.7247   23.2657 C   0  0  0  0  0  0
  -26.0151  -30.6940   21.3838 C   0  0  0  0  0  0
  -26.0897  -29.2938   20.7353 C   0  0  0  0  0  0
  -27.2411  -28.4139   20.7534 C   0  0  0  0  0  0
  -26.0295  -26.7545   19.5052 C   0  0  0  0  0  0
  -24.8970  -27.6048   19.4828 C   0  0  0  0  0  0
  -23.6938  -29.7690   20.1477 C   0  0  0  0  0  0
  -25.4121  -36.3061   24.0335 C   0  0  1  0  0  0
  -20.5872  -28.3845   23.1270 C   0  0  2  0  0  0
  -20.6792  -26.9451   22.5732 C   0  0  0  0  0  0
  -19.5814  -26.6082   21.5579 C   0  0  0  0  0  0
  -18.1963  -26.7752   22.1892 C   0  0  0  0  0  0
  -19.1492  -28.8920   23.2776 C   0  0  0  0  0  0
  -18.9363  -30.1594   23.8626 C   0  0  0  0  0  0
  -17.6337  -30.6645   24.0208 C   0  0  0  0  0  0
  -25.9061  -34.9417   23.5086 C   0  0  0  0  0  0
  -16.5246  -29.9012   23.6213 C   0  0  0  0  0  0
  -16.7233  -28.6368   23.0422 C   0  0  0  0  0  0
  -26.4486  -31.6587   25.0718 C   0  0  0  0  0  0
  -25.3664  -31.3751   26.1413 C   0  0  0  0  0  0
  -27.0349  -30.2999   24.6277 C   0  0  0  0  0  0
  -27.6051  -32.4339   25.7475 C   0  0  0  0  0  0
  -27.5577  -37.1801   24.8476 C   0  0  0  0  0  0
  -21.4244  -29.3110   22.3600 N   0  0  0  0  0  0
  -26.4303  -37.3773   23.9395 N   0  0  0  0  0  0
  -24.7277  -31.0212   22.0831 N   0  0  0  0  0  0
  -23.4172  -28.8036   23.2951 O   0  0  0  0  0  0
  -28.2800  -26.0683   20.2836 O   0  0  0  0  0  0
  -26.5697  -34.8917   22.4705 O   0  0  0  0  0  0
  -23.5560  -32.1227   23.6997 O   0  0  0  0  0  0
  -28.8976  -18.9473   20.3812 C   0  0  0  0  0  0
  -30.6336  -20.5364   20.7608 C   0  0  0  0  0  0
  -31.1108  -18.2168   20.9304 C   0  0  0  0  0  0
  -29.2491  -20.4123   20.5017 C   0  0  0  0  0  0
  -29.8254  -17.7723   20.5685 C   0  0  0  0  0  0
  -29.1273  -23.3303   22.0475 C   0  0  0  0  0  0
  -28.7127  -23.1339   20.7737 C   0  0  0  0  0  0
  -29.0259  -22.2320   23.1063 C   0  0  0  0  0  0
  -27.7930  -21.2983   22.8406 C   0  0  0  0  0  0
  -27.2761  -21.3992   21.3694 C   0  0  0  0  0  0
  -28.1585  -24.5142   19.9667 C   0  0  0  0  0  0
  -31.5026  -19.5140   20.9877 N   0  0  0  0  0  0
  -28.3973  -21.6812   20.4721 N   0  0  0  0  0  0
  -29.6018  -16.2244   20.4962 N   0  0  0  0  0  0
  -31.4683  -12.8546   19.2116 H   0  0  0  0  0  0
  -30.4764  -11.7188   20.0740 H   0  0  0  0  0  0
  -29.8745  -11.7553   17.6094 H   0  0  0  0  0  0
  -29.5937  -13.4763   17.6936 H   0  0  0  0  0  0
  -27.9730  -11.2744   19.0027 H   0  0  0  0  0  0
  -27.4065  -12.4371   17.8262 H   0  0  0  0  0  0
  -27.5683  -14.2458   19.4027 H   0  0  0  0  0  0
  -28.7696  -12.3522   21.4842 H   0  0  0  0  0  0
  -28.3255  -14.0298   21.7401 H   0  0  0  0  0  0
  -25.2821   -9.5662   22.4754 H   0  0  0  0  0  0
  -24.0058   -7.4596   22.7494 H   0  0  0  0  0  0
  -21.0858   -8.8801   19.8952 H   0  0  0  0  0  0
  -22.3775  -10.9701   19.6187 H   0  0  0  0  0  0
  -21.1995   -7.6161   23.9682 H   0  0  0  0  0  0
  -21.1495   -6.0564   25.9075 H   0  0  0  0  0  0
  -22.0608   -2.7615   23.2863 H   0  0  0  0  0  0
  -22.4218  -11.9795   22.4724 H   0  0  0  0  0  0
  -21.1159  -13.1077   22.2756 H   0  0  0  0  0  0
  -24.6604  -15.8554   20.5947 H   0  0  0  0  0  0
  -26.2638  -15.6394   20.1159 H   0  0  0  0  0  0
  -26.7221  -32.5252   23.1028 H   0  0  0  0  0  0
  -24.9966  -33.9585   25.0283 H   0  0  0  0  0  0
  -22.7669  -31.2776   21.3565 H   0  0  0  0  0  0
  -23.3767  -35.9546   23.3311 H   0  0  0  0  0  0
  -24.3597  -36.8856   22.2071 H   0  0  0  0  0  0
  -23.7170  -37.6427   23.6685 H   0  0  0  0  0  0
  -26.1660  -31.4357   20.6010 H   0  0  0  0  0  0
  -26.8874  -30.7643   22.0248 H   0  0  0  0  0  0
  -28.1316  -28.7294   21.2754 H   0  0  0  0  0  0
  -25.9321  -25.7916   19.0245 H   0  0  0  0  0  0
  -23.9983  -27.2681   18.9884 H   0  0  0  0  0  0
  -23.8360  -30.5362   19.3857 H   0  0  0  0  0  0
  -22.8107  -29.2085   19.8381 H   0  0  0  0  0  0
  -25.1306  -36.1930   25.0827 H   0  0  0  0  0  0
  -20.9894  -28.3731   24.1416 H   0  0  0  0  0  0
  -21.6732  -26.7240   22.1839 H   0  0  0  0  0  0
  -20.5506  -26.2676   23.4195 H   0  0  0  0  0  0
  -19.6875  -25.5778   21.2122 H   0  0  0  0  0  0
  -19.6839  -27.2444   20.6793 H   0  0  0  0  0  0
  -18.0352  -26.0040   22.9456 H   0  0  0  0  0  0
  -17.4268  -26.6294   21.4282 H   0  0  0  0  0  0
  -19.7756  -30.7664   24.1796 H   0  0  0  0  0  0
  -17.4795  -31.6476   24.4426 H   0  0  0  0  0  0
  -15.5198  -30.2894   23.7455 H   0  0  0  0  0  0
  -15.8611  -28.0597   22.7369 H   0  0  0  0  0  0
  -24.5883  -30.7065   25.7708 H   0  0  0  0  0  0
  -24.8810  -32.2899   26.4786 H   0  0  0  0  0  0
  -25.7929  -30.8963   27.0228 H   0  0  0  0  0  0
  -26.2971  -29.6719   24.1275 H   0  0  0  0  0  0
  -27.3966  -29.7302   25.4837 H   0  0  0  0  0  0
  -27.8853  -30.4266   23.9584 H   0  0  0  0  0  0
  -27.2740  -33.3695   26.1993 H   0  0  0  0  0  0
  -28.3889  -32.6799   25.0305 H   0  0  0  0  0  0
  -28.0712  -31.8479   26.5415 H   0  0  0  0  0  0
  -28.2637  -38.0064   24.7558 H   0  0  0  0  0  0
  -28.1048  -36.2624   24.6297 H   0  0  0  0  0  0
  -27.2328  -37.1434   25.8891 H   0  0  0  0  0  0
  -20.9401  -29.8912   21.6906 H   0  0  0  0  0  0
  -26.0168  -38.2829   24.1442 H   0  0  0  0  0  0
  -27.8705  -18.7138   20.1401 H   0  0  0  0  0  0
  -31.0607  -21.5231   20.8523 H   0  0  0  0  0  0
  -31.8614  -17.4943   21.2112 H   0  0  0  0  0  0
  -29.2990  -24.3326   22.4197 H   0  0  0  0  0  0
  -28.9891  -22.6769   24.1021 H   0  0  0  0  0  0
  -29.9537  -21.6623   23.0927 H   0  0  0  0  0  0
  -26.9687  -21.5415   23.5231 H   0  0  0  0  0  0
  -28.0475  -20.2604   23.0739 H   0  0  0  0  0  0
  -26.5797  -22.2402   21.3201 H   0  0  0  0  0  0
  -26.6698  -20.5504   21.0596 H   0  0  0  0  0  0
  -29.2236  -24.6603   19.8037 H   0  0  0  0  0  0
  -27.5248  -24.6022   20.8497 H   0  0  0  0  0  0
  -28.6286  -15.9547   20.5005 H   0  0  0  0  0  0
  1 25  1  0  0  0
  1 30  2  0  0  0
  1 84  1  0  0  0
  2  3  1  0  0  0
  2 25  1  0  0  0
  2 85  1  0  0  0
  2 86  1  0  0  0
  3  4  1  0  0  0
  3 87  1  0  0  0
  3 88  1  0  0  0
  4  5  1  0  0  0
  4 89  1  0  0  0
  4 90  1  0  0  0
  5  6  1  0  0  0
  5 26  1  0  0  0
  5 91  1  0  0  0
  6 25  1  0  0  0
  6 92  1  0  0  0
  6 93  1  0  0  0
  7  8  2  0  0  0
  7 26  1  0  0  0
  7 29  1  0  0  0
  8  9  1  0  0  0
  8 22  1  0  0  0
  9 10  1  0  0  0
  9 27  2  0  0  0
 10 11  2  0  0  0
 10 15  1  0  0  0
 11 12  1  0  0  0
 11 94  1  0  0  0
 12 13  2  0  0  0
 12 95  1  0  0  0
 13 14  1  0  0  0
 13 31  1  0  0  0
 14 15  2  0  0  0
 14 96  1  0  0  0
 15 97  1  0  0  0
 16 17  2  0  0  0
 16 21  1  0  0  0
 16 31  1  0  0  0
 17 18  1  0  0  0
 17 98  1  0  0  0
 18 19  2  0  0  0
 18 99  1  0  0  0
 19 20  1  0  0  0
 19 24  1  0  0  0
 20 21  2  0  0  0
 20100  1  0  0  0
 21 23  1  0  0  0
 22 28  1  0  0  0
 22 32  2  0  0  0
 26 27  1  0  0  0
 28101  1  0  0  0
 28102  1  0  0  0
 29103  1  0  0  0
 29104  1  0  0  0
 33 34  1  0  0  0
 33 66  1  0  0  0
 33 70  2  0  0  0
 34 36  1  0  0  0
 34 59  1  0  0  0
 34105  1  0  0  0
 35 44  2  0  0  0
 35 45  1  0  0  0
 35 68  1  0  0  0
 36 56  1  0  0  0
 36106  1  0  0  0
 37 39  1  0  0  0
 37 47  1  0  0  0
 37 66  1  0  0  0
 37107  1  0  0  0
 38 43  2  0  0  0
 38 46  1  0  0  0
 38 47  1  0  0  0
 39 64  1  0  0  0
 39 67  2  0  0  0
 40 52  1  0  0  0
 40 53  2  0  0  0
 40 58  1  0  0  0
 41108  1  0  0  0
 41109  1  0  0  0
 41110  1  0  0  0
 41 48  1  0  0  0
 42 43  1  0  0  0
 42 66  1  0  0  0
 42111  1  0  0  0
 42112  1  0  0  0
 43 44  1  0  0  0
 44113  1  0  0  0
 45 46  2  0  0  0
 45114  1  0  0  0
 46115  1  0  0  0
 47116  1  0  0  0
 47117  1  0  0  0
 48 56  1  0  0  0
 48 65  1  0  0  0
 48118  1  0  0  0
 49 50  1  0  0  0
 49 53  1  0  0  0
 49 64  1  0  0  0
 49119  1  0  0  0
 50 51  1  0  0  0
 50120  1  0  0  0
 50121  1  0  0  0
 51 52  1  0  0  0
 51122  1  0  0  0
 51123  1  0  0  0
 52124  1  0  0  0
 52125  1  0  0  0
 53 54  1  0  0  0
 54 55  2  0  0  0
 54126  1  0  0  0
 55 57  1  0  0  0
 55127  1  0  0  0
 56 69  2  0  0  0
 57 58  2  0  0  0
 57128  1  0  0  0
 58129  1  0  0  0
 59 60  1  0  0  0
 59 61  1  0  0  0
 59 62  1  0  0  0
 60130  1  0  0  0
 60131  1  0  0  0
 60132  1  0  0  0
 61133  1  0  0  0
 61134  1  0  0  0
 61135  1  0  0  0
 62136  1  0  0  0
 62137  1  0  0  0
 62138  1  0  0  0
 63 65  1  0  0  0
 63139  1  0  0  0
 63140  1  0  0  0
 63141  1  0  0  0
 64142  1  0  0  0
 65143  1  0  0  0
 68 81  1  0  0  0
 71 74  2  0  0  0
 71 75  1  0  0  0
 71144  1  0  0  0
 72 74  1  0  0  0
 72 82  2  0  0  0
 72145  1  0  0  0
 73 75  2  0  0  0
 73 82  1  0  0  0
 73146  1  0  0  0
 74 83  1  0  0  0
 75 84  1  0  0  0
 76 77  2  0  0  0
 76 78  1  0  0  0
 76147  1  0  0  0
 77 81  1  0  0  0
 77 83  1  0  0  0
 78 79  1  0  0  0
 78148  1  0  0  0
 78149  1  0  0  0
 79 80  1  0  0  0
 79150  1  0  0  0
 79151  1  0  0  0
 80 83  1  0  0  0
 80152  1  0  0  0
 80153  1  0  0  0
 81154  1  0  0  0
 81155  1  0  0  0
 84156  1  0  0  0
M  ISO  4   1 100  68 101  81 101  84 100
M  END
> <chiral flag>
0

> <version>
0

> <s_m_source_file>
/data/baiqing/PycharmProjects/Reinvent-master-3.2/result/LINK_invent/BTK/process_docking_weight1_custom_product_contain_oxygen_bond_distance_aromatic_linkinvent_7_9_3/rearranged_h_0152.sdf

> <i_m_source_file_index>
76

> <r_mmod_Potential_Energy-OPLS-2005>
908.355346679688

> <r_mmod_Stretch_Energy-OPLS-2005>
350.401885986328

> <r_mmod_Bend_Energy-OPLS-2005>
505.215515136719

> <r_mmod_Torsional_Energy-OPLS-2005>
283.477325439453

> <r_mmod_Improper_Torsional_Energy-OPLS-2005>
12.8161134719849

> <r_mmod_Van_der_Waal_Energy-OPLS-2005>
158.126449584961

> <r_mmod_Electrostatic_Energy-OPLS-2005>
-443.947448730469

> <r_mmod_Solvation_Energy-OPLS-2005>
-228.98078918457

> <b_mmod_Minimization_Converged-OPLS-2005>
0

> <r_mmod_RMS_Derivative-OPLS-2005>
8.66751480102539

$$$$
76
                    3D
 Structure written by MMmdl.
155164  0  0  1  0            999 V2000
  -30.5924  -14.8405   20.4748 C   0  0  0  0  0  0
  -30.4459  -12.5195   19.4757 C   0  0  0  0  0  0
  -29.5202  -12.5089   18.2370 C   0  0  0  0  0  0
  -28.0476  -12.3260   18.6514 C   0  0  0  0  0  0
  -27.6396  -13.2381   19.8399 C   0  0  2  0  0  0
  -28.6891  -13.2093   20.9723 C   0  0  0  0  0  0
  -25.2517  -13.8187   20.5656 C   0  0  0  0  0  0
  -24.1812  -13.0415   20.9169 C   0  0  0  0  0  0
  -24.6415  -11.6896   20.8696 C   0  0  0  0  0  0
  -23.9093  -10.4276   21.0366 C   0  0  0  0  0  0
  -24.3644   -9.4194   21.9149 C   0  0  0  0  0  0
  -23.6284   -8.2255   22.0768 C   0  0  0  0  0  0
  -22.4268   -8.0285   21.3553 C   0  0  0  0  0  0
  -21.9894   -9.0260   20.4661 C   0  0  0  0  0  0
  -22.7253  -10.2115   20.3029 C   0  0  0  0  0  0
  -21.6880   -6.0727   22.5250 C   0  0  0  0  0  0
  -21.4031   -6.5631   23.8178 C   0  0  0  0  0  0
  -21.3644   -5.6784   24.9144 C   0  0  0  0  0  0
  -21.6039   -4.3048   24.7198 C   0  0  0  0  0  0
  -21.8826   -3.8135   23.4329 C   0  0  0  0  0  0
  -21.9183   -4.6955   22.3370 C   0  0  0  0  0  0
  -22.7826  -13.5187   21.1780 C   0  0  0  0  0  0
  -22.1661   -4.2144   21.0946 F   0  0  0  0  0  0
  -21.5602   -3.4524   25.7698 F   0  0  0  0  0  0
  -29.9790  -13.5999   20.3826 N   0  0  0  0  0  0
  -26.2939  -12.9402   20.3217 N   0  0  0  0  0  0
  -25.9338  -11.6530   20.5689 N   0  0  0  0  0  0
  -22.0508  -12.8216   22.0395 N   0  0  0  0  0  0
  -25.4161  -15.1913   20.4075 N   0  0  0  0  0  0
  -31.7958  -14.9375   20.2148 O   0  0  0  0  0  0
  -21.6640   -6.8884   21.4213 O   0  0  0  0  0  0
  -22.3497  -14.5462   20.6584 O   0  0  0  0  0  0
  -24.6376  -31.8493   23.1988 C   0  0  0  0  0  0
  -25.9188  -32.4718   23.8330 C   0  0  1  0  0  0
  -27.2152  -27.1904   20.1601 C   0  0  0  0  0  0
  -25.5988  -33.8520   24.2245 N   0  0  0  0  0  0
  -23.4385  -30.4723   21.5429 C   0  0  2  0  0  0
  -24.8875  -28.9204   20.1101 C   0  0  0  0  0  0
  -22.7534  -29.4572   22.4930 C   0  0  0  0  0  0
  -18.0290  -28.1378   22.8522 C   0  0  0  0  0  0
  -24.1494  -36.7227   23.2644 C   0  0  0  0  0  0
  -25.9923  -30.7419   21.3926 C   0  0  0  0  0  0
  -26.0643  -29.3626   20.7285 C   0  0  0  0  0  0
  -27.2291  -28.5153   20.7366 C   0  0  0  0  0  0
  -26.0103  -26.8432   19.5005 C   0  0  0  0  0  0
  -24.8724  -27.6732   19.4775 C   0  0  0  0  0  0
  -23.6593  -29.8104   20.1587 C   0  0  0  0  0  0
  -25.4133  -36.3030   24.0318 C   0  0  1  0  0  0
  -20.5897  -28.3686   23.1285 C   0  0  2  0  0  0
  -20.6790  -26.9399   22.5417 C   0  0  0  0  0  0
  -19.5758  -26.6377   21.5240 C   0  0  0  0  0  0
  -18.1935  -26.7921   22.1649 C   0  0  0  0  0  0
  -19.1542  -28.8855   23.2905 C   0  0  0  0  0  0
  -18.9457  -30.1457   23.8913 C   0  0  0  0  0  0
  -17.6457  -30.6592   24.0538 C   0  0  0  0  0  0
  -25.9079  -34.9411   23.5084 C   0  0  0  0  0  0
  -16.5348  -29.9074   23.6343 C   0  0  0  0  0  0
  -16.7277  -28.6479   23.0402 C   0  0  0  0  0  0
  -26.4546  -31.6562   25.0735 C   0  0  0  0  0  0
  -25.3760  -31.3714   26.1445 C   0  0  0  0  0  0
  -27.0377  -30.2953   24.6281 C   0  0  0  0  0  0
  -27.6087  -32.4322   25.7512 C   0  0  0  0  0  0
  -27.5570  -37.1787   24.8482 C   0  0  0  0  0  0
  -21.4234  -29.3017   22.3656 N   0  0  0  0  0  0
  -26.4303  -37.3737   23.9393 N   0  0  0  0  0  0
  -24.7083  -31.0408   22.0995 N   0  0  0  0  0  0
  -23.4212  -28.8123   23.3056 O   0  0  0  0  0  0
  -28.2674  -26.2174   20.2535 O   0  0  0  0  0  0
  -26.5621  -34.8905   22.4633 O   0  0  0  0  0  0
  -23.5511  -32.1345   23.7245 O   0  0  0  0  0  0
  -30.2548  -19.2815   22.5317 C   0  0  0  0  0  0
  -30.2312  -17.8960   22.1764 C   0  0  0  0  0  0
  -29.7475  -18.5315   19.9152 C   0  0  0  0  0  0
  -30.0261  -20.3341   21.6012 C   0  0  0  0  0  0
  -29.7784  -19.9546   20.2638 C   0  0  0  0  0  0
  -29.9859  -17.4445   20.8530 C   0  0  0  0  0  0
  -29.3821  -23.0700   21.6296 C   0  0  0  0  0  0
  -28.8108  -23.4318   20.4475 C   0  0  0  0  0  0
  -30.2569  -21.8300   22.0220 C   0  0  0  0  0  0
  -29.7429  -21.1101   19.2173 C   0  0  0  0  0  0
  -28.7386  -22.3475   19.3248 C   0  0  0  0  0  0
  -27.8665  -24.7388   20.2378 C   0  0  0  0  0  0
  -29.7745  -15.9751   20.5845 N   0  0  0  0  0  0
  -31.4813  -12.6697   19.1675 H   0  0  0  0  0  0
  -30.4242  -11.5534   19.9864 H   0  0  0  0  0  0
  -29.8171  -11.7099   17.5573 H   0  0  0  0  0  0
  -29.6390  -13.4389   17.6763 H   0  0  0  0  0  0
  -27.9176  -11.2812   18.9319 H   0  0  0  0  0  0
  -27.3920  -12.4975   17.7972 H   0  0  0  0  0  0
  -27.6191  -14.2507   19.4372 H   0  0  0  0  0  0
  -28.7522  -12.2137   21.4145 H   0  0  0  0  0  0
  -28.4072  -13.8867   21.7797 H   0  0  0  0  0  0
  -25.2809   -9.5629   22.4720 H   0  0  0  0  0  0
  -23.9959   -7.4646   22.7505 H   0  0  0  0  0  0
  -21.0819   -8.8765   19.8990 H   0  0  0  0  0  0
  -22.3707  -10.9634   19.6126 H   0  0  0  0  0  0
  -21.2092   -7.6149   23.9668 H   0  0  0  0  0  0
  -21.1445   -6.0525   25.9029 H   0  0  0  0  0  0
  -22.0633   -2.7601   23.2798 H   0  0  0  0  0  0
  -22.4169  -11.9933   22.4835 H   0  0  0  0  0  0
  -21.1122  -13.1215   22.2563 H   0  0  0  0  0  0
  -24.6450  -15.8403   20.5294 H   0  0  0  0  0  0
  -26.2442  -15.6348   20.0309 H   0  0  0  0  0  0
  -26.7242  -32.5323   23.1054 H   0  0  0  0  0  0
  -25.0141  -33.9634   25.0400 H   0  0  0  0  0  0
  -22.7363  -31.2961   21.3950 H   0  0  0  0  0  0
  -23.3768  -35.9552   23.3348 H   0  0  0  0  0  0
  -24.3577  -36.8795   22.2048 H   0  0  0  0  0  0
  -23.7240  -37.6442   23.6638 H   0  0  0  0  0  0
  -26.1483  -31.5130   20.6366 H   0  0  0  0  0  0
  -26.8604  -30.7781   22.0390 H   0  0  0  0  0  0
  -28.1220  -28.8486   21.2457 H   0  0  0  0  0  0
  -25.8934  -25.8902   19.0101 H   0  0  0  0  0  0
  -23.9728  -27.3316   18.9823 H   0  0  0  0  0  0
  -23.7875  -30.5869   19.4032 H   0  0  0  0  0  0
  -22.7772  -29.2445   19.8531 H   0  0  0  0  0  0
  -25.1331  -36.1875   25.0810 H   0  0  0  0  0  0
  -20.9995  -28.3259   24.1412 H   0  0  0  0  0  0
  -20.5736  -26.2279   23.3616 H   0  0  0  0  0  0
  -21.6646  -26.7450   22.1176 H   0  0  0  0  0  0
  -19.6910  -25.6302   21.1253 H   0  0  0  0  0  0
  -19.6690  -27.3205   20.6787 H   0  0  0  0  0  0
  -17.4207  -26.6704   21.4037 H   0  0  0  0  0  0
  -18.0310  -26.0052   22.9026 H   0  0  0  0  0  0
  -19.7920  -30.7266   24.2318 H   0  0  0  0  0  0
  -17.4993  -31.6283   24.5092 H   0  0  0  0  0  0
  -15.5342  -30.2957   23.7669 H   0  0  0  0  0  0
  -15.8684  -28.0761   22.7173 H   0  0  0  0  0  0
  -24.5979  -30.7014   25.7785 H   0  0  0  0  0  0
  -24.8908  -32.2868   26.4837 H   0  0  0  0  0  0
  -25.8090  -30.8932   27.0240 H   0  0  0  0  0  0
  -26.2960  -29.6712   24.1283 H   0  0  0  0  0  0
  -27.3974  -29.7227   25.4838 H   0  0  0  0  0  0
  -27.8898  -30.4178   23.9594 H   0  0  0  0  0  0
  -27.2691  -33.3647   26.2046 H   0  0  0  0  0  0
  -28.3936  -32.6838   25.0365 H   0  0  0  0  0  0
  -28.0726  -31.8470   26.5470 H   0  0  0  0  0  0
  -28.2638  -38.0034   24.7472 H   0  0  0  0  0  0
  -28.1017  -36.2559   24.6412 H   0  0  0  0  0  0
  -27.2264  -37.1563   25.8884 H   0  0  0  0  0  0
  -20.9445  -29.8680   21.6790 H   0  0  0  0  0  0
  -26.0172  -38.2813   24.1386 H   0  0  0  0  0  0
  -30.4802  -19.5305   23.5616 H   0  0  0  0  0  0
  -30.3900  -17.1718   22.9650 H   0  0  0  0  0  0
  -29.5538  -18.2741   18.8836 H   0  0  0  0  0  0
  -29.3107  -23.7905   22.4332 H   0  0  0  0  0  0
  -31.2851  -22.0863   21.7661 H   0  0  0  0  0  0
  -30.2511  -21.8326   23.1147 H   0  0  0  0  0  0
  -29.5684  -20.6391   18.2499 H   0  0  0  0  0  0
  -30.7593  -21.5031   19.1485 H   0  0  0  0  0  0
  -27.7178  -21.9674   19.3020 H   0  0  0  0  0  0
  -28.8648  -22.9074   18.3981 H   0  0  0  0  0  0
  -27.0331  -24.6190   20.9356 H   0  0  0  0  0  0
  -27.4502  -24.5658   19.2471 H   0  0  0  0  0  0
  -28.8017  -15.7151   20.6002 H   0  0  0  0  0  0
  1 25  1  0  0  0
  1 30  2  0  0  0
  1 83  1  0  0  0
  2  3  1  0  0  0
  2 25  1  0  0  0
  2 84  1  0  0  0
  2 85  1  0  0  0
  3  4  1  0  0  0
  3 86  1  0  0  0
  3 87  1  0  0  0
  4  5  1  0  0  0
  4 88  1  0  0  0
  4 89  1  0  0  0
  5  6  1  0  0  0
  5 26  1  0  0  0
  5 90  1  0  0  0
  6 25  1  0  0  0
  6 91  1  0  0  0
  6 92  1  0  0  0
  7  8  2  0  0  0
  7 26  1  0  0  0
  7 29  1  0  0  0
  8  9  1  0  0  0
  8 22  1  0  0  0
  9 10  1  0  0  0
  9 27  2  0  0  0
 10 11  2  0  0  0
 10 15  1  0  0  0
 11 12  1  0  0  0
 11 93  1  0  0  0
 12 13  2  0  0  0
 12 94  1  0  0  0
 13 14  1  0  0  0
 13 31  1  0  0  0
 14 15  2  0  0  0
 14 95  1  0  0  0
 15 96  1  0  0  0
 16 17  2  0  0  0
 16 21  1  0  0  0
 16 31  1  0  0  0
 17 18  1  0  0  0
 17 97  1  0  0  0
 18 19  2  0  0  0
 18 98  1  0  0  0
 19 20  1  0  0  0
 19 24  1  0  0  0
 20 21  2  0  0  0
 20 99  1  0  0  0
 21 23  1  0  0  0
 22 28  1  0  0  0
 22 32  2  0  0  0
 26 27  1  0  0  0
 28100  1  0  0  0
 28101  1  0  0  0
 29102  1  0  0  0
 29103  1  0  0  0
 33 34  1  0  0  0
 33 66  1  0  0  0
 33 70  2  0  0  0
 34 36  1  0  0  0
 34 59  1  0  0  0
 34104  1  0  0  0
 35 44  2  0  0  0
 35 45  1  0  0  0
 35 68  1  0  0  0
 36 56  1  0  0  0
 36105  1  0  0  0
 37 39  1  0  0  0
 37 47  1  0  0  0
 37 66  1  0  0  0
 37106  1  0  0  0
 38 43  2  0  0  0
 38 46  1  0  0  0
 38 47  1  0  0  0
 39 64  1  0  0  0
 39 67  2  0  0  0
 40 52  1  0  0  0
 40 53  2  0  0  0
 40 58  1  0  0  0
 41107  1  0  0  0
 41108  1  0  0  0
 41109  1  0  0  0
 41 48  1  0  0  0
 42 43  1  0  0  0
 42 66  1  0  0  0
 42110  1  0  0  0
 42111  1  0  0  0
 43 44  1  0  0  0
 44112  1  0  0  0
 45 46  2  0  0  0
 45113  1  0  0  0
 46114  1  0  0  0
 47115  1  0  0  0
 47116  1  0  0  0
 48 56  1  0  0  0
 48 65  1  0  0  0
 48117  1  0  0  0
 49 50  1  0  0  0
 49 53  1  0  0  0
 49 64  1  0  0  0
 49118  1  0  0  0
 50 51  1  0  0  0
 50119  1  0  0  0
 50120  1  0  0  0
 51 52  1  0  0  0
 51121  1  0  0  0
 51122  1  0  0  0
 52123  1  0  0  0
 52124  1  0  0  0
 53 54  1  0  0  0
 54 55  2  0  0  0
 54125  1  0  0  0
 55 57  1  0  0  0
 55126  1  0  0  0
 56 69  2  0  0  0
 57 58  2  0  0  0
 57127  1  0  0  0
 58128  1  0  0  0
 59 60  1  0  0  0
 59 61  1  0  0  0
 59 62  1  0  0  0
 60129  1  0  0  0
 60130  1  0  0  0
 60131  1  0  0  0
 61132  1  0  0  0
 61133  1  0  0  0
 61134  1  0  0  0
 62135  1  0  0  0
 62136  1  0  0  0
 62137  1  0  0  0
 63 65  1  0  0  0
 63138  1  0  0  0
 63139  1  0  0  0
 63140  1  0  0  0
 64141  1  0  0  0
 65142  1  0  0  0
 68 82  1  0  0  0
 71 72  2  0  0  0
 71 74  1  0  0  0
 71143  1  0  0  0
 72 76  1  0  0  0
 72144  1  0  0  0
 73 75  1  0  0  0
 73 76  2  0  0  0
 73145  1  0  0  0
 74 75  2  0  0  0
 74 79  1  0  0  0
 75 80  1  0  0  0
 76 83  1  0  0  0
 77 78  2  0  0  0
 77 79  1  0  0  0
 77146  1  0  0  0
 78 81  1  0  0  0
 78 82  1  0  0  0
 79147  1  0  0  0
 79148  1  0  0  0
 80 81  1  0  0  0
 80149  1  0  0  0
 80150  1  0  0  0
 81151  1  0  0  0
 81152  1  0  0  0
 82153  1  0  0  0
 82154  1  0  0  0
 83155  1  0  0  0
M  ISO  4   1 100  68 101  82 101  83 100
M  END
> <chiral flag>
0

> <version>
0

> <s_m_source_file>
/data/baiqing/PycharmProjects/Reinvent-master-3.2/result/LINK_invent/BTK/process_docking_weight1_custom_product_contain_oxygen_bond_distance_aromatic_linkinvent_7_9_3/rearranged_h_0152.sdf

> <i_m_source_file_index>
77

> <r_mmod_Potential_Energy-OPLS-2005>
379.301177978516

> <r_mmod_Stretch_Energy-OPLS-2005>
158.740325927734

> <r_mmod_Bend_Energy-OPLS-2005>
232.580963134766

> <r_mmod_Torsional_Energy-OPLS-2005>
274.019439697266

> <r_mmod_Improper_Torsional_Energy-OPLS-2005>
10.498517036438

> <r_mmod_Van_der_Waal_Energy-OPLS-2005>
138.439559936523

> <r_mmod_Electrostatic_Energy-OPLS-2005>
-364.763763427734

> <r_mmod_Solvation_Energy-OPLS-2005>
-209.055297851562

> <b_mmod_Minimization_Converged-OPLS-2005>
0

> <r_mmod_RMS_Derivative-OPLS-2005>
4.2291784286499

$$$$
77
                    3D
 Structure written by MMmdl.
154163  0  0  1  0            999 V2000
  -30.5613  -14.7733   20.4381 C   0  0  0  0  0  0
  -30.4393  -12.4671   19.4783 C   0  0  0  0  0  0
  -29.5141  -12.5098   18.2391 C   0  0  0  0  0  0
  -28.0400  -12.3296   18.6483 C   0  0  0  0  0  0
  -27.6445  -13.2259   19.8515 C   0  0  2  0  0  0
  -28.6861  -13.1495   20.9894 C   0  0  0  0  0  0
  -25.2527  -13.8192   20.5644 C   0  0  0  0  0  0
  -24.1816  -13.0453   20.9194 C   0  0  0  0  0  0
  -24.6387  -11.6925   20.8740 C   0  0  0  0  0  0
  -23.9042  -10.4314   21.0402 C   0  0  0  0  0  0
  -24.3604   -9.4220   21.9174 C   0  0  0  0  0  0
  -23.6288   -8.2246   22.0736 C   0  0  0  0  0  0
  -22.4272   -8.0285   21.3528 C   0  0  0  0  0  0
  -21.9908   -9.0252   20.4626 C   0  0  0  0  0  0
  -22.7219  -10.2150   20.3046 C   0  0  0  0  0  0
  -21.6869   -6.0734   22.5268 C   0  0  0  0  0  0
  -21.4033   -6.5635   23.8208 C   0  0  0  0  0  0
  -21.3645   -5.6778   24.9161 C   0  0  0  0  0  0
  -21.6050   -4.3044   24.7205 C   0  0  0  0  0  0
  -21.8819   -3.8132   23.4326 C   0  0  0  0  0  0
  -21.9200   -4.6961   22.3392 C   0  0  0  0  0  0
  -22.7836  -13.5237   21.1850 C   0  0  0  0  0  0
  -22.1664   -4.2153   21.0970 F   0  0  0  0  0  0
  -21.5602   -3.4519   25.7710 F   0  0  0  0  0  0
  -29.9880  -13.5192   20.4197 N   0  0  0  0  0  0
  -26.2952  -12.9385   20.3265 N   0  0  0  0  0  0
  -25.9320  -11.6537   20.5747 N   0  0  0  0  0  0
  -22.0469  -12.8236   22.0408 N   0  0  0  0  0  0
  -25.4220  -15.1908   20.3975 N   0  0  0  0  0  0
  -31.7312  -14.9144   20.0612 O   0  0  0  0  0  0
  -21.6641   -6.8879   21.4228 O   0  0  0  0  0  0
  -22.3523  -14.5534   20.6680 O   0  0  0  0  0  0
  -24.6330  -31.8496   23.1965 C   0  0  0  0  0  0
  -25.9155  -32.4707   23.8315 C   0  0  1  0  0  0
  -27.2207  -27.2364   20.1195 C   0  0  0  0  0  0
  -25.5923  -33.8514   24.2215 N   0  0  0  0  0  0
  -23.4315  -30.4720   21.5393 C   0  0  2  0  0  0
  -24.8788  -28.9155   20.1051 C   0  0  0  0  0  0
  -22.7513  -29.4561   22.4893 C   0  0  0  0  0  0
  -18.0288  -28.1400   22.8467 C   0  0  0  0  0  0
  -24.1482  -36.7279   23.2640 C   0  0  0  0  0  0
  -25.9803  -30.7542   21.3807 C   0  0  0  0  0  0
  -26.0519  -29.3767   20.7162 C   0  0  0  0  0  0
  -27.2225  -28.5495   20.7119 C   0  0  0  0  0  0
  -26.0187  -26.8427   19.4903 C   0  0  0  0  0  0
  -24.8673  -27.6567   19.4849 C   0  0  0  0  0  0
  -23.6519  -29.8068   20.1549 C   0  0  0  0  0  0
  -25.4108  -36.3045   24.0317 C   0  0  1  0  0  0
  -20.5890  -28.3691   23.1246 C   0  0  2  0  0  0
  -20.6769  -26.9404   22.5403 C   0  0  0  0  0  0
  -19.5748  -26.6380   21.5206 C   0  0  0  0  0  0
  -18.1933  -26.7940   22.1625 C   0  0  0  0  0  0
  -19.1547  -28.8870   23.2846 C   0  0  0  0  0  0
  -18.9480  -30.1479   23.8853 C   0  0  0  0  0  0
  -17.6475  -30.6588   24.0573 C   0  0  0  0  0  0
  -25.9058  -34.9413   23.5075 C   0  0  0  0  0  0
  -16.5360  -29.9088   23.6345 C   0  0  0  0  0  0
  -16.7274  -28.6524   23.0320 C   0  0  0  0  0  0
  -26.4505  -31.6565   25.0737 C   0  0  0  0  0  0
  -25.3714  -31.3778   26.1461 C   0  0  0  0  0  0
  -27.0364  -30.2955   24.6321 C   0  0  0  0  0  0
  -27.6052  -32.4323   25.7488 C   0  0  0  0  0  0
  -27.5581  -37.1773   24.8444 C   0  0  0  0  0  0
  -21.4213  -29.3018   22.3623 N   0  0  0  0  0  0
  -26.4273  -37.3752   23.9423 N   0  0  0  0  0  0
  -24.7006  -31.0435   22.0949 N   0  0  0  0  0  0
  -23.4201  -28.8098   23.3004 O   0  0  0  0  0  0
  -28.3049  -26.3250   20.2190 O   0  0  0  0  0  0
  -26.5645  -34.8895   22.4652 O   0  0  0  0  0  0
  -23.5476  -32.1317   23.7261 O   0  0  0  0  0  0
  -29.3088  -19.1691   19.0074 C   0  0  0  0  0  0
  -29.5048  -17.7206   19.0860 C   0  0  0  0  0  0
  -29.3115  -19.8688   20.1975 C   0  0  0  0  0  0
  -29.7076  -17.2068   20.3582 C   0  0  0  0  0  0
  -28.6333  -23.7724   20.1906 C   0  0  0  0  0  0
  -28.2865  -25.0119   19.6467 C   0  0  0  0  0  0
  -29.0268  -23.4702   21.6243 C   0  0  0  0  0  0
  -28.7181  -22.3756   19.4742 C   0  0  0  0  0  0
  -29.1484  -21.9140   21.7773 C   0  0  0  0  0  0
  -29.4207  -16.8479   17.8652 C   0  0  0  0  0  0
  -29.1167  -21.3048   20.4470 N   0  0  0  0  0  0
  -29.7563  -15.8557   20.7755 N   0  0  0  0  0  0
  -29.6027  -18.6263   21.4629 S   0  0  0  0  0  0
  -31.4771  -12.6084   19.1727 H   0  0  0  0  0  0
  -30.3988  -11.4879   19.9572 H   0  0  0  0  0  0
  -29.7992  -11.7343   17.5259 H   0  0  0  0  0  0
  -29.6341  -13.4623   17.7185 H   0  0  0  0  0  0
  -27.8967  -11.2793   18.9051 H   0  0  0  0  0  0
  -27.3835  -12.5210   17.7989 H   0  0  0  0  0  0
  -27.6418  -14.2498   19.4764 H   0  0  0  0  0  0
  -28.7255  -12.1437   21.4096 H   0  0  0  0  0  0
  -28.4082  -13.8132   21.8093 H   0  0  0  0  0  0
  -25.2752   -9.5693   22.4739 H   0  0  0  0  0  0
  -23.9983   -7.4630   22.7462 H   0  0  0  0  0  0
  -21.0831   -8.8780   19.8940 H   0  0  0  0  0  0
  -22.3666  -10.9682   19.6144 H   0  0  0  0  0  0
  -21.2067   -7.6146   23.9728 H   0  0  0  0  0  0
  -21.1442   -6.0496   25.9070 H   0  0  0  0  0  0
  -22.0615   -2.7589   23.2828 H   0  0  0  0  0  0
  -22.4083  -11.9916   22.4845 H   0  0  0  0  0  0
  -21.1075  -13.1247   22.2594 H   0  0  0  0  0  0
  -24.6450  -15.8400   20.4724 H   0  0  0  0  0  0
  -26.2502  -15.6143   19.9986 H   0  0  0  0  0  0
  -26.7220  -32.5352   23.1057 H   0  0  0  0  0  0
  -24.9988  -33.9621   25.0304 H   0  0  0  0  0  0
  -22.7294  -31.2960   21.3921 H   0  0  0  0  0  0
  -23.3735  -35.9619   23.3254 H   0  0  0  0  0  0
  -24.3577  -36.8961   22.2070 H   0  0  0  0  0  0
  -23.7239  -37.6459   23.6701 H   0  0  0  0  0  0
  -26.1300  -31.5183   20.6163 H   0  0  0  0  0  0
  -26.8539  -30.7933   22.0209 H   0  0  0  0  0  0
  -28.1178  -28.8934   21.2092 H   0  0  0  0  0  0
  -25.9326  -25.8696   19.0289 H   0  0  0  0  0  0
  -23.9638  -27.2951   19.0114 H   0  0  0  0  0  0
  -23.7780  -30.5840   19.3997 H   0  0  0  0  0  0
  -22.7695  -29.2431   19.8481 H   0  0  0  0  0  0
  -25.1286  -36.1864   25.0802 H   0  0  0  0  0  0
  -20.9981  -28.3294   24.1370 H   0  0  0  0  0  0
  -20.5648  -26.2316   23.3614 H   0  0  0  0  0  0
  -21.6638  -26.7404   22.1213 H   0  0  0  0  0  0
  -19.6892  -25.6287   21.1241 H   0  0  0  0  0  0
  -19.6686  -27.3188   20.6730 H   0  0  0  0  0  0
  -17.4190  -26.6653   21.4044 H   0  0  0  0  0  0
  -18.0340  -26.0102   22.9043 H   0  0  0  0  0  0
  -19.7954  -30.7321   24.2185 H   0  0  0  0  0  0
  -17.5020  -31.6255   24.5200 H   0  0  0  0  0  0
  -15.5355  -30.2973   23.7700 H   0  0  0  0  0  0
  -15.8674  -28.0852   22.7004 H   0  0  0  0  0  0
  -24.5822  -30.7200   25.7796 H   0  0  0  0  0  0
  -24.9000  -32.2990   26.4898 H   0  0  0  0  0  0
  -25.8007  -30.8921   27.0234 H   0  0  0  0  0  0
  -26.2986  -29.6671   24.1323 H   0  0  0  0  0  0
  -27.3937  -29.7265   25.4918 H   0  0  0  0  0  0
  -27.8901  -30.4158   23.9651 H   0  0  0  0  0  0
  -27.2630  -33.3588   26.2099 H   0  0  0  0  0  0
  -28.3828  -32.6947   25.0304 H   0  0  0  0  0  0
  -28.0759  -31.8451   26.5381 H   0  0  0  0  0  0
  -28.2554  -38.0115   24.7544 H   0  0  0  0  0  0
  -28.1119  -36.2653   24.6173 H   0  0  0  0  0  0
  -27.2318  -37.1301   25.8847 H   0  0  0  0  0  0
  -20.9408  -29.8749   21.6823 H   0  0  0  0  0  0
  -26.0134  -38.2800   24.1482 H   0  0  0  0  0  0
  -29.1407  -19.6458   18.0521 H   0  0  0  0  0  0
  -28.0333  -25.0745   18.5973 H   0  0  0  0  0  0
  -28.2969  -23.8889   22.3186 H   0  0  0  0  0  0
  -29.9850  -23.9494   21.8285 H   0  0  0  0  0  0
  -29.4523  -22.4334   18.6690 H   0  0  0  0  0  0
  -27.7545  -22.1353   19.0228 H   0  0  0  0  0  0
  -28.3134  -21.5229   22.3599 H   0  0  0  0  0  0
  -30.0630  -21.6454   22.3068 H   0  0  0  0  0  0
  -29.2836  -17.4344   16.9560 H   0  0  0  0  0  0
  -28.5813  -16.1540   17.9310 H   0  0  0  0  0  0
  -30.3247  -16.2541   17.7324 H   0  0  0  0  0  0
  -28.9279  -15.5624   21.2712 H   0  0  0  0  0  0
  1 25  1  0  0  0
  1 30  2  0  0  0
  1 82  1  0  0  0
  2  3  1  0  0  0
  2 25  1  0  0  0
  2 84  1  0  0  0
  2 85  1  0  0  0
  3  4  1  0  0  0
  3 86  1  0  0  0
  3 87  1  0  0  0
  4  5  1  0  0  0
  4 88  1  0  0  0
  4 89  1  0  0  0
  5  6  1  0  0  0
  5 26  1  0  0  0
  5 90  1  0  0  0
  6 25  1  0  0  0
  6 91  1  0  0  0
  6 92  1  0  0  0
  7  8  2  0  0  0
  7 26  1  0  0  0
  7 29  1  0  0  0
  8  9  1  0  0  0
  8 22  1  0  0  0
  9 10  1  0  0  0
  9 27  2  0  0  0
 10 11  2  0  0  0
 10 15  1  0  0  0
 11 12  1  0  0  0
 11 93  1  0  0  0
 12 13  2  0  0  0
 12 94  1  0  0  0
 13 14  1  0  0  0
 13 31  1  0  0  0
 14 15  2  0  0  0
 14 95  1  0  0  0
 15 96  1  0  0  0
 16 17  2  0  0  0
 16 21  1  0  0  0
 16 31  1  0  0  0
 17 18  1  0  0  0
 17 97  1  0  0  0
 18 19  2  0  0  0
 18 98  1  0  0  0
 19 20  1  0  0  0
 19 24  1  0  0  0
 20 21  2  0  0  0
 20 99  1  0  0  0
 21 23  1  0  0  0
 22 28  1  0  0  0
 22 32  2  0  0  0
 26 27  1  0  0  0
 28100  1  0  0  0
 28101  1  0  0  0
 29102  1  0  0  0
 29103  1  0  0  0
 33 34  1  0  0  0
 33 66  1  0  0  0
 33 70  2  0  0  0
 34 36  1  0  0  0
 34 59  1  0  0  0
 34104  1  0  0  0
 35 44  2  0  0  0
 35 45  1  0  0  0
 35 68  1  0  0  0
 36 56  1  0  0  0
 36105  1  0  0  0
 37 39  1  0  0  0
 37 47  1  0  0  0
 37 66  1  0  0  0
 37106  1  0  0  0
 38 43  2  0  0  0
 38 46  1  0  0  0
 38 47  1  0  0  0
 39 64  1  0  0  0
 39 67  2  0  0  0
 40 52  1  0  0  0
 40 53  2  0  0  0
 40 58  1  0  0  0
 41107  1  0  0  0
 41108  1  0  0  0
 41109  1  0  0  0
 41 48  1  0  0  0
 42 43  1  0  0  0
 42 66  1  0  0  0
 42110  1  0  0  0
 42111  1  0  0  0
 43 44  1  0  0  0
 44112  1  0  0  0
 45 46  2  0  0  0
 45113  1  0  0  0
 46114  1  0  0  0
 47115  1  0  0  0
 47116  1  0  0  0
 48 56  1  0  0  0
 48 65  1  0  0  0
 48117  1  0  0  0
 49 50  1  0  0  0
 49 53  1  0  0  0
 49 64  1  0  0  0
 49118  1  0  0  0
 50 51  1  0  0  0
 50119  1  0  0  0
 50120  1  0  0  0
 51 52  1  0  0  0
 51121  1  0  0  0
 51122  1  0  0  0
 52123  1  0  0  0
 52124  1  0  0  0
 53 54  1  0  0  0
 54 55  2  0  0  0
 54125  1  0  0  0
 55 57  1  0  0  0
 55126  1  0  0  0
 56 69  2  0  0  0
 57 58  2  0  0  0
 57127  1  0  0  0
 58128  1  0  0  0
 59 60  1  0  0  0
 59 61  1  0  0  0
 59 62  1  0  0  0
 60129  1  0  0  0
 60130  1  0  0  0
 60131  1  0  0  0
 61132  1  0  0  0
 61133  1  0  0  0
 61134  1  0  0  0
 62135  1  0  0  0
 62136  1  0  0  0
 62137  1  0  0  0
 63 65  1  0  0  0
 63138  1  0  0  0
 63139  1  0  0  0
 63140  1  0  0  0
 64141  1  0  0  0
 65142  1  0  0  0
 68 76  1  0  0  0
 71 72  1  0  0  0
 71 73  2  0  0  0
 71143  1  0  0  0
 72 74  2  0  0  0
 72 80  1  0  0  0
 73 81  1  0  0  0
 73 83  1  0  0  0
 74 82  1  0  0  0
 74 83  1  0  0  0
 75 76  2  0  0  0
 75 77  1  0  0  0
 75 78  1  0  0  0
 76144  1  0  0  0
 77 79  1  0  0  0
 77145  1  0  0  0
 77146  1  0  0  0
 78 81  1  0  0  0
 78147  1  0  0  0
 78148  1  0  0  0
 79 81  1  0  0  0
 79149  1  0  0  0
 79150  1  0  0  0
 80151  1  0  0  0
 80152  1  0  0  0
 80153  1  0  0  0
 82154  1  0  0  0
M  ISO  4   1 100  68 101  76 101  82 100
M  END
> <chiral flag>
0

> <version>
0

> <s_m_source_file>
/data/baiqing/PycharmProjects/Reinvent-master-3.2/result/LINK_invent/BTK/process_docking_weight1_custom_product_contain_oxygen_bond_distance_aromatic_linkinvent_7_9_3/rearranged_h_0152.sdf

> <i_m_source_file_index>
78

> <r_mmod_Potential_Energy-OPLS-2005>
216.919921875

> <r_mmod_Stretch_Energy-OPLS-2005>
113.237152099609

> <r_mmod_Bend_Energy-OPLS-2005>
198.355606079102

> <r_mmod_Torsional_Energy-OPLS-2005>
265.537994384766

> <r_mmod_Improper_Torsional_Energy-OPLS-2005>
5.31034088134766

> <r_mmod_Van_der_Waal_Energy-OPLS-2005>
106.388442993164

> <r_mmod_Electrostatic_Energy-OPLS-2005>
-341.479888916016

> <r_mmod_Solvation_Energy-OPLS-2005>
-232.493667602539

> <b_mmod_Minimization_Converged-OPLS-2005>
0

> <r_mmod_RMS_Derivative-OPLS-2005>
2.87226223945618

$$$$
78
                    3D
 Structure written by MMmdl.
157166  0  0  1  0            999 V2000
  -30.6275  -14.7562   20.4296 C   0  0  0  0  0  0
  -30.4240  -12.4590   19.4754 C   0  0  0  0  0  0
  -29.5111  -12.5161   18.2340 C   0  0  0  0  0  0
  -28.0330  -12.3544   18.6389 C   0  0  0  0  0  0
  -27.6422  -13.2434   19.8504 C   0  0  2  0  0  0
  -28.6879  -13.1974   20.9848 C   0  0  0  0  0  0
  -25.2532  -13.8226   20.5685 C   0  0  0  0  0  0
  -24.1846  -13.0451   20.9224 C   0  0  0  0  0  0
  -24.6447  -11.6933   20.8769 C   0  0  0  0  0  0
  -23.9115  -10.4314   21.0415 C   0  0  0  0  0  0
  -24.3657   -9.4224   21.9191 C   0  0  0  0  0  0
  -23.6324   -8.2267   22.0764 C   0  0  0  0  0  0
  -22.4298   -8.0314   21.3562 C   0  0  0  0  0  0
  -21.9950   -9.0291   20.4660 C   0  0  0  0  0  0
  -22.7289  -10.2160   20.3065 C   0  0  0  0  0  0
  -21.6869   -6.0757   22.5291 C   0  0  0  0  0  0
  -21.4023   -6.5654   23.8221 C   0  0  0  0  0  0
  -21.3658   -5.6798   24.9180 C   0  0  0  0  0  0
  -21.6050   -4.3062   24.7226 C   0  0  0  0  0  0
  -21.8817   -3.8159   23.4343 C   0  0  0  0  0  0
  -21.9200   -4.6988   22.3399 C   0  0  0  0  0  0
  -22.7864  -13.5227   21.1868 C   0  0  0  0  0  0
  -22.1658   -4.2174   21.0979 F   0  0  0  0  0  0
  -21.5640   -3.4533   25.7731 F   0  0  0  0  0  0
  -29.9860  -13.5374   20.3941 N   0  0  0  0  0  0
  -26.2970  -12.9452   20.3295 N   0  0  0  0  0  0
  -25.9387  -11.6584   20.5771 N   0  0  0  0  0  0
  -22.0489  -12.8213   22.0417 N   0  0  0  0  0  0
  -25.4214  -15.1969   20.4063 N   0  0  0  0  0  0
  -31.8289  -14.7948   20.1480 O   0  0  0  0  0  0
  -21.6663   -6.8910   21.4253 O   0  0  0  0  0  0
  -22.3543  -14.5512   20.6693 O   0  0  0  0  0  0
  -24.6313  -31.8555   23.2011 C   0  0  0  0  0  0
  -25.9116  -32.4773   23.8379 C   0  0  1  0  0  0
  -27.1905  -27.2453   20.1300 C   0  0  0  0  0  0
  -25.5916  -33.8587   24.2290 N   0  0  0  0  0  0
  -23.4310  -30.4822   21.5409 C   0  0  2  0  0  0
  -24.8745  -28.9333   20.1049 C   0  0  0  0  0  0
  -22.7505  -29.4605   22.4850 C   0  0  0  0  0  0
  -18.0282  -28.1404   22.8473 C   0  0  0  0  0  0
  -24.1483  -36.7301   23.2644 C   0  0  0  0  0  0
  -25.9805  -30.7633   21.3862 C   0  0  0  0  0  0
  -26.0476  -29.3872   20.7224 C   0  0  0  0  0  0
  -27.2145  -28.5552   20.7214 C   0  0  0  0  0  0
  -26.0073  -26.8790   19.4530 C   0  0  0  0  0  0
  -24.8608  -27.6929   19.4536 C   0  0  0  0  0  0
  -23.6511  -29.8261   20.1533 C   0  0  0  0  0  0
  -25.4113  -36.3088   24.0328 C   0  0  1  0  0  0
  -20.5893  -28.3728   23.1229 C   0  0  2  0  0  0
  -20.6774  -26.9434   22.5380 C   0  0  0  0  0  0
  -19.5760  -26.6390   21.5179 C   0  0  0  0  0  0
  -18.1944  -26.7954   22.1595 C   0  0  0  0  0  0
  -19.1541  -28.8882   23.2866 C   0  0  0  0  0  0
  -18.9463  -30.1481   23.8899 C   0  0  0  0  0  0
  -17.6458  -30.6604   24.0566 C   0  0  0  0  0  0
  -25.9041  -34.9442   23.5105 C   0  0  0  0  0  0
  -16.5350  -29.9101   23.6324 C   0  0  0  0  0  0
  -16.7267  -28.6517   23.0352 C   0  0  0  0  0  0
  -26.4493  -31.6622   25.0770 C   0  0  0  0  0  0
  -25.3733  -31.3752   26.1500 C   0  0  0  0  0  0
  -27.0343  -30.3037   24.6280 C   0  0  0  0  0  0
  -27.6035  -32.4392   25.7538 C   0  0  0  0  0  0
  -27.5586  -37.1799   24.8460 C   0  0  0  0  0  0
  -21.4202  -29.3080   22.3610 N   0  0  0  0  0  0
  -26.4291  -37.3773   23.9405 N   0  0  0  0  0  0
  -24.7002  -31.0509   22.0994 N   0  0  0  0  0  0
  -23.4196  -28.8111   23.2928 O   0  0  0  0  0  0
  -28.2497  -26.3125   20.1837 O   0  0  0  0  0  0
  -26.5601  -34.8895   22.4666 O   0  0  0  0  0  0
  -23.5447  -32.1365   23.7288 O   0  0  0  0  0  0
  -29.4142  -18.5873   20.4909 C   0  0  0  0  0  0
  -31.3865  -17.6711   19.6159 C   0  0  0  0  0  0
  -30.2182  -17.3522   20.2563 C   0  0  0  0  0  0
  -29.9990  -19.7965   20.0345 C   0  0  0  0  0  0
  -30.8403  -22.2783   20.4225 C   0  0  0  0  0  0
  -30.2919  -23.7278   20.4471 C   0  0  0  0  0  0
  -29.7047  -21.3651   19.9069 C   0  0  2  0  0  0
  -28.8244  -23.6439   20.0117 C   0  0  2  0  0  0
  -27.2248  -21.6765   19.7137 C   0  0  0  0  0  0
  -27.9264  -24.8793   20.5522 C   0  0  0  0  0  0
  -29.8791  -15.9291   20.5819 N   0  0  0  0  0  0
  -28.4817  -22.1675   20.3193 N   0  3  1  0  0  0
  -31.5348  -19.3735   19.2975 S   0  0  0  0  0  0
  -31.4671  -12.5683   19.1716 H   0  0  0  0  0  0
  -30.3531  -11.4847   19.9610 H   0  0  0  0  0  0
  -29.7933  -11.7415   17.5205 H   0  0  0  0  0  0
  -29.6532  -13.4703   17.7229 H   0  0  0  0  0  0
  -27.8680  -11.3034   18.8770 H   0  0  0  0  0  0
  -27.3820  -12.5769   17.7917 H   0  0  0  0  0  0
  -27.6285  -14.2661   19.4733 H   0  0  0  0  0  0
  -28.7257  -12.2127   21.4538 H   0  0  0  0  0  0
  -28.4263  -13.9072   21.7720 H   0  0  0  0  0  0
  -25.2796   -9.5694   22.4773 H   0  0  0  0  0  0
  -24.0038   -7.4654   22.7465 H   0  0  0  0  0  0
  -21.0887   -8.8810   19.8957 H   0  0  0  0  0  0
  -22.3747  -10.9711   19.6183 H   0  0  0  0  0  0
  -21.2000   -7.6156   23.9729 H   0  0  0  0  0  0
  -21.1484   -6.0526   25.9085 H   0  0  0  0  0  0
  -22.0589   -2.7625   23.2828 H   0  0  0  0  0  0
  -22.4049  -11.9845   22.4796 H   0  0  0  0  0  0
  -21.1132  -13.1283   22.2613 H   0  0  0  0  0  0
  -24.6506  -15.8486   20.5039 H   0  0  0  0  0  0
  -26.2608  -15.6335   20.0471 H   0  0  0  0  0  0
  -26.7189  -32.5418   23.1127 H   0  0  0  0  0  0
  -25.0091  -33.9791   25.0451 H   0  0  0  0  0  0
  -22.7307  -31.3079   21.3965 H   0  0  0  0  0  0
  -23.3731  -35.9644   23.3294 H   0  0  0  0  0  0
  -24.3589  -36.8928   22.2064 H   0  0  0  0  0  0
  -23.7230  -37.6496   23.6675 H   0  0  0  0  0  0
  -26.1251  -31.5280   20.6217 H   0  0  0  0  0  0
  -26.8567  -30.8111   22.0214 H   0  0  0  0  0  0
  -28.1168  -28.8891   21.2152 H   0  0  0  0  0  0
  -25.9417  -25.9431   18.9173 H   0  0  0  0  0  0
  -23.9679  -27.3587   18.9416 H   0  0  0  0  0  0
  -23.7876  -30.6077   19.4042 H   0  0  0  0  0  0
  -22.7683  -29.2671   19.8354 H   0  0  0  0  0  0
  -25.1279  -36.1964   25.0821 H   0  0  0  0  0  0
  -21.0018  -28.3312   24.1336 H   0  0  0  0  0  0
  -20.5647  -26.2339   23.3594 H   0  0  0  0  0  0
  -21.6650  -26.7442   22.1195 H   0  0  0  0  0  0
  -19.6921  -25.6285   21.1256 H   0  0  0  0  0  0
  -19.6717  -27.3152   20.6678 H   0  0  0  0  0  0
  -17.4203  -26.6675   21.4008 H   0  0  0  0  0  0
  -18.0378  -26.0096   22.9001 H   0  0  0  0  0  0
  -19.7939  -30.7304   24.2266 H   0  0  0  0  0  0
  -17.5006  -31.6280   24.5181 H   0  0  0  0  0  0
  -15.5354  -30.3013   23.7663 H   0  0  0  0  0  0
  -15.8654  -28.0845   22.7076 H   0  0  0  0  0  0
  -24.5882  -30.7137   25.7816 H   0  0  0  0  0  0
  -24.8954  -32.2907   26.4998 H   0  0  0  0  0  0
  -25.8066  -30.8872   27.0240 H   0  0  0  0  0  0
  -26.2928  -29.6788   24.1284 H   0  0  0  0  0  0
  -27.3963  -29.7318   25.4833 H   0  0  0  0  0  0
  -27.8845  -30.4282   23.9568 H   0  0  0  0  0  0
  -27.2613  -33.3676   26.2136 H   0  0  0  0  0  0
  -28.3825  -32.7013   25.0361 H   0  0  0  0  0  0
  -28.0736  -31.8531   26.5441 H   0  0  0  0  0  0
  -28.2572  -38.0123   24.7497 H   0  0  0  0  0  0
  -28.1110  -36.2637   24.6286 H   0  0  0  0  0  0
  -27.2312  -37.1449   25.8868 H   0  0  0  0  0  0
  -20.9378  -29.8884   21.6895 H   0  0  0  0  0  0
  -26.0170  -38.2846   24.1406 H   0  0  0  0  0  0
  -28.4424  -18.5418   20.9616 H   0  0  0  0  0  0
  -32.1862  -17.0249   19.2753 H   0  0  0  0  0  0
  -31.1272  -21.9811   21.4317 H   0  0  0  0  0  0
  -31.7371  -22.2129   19.8059 H   0  0  0  0  0  0
  -30.8552  -24.3903   19.7891 H   0  0  0  0  0  0
  -30.3670  -24.1434   21.4529 H   0  0  0  0  0  0
  -29.6952  -21.5089   18.8249 H   0  0  0  0  0  0
  -28.8048  -23.7270   18.9224 H   0  0  0  0  0  0
  -27.1006  -20.6118   19.9150 H   0  0  0  0  0  0
  -27.2171  -21.8150   18.6333 H   0  0  0  0  0  0
  -26.3574  -22.1868   20.1320 H   0  0  0  0  0  0
  -27.9312  -24.8457   21.6419 H   0  0  0  0  0  0
  -26.8980  -24.6380   20.2919 H   0  0  0  0  0  0
  -28.9251  -15.7685   20.8658 H   0  0  0  0  0  0
  -28.3937  -22.0548   21.3189 H   0  0  0  0  0  0
  1 25  1  0  0  0
  1 30  2  0  0  0
  1 81  1  0  0  0
  2  3  1  0  0  0
  2 25  1  0  0  0
  2 84  1  0  0  0
  2 85  1  0  0  0
  3  4  1  0  0  0
  3 86  1  0  0  0
  3 87  1  0  0  0
  4  5  1  0  0  0
  4 88  1  0  0  0
  4 89  1  0  0  0
  5  6  1  0  0  0
  5 26  1  0  0  0
  5 90  1  0  0  0
  6 25  1  0  0  0
  6 91  1  0  0  0
  6 92  1  0  0  0
  7  8  2  0  0  0
  7 26  1  0  0  0
  7 29  1  0  0  0
  8  9  1  0  0  0
  8 22  1  0  0  0
  9 10  1  0  0  0
  9 27  2  0  0  0
 10 11  2  0  0  0
 10 15  1  0  0  0
 11 12  1  0  0  0
 11 93  1  0  0  0
 12 13  2  0  0  0
 12 94  1  0  0  0
 13 14  1  0  0  0
 13 31  1  0  0  0
 14 15  2  0  0  0
 14 95  1  0  0  0
 15 96  1  0  0  0
 16 17  2  0  0  0
 16 21  1  0  0  0
 16 31  1  0  0  0
 17 18  1  0  0  0
 17 97  1  0  0  0
 18 19  2  0  0  0
 18 98  1  0  0  0
 19 20  1  0  0  0
 19 24  1  0  0  0
 20 21  2  0  0  0
 20 99  1  0  0  0
 21 23  1  0  0  0
 22 28  1  0  0  0
 22 32  2  0  0  0
 26 27  1  0  0  0
 28100  1  0  0  0
 28101  1  0  0  0
 29102  1  0  0  0
 29103  1  0  0  0
 33 34  1  0  0  0
 33 66  1  0  0  0
 33 70  2  0  0  0
 34 36  1  0  0  0
 34 59  1  0  0  0
 34104  1  0  0  0
 35 44  2  0  0  0
 35 45  1  0  0  0
 35 68  1  0  0  0
 36 56  1  0  0  0
 36105  1  0  0  0
 37 39  1  0  0  0
 37 47  1  0  0  0
 37 66  1  0  0  0
 37106  1  0  0  0
 38 43  2  0  0  0
 38 46  1  0  0  0
 38 47  1  0  0  0
 39 64  1  0  0  0
 39 67  2  0  0  0
 40 52  1  0  0  0
 40 53  2  0  0  0
 40 58  1  0  0  0
 41107  1  0  0  0
 41108  1  0  0  0
 41109  1  0  0  0
 41 48  1  0  0  0
 42 43  1  0  0  0
 42 66  1  0  0  0
 42110  1  0  0  0
 42111  1  0  0  0
 43 44  1  0  0  0
 44112  1  0  0  0
 45 46  2  0  0  0
 45113  1  0  0  0
 46114  1  0  0  0
 47115  1  0  0  0
 47116  1  0  0  0
 48 56  1  0  0  0
 48 65  1  0  0  0
 48117  1  0  0  0
 49 50  1  0  0  0
 49 53  1  0  0  0
 49 64  1  0  0  0
 49118  1  0  0  0
 50 51  1  0  0  0
 50119  1  0  0  0
 50120  1  0  0  0
 51 52  1  0  0  0
 51121  1  0  0  0
 51122  1  0  0  0
 52123  1  0  0  0
 52124  1  0  0  0
 53 54  1  0  0  0
 54 55  2  0  0  0
 54125  1  0  0  0
 55 57  1  0  0  0
 55126  1  0  0  0
 56 69  2  0  0  0
 57 58  2  0  0  0
 57127  1  0  0  0
 58128  1  0  0  0
 59 60  1  0  0  0
 59 61  1  0  0  0
 59 62  1  0  0  0
 60129  1  0  0  0
 60130  1  0  0  0
 60131  1  0  0  0
 61132  1  0  0  0
 61133  1  0  0  0
 61134  1  0  0  0
 62135  1  0  0  0
 62136  1  0  0  0
 62137  1  0  0  0
 63 65  1  0  0  0
 63138  1  0  0  0
 63139  1  0  0  0
 63140  1  0  0  0
 64141  1  0  0  0
 65142  1  0  0  0
 68 80  1  0  0  0
 71 73  1  0  0  0
 71 74  2  0  0  0
 71143  1  0  0  0
 72 73  2  0  0  0
 72 83  1  0  0  0
 72144  1  0  0  0
 73 81  1  0  0  0
 74 83  1  0  0  0
 74 77  1  0  0  0
 75 76  1  0  0  0
 75 77  1  0  0  0
 75145  1  0  0  0
 75146  1  0  0  0
 76 78  1  0  0  0
 76147  1  0  0  0
 76148  1  0  0  0
 77 82  1  0  0  0
 77149  1  0  0  0
 78 80  1  0  0  0
 78 82  1  0  0  0
 78150  1  0  0  0
 79151  1  0  0  0
 79152  1  0  0  0
 79153  1  0  0  0
 79 82  1  0  0  0
 80154  1  0  0  0
 80155  1  0  0  0
 81156  1  0  0  0
 82157  1  0  0  0
M  CHG  1  82   1
M  ISO  4   1 100  68 101  80 101  81 100
M  END
> <chiral flag>
0

> <version>
0

> <s_m_source_file>
/data/baiqing/PycharmProjects/Reinvent-master-3.2/result/LINK_invent/BTK/process_docking_weight1_custom_product_contain_oxygen_bond_distance_aromatic_linkinvent_7_9_3/rearranged_h_0152.sdf

> <i_m_source_file_index>
79

> <r_mmod_Potential_Energy-OPLS-2005>
216.10107421875

> <r_mmod_Stretch_Energy-OPLS-2005>
130.580795288086

> <r_mmod_Bend_Energy-OPLS-2005>
245.558502197266

> <r_mmod_Torsional_Energy-OPLS-2005>
276.581024169922

> <r_mmod_Improper_Torsional_Energy-OPLS-2005>
4.72533750534058

> <r_mmod_Van_der_Waal_Energy-OPLS-2005>
122.393539428711

> <r_mmod_Electrostatic_Energy-OPLS-2005>
-230.660278320312

> <r_mmod_Solvation_Energy-OPLS-2005>
-430.481109619141

> <b_mmod_Minimization_Converged-OPLS-2005>
0

> <r_mmod_RMS_Derivative-OPLS-2005>
2.9762818813324

$$$$
79
                    3D
 Structure written by MMmdl.
155164  0  0  1  0            999 V2000
  -30.5593  -14.8297   20.4311 C   0  0  0  0  0  0
  -30.4383  -12.5013   19.4984 C   0  0  0  0  0  0
  -29.5204  -12.5263   18.2536 C   0  0  0  0  0  0
  -28.0473  -12.3350   18.6618 C   0  0  0  0  0  0
  -27.6410  -13.2371   19.8571 C   0  0  2  0  0  0
  -28.6819  -13.1914   20.9978 C   0  0  0  0  0  0
  -25.2491  -13.8210   20.5717 C   0  0  0  0  0  0
  -24.1782  -13.0446   20.9203 C   0  0  0  0  0  0
  -24.6383  -11.6927   20.8739 C   0  0  0  0  0  0
  -23.9066  -10.4298   21.0402 C   0  0  0  0  0  0
  -24.3618   -9.4213   21.9177 C   0  0  0  0  0  0
  -23.6289   -8.2249   22.0750 C   0  0  0  0  0  0
  -22.4265   -8.0286   21.3552 C   0  0  0  0  0  0
  -21.9903   -9.0259   20.4655 C   0  0  0  0  0  0
  -22.7237  -10.2133   20.3061 C   0  0  0  0  0  0
  -21.6851   -6.0735   22.5279 C   0  0  0  0  0  0
  -21.4017   -6.5639   23.8213 C   0  0  0  0  0  0
  -21.3664   -5.6792   24.9174 C   0  0  0  0  0  0
  -21.6046   -4.3055   24.7225 C   0  0  0  0  0  0
  -21.8821   -3.8146   23.4345 C   0  0  0  0  0  0
  -21.9192   -4.6967   22.3402 C   0  0  0  0  0  0
  -22.7803  -13.5223   21.1869 C   0  0  0  0  0  0
  -22.1658   -4.2155   21.0981 F   0  0  0  0  0  0
  -21.5629   -3.4537   25.7737 F   0  0  0  0  0  0
  -29.9812  -13.5704   20.4245 N   0  0  0  0  0  0
  -26.2927  -12.9425   20.3309 N   0  0  0  0  0  0
  -25.9316  -11.6561   20.5747 N   0  0  0  0  0  0
  -22.0449  -12.8211   22.0426 N   0  0  0  0  0  0
  -25.4187  -15.1942   20.4197 N   0  0  0  0  0  0
  -31.7218  -14.9503   20.0299 O   0  0  0  0  0  0
  -21.6640   -6.8871   21.4238 O   0  0  0  0  0  0
  -22.3486  -14.5530   20.6716 O   0  0  0  0  0  0
  -24.6342  -31.8484   23.1913 C   0  0  0  0  0  0
  -25.9148  -32.4718   23.8276 C   0  0  1  0  0  0
  -27.2301  -27.2170   20.1323 C   0  0  0  0  0  0
  -25.5924  -33.8521   24.2200 N   0  0  0  0  0  0
  -23.4339  -30.4664   21.5337 C   0  0  2  0  0  0
  -24.8854  -28.9006   20.1026 C   0  0  0  0  0  0
  -22.7518  -29.4560   22.4882 C   0  0  0  0  0  0
  -18.0294  -28.1396   22.8479 C   0  0  0  0  0  0
  -24.1489  -36.7271   23.2640 C   0  0  0  0  0  0
  -25.9801  -30.7468   21.3767 C   0  0  0  0  0  0
  -26.0534  -29.3638   20.7199 C   0  0  0  0  0  0
  -27.2204  -28.5306   20.7287 C   0  0  0  0  0  0
  -26.0418  -26.8274   19.4803 C   0  0  0  0  0  0
  -24.8873  -27.6435   19.4730 C   0  0  0  0  0  0
  -23.6555  -29.7912   20.1520 C   0  0  0  0  0  0
  -25.4118  -36.3046   24.0317 C   0  0  1  0  0  0
  -20.5899  -28.3704   23.1263 C   0  0  2  0  0  0
  -20.6777  -26.9416   22.5414 C   0  0  0  0  0  0
  -19.5757  -26.6384   21.5212 C   0  0  0  0  0  0
  -18.1937  -26.7937   22.1622 C   0  0  0  0  0  0
  -19.1548  -28.8869   23.2865 C   0  0  0  0  0  0
  -18.9472  -30.1465   23.8888 C   0  0  0  0  0  0
  -17.6471  -30.6593   24.0564 C   0  0  0  0  0  0
  -25.9059  -34.9420   23.5070 C   0  0  0  0  0  0
  -16.5362  -29.9091   23.6331 C   0  0  0  0  0  0
  -16.7282  -28.6511   23.0352 C   0  0  0  0  0  0
  -26.4506  -31.6574   25.0696 C   0  0  0  0  0  0
  -25.3714  -31.3752   26.1411 C   0  0  0  0  0  0
  -27.0363  -30.2983   24.6229 C   0  0  0  0  0  0
  -27.6047  -32.4331   25.7478 C   0  0  0  0  0  0
  -27.5576  -37.1791   24.8461 C   0  0  0  0  0  0
  -21.4220  -29.3036   22.3635 N   0  0  0  0  0  0
  -26.4287  -37.3751   23.9402 N   0  0  0  0  0  0
  -24.7019  -31.0405   22.0905 N   0  0  0  0  0  0
  -23.4194  -28.8118   23.3014 O   0  0  0  0  0  0
  -28.3221  -26.3171   20.2701 O   0  0  0  0  0  0
  -26.5648  -34.8911   22.4647 O   0  0  0  0  0  0
  -23.5485  -32.1325   23.7189 O   0  0  0  0  0  0
  -29.7612  -18.6629   20.5562 C   0  0  0  0  0  0
  -28.6282  -17.2426   19.0783 C   0  0  0  0  0  0
  -29.4784  -17.2488   20.1521 C   0  0  0  0  0  0
  -29.1731  -19.6836   19.7519 C   0  0  0  0  0  0
  -28.1481  -23.5424   20.0613 C   0  0  0  0  0  0
  -31.4349  -22.0419   20.4159 C   0  0  0  0  0  0
  -30.8496  -21.4960   19.1218 C   0  0  0  0  0  0
  -30.2911  -22.8306   21.0636 C   0  0  0  0  0  0
  -29.3773  -21.2614   19.4620 C   0  0  2  0  0  0
  -28.5468  -25.0238   19.5050 C   0  0  0  0  0  0
  -29.0615  -22.5030   20.3317 N   0  0  0  0  0  0
  -29.7993  -15.9404   20.8221 N   0  0  0  0  0  0
  -26.9426  -23.2776   20.0792 O   0  0  0  0  0  0
  -28.1844  -18.8578   18.5565 S   0  0  0  0  0  0
  -31.4801  -12.6337   19.2005 H   0  0  0  0  0  0
  -30.3940  -11.5290   19.9920 H   0  0  0  0  0  0
  -29.8157  -11.7506   17.5460 H   0  0  0  0  0  0
  -29.6359  -13.4771   17.7306 H   0  0  0  0  0  0
  -27.9147  -11.2855   18.9282 H   0  0  0  0  0  0
  -27.3912  -12.5181   17.8105 H   0  0  0  0  0  0
  -27.6264  -14.2551   19.4694 H   0  0  0  0  0  0
  -28.7314  -12.1966   21.4422 H   0  0  0  0  0  0
  -28.3956  -13.8680   21.8041 H   0  0  0  0  0  0
  -25.2769   -9.5687   22.4742 H   0  0  0  0  0  0
  -24.0015   -7.4635   22.7457 H   0  0  0  0  0  0
  -21.0835   -8.8777   19.8953 H   0  0  0  0  0  0
  -22.3699  -10.9669   19.6167 H   0  0  0  0  0  0
  -21.2011   -7.6149   23.9716 H   0  0  0  0  0  0
  -21.1483   -6.0522   25.9075 H   0  0  0  0  0  0
  -22.0594   -2.7610   23.2843 H   0  0  0  0  0  0
  -22.4073  -11.9885   22.4831 H   0  0  0  0  0  0
  -21.1065  -13.1233   22.2635 H   0  0  0  0  0  0
  -24.6525  -15.8466   20.5454 H   0  0  0  0  0  0
  -26.2780  -15.6465   20.1370 H   0  0  0  0  0  0
  -26.7215  -32.5354   23.1011 H   0  0  0  0  0  0
  -25.0036  -33.9636   25.0326 H   0  0  0  0  0  0
  -22.7323  -31.2893   21.3807 H   0  0  0  0  0  0
  -23.3751  -35.9604   23.3300 H   0  0  0  0  0  0
  -24.3569  -36.8905   22.2054 H   0  0  0  0  0  0
  -23.7254  -37.6472   23.6678 H   0  0  0  0  0  0
  -26.1219  -31.5051   20.6053 H   0  0  0  0  0  0
  -26.8557  -30.7991   22.0124 H   0  0  0  0  0  0
  -28.1089  -28.8740   21.2397 H   0  0  0  0  0  0
  -25.9732  -25.8536   19.0177 H   0  0  0  0  0  0
  -23.9900  -27.2816   18.9902 H   0  0  0  0  0  0
  -23.7784  -30.5623   19.3905 H   0  0  0  0  0  0
  -22.7743  -29.2222   19.8503 H   0  0  0  0  0  0
  -25.1307  -36.1877   25.0810 H   0  0  0  0  0  0
  -20.9987  -28.3297   24.1386 H   0  0  0  0  0  0
  -20.5663  -26.2317   23.3623 H   0  0  0  0  0  0
  -21.6647  -26.7424   22.1219 H   0  0  0  0  0  0
  -19.6912  -25.6290   21.1254 H   0  0  0  0  0  0
  -19.6703  -27.3185   20.6735 H   0  0  0  0  0  0
  -17.4202  -26.6682   21.4031 H   0  0  0  0  0  0
  -18.0339  -26.0085   22.9025 H   0  0  0  0  0  0
  -19.7948  -30.7284   24.2258 H   0  0  0  0  0  0
  -17.5026  -31.6273   24.5167 H   0  0  0  0  0  0
  -15.5362  -30.2994   23.7659 H   0  0  0  0  0  0
  -15.8682  -28.0826   22.7073 H   0  0  0  0  0  0
  -24.5886  -30.7105   25.7739 H   0  0  0  0  0  0
  -24.8913  -32.2936   26.4802 H   0  0  0  0  0  0
  -25.8015  -30.8948   27.0208 H   0  0  0  0  0  0
  -26.2960  -29.6718   24.1241 H   0  0  0  0  0  0
  -27.4009  -29.7267   25.4775 H   0  0  0  0  0  0
  -27.8849  -30.4242   23.9501 H   0  0  0  0  0  0
  -27.2642  -33.3643   26.2019 H   0  0  0  0  0  0
  -28.3877  -32.6874   25.0322 H   0  0  0  0  0  0
  -28.0693  -31.8481   26.5427 H   0  0  0  0  0  0
  -28.2590  -38.0089   24.7494 H   0  0  0  0  0  0
  -28.1074  -36.2618   24.6302 H   0  0  0  0  0  0
  -27.2290  -37.1456   25.8863 H   0  0  0  0  0  0
  -20.9417  -29.8743   21.6820 H   0  0  0  0  0  0
  -26.0161  -38.2821   24.1406 H   0  0  0  0  0  0
  -30.4301  -18.8762   21.3780 H   0  0  0  0  0  0
  -28.2027  -16.3976   18.5507 H   0  0  0  0  0  0
  -32.3201  -22.6540   20.2416 H   0  0  0  0  0  0
  -31.7296  -21.2174   21.0671 H   0  0  0  0  0  0
  -31.3672  -20.6094   18.7530 H   0  0  0  0  0  0
  -30.9271  -22.2606   18.3466 H   0  0  0  0  0  0
  -30.5178  -23.8977   21.0551 H   0  0  0  0  0  0
  -30.1732  -22.5461   22.1100 H   0  0  0  0  0  0
  -28.8251  -21.4513   18.5395 H   0  0  0  0  0  0
  -28.0839  -25.1295   18.5244 H   0  0  0  0  0  0
  -29.6123  -24.9952   19.2803 H   0  0  0  0  0  0
  -29.0260  -15.6235   21.3876 H   0  0  0  0  0  0
  1 25  1  0  0  0
  1 30  2  0  0  0
  1 82  1  0  0  0
  2  3  1  0  0  0
  2 25  1  0  0  0
  2 85  1  0  0  0
  2 86  1  0  0  0
  3  4  1  0  0  0
  3 87  1  0  0  0
  3 88  1  0  0  0
  4  5  1  0  0  0
  4 89  1  0  0  0
  4 90  1  0  0  0
  5  6  1  0  0  0
  5 26  1  0  0  0
  5 91  1  0  0  0
  6 25  1  0  0  0
  6 92  1  0  0  0
  6 93  1  0  0  0
  7  8  2  0  0  0
  7 26  1  0  0  0
  7 29  1  0  0  0
  8  9  1  0  0  0
  8 22  1  0  0  0
  9 10  1  0  0  0
  9 27  2  0  0  0
 10 11  2  0  0  0
 10 15  1  0  0  0
 11 12  1  0  0  0
 11 94  1  0  0  0
 12 13  2  0  0  0
 12 95  1  0  0  0
 13 14  1  0  0  0
 13 31  1  0  0  0
 14 15  2  0  0  0
 14 96  1  0  0  0
 15 97  1  0  0  0
 16 17  2  0  0  0
 16 21  1  0  0  0
 16 31  1  0  0  0
 17 18  1  0  0  0
 17 98  1  0  0  0
 18 19  2  0  0  0
 18 99  1  0  0  0
 19 20  1  0  0  0
 19 24  1  0  0  0
 20 21  2  0  0  0
 20100  1  0  0  0
 21 23  1  0  0  0
 22 28  1  0  0  0
 22 32  2  0  0  0
 26 27  1  0  0  0
 28101  1  0  0  0
 28102  1  0  0  0
 29103  1  0  0  0
 29104  1  0  0  0
 33 34  1  0  0  0
 33 66  1  0  0  0
 33 70  2  0  0  0
 34 36  1  0  0  0
 34 59  1  0  0  0
 34105  1  0  0  0
 35 44  2  0  0  0
 35 45  1  0  0  0
 35 68  1  0  0  0
 36 56  1  0  0  0
 36106  1  0  0  0
 37 39  1  0  0  0
 37 47  1  0  0  0
 37 66  1  0  0  0
 37107  1  0  0  0
 38 43  2  0  0  0
 38 46  1  0  0  0
 38 47  1  0  0  0
 39 64  1  0  0  0
 39 67  2  0  0  0
 40 52  1  0  0  0
 40 53  2  0  0  0
 40 58  1  0  0  0
 41108  1  0  0  0
 41109  1  0  0  0
 41110  1  0  0  0
 41 48  1  0  0  0
 42 43  1  0  0  0
 42 66  1  0  0  0
 42111  1  0  0  0
 42112  1  0  0  0
 43 44  1  0  0  0
 44113  1  0  0  0
 45 46  2  0  0  0
 45114  1  0  0  0
 46115  1  0  0  0
 47116  1  0  0  0
 47117  1  0  0  0
 48 56  1  0  0  0
 48 65  1  0  0  0
 48118  1  0  0  0
 49 50  1  0  0  0
 49 53  1  0  0  0
 49 64  1  0  0  0
 49119  1  0  0  0
 50 51  1  0  0  0
 50120  1  0  0  0
 50121  1  0  0  0
 51 52  1  0  0  0
 51122  1  0  0  0
 51123  1  0  0  0
 52124  1  0  0  0
 52125  1  0  0  0
 53 54  1  0  0  0
 54 55  2  0  0  0
 54126  1  0  0  0
 55 57  1  0  0  0
 55127  1  0  0  0
 56 69  2  0  0  0
 57 58  2  0  0  0
 57128  1  0  0  0
 58129  1  0  0  0
 59 60  1  0  0  0
 59 61  1  0  0  0
 59 62  1  0  0  0
 60130  1  0  0  0
 60131  1  0  0  0
 60132  1  0  0  0
 61133  1  0  0  0
 61134  1  0  0  0
 61135  1  0  0  0
 62136  1  0  0  0
 62137  1  0  0  0
 62138  1  0  0  0
 63 65  1  0  0  0
 63139  1  0  0  0
 63140  1  0  0  0
 63141  1  0  0  0
 64142  1  0  0  0
 65143  1  0  0  0
 68 80  1  0  0  0
 71 73  1  0  0  0
 71 74  2  0  0  0
 71144  1  0  0  0
 72 73  2  0  0  0
 72 84  1  0  0  0
 72145  1  0  0  0
 73 82  1  0  0  0
 74 84  1  0  0  0
 74 79  1  0  0  0
 75 80  1  0  0  0
 75 81  1  0  0  0
 75 83  2  0  0  0
 76 77  1  0  0  0
 76 78  1  0  0  0
 76146  1  0  0  0
 76147  1  0  0  0
 77 79  1  0  0  0
 77148  1  0  0  0
 77149  1  0  0  0
 78 81  1  0  0  0
 78150  1  0  0  0
 78151  1  0  0  0
 79 81  1  0  0  0
 79152  1  0  0  0
 80153  1  0  0  0
 80154  1  0  0  0
 82155  1  0  0  0
M  ISO  4   1 100  68 101  80 101  82 100
M  END
> <chiral flag>
0

> <version>
0

> <s_m_source_file>
/data/baiqing/PycharmProjects/Reinvent-master-3.2/result/LINK_invent/BTK/process_docking_weight1_custom_product_contain_oxygen_bond_distance_aromatic_linkinvent_7_9_3/rearranged_h_0152.sdf

> <i_m_source_file_index>
80

> <r_mmod_Potential_Energy-OPLS-2005>
518.665405273438

> <r_mmod_Stretch_Energy-OPLS-2005>
167.455947875977

> <r_mmod_Bend_Energy-OPLS-2005>
288.861511230469

> <r_mmod_Torsional_Energy-OPLS-2005>
381.006164550781

> <r_mmod_Improper_Torsional_Energy-OPLS-2005>
13.6867427825928

> <r_mmod_Van_der_Waal_Energy-OPLS-2005>
102.509567260742

> <r_mmod_Electrostatic_Energy-OPLS-2005>
-315.115051269531

> <r_mmod_Solvation_Energy-OPLS-2005>
-242.651977539062

> <b_mmod_Minimization_Converged-OPLS-2005>
0

> <r_mmod_RMS_Derivative-OPLS-2005>
1.10158443450928

$$$$
80
                    3D
 Structure written by MMmdl.
154163  0  0  1  0            999 V2000
  -30.6158  -14.8032   20.4220 C   0  0  0  0  0  0
  -30.4315  -12.4877   19.4894 C   0  0  0  0  0  0
  -29.5181  -12.5144   18.2452 C   0  0  0  0  0  0
  -28.0433  -12.3360   18.6536 C   0  0  0  0  0  0
  -27.6398  -13.2436   19.8464 C   0  0  2  0  0  0
  -28.6847  -13.2190   20.9837 C   0  0  0  0  0  0
  -25.2508  -13.8220   20.5701 C   0  0  0  0  0  0
  -24.1804  -13.0450   20.9203 C   0  0  0  0  0  0
  -24.6404  -11.6932   20.8734 C   0  0  0  0  0  0
  -23.9079  -10.4304   21.0399 C   0  0  0  0  0  0
  -24.3622   -9.4215   21.9178 C   0  0  0  0  0  0
  -23.6294   -8.2253   22.0754 C   0  0  0  0  0  0
  -22.4273   -8.0289   21.3545 C   0  0  0  0  0  0
  -21.9913   -9.0269   20.4651 C   0  0  0  0  0  0
  -22.7249  -10.2145   20.3056 C   0  0  0  0  0  0
  -21.6860   -6.0733   22.5274 C   0  0  0  0  0  0
  -21.4018   -6.5637   23.8206 C   0  0  0  0  0  0
  -21.3659   -5.6786   24.9163 C   0  0  0  0  0  0
  -21.6046   -4.3050   24.7214 C   0  0  0  0  0  0
  -21.8818   -3.8144   23.4338 C   0  0  0  0  0  0
  -21.9198   -4.6960   22.3396 C   0  0  0  0  0  0
  -22.7820  -13.5232   21.1847 C   0  0  0  0  0  0
  -22.1665   -4.2149   21.0974 F   0  0  0  0  0  0
  -21.5632   -3.4531   25.7728 F   0  0  0  0  0  0
  -29.9811  -13.5756   20.3950 N   0  0  0  0  0  0
  -26.2938  -12.9451   20.3263 N   0  0  0  0  0  0
  -25.9343  -11.6581   20.5732 N   0  0  0  0  0  0
  -22.0456  -12.8238   22.0400 N   0  0  0  0  0  0
  -25.4191  -15.1945   20.4115 N   0  0  0  0  0  0
  -31.8182  -14.8335   20.1476 O   0  0  0  0  0  0
  -21.6640   -6.8882   21.4242 O   0  0  0  0  0  0
  -22.3516  -14.5538   20.6686 O   0  0  0  0  0  0
  -24.6359  -31.8503   23.1937 C   0  0  0  0  0  0
  -25.9166  -32.4719   23.8310 C   0  0  1  0  0  0
  -27.2282  -27.2301   20.1214 C   0  0  0  0  0  0
  -25.5948  -33.8521   24.2240 N   0  0  0  0  0  0
  -23.4352  -30.4714   21.5352 C   0  0  2  0  0  0
  -24.8855  -28.9123   20.1049 C   0  0  0  0  0  0
  -22.7532  -29.4579   22.4864 C   0  0  0  0  0  0
  -18.0304  -28.1388   22.8475 C   0  0  0  0  0  0
  -24.1495  -36.7271   23.2639 C   0  0  0  0  0  0
  -25.9844  -30.7527   21.3791 C   0  0  0  0  0  0
  -26.0574  -29.3729   20.7181 C   0  0  0  0  0  0
  -27.2283  -28.5423   20.7167 C   0  0  0  0  0  0
  -26.0282  -26.8422   19.4841 C   0  0  0  0  0  0
  -24.8774  -27.6569   19.4775 C   0  0  0  0  0  0
  -23.6571  -29.8018   20.1522 C   0  0  0  0  0  0
  -25.4115  -36.3051   24.0327 C   0  0  1  0  0  0
  -20.5911  -28.3716   23.1247 C   0  0  2  0  0  0
  -20.6783  -26.9426   22.5400 C   0  0  0  0  0  0
  -19.5757  -26.6384   21.5199 C   0  0  0  0  0  0
  -18.1940  -26.7931   22.1613 C   0  0  0  0  0  0
  -19.1559  -28.8865   23.2859 C   0  0  0  0  0  0
  -18.9472  -30.1459   23.8892 C   0  0  0  0  0  0
  -17.6474  -30.6589   24.0552 C   0  0  0  0  0  0
  -25.9059  -34.9421   23.5090 C   0  0  0  0  0  0
  -16.5362  -29.9085   23.6327 C   0  0  0  0  0  0
  -16.7288  -28.6495   23.0353 C   0  0  0  0  0  0
  -26.4520  -31.6557   25.0716 C   0  0  0  0  0  0
  -25.3741  -31.3715   26.1437 C   0  0  0  0  0  0
  -27.0361  -30.2959   24.6234 C   0  0  0  0  0  0
  -27.6074  -32.4301   25.7493 C   0  0  0  0  0  0
  -27.5583  -37.1790   24.8464 C   0  0  0  0  0  0
  -21.4226  -29.3057   22.3630 N   0  0  0  0  0  0
  -26.4289  -37.3757   23.9411 N   0  0  0  0  0  0
  -24.7041  -31.0443   22.0919 N   0  0  0  0  0  0
  -23.4220  -28.8123   23.2976 O   0  0  0  0  0  0
  -28.3119  -26.3132   20.2204 O   0  0  0  0  0  0
  -26.5628  -34.8909   22.4655 O   0  0  0  0  0  0
  -23.5498  -32.1351   23.7198 O   0  0  0  0  0  0
  -31.5780  -18.9799   18.8877 C   0  0  0  0  0  0
  -30.8055  -20.0997   19.2480 C   0  0  0  0  0  0
  -31.2632  -17.6804   19.3313 C   0  0  0  0  0  0
  -29.3816  -18.6133   20.5431 C   0  0  0  0  0  0
  -29.6747  -19.9811   20.0832 C   0  0  0  0  0  0
  -30.1627  -17.4166   20.1817 C   0  0  0  0  0  0
  -28.6378  -23.7481   20.1814 C   0  0  0  0  0  0
  -28.2881  -24.9950   19.6493 C   0  0  0  0  0  0
  -29.0562  -23.4225   21.5964 C   0  0  0  0  0  0
  -28.6736  -22.3440   19.4716 C   0  0  0  0  0  0
  -29.4873  -21.9153   21.6221 C   0  0  0  0  0  0
  -28.9693  -21.2173   20.4366 N   0  0  0  0  0  0
  -29.8713  -15.9866   20.5791 N   0  0  0  0  0  0
  -31.4745  -12.6008   19.1885 H   0  0  0  0  0  0
  -30.3737  -11.5216   19.9922 H   0  0  0  0  0  0
  -29.8100  -11.7329   17.5420 H   0  0  0  0  0  0
  -29.6433  -13.4616   17.7183 H   0  0  0  0  0  0
  -27.9004  -11.2890   18.9207 H   0  0  0  0  0  0
  -27.3926  -12.5239   17.7991 H   0  0  0  0  0  0
  -27.6210  -14.2580   19.4482 H   0  0  0  0  0  0
  -28.7327  -12.2348   21.4511 H   0  0  0  0  0  0
  -28.4139  -13.9216   21.7738 H   0  0  0  0  0  0
  -25.2765   -9.5697   22.4753 H   0  0  0  0  0  0
  -24.0004   -7.4646   22.7478 H   0  0  0  0  0  0
  -21.0842   -8.8797   19.8963 H   0  0  0  0  0  0
  -22.3706  -10.9684   19.6165 H   0  0  0  0  0  0
  -21.2010   -7.6143   23.9709 H   0  0  0  0  0  0
  -21.1483   -6.0512   25.9067 H   0  0  0  0  0  0
  -22.0600   -2.7609   23.2829 H   0  0  0  0  0  0
  -22.4061  -11.9911   22.4816 H   0  0  0  0  0  0
  -21.1076  -13.1289   22.2585 H   0  0  0  0  0  0
  -24.6483  -15.8457   20.5151 H   0  0  0  0  0  0
  -26.2615  -15.6326   20.0614 H   0  0  0  0  0  0
  -26.7231  -32.5370   23.1047 H   0  0  0  0  0  0
  -25.0097  -33.9650   25.0388 H   0  0  0  0  0  0
  -22.7334  -31.2942   21.3832 H   0  0  0  0  0  0
  -23.3758  -35.9604   23.3284 H   0  0  0  0  0  0
  -24.3598  -36.8907   22.2060 H   0  0  0  0  0  0
  -23.7257  -37.6467   23.6672 H   0  0  0  0  0  0
  -26.1317  -31.5124   20.6102 H   0  0  0  0  0  0
  -26.8579  -30.7997   22.0177 H   0  0  0  0  0  0
  -28.1234  -28.8840   21.2171 H   0  0  0  0  0  0
  -25.9453  -25.8729   19.0158 H   0  0  0  0  0  0
  -23.9787  -27.2955   18.9979 H   0  0  0  0  0  0
  -23.7871  -30.5756   19.3948 H   0  0  0  0  0  0
  -22.7747  -29.2363   19.8469 H   0  0  0  0  0  0
  -25.1296  -36.1880   25.0821 H   0  0  0  0  0  0
  -21.0010  -28.3300   24.1362 H   0  0  0  0  0  0
  -20.5660  -26.2330   23.3611 H   0  0  0  0  0  0
  -21.6656  -26.7426   22.1212 H   0  0  0  0  0  0
  -19.6920  -25.6288   21.1242 H   0  0  0  0  0  0
  -19.6689  -27.3179   20.6713 H   0  0  0  0  0  0
  -17.4206  -26.6677   21.4016 H   0  0  0  0  0  0
  -18.0344  -26.0077   22.9015 H   0  0  0  0  0  0
  -19.7951  -30.7267   24.2276 H   0  0  0  0  0  0
  -17.5027  -31.6270   24.5151 H   0  0  0  0  0  0
  -15.5365  -30.2976   23.7649 H   0  0  0  0  0  0
  -15.8692  -28.0805   22.7077 H   0  0  0  0  0  0
  -24.5925  -30.7044   25.7780 H   0  0  0  0  0  0
  -24.8920  -32.2877   26.4850 H   0  0  0  0  0  0
  -25.8067  -30.8914   27.0224 H   0  0  0  0  0  0
  -26.2947  -29.6688   24.1263 H   0  0  0  0  0  0
  -27.4015  -29.7240   25.4773 H   0  0  0  0  0  0
  -27.8846  -30.4191   23.9502 H   0  0  0  0  0  0
  -27.2685  -33.3607   26.2053 H   0  0  0  0  0  0
  -28.3900  -32.6842   25.0334 H   0  0  0  0  0  0
  -28.0726  -31.8434   26.5423 H   0  0  0  0  0  0
  -28.2581  -38.0105   24.7515 H   0  0  0  0  0  0
  -28.1095  -36.2631   24.6269 H   0  0  0  0  0  0
  -27.2310  -37.1423   25.8871 H   0  0  0  0  0  0
  -20.9419  -29.8788   21.6838 H   0  0  0  0  0  0
  -26.0155  -38.2828   24.1395 H   0  0  0  0  0  0
  -32.4393  -19.1209   18.2500 H   0  0  0  0  0  0
  -31.1204  -21.0673   18.8840 H   0  0  0  0  0  0
  -31.9031  -16.8874   18.9777 H   0  0  0  0  0  0
  -28.5282  -18.4804   21.1923 H   0  0  0  0  0  0
  -28.0148  -25.0570   18.6046 H   0  0  0  0  0  0
  -28.1966  -23.5825   22.2482 H   0  0  0  0  0  0
  -29.8538  -24.0850   21.9333 H   0  0  0  0  0  0
  -29.4117  -22.3829   18.6703 H   0  0  0  0  0  0
  -27.7089  -22.1678   18.9936 H   0  0  0  0  0  0
  -29.1429  -21.4260   22.5336 H   0  0  0  0  0  0
  -30.5774  -21.8557   21.6243 H   0  0  0  0  0  0
  -28.9373  -15.8282   20.9253 H   0  0  0  0  0  0
  1 25  1  0  0  0
  1 30  2  0  0  0
  1 83  1  0  0  0
  2  3  1  0  0  0
  2 25  1  0  0  0
  2 84  1  0  0  0
  2 85  1  0  0  0
  3  4  1  0  0  0
  3 86  1  0  0  0
  3 87  1  0  0  0
  4  5  1  0  0  0
  4 88  1  0  0  0
  4 89  1  0  0  0
  5  6  1  0  0  0
  5 26  1  0  0  0
  5 90  1  0  0  0
  6 25  1  0  0  0
  6 91  1  0  0  0
  6 92  1  0  0  0
  7  8  2  0  0  0
  7 26  1  0  0  0
  7 29  1  0  0  0
  8  9  1  0  0  0
  8 22  1  0  0  0
  9 10  1  0  0  0
  9 27  2  0  0  0
 10 11  2  0  0  0
 10 15  1  0  0  0
 11 12  1  0  0  0
 11 93  1  0  0  0
 12 13  2  0  0  0
 12 94  1  0  0  0
 13 14  1  0  0  0
 13 31  1  0  0  0
 14 15  2  0  0  0
 14 95  1  0  0  0
 15 96  1  0  0  0
 16 17  2  0  0  0
 16 21  1  0  0  0
 16 31  1  0  0  0
 17 18  1  0  0  0
 17 97  1  0  0  0
 18 19  2  0  0  0
 18 98  1  0  0  0
 19 20  1  0  0  0
 19 24  1  0  0  0
 20 21  2  0  0  0
 20 99  1  0  0  0
 21 23  1  0  0  0
 22 28  1  0  0  0
 22 32  2  0  0  0
 26 27  1  0  0  0
 28100  1  0  0  0
 28101  1  0  0  0
 29102  1  0  0  0
 29103  1  0  0  0
 33 34  1  0  0  0
 33 66  1  0  0  0
 33 70  2  0  0  0
 34 36  1  0  0  0
 34 59  1  0  0  0
 34104  1  0  0  0
 35 44  2  0  0  0
 35 45  1  0  0  0
 35 68  1  0  0  0
 36 56  1  0  0  0
 36105  1  0  0  0
 37 39  1  0  0  0
 37 47  1  0  0  0
 37 66  1  0  0  0
 37106  1  0  0  0
 38 43  2  0  0  0
 38 46  1  0  0  0
 38 47  1  0  0  0
 39 64  1  0  0  0
 39 67  2  0  0  0
 40 52  1  0  0  0
 40 53  2  0  0  0
 40 58  1  0  0  0
 41107  1  0  0  0
 41108  1  0  0  0
 41109  1  0  0  0
 41 48  1  0  0  0
 42 43  1  0  0  0
 42 66  1  0  0  0
 42110  1  0  0  0
 42111  1  0  0  0
 43 44  1  0  0  0
 44112  1  0  0  0
 45 46  2  0  0  0
 45113  1  0  0  0
 46114  1  0  0  0
 47115  1  0  0  0
 47116  1  0  0  0
 48 56  1  0  0  0
 48 65  1  0  0  0
 48117  1  0  0  0
 49 50  1  0  0  0
 49 53  1  0  0  0
 49 64  1  0  0  0
 49118  1  0  0  0
 50 51  1  0  0  0
 50119  1  0  0  0
 50120  1  0  0  0
 51 52  1  0  0  0
 51121  1  0  0  0
 51122  1  0  0  0
 52123  1  0  0  0
 52124  1  0  0  0
 53 54  1  0  0  0
 54 55  2  0  0  0
 54125  1  0  0  0
 55 57  1  0  0  0
 55126  1  0  0  0
 56 69  2  0  0  0
 57 58  2  0  0  0
 57127  1  0  0  0
 58128  1  0  0  0
 59 60  1  0  0  0
 59 61  1  0  0  0
 59 62  1  0  0  0
 60129  1  0  0  0
 60130  1  0  0  0
 60131  1  0  0  0
 61132  1  0  0  0
 61133  1  0  0  0
 61134  1  0  0  0
 62135  1  0  0  0
 62136  1  0  0  0
 62137  1  0  0  0
 63 65  1  0  0  0
 63138  1  0  0  0
 63139  1  0  0  0
 63140  1  0  0  0
 64141  1  0  0  0
 65142  1  0  0  0
 68 78  1  0  0  0
 71 72  2  0  0  0
 71 73  1  0  0  0
 71143  1  0  0  0
 72 75  1  0  0  0
 72144  1  0  0  0
 73 76  2  0  0  0
 73145  1  0  0  0
 74 75  2  0  0  0
 74 76  1  0  0  0
 74146  1  0  0  0
 75 82  1  0  0  0
 76 83  1  0  0  0
 77 78  2  0  0  0
 77 79  1  0  0  0
 77 80  1  0  0  0
 78147  1  0  0  0
 79 81  1  0  0  0
 79148  1  0  0  0
 79149  1  0  0  0
 80 82  1  0  0  0
 80150  1  0  0  0
 80151  1  0  0  0
 81 82  1  0  0  0
 81152  1  0  0  0
 81153  1  0  0  0
 83154  1  0  0  0
M  ISO  4   1 100  68 101  78 101  83 100
M  END
> <chiral flag>
0

> <version>
0

> <s_m_source_file>
/data/baiqing/PycharmProjects/Reinvent-master-3.2/result/LINK_invent/BTK/process_docking_weight1_custom_product_contain_oxygen_bond_distance_aromatic_linkinvent_7_9_3/rearranged_h_0152.sdf

> <i_m_source_file_index>
81

> <r_mmod_Potential_Energy-OPLS-2005>
294.299713134766

> <r_mmod_Stretch_Energy-OPLS-2005>
142.829742431641

> <r_mmod_Bend_Energy-OPLS-2005>
197.183975219727

> <r_mmod_Torsional_Energy-OPLS-2005>
262.169097900391

> <r_mmod_Improper_Torsional_Energy-OPLS-2005>
9.37403297424316

> <r_mmod_Van_der_Waal_Energy-OPLS-2005>
139.660339355469

> <r_mmod_Electrostatic_Energy-OPLS-2005>
-343.243530273438

> <r_mmod_Solvation_Energy-OPLS-2005>
-225.120712280273

> <b_mmod_Minimization_Converged-OPLS-2005>
0

> <r_mmod_RMS_Derivative-OPLS-2005>
1.86178398132324

$$$$
81
                    3D
 Structure written by MMmdl.
158167  0  0  1  0            999 V2000
  -30.6129  -14.7779   20.4618 C   0  0  0  0  0  0
  -30.4295  -12.4787   19.4796 C   0  0  0  0  0  0
  -29.5105  -12.5129   18.2390 C   0  0  0  0  0  0
  -28.0374  -12.3304   18.6526 C   0  0  0  0  0  0
  -27.6379  -13.2363   19.8480 C   0  0  2  0  0  0
  -28.6821  -13.1923   20.9851 C   0  0  0  0  0  0
  -25.2491  -13.8204   20.5696 C   0  0  0  0  0  0
  -24.1795  -13.0445   20.9223 C   0  0  0  0  0  0
  -24.6395  -11.6923   20.8757 C   0  0  0  0  0  0
  -23.9076  -10.4297   21.0413 C   0  0  0  0  0  0
  -24.3624   -9.4212   21.9190 C   0  0  0  0  0  0
  -23.6298   -8.2247   22.0756 C   0  0  0  0  0  0
  -22.4281   -8.0285   21.3547 C   0  0  0  0  0  0
  -21.9920   -9.0262   20.4648 C   0  0  0  0  0  0
  -22.7250  -10.2140   20.3058 C   0  0  0  0  0  0
  -21.6852   -6.0739   22.5282 C   0  0  0  0  0  0
  -21.4016   -6.5642   23.8218 C   0  0  0  0  0  0
  -21.3660   -5.6794   24.9177 C   0  0  0  0  0  0
  -21.6041   -4.3056   24.7226 C   0  0  0  0  0  0
  -21.8820   -3.8152   23.4348 C   0  0  0  0  0  0
  -21.9195   -4.6969   22.3403 C   0  0  0  0  0  0
  -22.7815  -13.5226   21.1883 C   0  0  0  0  0  0
  -22.1661   -4.2155   21.0980 F   0  0  0  0  0  0
  -21.5628   -3.4540   25.7738 F   0  0  0  0  0  0
  -29.9786  -13.5527   20.3985 N   0  0  0  0  0  0
  -26.2916  -12.9419   20.3268 N   0  0  0  0  0  0
  -25.9325  -11.6557   20.5751 N   0  0  0  0  0  0
  -22.0456  -12.8207   22.0425 N   0  0  0  0  0  0
  -25.4166  -15.1931   20.4089 N   0  0  0  0  0  0
  -31.8042  -14.8371   20.1464 O   0  0  0  0  0  0
  -21.6643   -6.8886   21.4244 O   0  0  0  0  0  0
  -22.3501  -14.5532   20.6724 O   0  0  0  0  0  0
  -24.6341  -31.8514   23.1942 C   0  0  0  0  0  0
  -25.9152  -32.4729   23.8302 C   0  0  1  0  0  0
  -27.2233  -27.2333   20.1346 C   0  0  0  0  0  0
  -25.5942  -33.8532   24.2223 N   0  0  0  0  0  0
  -23.4316  -30.4730   21.5375 C   0  0  2  0  0  0
  -24.8776  -28.9103   20.1077 C   0  0  0  0  0  0
  -22.7515  -29.4585   22.4890 C   0  0  0  0  0  0
  -18.0297  -28.1400   22.8486 C   0  0  0  0  0  0
  -24.1485  -36.7265   23.2644 C   0  0  0  0  0  0
  -25.9776  -30.7557   21.3759 C   0  0  0  0  0  0
  -26.0476  -29.3748   20.7192 C   0  0  0  0  0  0
  -27.2182  -28.5486   20.7206 C   0  0  0  0  0  0
  -26.0261  -26.8360   19.4983 C   0  0  0  0  0  0
  -24.8735  -27.6506   19.4869 C   0  0  0  0  0  0
  -23.6505  -29.8026   20.1543 C   0  0  0  0  0  0
  -25.4115  -36.3048   24.0323 C   0  0  1  0  0  0
  -20.5901  -28.3707   23.1259 C   0  0  2  0  0  0
  -20.6780  -26.9422   22.5403 C   0  0  0  0  0  0
  -19.5748  -26.6390   21.5215 C   0  0  0  0  0  0
  -18.1932  -26.7943   22.1630 C   0  0  0  0  0  0
  -19.1551  -28.8873   23.2867 C   0  0  0  0  0  0
  -18.9471  -30.1474   23.8883 C   0  0  0  0  0  0
  -17.6468  -30.6595   24.0570 C   0  0  0  0  0  0
  -25.9061  -34.9422   23.5073 C   0  0  0  0  0  0
  -16.5358  -29.9088   23.6345 C   0  0  0  0  0  0
  -16.7284  -28.6512   23.0358 C   0  0  0  0  0  0
  -26.4513  -31.6572   25.0711 C   0  0  0  0  0  0
  -25.3727  -31.3737   26.1429 C   0  0  0  0  0  0
  -27.0371  -30.2988   24.6215 C   0  0  0  0  0  0
  -27.6055  -32.4328   25.7492 C   0  0  0  0  0  0
  -27.5571  -37.1792   24.8470 C   0  0  0  0  0  0
  -21.4218  -29.3045   22.3642 N   0  0  0  0  0  0
  -26.4283  -37.3756   23.9408 N   0  0  0  0  0  0
  -24.7004  -31.0464   22.0920 N   0  0  0  0  0  0
  -23.4200  -28.8142   23.3013 O   0  0  0  0  0  0
  -28.3370  -26.3585   20.2271 O   0  0  0  0  0  0
  -26.5635  -34.8911   22.4643 O   0  0  0  0  0  0
  -23.5486  -32.1350   23.7221 O   0  0  0  0  0  0
  -31.0627  -20.1718   20.8928 C   0  0  0  0  0  0
  -29.2952  -18.5238   20.6064 C   0  0  0  0  0  0
  -31.5871  -17.7650   20.8521 C   0  0  0  0  0  0
  -29.6858  -19.9365   20.7032 C   0  0  0  0  0  0
  -31.9937  -19.1152   20.9564 C   0  0  0  0  0  0
  -30.2295  -17.3946   20.6812 C   0  0  0  0  0  0
  -28.0272  -23.6926   20.5783 C   0  0  0  0  0  0
  -28.7357  -21.1559   20.8152 C   0  0  0  0  0  0
  -29.8310  -24.5250   19.3195 C   0  0  0  0  0  0
  -29.9113  -22.9692   19.3835 C   0  0  0  0  0  0
  -28.3974  -24.9455   19.6744 C   0  0  2  0  0  0
  -28.8782  -22.4812   20.3270 N   0  0  0  0  0  0
  -33.3423  -19.4174   21.1587 N   0  0  0  0  0  0
  -29.8518  -15.9376   20.6520 N   0  0  0  0  0  0
  -27.6459  -20.8974   21.5396 N   0  3  0  0  0  0
  -27.0872  -23.6856   21.3811 O   0  0  0  0  0  0
  -31.4707  -12.5992   19.1758 H   0  0  0  0  0  0
  -30.3755  -11.5073   19.9735 H   0  0  0  0  0  0
  -29.8011  -11.7362   17.5303 H   0  0  0  0  0  0
  -29.6305  -13.4637   17.7173 H   0  0  0  0  0  0
  -27.8992  -11.2823   18.9205 H   0  0  0  0  0  0
  -27.3804  -12.5135   17.8016 H   0  0  0  0  0  0
  -27.6260  -14.2539   19.4576 H   0  0  0  0  0  0
  -28.7267  -12.1997   21.4358 H   0  0  0  0  0  0
  -28.4101  -13.8805   21.7870 H   0  0  0  0  0  0
  -25.2772   -9.5684   22.4762 H   0  0  0  0  0  0
  -24.0011   -7.4636   22.7469 H   0  0  0  0  0  0
  -21.0857   -8.8784   19.8945 H   0  0  0  0  0  0
  -22.3720  -10.9677   19.6158 H   0  0  0  0  0  0
  -21.2006   -7.6150   23.9721 H   0  0  0  0  0  0
  -21.1477   -6.0522   25.9080 H   0  0  0  0  0  0
  -22.0596   -2.7615   23.2845 H   0  0  0  0  0  0
  -22.4068  -11.9860   22.4799 H   0  0  0  0  0  0
  -21.1065  -13.1216   22.2623 H   0  0  0  0  0  0
  -24.6419  -15.8401   20.5090 H   0  0  0  0  0  0
  -26.2504  -15.6312   20.0405 H   0  0  0  0  0  0
  -26.7220  -32.5358   23.1039 H   0  0  0  0  0  0
  -25.0113  -33.9662   25.0388 H   0  0  0  0  0  0
  -22.7287  -31.2956   21.3895 H   0  0  0  0  0  0
  -23.3746  -35.9604   23.3311 H   0  0  0  0  0  0
  -24.3575  -36.8883   22.2060 H   0  0  0  0  0  0
  -23.7237  -37.6465   23.6665 H   0  0  0  0  0  0
  -26.1199  -31.5141   20.6047 H   0  0  0  0  0  0
  -26.8540  -30.8039   22.0109 H   0  0  0  0  0  0
  -28.1131  -28.8992   21.2151 H   0  0  0  0  0  0
  -25.9398  -25.8666   19.0327 H   0  0  0  0  0  0
  -23.9746  -27.2870   19.0078 H   0  0  0  0  0  0
  -23.7789  -30.5773   19.3973 H   0  0  0  0  0  0
  -22.7676  -29.2386   19.8494 H   0  0  0  0  0  0
  -25.1302  -36.1895   25.0819 H   0  0  0  0  0  0
  -20.9994  -28.3283   24.1379 H   0  0  0  0  0  0
  -20.5676  -26.2323   23.3610 H   0  0  0  0  0  0
  -21.6652  -26.7438   22.1204 H   0  0  0  0  0  0
  -19.6901  -25.6296   21.1252 H   0  0  0  0  0  0
  -19.6692  -27.3201   20.6746 H   0  0  0  0  0  0
  -17.4211  -26.6708   21.4021 H   0  0  0  0  0  0
  -18.0320  -26.0080   22.9020 H   0  0  0  0  0  0
  -19.7943  -30.7303   24.2230 H   0  0  0  0  0  0
  -17.5025  -31.6273   24.5179 H   0  0  0  0  0  0
  -15.5357  -30.2988   23.7675 H   0  0  0  0  0  0
  -15.8688  -28.0831   22.7067 H   0  0  0  0  0  0
  -24.5906  -30.7080   25.7764 H   0  0  0  0  0  0
  -24.8928  -32.2919   26.4826 H   0  0  0  0  0  0
  -25.8053  -30.8938   27.0215 H   0  0  0  0  0  0
  -26.2970  -29.6715   24.1239 H   0  0  0  0  0  0
  -27.4045  -29.7275   25.4745 H   0  0  0  0  0  0
  -27.8842  -30.4262   23.9474 H   0  0  0  0  0  0
  -27.2657  -33.3646   26.2025 H   0  0  0  0  0  0
  -28.3892  -32.6854   25.0338 H   0  0  0  0  0  0
  -28.0690  -31.8481   26.5448 H   0  0  0  0  0  0
  -28.2593  -38.0085   24.7503 H   0  0  0  0  0  0
  -28.1056  -36.2608   24.6310 H   0  0  0  0  0  0
  -27.2291  -37.1468   25.8878 H   0  0  0  0  0  0
  -20.9411  -29.8758   21.6836 H   0  0  0  0  0  0
  -26.0147  -38.2826   24.1407 H   0  0  0  0  0  0
  -31.4140  -21.1778   21.0617 H   0  0  0  0  0  0
  -28.2429  -18.3018   20.5014 H   0  0  0  0  0  0
  -32.3524  -17.0111   20.9450 H   0  0  0  0  0  0
  -30.1073  -24.8926   18.3311 H   0  0  0  0  0  0
  -30.5382  -24.9581   20.0269 H   0  0  0  0  0  0
  -30.9205  -22.6717   19.6591 H   0  0  0  0  0  0
  -29.7140  -22.5404   18.3997 H   0  0  0  0  0  0
  -27.8054  -24.8734   18.7633 H   0  0  0  0  0  0
  -33.5917  -20.3292   21.5282 H   0  0  0  0  0  0
  -33.9609  -18.6812   21.4849 H   0  0  0  0  0  0
  -28.8692  -15.7512   20.7753 H   0  0  0  0  0  0
  -27.5349  -20.0026   21.9883 H   0  0  0  0  0  0
  -27.0003  -21.6484   21.7478 H   0  0  0  0  0  0
  1 25  1  0  0  0
  1 30  2  0  0  0
  1 84  1  0  0  0
  2  3  1  0  0  0
  2 25  1  0  0  0
  2 87  1  0  0  0
  2 88  1  0  0  0
  3  4  1  0  0  0
  3 89  1  0  0  0
  3 90  1  0  0  0
  4  5  1  0  0  0
  4 91  1  0  0  0
  4 92  1  0  0  0
  5  6  1  0  0  0
  5 26  1  0  0  0
  5 93  1  0  0  0
  6 25  1  0  0  0
  6 94  1  0  0  0
  6 95  1  0  0  0
  7  8  2  0  0  0
  7 26  1  0  0  0
  7 29  1  0  0  0
  8  9  1  0  0  0
  8 22  1  0  0  0
  9 10  1  0  0  0
  9 27  2  0  0  0
 10 11  2  0  0  0
 10 15  1  0  0  0
 11 12  1  0  0  0
 11 96  1  0  0  0
 12 13  2  0  0  0
 12 97  1  0  0  0
 13 14  1  0  0  0
 13 31  1  0  0  0
 14 15  2  0  0  0
 14 98  1  0  0  0
 15 99  1  0  0  0
 16 17  2  0  0  0
 16 21  1  0  0  0
 16 31  1  0  0  0
 17 18  1  0  0  0
 17100  1  0  0  0
 18 19  2  0  0  0
 18101  1  0  0  0
 19 20  1  0  0  0
 19 24  1  0  0  0
 20 21  2  0  0  0
 20102  1  0  0  0
 21 23  1  0  0  0
 22 28  1  0  0  0
 22 32  2  0  0  0
 26 27  1  0  0  0
 28103  1  0  0  0
 28104  1  0  0  0
 29105  1  0  0  0
 29106  1  0  0  0
 33 34  1  0  0  0
 33 66  1  0  0  0
 33 70  2  0  0  0
 34 36  1  0  0  0
 34 59  1  0  0  0
 34107  1  0  0  0
 35 44  2  0  0  0
 35 45  1  0  0  0
 35 68  1  0  0  0
 36 56  1  0  0  0
 36108  1  0  0  0
 37 39  1  0  0  0
 37 47  1  0  0  0
 37 66  1  0  0  0
 37109  1  0  0  0
 38 43  2  0  0  0
 38 46  1  0  0  0
 38 47  1  0  0  0
 39 64  1  0  0  0
 39 67  2  0  0  0
 40 52  1  0  0  0
 40 53  2  0  0  0
 40 58  1  0  0  0
 41110  1  0  0  0
 41111  1  0  0  0
 41112  1  0  0  0
 41 48  1  0  0  0
 42 43  1  0  0  0
 42 66  1  0  0  0
 42113  1  0  0  0
 42114  1  0  0  0
 43 44  1  0  0  0
 44115  1  0  0  0
 45 46  2  0  0  0
 45116  1  0  0  0
 46117  1  0  0  0
 47118  1  0  0  0
 47119  1  0  0  0
 48 56  1  0  0  0
 48 65  1  0  0  0
 48120  1  0  0  0
 49 50  1  0  0  0
 49 53  1  0  0  0
 49 64  1  0  0  0
 49121  1  0  0  0
 50 51  1  0  0  0
 50122  1  0  0  0
 50123  1  0  0  0
 51 52  1  0  0  0
 51124  1  0  0  0
 51125  1  0  0  0
 52126  1  0  0  0
 52127  1  0  0  0
 53 54  1  0  0  0
 54 55  2  0  0  0
 54128  1  0  0  0
 55 57  1  0  0  0
 55129  1  0  0  0
 56 69  2  0  0  0
 57 58  2  0  0  0
 57130  1  0  0  0
 58131  1  0  0  0
 59 60  1  0  0  0
 59 61  1  0  0  0
 59 62  1  0  0  0
 60132  1  0  0  0
 60133  1  0  0  0
 60134  1  0  0  0
 61135  1  0  0  0
 61136  1  0  0  0
 61137  1  0  0  0
 62138  1  0  0  0
 62139  1  0  0  0
 62140  1  0  0  0
 63 65  1  0  0  0
 63141  1  0  0  0
 63142  1  0  0  0
 63143  1  0  0  0
 64144  1  0  0  0
 65145  1  0  0  0
 68 81  1  0  0  0
 71 74  2  0  0  0
 71 75  1  0  0  0
 71146  1  0  0  0
 72 74  1  0  0  0
 72 76  2  0  0  0
 72147  1  0  0  0
 73 75  2  0  0  0
 73 76  1  0  0  0
 73148  1  0  0  0
 74 78  1  0  0  0
 75 83  1  0  0  0
 76 84  1  0  0  0
 77 81  1  0  0  0
 77 82  1  0  0  0
 77 86  2  0  0  0
 78 82  1  0  0  0
 78 85  2  0  0  0
 79 80  1  0  0  0
 79 81  1  0  0  0
 79149  1  0  0  0
 79150  1  0  0  0
 80 82  1  0  0  0
 80151  1  0  0  0
 80152  1  0  0  0
 81153  1  0  0  0
 83154  1  0  0  0
 83155  1  0  0  0
 84156  1  0  0  0
 85157  1  0  0  0
 85158  1  0  0  0
M  CHG  1  85   1
M  ISO  4   1 100  68 101  81 101  84 100
M  END
> <chiral flag>
0

> <version>
0

> <s_m_source_file>
/data/baiqing/PycharmProjects/Reinvent-master-3.2/result/LINK_invent/BTK/process_docking_weight1_custom_product_contain_oxygen_bond_distance_aromatic_linkinvent_7_9_3/rearranged_h_0152.sdf

> <i_m_source_file_index>
82

> <r_mmod_Potential_Energy-OPLS-2005>
23.014612197876

> <r_mmod_Stretch_Energy-OPLS-2005>
148.328063964844

> <r_mmod_Bend_Energy-OPLS-2005>
224.569122314453

> <r_mmod_Torsional_Energy-OPLS-2005>
241.334136962891

> <r_mmod_Improper_Torsional_Energy-OPLS-2005>
9.90060329437256

> <r_mmod_Van_der_Waal_Energy-OPLS-2005>
143.272567749023

> <r_mmod_Electrostatic_Energy-OPLS-2005>
-408.697845458984

> <r_mmod_Solvation_Energy-OPLS-2005>
-434.822601318359

> <b_mmod_Minimization_Converged-OPLS-2005>
0

> <r_mmod_RMS_Derivative-OPLS-2005>
1.26335680484772

$$$$
82
                    3D
 Structure written by MMmdl.
156165  0  0  1  0            999 V2000
  -30.6704  -14.6390   20.5765 C   0  0  0  0  0  0
  -30.4327  -12.4121   19.4553 C   0  0  0  0  0  0
  -29.5046  -12.5096   18.2259 C   0  0  0  0  0  0
  -28.0336  -12.3142   18.6393 C   0  0  0  0  0  0
  -27.6463  -13.1986   19.8492 C   0  0  2  0  0  0
  -28.6896  -13.1027   20.9855 C   0  0  0  0  0  0
  -25.2550  -13.8107   20.5649 C   0  0  0  0  0  0
  -24.1818  -13.0402   20.9200 C   0  0  0  0  0  0
  -24.6371  -11.6870   20.8752 C   0  0  0  0  0  0
  -23.9038  -10.4271   21.0421 C   0  0  0  0  0  0
  -24.3599   -9.4190   21.9194 C   0  0  0  0  0  0
  -23.6278   -8.2226   22.0757 C   0  0  0  0  0  0
  -22.4262   -8.0268   21.3544 C   0  0  0  0  0  0
  -21.9893   -9.0241   20.4648 C   0  0  0  0  0  0
  -22.7217  -10.2120   20.3063 C   0  0  0  0  0  0
  -21.6846   -6.0728   22.5279 C   0  0  0  0  0  0
  -21.4009   -6.5634   23.8211 C   0  0  0  0  0  0
  -21.3658   -5.6789   24.9175 C   0  0  0  0  0  0
  -21.6044   -4.3052   24.7226 C   0  0  0  0  0  0
  -21.8820   -3.8142   23.4348 C   0  0  0  0  0  0
  -21.9191   -4.6957   22.3403 C   0  0  0  0  0  0
  -22.7848  -13.5220   21.1864 C   0  0  0  0  0  0
  -22.1661   -4.2143   21.0981 F   0  0  0  0  0  0
  -21.5630   -3.4537   25.7740 F   0  0  0  0  0  0
  -30.0108  -13.4398   20.4329 N   0  0  0  0  0  0
  -26.2948  -12.9251   20.3247 N   0  0  0  0  0  0
  -25.9287  -11.6432   20.5745 N   0  0  0  0  0  0
  -22.0482  -12.8223   22.0422 N   0  0  0  0  0  0
  -25.4229  -15.1822   20.4011 N   0  0  0  0  0  0
  -31.7833  -14.7869   20.0619 O   0  0  0  0  0  0
  -21.6628   -6.8866   21.4239 O   0  0  0  0  0  0
  -22.3545  -14.5530   20.6709 O   0  0  0  0  0  0
  -24.6253  -31.8606   23.2033 C   0  0  0  0  0  0
  -25.9104  -32.4783   23.8359 C   0  0  1  0  0  0
  -27.2275  -27.3288   20.1136 C   0  0  0  0  0  0
  -25.5923  -33.8584   24.2286 N   0  0  0  0  0  0
  -23.4185  -30.4848   21.5458 C   0  0  2  0  0  0
  -24.8652  -28.9422   20.1111 C   0  0  0  0  0  0
  -22.7470  -29.4629   22.4939 C   0  0  0  0  0  0
  -18.0285  -28.1384   22.8487 C   0  0  0  0  0  0
  -24.1489  -36.7297   23.2639 C   0  0  0  0  0  0
  -25.9590  -30.7948   21.3726 C   0  0  0  0  0  0
  -26.0340  -29.4232   20.7143 C   0  0  0  0  0  0
  -27.2178  -28.6285   20.7054 C   0  0  0  0  0  0
  -26.0335  -26.8998   19.4864 C   0  0  0  0  0  0
  -24.8665  -27.6854   19.4888 C   0  0  0  0  0  0
  -23.6325  -29.8206   20.1608 C   0  0  0  0  0  0
  -25.4113  -36.3087   24.0329 C   0  0  1  0  0  0
  -20.5885  -28.3687   23.1284 C   0  0  2  0  0  0
  -20.6774  -26.9411   22.5409 C   0  0  0  0  0  0
  -19.5750  -26.6385   21.5211 C   0  0  0  0  0  0
  -18.1930  -26.7927   22.1624 C   0  0  0  0  0  0
  -19.1538  -28.8852   23.2882 C   0  0  0  0  0  0
  -18.9462  -30.1456   23.8897 C   0  0  0  0  0  0
  -17.6462  -30.6587   24.0564 C   0  0  0  0  0  0
  -25.9048  -34.9455   23.5108 C   0  0  0  0  0  0
  -16.5353  -29.9086   23.6330 C   0  0  0  0  0  0
  -16.7273  -28.6504   23.0349 C   0  0  0  0  0  0
  -26.4492  -31.6589   25.0725 C   0  0  0  0  0  0
  -25.3730  -31.3721   26.1455 C   0  0  0  0  0  0
  -27.0335  -30.3016   24.6169 C   0  0  0  0  0  0
  -27.6053  -32.4323   25.7495 C   0  0  0  0  0  0
  -27.5578  -37.1806   24.8466 C   0  0  0  0  0  0
  -21.4184  -29.3044   22.3682 N   0  0  0  0  0  0
  -26.4293  -37.3779   23.9407 N   0  0  0  0  0  0
  -24.6864  -31.0628   22.0978 N   0  0  0  0  0  0
  -23.4198  -28.8165   23.3014 O   0  0  0  0  0  0
  -28.3510  -26.4878   20.1669 O   0  0  0  0  0  0
  -26.5616  -34.8920   22.4673 O   0  0  0  0  0  0
  -23.5419  -32.1398   23.7368 O   0  0  0  0  0  0
  -31.6414  -18.1847   21.2945 C   0  0  0  0  0  0
  -31.3769  -19.5790   21.0777 C   0  0  0  0  0  0
  -28.9999  -19.2124   20.5148 C   0  0  0  0  0  0
  -30.5669  -17.3098   21.0790 C   0  0  0  0  0  0
  -29.2939  -17.8363   20.7002 C   0  0  0  0  0  0
  -30.0923  -20.1270   20.7127 C   0  0  0  0  0  0
  -28.9936  -22.4666   20.3497 C   0  0  0  0  0  0
  -28.6559  -16.4716   20.8351 C   0  0  0  0  0  0
  -30.0607  -15.8684   21.3872 C   0  0  1  0  0  0
  -30.2214  -15.6123   22.8899 C   0  0  0  0  0  0
  -29.2904  -24.0194   20.4308 C   0  0  0  0  0  0
  -28.1353  -25.0299   20.0194 C   0  0  0  0  0  0
  -30.0071  -21.5885   20.6285 N   0  0  0  0  0  0
  -27.8638  -22.0853   20.0367 O   0  0  0  0  0  0
  -31.4733  -12.5284   19.1490 H   0  0  0  0  0  0
  -30.3688  -11.4203   19.9058 H   0  0  0  0  0  0
  -29.7853  -11.7633   17.4817 H   0  0  0  0  0  0
  -29.6281  -13.4825   17.7475 H   0  0  0  0  0  0
  -27.8945  -11.2621   18.8909 H   0  0  0  0  0  0
  -27.3725  -12.5153   17.7954 H   0  0  0  0  0  0
  -27.6416  -14.2107   19.4619 H   0  0  0  0  0  0
  -28.7075  -12.0966   21.4071 H   0  0  0  0  0  0
  -28.4007  -13.7630   21.8011 H   0  0  0  0  0  0
  -25.2745   -9.5667   22.4766 H   0  0  0  0  0  0
  -23.9988   -7.4615   22.7474 H   0  0  0  0  0  0
  -21.0826   -8.8758   19.8953 H   0  0  0  0  0  0
  -22.3680  -10.9661   19.6172 H   0  0  0  0  0  0
  -21.2000   -7.6142   23.9712 H   0  0  0  0  0  0
  -21.1480   -6.0520   25.9077 H   0  0  0  0  0  0
  -22.0601   -2.7605   23.2850 H   0  0  0  0  0  0
  -22.4087  -11.9880   22.4811 H   0  0  0  0  0  0
  -21.1106  -13.1264   22.2628 H   0  0  0  0  0  0
  -24.6488  -15.8295   20.5028 H   0  0  0  0  0  0
  -26.2562  -15.6187   20.0315 H   0  0  0  0  0  0
  -26.7173  -32.5457   23.1109 H   0  0  0  0  0  0
  -25.0073  -33.9731   25.0433 H   0  0  0  0  0  0
  -22.7119  -31.3052   21.4037 H   0  0  0  0  0  0
  -23.3748  -35.9633   23.3307 H   0  0  0  0  0  0
  -24.3578  -36.8910   22.2052 H   0  0  0  0  0  0
  -23.7247  -37.6504   23.6656 H   0  0  0  0  0  0
  -26.0883  -31.5588   20.6048 H   0  0  0  0  0  0
  -26.8402  -30.8438   22.0006 H   0  0  0  0  0  0
  -28.1144  -28.9936   21.1866 H   0  0  0  0  0  0
  -25.9709  -25.9409   18.9945 H   0  0  0  0  0  0
  -23.9709  -27.3114   19.0120 H   0  0  0  0  0  0
  -23.7503  -30.5975   19.4045 H   0  0  0  0  0  0
  -22.7528  -29.2492   19.8589 H   0  0  0  0  0  0
  -25.1293  -36.1941   25.0822 H   0  0  0  0  0  0
  -20.9978  -28.3261   24.1404 H   0  0  0  0  0  0
  -20.5677  -26.2296   23.3607 H   0  0  0  0  0  0
  -21.6643  -26.7441   22.1201 H   0  0  0  0  0  0
  -19.6912  -25.6296   21.1240 H   0  0  0  0  0  0
  -19.6687  -27.3197   20.6742 H   0  0  0  0  0  0
  -17.4199  -26.6674   21.4028 H   0  0  0  0  0  0
  -18.0332  -26.0068   22.9020 H   0  0  0  0  0  0
  -19.7938  -30.7274   24.2262 H   0  0  0  0  0  0
  -17.5017  -31.6266   24.5169 H   0  0  0  0  0  0
  -15.5355  -30.2990   23.7653 H   0  0  0  0  0  0
  -15.8672  -28.0827   22.7059 H   0  0  0  0  0  0
  -24.5908  -30.7064   25.7788 H   0  0  0  0  0  0
  -24.8918  -32.2883   26.4885 H   0  0  0  0  0  0
  -25.8061  -30.8900   27.0228 H   0  0  0  0  0  0
  -26.2906  -29.6769   24.1195 H   0  0  0  0  0  0
  -27.4043  -29.7268   25.4665 H   0  0  0  0  0  0
  -27.8769  -30.4307   23.9382 H   0  0  0  0  0  0
  -27.2664  -33.3623   26.2071 H   0  0  0  0  0  0
  -28.3865  -32.6882   25.0325 H   0  0  0  0  0  0
  -28.0719  -31.8449   26.5414 H   0  0  0  0  0  0
  -28.2601  -38.0098   24.7506 H   0  0  0  0  0  0
  -28.1070  -36.2629   24.6301 H   0  0  0  0  0  0
  -27.2295  -37.1467   25.8869 H   0  0  0  0  0  0
  -20.9359  -29.8774   21.6900 H   0  0  0  0  0  0
  -26.0175  -38.2856   24.1403 H   0  0  0  0  0  0
  -32.5987  -17.8354   21.6554 H   0  0  0  0  0  0
  -32.1966  -20.2626   21.2503 H   0  0  0  0  0  0
  -27.9971  -19.5453   20.2881 H   0  0  0  0  0  0
  -28.3669  -16.1306   19.8447 H   0  0  0  0  0  0
  -27.8344  -16.4429   21.5513 H   0  0  0  0  0  0
  -29.6016  -16.2903   23.4767 H   0  0  0  0  0  0
  -31.2538  -15.7623   23.2068 H   0  0  0  0  0  0
  -29.9486  -14.5981   23.1786 H   0  0  0  0  0  0
  -30.1671  -24.2241   19.8165 H   0  0  0  0  0  0
  -29.5852  -24.2360   21.4576 H   0  0  0  0  0  0
  -27.2526  -24.7567   20.6003 H   0  0  0  0  0  0
  -27.8915  -24.8325   18.9747 H   0  0  0  0  0  0
  -30.8757  -22.0589   20.8443 H   0  0  0  0  0  0
  1 25  1  0  0  0
  1 30  2  0  0  0
  1 79  1  0  0  0
  2  3  1  0  0  0
  2 25  1  0  0  0
  2 85  1  0  0  0
  2 86  1  0  0  0
  3  4  1  0  0  0
  3 87  1  0  0  0
  3 88  1  0  0  0
  4  5  1  0  0  0
  4 89  1  0  0  0
  4 90  1  0  0  0
  5  6  1  0  0  0
  5 26  1  0  0  0
  5 91  1  0  0  0
  6 25  1  0  0  0
  6 92  1  0  0  0
  6 93  1  0  0  0
  7  8  2  0  0  0
  7 26  1  0  0  0
  7 29  1  0  0  0
  8  9  1  0  0  0
  8 22  1  0  0  0
  9 10  1  0  0  0
  9 27  2  0  0  0
 10 11  2  0  0  0
 10 15  1  0  0  0
 11 12  1  0  0  0
 11 94  1  0  0  0
 12 13  2  0  0  0
 12 95  1  0  0  0
 13 14  1  0  0  0
 13 31  1  0  0  0
 14 15  2  0  0  0
 14 96  1  0  0  0
 15 97  1  0  0  0
 16 17  2  0  0  0
 16 21  1  0  0  0
 16 31  1  0  0  0
 17 18  1  0  0  0
 17 98  1  0  0  0
 18 19  2  0  0  0
 18 99  1  0  0  0
 19 20  1  0  0  0
 19 24  1  0  0  0
 20 21  2  0  0  0
 20100  1  0  0  0
 21 23  1  0  0  0
 22 28  1  0  0  0
 22 32  2  0  0  0
 26 27  1  0  0  0
 28101  1  0  0  0
 28102  1  0  0  0
 29103  1  0  0  0
 29104  1  0  0  0
 33 34  1  0  0  0
 33 66  1  0  0  0
 33 70  2  0  0  0
 34 36  1  0  0  0
 34 59  1  0  0  0
 34105  1  0  0  0
 35 44  2  0  0  0
 35 45  1  0  0  0
 35 68  1  0  0  0
 36 56  1  0  0  0
 36106  1  0  0  0
 37 39  1  0  0  0
 37 47  1  0  0  0
 37 66  1  0  0  0
 37107  1  0  0  0
 38 43  2  0  0  0
 38 46  1  0  0  0
 38 47  1  0  0  0
 39 64  1  0  0  0
 39 67  2  0  0  0
 40 52  1  0  0  0
 40 53  2  0  0  0
 40 58  1  0  0  0
 41108  1  0  0  0
 41109  1  0  0  0
 41110  1  0  0  0
 41 48  1  0  0  0
 42 43  1  0  0  0
 42 66  1  0  0  0
 42111  1  0  0  0
 42112  1  0  0  0
 43 44  1  0  0  0
 44113  1  0  0  0
 45 46  2  0  0  0
 45114  1  0  0  0
 46115  1  0  0  0
 47116  1  0  0  0
 47117  1  0  0  0
 48 56  1  0  0  0
 48 65  1  0  0  0
 48118  1  0  0  0
 49 50  1  0  0  0
 49 53  1  0  0  0
 49 64  1  0  0  0
 49119  1  0  0  0
 50 51  1  0  0  0
 50120  1  0  0  0
 50121  1  0  0  0
 51 52  1  0  0  0
 51122  1  0  0  0
 51123  1  0  0  0
 52124  1  0  0  0
 52125  1  0  0  0
 53 54  1  0  0  0
 54 55  2  0  0  0
 54126  1  0  0  0
 55 57  1  0  0  0
 55127  1  0  0  0
 56 69  2  0  0  0
 57 58  2  0  0  0
 57128  1  0  0  0
 58129  1  0  0  0
 59 60  1  0  0  0
 59 61  1  0  0  0
 59 62  1  0  0  0
 60130  1  0  0  0
 60131  1  0  0  0
 60132  1  0  0  0
 61133  1  0  0  0
 61134  1  0  0  0
 61135  1  0  0  0
 62136  1  0  0  0
 62137  1  0  0  0
 62138  1  0  0  0
 63 65  1  0  0  0
 63139  1  0  0  0
 63140  1  0  0  0
 63141  1  0  0  0
 64142  1  0  0  0
 65143  1  0  0  0
 68 82  1  0  0  0
 71 72  2  0  0  0
 71 74  1  0  0  0
 71144  1  0  0  0
 72 76  1  0  0  0
 72145  1  0  0  0
 73 75  1  0  0  0
 73 76  2  0  0  0
 73146  1  0  0  0
 74 75  2  0  0  0
 74 79  1  0  0  0
 75 78  1  0  0  0
 76 83  1  0  0  0
 77 81  1  0  0  0
 77 83  1  0  0  0
 77 84  2  0  0  0
 78 79  1  0  0  0
 78147  1  0  0  0
 78148  1  0  0  0
 79 80  1  0  0  0
 80149  1  0  0  0
 80150  1  0  0  0
 80151  1  0  0  0
 81 82  1  0  0  0
 81152  1  0  0  0
 81153  1  0  0  0
 82154  1  0  0  0
 82155  1  0  0  0
 83156  1  0  0  0
M  ISO  4   1 100  68 101  79 100  82 101
M  END
> <chiral flag>
0

> <version>
0

> <s_m_source_file>
/data/baiqing/PycharmProjects/Reinvent-master-3.2/result/LINK_invent/BTK/process_docking_weight1_custom_product_contain_oxygen_bond_distance_aromatic_linkinvent_7_9_3/rearranged_h_0152.sdf

> <i_m_source_file_index>
83

> <r_mmod_Potential_Energy-OPLS-2005>
429.196990966797

> <r_mmod_Stretch_Energy-OPLS-2005>
99.5732727050781

> <r_mmod_Bend_Energy-OPLS-2005>
501.271881103516

> <r_mmod_Torsional_Energy-OPLS-2005>
195.413513183594

> <r_mmod_Improper_Torsional_Energy-OPLS-2005>
5.85794544219971

> <r_mmod_Van_der_Waal_Energy-OPLS-2005>
138.982025146484

> <r_mmod_Electrostatic_Energy-OPLS-2005>
-339.807403564453

> <r_mmod_Solvation_Energy-OPLS-2005>
-218.213119506836

> <b_mmod_Minimization_Converged-OPLS-2005>
0

> <r_mmod_RMS_Derivative-OPLS-2005>
0.163878917694092

$$$$
83
                    3D
 Structure written by MMmdl.
160169  0  0  1  0            999 V2000
  -30.6369  -14.7324   20.4249 C   0  0  0  0  0  0
  -30.4264  -12.4385   19.4834 C   0  0  0  0  0  0
  -29.5137  -12.4978   18.2403 C   0  0  0  0  0  0
  -28.0366  -12.3309   18.6463 C   0  0  0  0  0  0
  -27.6410  -13.2370   19.8448 C   0  0  2  0  0  0
  -28.6844  -13.1845   20.9817 C   0  0  0  0  0  0
  -25.2502  -13.8217   20.5671 C   0  0  0  0  0  0
  -24.1806  -13.0456   20.9210 C   0  0  0  0  0  0
  -24.6400  -11.6936   20.8758 C   0  0  0  0  0  0
  -23.9079  -10.4308   21.0402 C   0  0  0  0  0  0
  -24.3638   -9.4221   21.9167 C   0  0  0  0  0  0
  -23.6316   -8.2258   22.0739 C   0  0  0  0  0  0
  -22.4290   -8.0287   21.3537 C   0  0  0  0  0  0
  -21.9926   -9.0262   20.4638 C   0  0  0  0  0  0
  -22.7261  -10.2142   20.3048 C   0  0  0  0  0  0
  -21.6861   -6.0743   22.5279 C   0  0  0  0  0  0
  -21.4018   -6.5639   23.8220 C   0  0  0  0  0  0
  -21.3663   -5.6792   24.9179 C   0  0  0  0  0  0
  -21.6051   -4.3057   24.7224 C   0  0  0  0  0  0
  -21.8818   -3.8148   23.4349 C   0  0  0  0  0  0
  -21.9199   -4.6969   22.3407 C   0  0  0  0  0  0
  -22.7820  -13.5228   21.1859 C   0  0  0  0  0  0
  -22.1656   -4.2150   21.0985 F   0  0  0  0  0  0
  -21.5638   -3.4533   25.7737 F   0  0  0  0  0  0
  -29.9910  -13.5163   20.4005 N   0  0  0  0  0  0
  -26.2934  -12.9431   20.3264 N   0  0  0  0  0  0
  -25.9335  -11.6569   20.5753 N   0  0  0  0  0  0
  -22.0466  -12.8233   22.0430 N   0  0  0  0  0  0
  -25.4209  -15.1938   20.4078 N   0  0  0  0  0  0
  -31.8388  -14.7766   20.1471 O   0  0  0  0  0  0
  -21.6657   -6.8883   21.4236 O   0  0  0  0  0  0
  -22.3501  -14.5520   20.6684 O   0  0  0  0  0  0
  -24.6324  -31.8579   23.2000 C   0  0  0  0  0  0
  -25.9144  -32.4775   23.8342 C   0  0  1  0  0  0
  -27.2158  -27.2614   20.1354 C   0  0  0  0  0  0
  -25.5932  -33.8571   24.2270 N   0  0  0  0  0  0
  -23.4284  -30.4800   21.5452 C   0  0  2  0  0  0
  -24.8738  -28.9299   20.1089 C   0  0  0  0  0  0
  -22.7502  -29.4625   22.4946 C   0  0  0  0  0  0
  -18.0290  -28.1384   22.8487 C   0  0  0  0  0  0
  -24.1486  -36.7285   23.2637 C   0  0  0  0  0  0
  -25.9724  -30.7721   21.3784 C   0  0  0  0  0  0
  -26.0452  -29.3942   20.7203 C   0  0  0  0  0  0
  -27.2164  -28.5704   20.7256 C   0  0  0  0  0  0
  -26.0251  -26.8756   19.4742 C   0  0  0  0  0  0
  -24.8692  -27.6794   19.4751 C   0  0  0  0  0  0
  -23.6444  -29.8150   20.1604 C   0  0  0  0  0  0
  -25.4117  -36.3083   24.0329 C   0  0  1  0  0  0
  -20.5892  -28.3702   23.1284 C   0  0  2  0  0  0
  -20.6779  -26.9425   22.5414 C   0  0  0  0  0  0
  -19.5752  -26.6380   21.5221 C   0  0  0  0  0  0
  -18.1936  -26.7928   22.1627 C   0  0  0  0  0  0
  -19.1543  -28.8858   23.2879 C   0  0  0  0  0  0
  -18.9456  -30.1455   23.8904 C   0  0  0  0  0  0
  -17.6457  -30.6592   24.0557 C   0  0  0  0  0  0
  -25.9061  -34.9453   23.5112 C   0  0  0  0  0  0
  -16.5351  -29.9088   23.6324 C   0  0  0  0  0  0
  -16.7276  -28.6495   23.0367 C   0  0  0  0  0  0
  -26.4497  -31.6585   25.0726 C   0  0  0  0  0  0
  -25.3698  -31.3725   26.1434 C   0  0  0  0  0  0
  -27.0327  -30.3008   24.6180 C   0  0  0  0  0  0
  -27.6079  -32.4294   25.7489 C   0  0  0  0  0  0
  -27.5588  -37.1806   24.8469 C   0  0  0  0  0  0
  -21.4210  -29.3058   22.3680 N   0  0  0  0  0  0
  -26.4297  -37.3788   23.9414 N   0  0  0  0  0  0
  -24.6973  -31.0532   22.0987 N   0  0  0  0  0  0
  -23.4199  -28.8187   23.3060 O   0  0  0  0  0  0
  -28.3010  -26.3572   20.2390 O   0  0  0  0  0  0
  -26.5634  -34.8936   22.4682 O   0  0  0  0  0  0
  -23.5482  -32.1394   23.7307 O   0  0  0  0  0  0
  -31.0450  -17.4046   18.9392 C   0  0  0  0  0  0
  -31.3114  -18.6536   18.3557 C   0  0  0  0  0  0
  -29.5468  -18.5142   20.4991 C   0  0  0  0  0  0
  -29.7850  -19.8267   19.8973 C   0  0  0  0  0  0
  -30.1677  -17.2713   20.0406 C   0  0  0  0  0  0
  -30.7101  -19.8356   18.8179 C   0  0  0  0  0  0
  -28.6615  -22.9672   21.7567 C   0  0  0  0  0  0
  -29.1989  -21.5041   21.7162 C   0  0  0  0  0  0
  -28.9084  -22.3244   19.5162 C   0  0  0  0  0  0
  -29.0259  -23.6429   20.4071 C   0  0  1  0  0  0
  -30.9057  -25.0159   21.1673 C   0  0  0  0  0  0
  -28.0936  -24.8973   19.9273 C   0  0  0  0  0  0
  -29.1646  -21.0785   20.3231 N   0  0  0  0  0  0
  -29.8978  -15.9019   20.5710 N   0  0  0  0  0  0
  -30.4237  -23.9595   20.3395 O   0  0  0  0  0  0
  -31.0729  -20.9869   18.2050 F   0  0  0  0  0  0
  -31.4722  -12.5400   19.1870 H   0  0  0  0  0  0
  -30.3494  -11.4669   19.9720 H   0  0  0  0  0  0
  -29.7950  -11.7210   17.5280 H   0  0  0  0  0  0
  -29.6529  -13.4514   17.7284 H   0  0  0  0  0  0
  -27.8882  -11.2829   18.9085 H   0  0  0  0  0  0
  -27.3875  -12.5244   17.7922 H   0  0  0  0  0  0
  -27.6300  -14.2563   19.4573 H   0  0  0  0  0  0
  -28.7114  -12.1946   21.4406 H   0  0  0  0  0  0
  -28.4230  -13.8851   21.7764 H   0  0  0  0  0  0
  -25.2775   -9.5707   22.4748 H   0  0  0  0  0  0
  -24.0026   -7.4652   22.7460 H   0  0  0  0  0  0
  -21.0857   -8.8790   19.8951 H   0  0  0  0  0  0
  -22.3706  -10.9685   19.6169 H   0  0  0  0  0  0
  -21.1993   -7.6142   23.9722 H   0  0  0  0  0  0
  -21.1486   -6.0517   25.9088 H   0  0  0  0  0  0
  -22.0590   -2.7602   23.2853 H   0  0  0  0  0  0
  -22.4068  -11.9927   22.4896 H   0  0  0  0  0  0
  -21.1062  -13.1246   22.2551 H   0  0  0  0  0  0
  -24.6562  -15.8511   20.5188 H   0  0  0  0  0  0
  -26.2690  -15.6328   20.0723 H   0  0  0  0  0  0
  -26.7221  -32.5424   23.1097 H   0  0  0  0  0  0
  -25.0066  -33.9694   25.0407 H   0  0  0  0  0  0
  -22.7259  -31.3036   21.4019 H   0  0  0  0  0  0
  -23.3769  -35.9599   23.3297 H   0  0  0  0  0  0
  -24.3587  -36.8909   22.2055 H   0  0  0  0  0  0
  -23.7210  -37.6478   23.6656 H   0  0  0  0  0  0
  -26.1043  -31.5339   20.6091 H   0  0  0  0  0  0
  -26.8535  -30.8258   22.0067 H   0  0  0  0  0  0
  -28.1107  -28.9127   21.2288 H   0  0  0  0  0  0
  -25.9449  -25.9262   18.9662 H   0  0  0  0  0  0
  -23.9740  -27.3205   18.9875 H   0  0  0  0  0  0
  -23.7672  -30.5911   19.4041 H   0  0  0  0  0  0
  -22.7604  -29.2496   19.8591 H   0  0  0  0  0  0
  -25.1306  -36.1942   25.0824 H   0  0  0  0  0  0
  -20.9970  -28.3269   24.1410 H   0  0  0  0  0  0
  -20.5698  -26.2311   23.3618 H   0  0  0  0  0  0
  -21.6654  -26.7483   22.1195 H   0  0  0  0  0  0
  -19.6921  -25.6285   21.1257 H   0  0  0  0  0  0
  -19.6683  -27.3180   20.6744 H   0  0  0  0  0  0
  -17.4218  -26.6684   21.4023 H   0  0  0  0  0  0
  -18.0339  -26.0060   22.9008 H   0  0  0  0  0  0
  -19.7935  -30.7258   24.2291 H   0  0  0  0  0  0
  -17.5021  -31.6280   24.5139 H   0  0  0  0  0  0
  -15.5356  -30.3001   23.7636 H   0  0  0  0  0  0
  -15.8674  -28.0805   22.7114 H   0  0  0  0  0  0
  -24.5897  -30.7057   25.7747 H   0  0  0  0  0  0
  -24.8845  -32.2874   26.4841 H   0  0  0  0  0  0
  -25.7988  -30.8910   27.0224 H   0  0  0  0  0  0
  -26.2899  -29.6780   24.1183 H   0  0  0  0  0  0
  -27.4008  -29.7266   25.4691 H   0  0  0  0  0  0
  -27.8782  -30.4331   23.9426 H   0  0  0  0  0  0
  -27.2736  -33.3613   26.2073 H   0  0  0  0  0  0
  -28.3876  -32.6814   25.0283 H   0  0  0  0  0  0
  -28.0752  -31.8384   26.5380 H   0  0  0  0  0  0
  -28.2621  -38.0095   24.7545 H   0  0  0  0  0  0
  -28.1064  -36.2631   24.6260 H   0  0  0  0  0  0
  -27.2309  -37.1435   25.8874 H   0  0  0  0  0  0
  -20.9410  -29.8723   21.6832 H   0  0  0  0  0  0
  -26.0178  -38.2870   24.1403 H   0  0  0  0  0  0
  -31.5324  -16.5487   18.4990 H   0  0  0  0  0  0
  -31.9997  -18.7120   17.5250 H   0  0  0  0  0  0
  -28.8537  -18.4623   21.3247 H   0  0  0  0  0  0
  -29.0095  -23.5028   22.6379 H   0  0  0  0  0  0
  -27.5753  -22.9232   21.8446 H   0  0  0  0  0  0
  -28.6023  -20.8453   22.3486 H   0  0  0  0  0  0
  -30.2292  -21.4653   22.0730 H   0  0  0  0  0  0
  -29.5218  -22.4276   18.6262 H   0  0  0  0  0  0
  -27.8846  -22.2464   19.1460 H   0  0  0  0  0  0
  -31.9955  -24.9900   21.1705 H   0  0  0  0  0  0
  -30.5808  -24.9357   22.2039 H   0  0  0  0  0  0
  -30.6193  -25.9958   20.7921 H   0  0  0  0  0  0
  -27.0912  -24.6249   20.2582 H   0  0  0  0  0  0
  -28.0590  -24.8439   18.8394 H   0  0  0  0  0  0
  -28.9748  -15.7654   20.9558 H   0  0  0  0  0  0
  1 25  1  0  0  0
  1 30  2  0  0  0
  1 84  1  0  0  0
  2  3  1  0  0  0
  2 25  1  0  0  0
  2 87  1  0  0  0
  2 88  1  0  0  0
  3  4  1  0  0  0
  3 89  1  0  0  0
  3 90  1  0  0  0
  4  5  1  0  0  0
  4 91  1  0  0  0
  4 92  1  0  0  0
  5  6  1  0  0  0
  5 26  1  0  0  0
  5 93  1  0  0  0
  6 25  1  0  0  0
  6 94  1  0  0  0
  6 95  1  0  0  0
  7  8  2  0  0  0
  7 26  1  0  0  0
  7 29  1  0  0  0
  8  9  1  0  0  0
  8 22  1  0  0  0
  9 10  1  0  0  0
  9 27  2  0  0  0
 10 11  2  0  0  0
 10 15  1  0  0  0
 11 12  1  0  0  0
 11 96  1  0  0  0
 12 13  2  0  0  0
 12 97  1  0  0  0
 13 14  1  0  0  0
 13 31  1  0  0  0
 14 15  2  0  0  0
 14 98  1  0  0  0
 15 99  1  0  0  0
 16 17  2  0  0  0
 16 21  1  0  0  0
 16 31  1  0  0  0
 17 18  1  0  0  0
 17100  1  0  0  0
 18 19  2  0  0  0
 18101  1  0  0  0
 19 20  1  0  0  0
 19 24  1  0  0  0
 20 21  2  0  0  0
 20102  1  0  0  0
 21 23  1  0  0  0
 22 28  1  0  0  0
 22 32  2  0  0  0
 26 27  1  0  0  0
 28103  1  0  0  0
 28104  1  0  0  0
 29105  1  0  0  0
 29106  1  0  0  0
 33 34  1  0  0  0
 33 66  1  0  0  0
 33 70  2  0  0  0
 34 36  1  0  0  0
 34 59  1  0  0  0
 34107  1  0  0  0
 35 44  2  0  0  0
 35 45  1  0  0  0
 35 68  1  0  0  0
 36 56  1  0  0  0
 36108  1  0  0  0
 37 39  1  0  0  0
 37 47  1  0  0  0
 37 66  1  0  0  0
 37109  1  0  0  0
 38 43  2  0  0  0
 38 46  1  0  0  0
 38 47  1  0  0  0
 39 64  1  0  0  0
 39 67  2  0  0  0
 40 52  1  0  0  0
 40 53  2  0  0  0
 40 58  1  0  0  0
 41110  1  0  0  0
 41111  1  0  0  0
 41112  1  0  0  0
 41 48  1  0  0  0
 42 43  1  0  0  0
 42 66  1  0  0  0
 42113  1  0  0  0
 42114  1  0  0  0
 43 44  1  0  0  0
 44115  1  0  0  0
 45 46  2  0  0  0
 45116  1  0  0  0
 46117  1  0  0  0
 47118  1  0  0  0
 47119  1  0  0  0
 48 56  1  0  0  0
 48 65  1  0  0  0
 48120  1  0  0  0
 49 50  1  0  0  0
 49 53  1  0  0  0
 49 64  1  0  0  0
 49121  1  0  0  0
 50 51  1  0  0  0
 50122  1  0  0  0
 50123  1  0  0  0
 51 52  1  0  0  0
 51124  1  0  0  0
 51125  1  0  0  0
 52126  1  0  0  0
 52127  1  0  0  0
 53 54  1  0  0  0
 54 55  2  0  0  0
 54128  1  0  0  0
 55 57  1  0  0  0
 55129  1  0  0  0
 56 69  2  0  0  0
 57 58  2  0  0  0
 57130  1  0  0  0
 58131  1  0  0  0
 59 60  1  0  0  0
 59 61  1  0  0  0
 59 62  1  0  0  0
 60132  1  0  0  0
 60133  1  0  0  0
 60134  1  0  0  0
 61135  1  0  0  0
 61136  1  0  0  0
 61137  1  0  0  0
 62138  1  0  0  0
 62139  1  0  0  0
 62140  1  0  0  0
 63 65  1  0  0  0
 63141  1  0  0  0
 63142  1  0  0  0
 63143  1  0  0  0
 64144  1  0  0  0
 65145  1  0  0  0
 68 82  1  0  0  0
 71 72  2  0  0  0
 71 75  1  0  0  0
 71146  1  0  0  0
 72 76  1  0  0  0
 72147  1  0  0  0
 73 74  1  0  0  0
 73 75  2  0  0  0
 73148  1  0  0  0
 74 76  2  0  0  0
 74 83  1  0  0  0
 75 84  1  0  0  0
 76 86  1  0  0  0
 77 78  1  0  0  0
 77 80  1  0  0  0
 77149  1  0  0  0
 77150  1  0  0  0
 78 83  1  0  0  0
 78151  1  0  0  0
 78152  1  0  0  0
 79 80  1  0  0  0
 79 83  1  0  0  0
 79153  1  0  0  0
 79154  1  0  0  0
 80 82  1  0  0  0
 80 85  1  0  0  0
 81 85  1  0  0  0
 81155  1  0  0  0
 81156  1  0  0  0
 81157  1  0  0  0
 82158  1  0  0  0
 82159  1  0  0  0
 84160  1  0  0  0
M  ISO  4   1 100  68 101  82 101  84 100
M  END
> <chiral flag>
0

> <version>
0

> <s_m_source_file>
/data/baiqing/PycharmProjects/Reinvent-master-3.2/result/LINK_invent/BTK/process_docking_weight1_custom_product_contain_oxygen_bond_distance_aromatic_linkinvent_7_9_3/rearranged_h_0152.sdf

> <i_m_source_file_index>
84

> <r_mmod_Potential_Energy-OPLS-2005>
350.802673339844

> <r_mmod_Stretch_Energy-OPLS-2005>
126.068740844727

> <r_mmod_Bend_Energy-OPLS-2005>
219.288375854492

> <r_mmod_Torsional_Energy-OPLS-2005>
299.264282226562

> <r_mmod_Improper_Torsional_Energy-OPLS-2005>
6.32825183868408

> <r_mmod_Van_der_Waal_Energy-OPLS-2005>
151.335296630859

> <r_mmod_Electrostatic_Energy-OPLS-2005>
-306.630950927734

> <r_mmod_Solvation_Energy-OPLS-2005>
-231.961776733398

> <b_mmod_Minimization_Converged-OPLS-2005>
0

> <r_mmod_RMS_Derivative-OPLS-2005>
2.31452989578247

$$$$
84
                    3D
 Structure written by MMmdl.
162171  0  0  1  0            999 V2000
  -30.6025  -14.7568   20.4416 C   0  0  0  0  0  0
  -30.4299  -12.4548   19.4974 C   0  0  0  0  0  0
  -29.5239  -12.5222   18.2497 C   0  0  0  0  0  0
  -28.0449  -12.3491   18.6485 C   0  0  0  0  0  0
  -27.6459  -13.2421   19.8555 C   0  0  2  0  0  0
  -28.6837  -13.1771   20.9980 C   0  0  0  0  0  0
  -25.2496  -13.8222   20.5672 C   0  0  0  0  0  0
  -24.1800  -13.0446   20.9177 C   0  0  0  0  0  0
  -24.6415  -11.6927   20.8710 C   0  0  0  0  0  0
  -23.9092  -10.4291   21.0381 C   0  0  0  0  0  0
  -24.3637   -9.4208   21.9166 C   0  0  0  0  0  0
  -23.6303   -8.2241   22.0754 C   0  0  0  0  0  0
  -22.4287   -8.0267   21.3538 C   0  0  0  0  0  0
  -21.9916   -9.0256   20.4650 C   0  0  0  0  0  0
  -22.7252  -10.2126   20.3036 C   0  0  0  0  0  0
  -21.6852   -6.0721   22.5278 C   0  0  0  0  0  0
  -21.4020   -6.5629   23.8209 C   0  0  0  0  0  0
  -21.3665   -5.6782   24.9177 C   0  0  0  0  0  0
  -21.6040   -4.3044   24.7220 C   0  0  0  0  0  0
  -21.8819   -3.8130   23.4342 C   0  0  0  0  0  0
  -21.9190   -4.6949   22.3393 C   0  0  0  0  0  0
  -22.7814  -13.5211   21.1847 C   0  0  0  0  0  0
  -22.1654   -4.2126   21.0970 F   0  0  0  0  0  0
  -21.5639   -3.4535   25.7740 F   0  0  0  0  0  0
  -29.9913  -13.5212   20.4294 N   0  0  0  0  0  0
  -26.2946  -12.9450   20.3268 N   0  0  0  0  0  0
  -25.9351  -11.6577   20.5723 N   0  0  0  0  0  0
  -22.0465  -12.8201   22.0409 N   0  0  0  0  0  0
  -25.4162  -15.1951   20.4091 N   0  0  0  0  0  0
  -31.7757  -14.8544   20.0686 O   0  0  0  0  0  0
  -21.6634   -6.8873   21.4244 O   0  0  0  0  0  0
  -22.3475  -14.5500   20.6686 O   0  0  0  0  0  0
  -24.6324  -31.8567   23.1992 C   0  0  0  0  0  0
  -25.9150  -32.4774   23.8328 C   0  0  1  0  0  0
  -27.2064  -27.2576   20.1217 C   0  0  0  0  0  0
  -25.5949  -33.8568   24.2258 N   0  0  0  0  0  0
  -23.4276  -30.4824   21.5444 C   0  0  2  0  0  0
  -24.8709  -28.9349   20.1068 C   0  0  0  0  0  0
  -22.7500  -29.4617   22.4899 C   0  0  0  0  0  0
  -18.0288  -28.1388   22.8474 C   0  0  0  0  0  0
  -24.1493  -36.7285   23.2636 C   0  0  0  0  0  0
  -25.9745  -30.7705   21.3778 C   0  0  0  0  0  0
  -26.0449  -29.3936   20.7176 C   0  0  0  0  0  0
  -27.2169  -28.5673   20.7143 C   0  0  0  0  0  0
  -26.0122  -26.8787   19.4688 C   0  0  0  0  0  0
  -24.8608  -27.6863   19.4706 C   0  0  0  0  0  0
  -23.6438  -29.8240   20.1579 C   0  0  0  0  0  0
  -25.4118  -36.3078   24.0323 C   0  0  1  0  0  0
  -20.5903  -28.3707   23.1270 C   0  0  2  0  0  0
  -20.6791  -26.9422   22.5414 C   0  0  0  0  0  0
  -19.5758  -26.6383   21.5221 C   0  0  0  0  0  0
  -18.1936  -26.7931   22.1623 C   0  0  0  0  0  0
  -19.1548  -28.8864   23.2874 C   0  0  0  0  0  0
  -18.9460  -30.1456   23.8896 C   0  0  0  0  0  0
  -17.6464  -30.6594   24.0559 C   0  0  0  0  0  0
  -25.9064  -34.9452   23.5092 C   0  0  0  0  0  0
  -16.5353  -29.9088   23.6328 C   0  0  0  0  0  0
  -16.7278  -28.6510   23.0346 C   0  0  0  0  0  0
  -26.4497  -31.6591   25.0716 C   0  0  0  0  0  0
  -25.3710  -31.3749   26.1428 C   0  0  0  0  0  0
  -27.0338  -30.3009   24.6203 C   0  0  0  0  0  0
  -27.6060  -32.4313   25.7501 C   0  0  0  0  0  0
  -27.5579  -37.1804   24.8458 C   0  0  0  0  0  0
  -21.4217  -29.3054   22.3655 N   0  0  0  0  0  0
  -26.4289  -37.3779   23.9409 N   0  0  0  0  0  0
  -24.6980  -31.0538   22.0969 N   0  0  0  0  0  0
  -23.4208  -28.8145   23.2992 O   0  0  0  0  0  0
  -28.2853  -26.3410   20.1996 O   0  0  0  0  0  0
  -26.5632  -34.8925   22.4660 O   0  0  0  0  0  0
  -23.5485  -32.1376   23.7294 O   0  0  0  0  0  0
  -29.6232  -18.0648   17.6422 C   0  0  0  0  0  0
  -29.6905  -16.9734   18.5234 C   0  0  0  0  0  0
  -29.6737  -18.5372   20.4185 C   0  0  0  0  0  0
  -29.6240  -19.3720   18.1537 C   0  0  0  0  0  0
  -29.6096  -19.6878   19.5161 C   0  0  0  0  0  0
  -29.7658  -17.1529   19.9253 C   0  0  0  0  0  0
  -29.8200  -20.5862   17.3253 C   0  0  0  0  0  0
  -30.3257  -21.5393   18.4032 C   0  0  0  0  0  0
  -28.9374  -23.7196   22.0170 C   0  0  0  0  0  0
  -30.4515  -24.1302   20.0980 C   0  0  0  0  0  0
  -28.6551  -22.1392   20.0389 C   0  0  0  0  0  0
  -28.0315  -24.8729   19.9488 C   0  0  0  0  0  0
  -29.0195  -23.6951   20.4787 C   0  0  0  0  0  0
  -29.7553  -21.1369   19.7096 N   0  0  0  0  0  0
  -29.8542  -15.8970   20.7221 N   0  0  0  0  0  0
  -31.4784  -12.5575   19.2154 H   0  0  0  0  0  0
  -30.3521  -11.4768   19.9736 H   0  0  0  0  0  0
  -29.8141  -11.7551   17.5298 H   0  0  0  0  0  0
  -29.6614  -13.4799   17.7466 H   0  0  0  0  0  0
  -27.8939  -11.2989   18.9021 H   0  0  0  0  0  0
  -27.3950  -12.5545   17.7971 H   0  0  0  0  0  0
  -27.6424  -14.2664   19.4789 H   0  0  0  0  0  0
  -28.7095  -12.1839   21.4498 H   0  0  0  0  0  0
  -28.4194  -13.8741   21.7951 H   0  0  0  0  0  0
  -25.2784   -9.5685   22.4739 H   0  0  0  0  0  0
  -24.0004   -7.4634   22.7479 H   0  0  0  0  0  0
  -21.0835   -8.8782   19.8960 H   0  0  0  0  0  0
  -22.3715  -10.9664   19.6130 H   0  0  0  0  0  0
  -21.2024   -7.6144   23.9716 H   0  0  0  0  0  0
  -21.1489   -6.0508   25.9082 H   0  0  0  0  0  0
  -22.0597   -2.7588   23.2846 H   0  0  0  0  0  0
  -22.4067  -11.9878   22.4829 H   0  0  0  0  0  0
  -21.1089  -13.1228   22.2616 H   0  0  0  0  0  0
  -24.6456  -15.8470   20.5087 H   0  0  0  0  0  0
  -26.2690  -15.6359   20.0867 H   0  0  0  0  0  0
  -26.7219  -32.5415   23.1071 H   0  0  0  0  0  0
  -25.0100  -33.9700   25.0408 H   0  0  0  0  0  0
  -22.7250  -31.3064   21.4041 H   0  0  0  0  0  0
  -23.3767  -35.9605   23.3281 H   0  0  0  0  0  0
  -24.3589  -36.8925   22.2054 H   0  0  0  0  0  0
  -23.7232  -37.6475   23.6668 H   0  0  0  0  0  0
  -26.1136  -31.5312   20.6083 H   0  0  0  0  0  0
  -26.8537  -30.8189   22.0087 H   0  0  0  0  0  0
  -28.1143  -28.9117   21.2097 H   0  0  0  0  0  0
  -25.9293  -25.9312   18.9592 H   0  0  0  0  0  0
  -23.9643  -27.3343   18.9799 H   0  0  0  0  0  0
  -23.7691  -30.6052   19.4068 H   0  0  0  0  0  0
  -22.7601  -29.2630   19.8499 H   0  0  0  0  0  0
  -25.1303  -36.1924   25.0816 H   0  0  0  0  0  0
  -20.9996  -28.3291   24.1390 H   0  0  0  0  0  0
  -20.5720  -26.2303   23.3614 H   0  0  0  0  0  0
  -21.6652  -26.7464   22.1188 H   0  0  0  0  0  0
  -19.6925  -25.6294   21.1250 H   0  0  0  0  0  0
  -19.6706  -27.3198   20.6755 H   0  0  0  0  0  0
  -17.4213  -26.6674   21.4023 H   0  0  0  0  0  0
  -18.0331  -26.0086   22.9031 H   0  0  0  0  0  0
  -19.7936  -30.7269   24.2279 H   0  0  0  0  0  0
  -17.5016  -31.6272   24.5154 H   0  0  0  0  0  0
  -15.5354  -30.2990   23.7659 H   0  0  0  0  0  0
  -15.8672  -28.0834   22.7056 H   0  0  0  0  0  0
  -24.5897  -30.7088   25.7747 H   0  0  0  0  0  0
  -24.8875  -32.2918   26.4810 H   0  0  0  0  0  0
  -25.8003  -30.8952   27.0233 H   0  0  0  0  0  0
  -26.2918  -29.6768   24.1212 H   0  0  0  0  0  0
  -27.4004  -29.7264   25.4718 H   0  0  0  0  0  0
  -27.8801  -30.4278   23.9450 H   0  0  0  0  0  0
  -27.2690  -33.3630   26.2053 H   0  0  0  0  0  0
  -28.3895  -32.6841   25.0347 H   0  0  0  0  0  0
  -28.0698  -31.8445   26.5439 H   0  0  0  0  0  0
  -28.2593  -38.0109   24.7527 H   0  0  0  0  0  0
  -28.1083  -36.2641   24.6260 H   0  0  0  0  0  0
  -27.2297  -37.1425   25.8861 H   0  0  0  0  0  0
  -20.9391  -29.8769   21.6861 H   0  0  0  0  0  0
  -26.0168  -38.2853   24.1416 H   0  0  0  0  0  0
  -29.6311  -17.8931   16.5751 H   0  0  0  0  0  0
  -29.7088  -15.9821   18.0945 H   0  0  0  0  0  0
  -29.7267  -18.7209   21.4820 H   0  0  0  0  0  0
  -28.8696  -20.9125   16.8993 H   0  0  0  0  0  0
  -30.5419  -20.4417   16.5201 H   0  0  0  0  0  0
  -30.0868  -22.5543   18.0897 H   0  0  0  0  0  0
  -31.4132  -21.4773   18.4708 H   0  0  0  0  0  0
  -29.6504  -23.0251   22.4639 H   0  0  0  0  0  0
  -27.9418  -23.4387   22.3652 H   0  0  0  0  0  0
  -29.1471  -24.7133   22.4145 H   0  0  0  0  0  0
  -31.1939  -23.3736   20.3507 H   0  0  0  0  0  0
  -30.7345  -25.0372   20.6313 H   0  0  0  0  0  0
  -30.5420  -24.3675   19.0393 H   0  0  0  0  0  0
  -28.0125  -22.1957   19.1578 H   0  0  0  0  0  0
  -28.0142  -21.6903   20.8012 H   0  0  0  0  0  0
  -27.0454  -24.6238   20.3420 H   0  0  0  0  0  0
  -27.9519  -24.7626   18.8673 H   0  0  0  0  0  0
  -29.0553  -15.7259   21.3144 H   0  0  0  0  0  0
  1 25  1  0  0  0
  1 30  2  0  0  0
  1 85  1  0  0  0
  2  3  1  0  0  0
  2 25  1  0  0  0
  2 86  1  0  0  0
  2 87  1  0  0  0
  3  4  1  0  0  0
  3 88  1  0  0  0
  3 89  1  0  0  0
  4  5  1  0  0  0
  4 90  1  0  0  0
  4 91  1  0  0  0
  5  6  1  0  0  0
  5 26  1  0  0  0
  5 92  1  0  0  0
  6 25  1  0  0  0
  6 93  1  0  0  0
  6 94  1  0  0  0
  7  8  2  0  0  0
  7 26  1  0  0  0
  7 29  1  0  0  0
  8  9  1  0  0  0
  8 22  1  0  0  0
  9 10  1  0  0  0
  9 27  2  0  0  0
 10 11  2  0  0  0
 10 15  1  0  0  0
 11 12  1  0  0  0
 11 95  1  0  0  0
 12 13  2  0  0  0
 12 96  1  0  0  0
 13 14  1  0  0  0
 13 31  1  0  0  0
 14 15  2  0  0  0
 14 97  1  0  0  0
 15 98  1  0  0  0
 16 17  2  0  0  0
 16 21  1  0  0  0
 16 31  1  0  0  0
 17 18  1  0  0  0
 17 99  1  0  0  0
 18 19  2  0  0  0
 18100  1  0  0  0
 19 20  1  0  0  0
 19 24  1  0  0  0
 20 21  2  0  0  0
 20101  1  0  0  0
 21 23  1  0  0  0
 22 28  1  0  0  0
 22 32  2  0  0  0
 26 27  1  0  0  0
 28102  1  0  0  0
 28103  1  0  0  0
 29104  1  0  0  0
 29105  1  0  0  0
 33 34  1  0  0  0
 33 66  1  0  0  0
 33 70  2  0  0  0
 34 36  1  0  0  0
 34 59  1  0  0  0
 34106  1  0  0  0
 35 44  2  0  0  0
 35 45  1  0  0  0
 35 68  1  0  0  0
 36 56  1  0  0  0
 36107  1  0  0  0
 37 39  1  0  0  0
 37 47  1  0  0  0
 37 66  1  0  0  0
 37108  1  0  0  0
 38 43  2  0  0  0
 38 46  1  0  0  0
 38 47  1  0  0  0
 39 64  1  0  0  0
 39 67  2  0  0  0
 40 52  1  0  0  0
 40 53  2  0  0  0
 40 58  1  0  0  0
 41109  1  0  0  0
 41110  1  0  0  0
 41111  1  0  0  0
 41 48  1  0  0  0
 42 43  1  0  0  0
 42 66  1  0  0  0
 42112  1  0  0  0
 42113  1  0  0  0
 43 44  1  0  0  0
 44114  1  0  0  0
 45 46  2  0  0  0
 45115  1  0  0  0
 46116  1  0  0  0
 47117  1  0  0  0
 47118  1  0  0  0
 48 56  1  0  0  0
 48 65  1  0  0  0
 48119  1  0  0  0
 49 50  1  0  0  0
 49 53  1  0  0  0
 49 64  1  0  0  0
 49120  1  0  0  0
 50 51  1  0  0  0
 50121  1  0  0  0
 50122  1  0  0  0
 51 52  1  0  0  0
 51123  1  0  0  0
 51124  1  0  0  0
 52125  1  0  0  0
 52126  1  0  0  0
 53 54  1  0  0  0
 54 55  2  0  0  0
 54127  1  0  0  0
 55 57  1  0  0  0
 55128  1  0  0  0
 56 69  2  0  0  0
 57 58  2  0  0  0
 57129  1  0  0  0
 58130  1  0  0  0
 59 60  1  0  0  0
 59 61  1  0  0  0
 59 62  1  0  0  0
 60131  1  0  0  0
 60132  1  0  0  0
 60133  1  0  0  0
 61134  1  0  0  0
 61135  1  0  0  0
 61136  1  0  0  0
 62137  1  0  0  0
 62138  1  0  0  0
 62139  1  0  0  0
 63 65  1  0  0  0
 63140  1  0  0  0
 63141  1  0  0  0
 63142  1  0  0  0
 64143  1  0  0  0
 65144  1  0  0  0
 68 82  1  0  0  0
 71 72  2  0  0  0
 71 74  1  0  0  0
 71145  1  0  0  0
 72 76  1  0  0  0
 72146  1  0  0  0
 73 75  1  0  0  0
 73 76  2  0  0  0
 73147  1  0  0  0
 74 75  2  0  0  0
 74 77  1  0  0  0
 75 84  1  0  0  0
 76 85  1  0  0  0
 77 78  1  0  0  0
 77148  1  0  0  0
 77149  1  0  0  0
 78 84  1  0  0  0
 78150  1  0  0  0
 78151  1  0  0  0
 79152  1  0  0  0
 79153  1  0  0  0
 79154  1  0  0  0
 79 83  1  0  0  0
 80 83  1  0  0  0
 80155  1  0  0  0
 80156  1  0  0  0
 80157  1  0  0  0
 81 83  1  0  0  0
 81 84  1  0  0  0
 81158  1  0  0  0
 81159  1  0  0  0
 82 83  1  0  0  0
 82160  1  0  0  0
 82161  1  0  0  0
 85162  1  0  0  0
M  ISO  4   1 100  68 101  82 101  85 100
M  END
> <chiral flag>
0

> <version>
0

> <s_m_source_file>
/data/baiqing/PycharmProjects/Reinvent-master-3.2/result/LINK_invent/BTK/process_docking_weight1_custom_product_contain_oxygen_bond_distance_aromatic_linkinvent_7_9_3/rearranged_h_0152.sdf

> <i_m_source_file_index>
85

> <r_mmod_Potential_Energy-OPLS-2005>
352.149078369141

> <r_mmod_Stretch_Energy-OPLS-2005>
147.595550537109

> <r_mmod_Bend_Energy-OPLS-2005>
236.814865112305

> <r_mmod_Torsional_Energy-OPLS-2005>
300.876037597656

> <r_mmod_Improper_Torsional_Energy-OPLS-2005>
13.2004404067993

> <r_mmod_Van_der_Waal_Energy-OPLS-2005>
143.004501342773

> <r_mmod_Electrostatic_Energy-OPLS-2005>
-356.338317871094

> <r_mmod_Solvation_Energy-OPLS-2005>
-224.644607543945

> <b_mmod_Minimization_Converged-OPLS-2005>
0

> <r_mmod_RMS_Derivative-OPLS-2005>
2.55332803726196

$$$$
85
                    3D
 Structure written by MMmdl.
158167  0  0  1  0            999 V2000
  -30.6118  -14.7234   20.4715 C   0  0  0  0  0  0
  -30.4347  -12.4435   19.4657 C   0  0  0  0  0  0
  -29.5070  -12.5035   18.2317 C   0  0  0  0  0  0
  -28.0335  -12.3277   18.6485 C   0  0  0  0  0  0
  -27.6421  -13.2264   19.8516 C   0  0  2  0  0  0
  -28.6882  -13.1484   20.9849 C   0  0  0  0  0  0
  -25.2514  -13.8189   20.5693 C   0  0  0  0  0  0
  -24.1799  -13.0440   20.9209 C   0  0  0  0  0  0
  -24.6385  -11.6915   20.8748 C   0  0  0  0  0  0
  -23.9061  -10.4294   21.0412 C   0  0  0  0  0  0
  -24.3614   -9.4210   21.9188 C   0  0  0  0  0  0
  -23.6289   -8.2244   22.0754 C   0  0  0  0  0  0
  -22.4272   -8.0275   21.3542 C   0  0  0  0  0  0
  -21.9910   -9.0253   20.4648 C   0  0  0  0  0  0
  -22.7237  -10.2136   20.3060 C   0  0  0  0  0  0
  -21.6853   -6.0732   22.5277 C   0  0  0  0  0  0
  -21.4015   -6.5638   23.8208 C   0  0  0  0  0  0
  -21.3661   -5.6793   24.9171 C   0  0  0  0  0  0
  -21.6041   -4.3053   24.7226 C   0  0  0  0  0  0
  -21.8819   -3.8146   23.4346 C   0  0  0  0  0  0
  -21.9194   -4.6960   22.3402 C   0  0  0  0  0  0
  -22.7824  -13.5223   21.1866 C   0  0  0  0  0  0
  -22.1660   -4.2145   21.0980 F   0  0  0  0  0  0
  -21.5630   -3.4540   25.7742 F   0  0  0  0  0  0
  -29.9906  -13.4981   20.4033 N   0  0  0  0  0  0
  -26.2934  -12.9384   20.3288 N   0  0  0  0  0  0
  -25.9313  -11.6534   20.5760 N   0  0  0  0  0  0
  -22.0472  -12.8214   22.0427 N   0  0  0  0  0  0
  -25.4205  -15.1912   20.4096 N   0  0  0  0  0  0
  -31.8038  -14.8270   20.1668 O   0  0  0  0  0  0
  -21.6636   -6.8875   21.4236 O   0  0  0  0  0  0
  -22.3515  -14.5532   20.6719 O   0  0  0  0  0  0
  -24.6315  -31.8559   23.1996 C   0  0  0  0  0  0
  -25.9146  -32.4756   23.8337 C   0  0  1  0  0  0
  -27.2157  -27.2667   20.1248 C   0  0  0  0  0  0
  -25.5939  -33.8559   24.2253 N   0  0  0  0  0  0
  -23.4274  -30.4801   21.5431 C   0  0  2  0  0  0
  -24.8738  -28.9318   20.1085 C   0  0  0  0  0  0
  -22.7506  -29.4603   22.4910 C   0  0  0  0  0  0
  -18.0295  -28.1384   22.8474 C   0  0  0  0  0  0
  -24.1492  -36.7287   23.2641 C   0  0  0  0  0  0
  -25.9738  -30.7694   21.3807 C   0  0  0  0  0  0
  -26.0464  -29.3944   20.7190 C   0  0  0  0  0  0
  -27.2212  -28.5750   20.7161 C   0  0  0  0  0  0
  -26.0194  -26.8767   19.4784 C   0  0  0  0  0  0
  -24.8651  -27.6814   19.4762 C   0  0  0  0  0  0
  -23.6449  -29.8186   20.1576 C   0  0  0  0  0  0
  -25.4118  -36.3070   24.0327 C   0  0  1  0  0  0
  -20.5895  -28.3700   23.1263 C   0  0  2  0  0  0
  -20.6779  -26.9415   22.5399 C   0  0  0  0  0  0
  -19.5756  -26.6381   21.5205 C   0  0  0  0  0  0
  -18.1937  -26.7925   22.1619 C   0  0  0  0  0  0
  -19.1547  -28.8860   23.2861 C   0  0  0  0  0  0
  -18.9470  -30.1459   23.8884 C   0  0  0  0  0  0
  -17.6471  -30.6584   24.0561 C   0  0  0  0  0  0
  -25.9057  -34.9440   23.5092 C   0  0  0  0  0  0
  -16.5360  -29.9080   23.6333 C   0  0  0  0  0  0
  -16.7282  -28.6501   23.0347 C   0  0  0  0  0  0
  -26.4507  -31.6590   25.0733 C   0  0  0  0  0  0
  -25.3724  -31.3746   26.1450 C   0  0  0  0  0  0
  -27.0362  -30.3003   24.6238 C   0  0  0  0  0  0
  -27.6049  -32.4346   25.7508 C   0  0  0  0  0  0
  -27.5580  -37.1795   24.8462 C   0  0  0  0  0  0
  -21.4214  -29.3046   22.3657 N   0  0  0  0  0  0
  -26.4294  -37.3767   23.9406 N   0  0  0  0  0  0
  -24.6966  -31.0522   22.0975 N   0  0  0  0  0  0
  -23.4209  -28.8137   23.3002 O   0  0  0  0  0  0
  -28.3000  -26.3601   20.1968 O   0  0  0  0  0  0
  -26.5634  -34.8918   22.4661 O   0  0  0  0  0  0
  -23.5465  -32.1384   23.7288 O   0  0  0  0  0  0
  -31.3205  -17.8274   20.8859 C   0  0  0  0  0  0
  -31.3225  -19.2742   20.9274 C   0  0  0  0  0  0
  -30.1059  -17.2141   20.6739 C   0  0  0  0  0  0
  -30.0948  -19.8800   20.7192 C   0  0  0  0  0  0
  -29.0653  -23.8046   20.4535 C   0  0  0  0  0  0
  -33.1185  -21.0188   20.1831 C   0  0  0  0  0  0
  -33.8406  -19.7155   20.4144 C   0  0  0  0  0  0
  -32.5912  -20.0361   21.2082 C   0  0  0  0  0  0
  -32.7239  -20.3411   22.6882 C   0  0  0  0  0  0
  -28.7898  -22.2269   20.3006 C   0  0  0  0  0  0
  -27.9992  -24.8991   19.9913 C   0  0  0  0  0  0
  -29.8086  -15.8405   20.6518 N   0  0  0  0  0  0
  -29.8956  -21.3200   20.7799 N   0  0  0  0  0  0
  -30.1415  -24.1672   20.9437 O   0  0  0  0  0  0
  -28.9129  -18.5567   20.4801 S   0  0  0  0  0  0
  -31.4744  -12.5740   19.1601 H   0  0  0  0  0  0
  -30.3822  -11.4644   19.9444 H   0  0  0  0  0  0
  -29.7857  -11.7332   17.5109 H   0  0  0  0  0  0
  -29.6304  -13.4609   17.7218 H   0  0  0  0  0  0
  -27.8910  -11.2788   18.9121 H   0  0  0  0  0  0
  -27.3741  -12.5189   17.8005 H   0  0  0  0  0  0
  -27.6388  -14.2482   19.4724 H   0  0  0  0  0  0
  -28.7196  -12.1479   21.4177 H   0  0  0  0  0  0
  -28.4274  -13.8247   21.8005 H   0  0  0  0  0  0
  -25.2758   -9.5685   22.4767 H   0  0  0  0  0  0
  -23.9997   -7.4635   22.7475 H   0  0  0  0  0  0
  -21.0842   -8.8775   19.8955 H   0  0  0  0  0  0
  -22.3694  -10.9675   19.6173 H   0  0  0  0  0  0
  -21.2006   -7.6146   23.9709 H   0  0  0  0  0  0
  -21.1484   -6.0525   25.9073 H   0  0  0  0  0  0
  -22.0597   -2.7607   23.2851 H   0  0  0  0  0  0
  -22.4093  -11.9871   22.4803 H   0  0  0  0  0  0
  -21.1091  -13.1242   22.2642 H   0  0  0  0  0  0
  -24.6503  -15.8420   20.5166 H   0  0  0  0  0  0
  -26.2590  -15.6308   20.0540 H   0  0  0  0  0  0
  -26.7212  -32.5404   23.1078 H   0  0  0  0  0  0
  -25.0077  -33.9697   25.0392 H   0  0  0  0  0  0
  -22.7239  -31.3027   21.3998 H   0  0  0  0  0  0
  -23.3758  -35.9617   23.3301 H   0  0  0  0  0  0
  -24.3580  -36.8920   22.2056 H   0  0  0  0  0  0
  -23.7246  -37.6485   23.6673 H   0  0  0  0  0  0
  -26.1154  -31.5327   20.6146 H   0  0  0  0  0  0
  -26.8502  -30.8131   22.0156 H   0  0  0  0  0  0
  -28.1160  -28.9209   21.2133 H   0  0  0  0  0  0
  -25.9358  -25.9243   18.9766 H   0  0  0  0  0  0
  -23.9682  -27.3243   18.9884 H   0  0  0  0  0  0
  -23.7699  -30.5976   19.4046 H   0  0  0  0  0  0
  -22.7632  -29.2533   19.8516 H   0  0  0  0  0  0
  -25.1296  -36.1920   25.0819 H   0  0  0  0  0  0
  -20.9980  -28.3284   24.1389 H   0  0  0  0  0  0
  -20.5680  -26.2312   23.3610 H   0  0  0  0  0  0
  -21.6649  -26.7435   22.1194 H   0  0  0  0  0  0
  -19.6924  -25.6290   21.1248 H   0  0  0  0  0  0
  -19.6701  -27.3187   20.6736 H   0  0  0  0  0  0
  -17.4200  -26.6674   21.4024 H   0  0  0  0  0  0
  -18.0332  -26.0063   22.9016 H   0  0  0  0  0  0
  -19.7950  -30.7264   24.2253 H   0  0  0  0  0  0
  -17.5030  -31.6265   24.5163 H   0  0  0  0  0  0
  -15.5360  -30.2976   23.7666 H   0  0  0  0  0  0
  -15.8683  -28.0820   22.7060 H   0  0  0  0  0  0
  -24.5894  -30.7102   25.7769 H   0  0  0  0  0  0
  -24.8924  -32.2921   26.4865 H   0  0  0  0  0  0
  -25.8030  -30.8921   27.0234 H   0  0  0  0  0  0
  -26.2952  -29.6742   24.1252 H   0  0  0  0  0  0
  -27.4018  -29.7277   25.4772 H   0  0  0  0  0  0
  -27.8842  -30.4264   23.9507 H   0  0  0  0  0  0
  -27.2641  -33.3651   26.2065 H   0  0  0  0  0  0
  -28.3868  -32.6911   25.0346 H   0  0  0  0  0  0
  -28.0714  -31.8498   26.5447 H   0  0  0  0  0  0
  -28.2581  -38.0103   24.7505 H   0  0  0  0  0  0
  -28.1087  -36.2631   24.6287 H   0  0  0  0  0  0
  -27.2294  -37.1442   25.8863 H   0  0  0  0  0  0
  -20.9401  -29.8780   21.6870 H   0  0  0  0  0  0
  -26.0177  -38.2842   24.1409 H   0  0  0  0  0  0
  -32.2411  -17.2852   21.0476 H   0  0  0  0  0  0
  -32.5621  -21.1262   19.2536 H   0  0  0  0  0  0
  -33.5902  -21.9290   20.5487 H   0  0  0  0  0  0
  -34.7960  -19.7565   20.9345 H   0  0  0  0  0  0
  -33.7709  -18.9588   19.6353 H   0  0  0  0  0  0
  -31.8698  -20.9224   23.0367 H   0  0  0  0  0  0
  -33.6309  -20.9133   22.8856 H   0  0  0  0  0  0
  -32.7683  -19.4152   23.2627 H   0  0  0  0  0  0
  -28.5887  -22.0177   19.2493 H   0  0  0  0  0  0
  -27.8746  -21.9910   20.8447 H   0  0  0  0  0  0
  -27.0720  -24.6579   20.5119 H   0  0  0  0  0  0
  -27.8149  -24.7328   18.9299 H   0  0  0  0  0  0
  -28.8307  -15.6162   20.7522 H   0  0  0  0  0  0
  -30.7104  -21.8667   21.0548 H   0  0  0  0  0  0
  1 25  1  0  0  0
  1 30  2  0  0  0
  1 82  1  0  0  0
  2  3  1  0  0  0
  2 25  1  0  0  0
  2 86  1  0  0  0
  2 87  1  0  0  0
  3  4  1  0  0  0
  3 88  1  0  0  0
  3 89  1  0  0  0
  4  5  1  0  0  0
  4 90  1  0  0  0
  4 91  1  0  0  0
  5  6  1  0  0  0
  5 26  1  0  0  0
  5 92  1  0  0  0
  6 25  1  0  0  0
  6 93  1  0  0  0
  6 94  1  0  0  0
  7  8  2  0  0  0
  7 26  1  0  0  0
  7 29  1  0  0  0
  8  9  1  0  0  0
  8 22  1  0  0  0
  9 10  1  0  0  0
  9 27  2  0  0  0
 10 11  2  0  0  0
 10 15  1  0  0  0
 11 12  1  0  0  0
 11 95  1  0  0  0
 12 13  2  0  0  0
 12 96  1  0  0  0
 13 14  1  0  0  0
 13 31  1  0  0  0
 14 15  2  0  0  0
 14 97  1  0  0  0
 15 98  1  0  0  0
 16 17  2  0  0  0
 16 21  1  0  0  0
 16 31  1  0  0  0
 17 18  1  0  0  0
 17 99  1  0  0  0
 18 19  2  0  0  0
 18100  1  0  0  0
 19 20  1  0  0  0
 19 24  1  0  0  0
 20 21  2  0  0  0
 20101  1  0  0  0
 21 23  1  0  0  0
 22 28  1  0  0  0
 22 32  2  0  0  0
 26 27  1  0  0  0
 28102  1  0  0  0
 28103  1  0  0  0
 29104  1  0  0  0
 29105  1  0  0  0
 33 34  1  0  0  0
 33 66  1  0  0  0
 33 70  2  0  0  0
 34 36  1  0  0  0
 34 59  1  0  0  0
 34106  1  0  0  0
 35 44  2  0  0  0
 35 45  1  0  0  0
 35 68  1  0  0  0
 36 56  1  0  0  0
 36107  1  0  0  0
 37 39  1  0  0  0
 37 47  1  0  0  0
 37 66  1  0  0  0
 37108  1  0  0  0
 38 43  2  0  0  0
 38 46  1  0  0  0
 38 47  1  0  0  0
 39 64  1  0  0  0
 39 67  2  0  0  0
 40 52  1  0  0  0
 40 53  2  0  0  0
 40 58  1  0  0  0
 41109  1  0  0  0
 41110  1  0  0  0
 41111  1  0  0  0
 41 48  1  0  0  0
 42 43  1  0  0  0
 42 66  1  0  0  0
 42112  1  0  0  0
 42113  1  0  0  0
 43 44  1  0  0  0
 44114  1  0  0  0
 45 46  2  0  0  0
 45115  1  0  0  0
 46116  1  0  0  0
 47117  1  0  0  0
 47118  1  0  0  0
 48 56  1  0  0  0
 48 65  1  0  0  0
 48119  1  0  0  0
 49 50  1  0  0  0
 49 53  1  0  0  0
 49 64  1  0  0  0
 49120  1  0  0  0
 50 51  1  0  0  0
 50121  1  0  0  0
 50122  1  0  0  0
 51 52  1  0  0  0
 51123  1  0  0  0
 51124  1  0  0  0
 52125  1  0  0  0
 52126  1  0  0  0
 53 54  1  0  0  0
 54 55  2  0  0  0
 54127  1  0  0  0
 55 57  1  0  0  0
 55128  1  0  0  0
 56 69  2  0  0  0
 57 58  2  0  0  0
 57129  1  0  0  0
 58130  1  0  0  0
 59 60  1  0  0  0
 59 61  1  0  0  0
 59 62  1  0  0  0
 60131  1  0  0  0
 60132  1  0  0  0
 60133  1  0  0  0
 61134  1  0  0  0
 61135  1  0  0  0
 61136  1  0  0  0
 62137  1  0  0  0
 62138  1  0  0  0
 62139  1  0  0  0
 63 65  1  0  0  0
 63140  1  0  0  0
 63141  1  0  0  0
 63142  1  0  0  0
 64143  1  0  0  0
 65144  1  0  0  0
 68 81  1  0  0  0
 71 72  1  0  0  0
 71 73  2  0  0  0
 71145  1  0  0  0
 72 74  2  0  0  0
 72 78  1  0  0  0
 73 82  1  0  0  0
 73 85  1  0  0  0
 74 83  1  0  0  0
 74 85  1  0  0  0
 75 80  1  0  0  0
 75 81  1  0  0  0
 75 84  2  0  0  0
 76 77  1  0  0  0
 76 78  1  0  0  0
 76146  1  0  0  0
 76147  1  0  0  0
 77 78  1  0  0  0
 77148  1  0  0  0
 77149  1  0  0  0
 78 79  1  0  0  0
 79150  1  0  0  0
 79151  1  0  0  0
 79152  1  0  0  0
 80 83  1  0  0  0
 80153  1  0  0  0
 80154  1  0  0  0
 81155  1  0  0  0
 81156  1  0  0  0
 82157  1  0  0  0
 83158  1  0  0  0
M  ISO  4   1 100  68 101  81 101  82 100
M  END
> <chiral flag>
0

> <version>
0

> <s_m_source_file>
/data/baiqing/PycharmProjects/Reinvent-master-3.2/result/LINK_invent/BTK/process_docking_weight1_custom_product_contain_oxygen_bond_distance_aromatic_linkinvent_7_9_3/rearranged_h_0152.sdf

> <i_m_source_file_index>
86

> <r_mmod_Potential_Energy-OPLS-2005>
210.020629882812

> <r_mmod_Stretch_Energy-OPLS-2005>
107.126884460449

> <r_mmod_Bend_Energy-OPLS-2005>
180.37890625

> <r_mmod_Torsional_Energy-OPLS-2005>
237.746795654297

> <r_mmod_Improper_Torsional_Energy-OPLS-2005>
5.95496082305908

> <r_mmod_Van_der_Waal_Energy-OPLS-2005>
117.242683410645

> <r_mmod_Electrostatic_Energy-OPLS-2005>
-290.014678955078

> <r_mmod_Solvation_Energy-OPLS-2005>
-229.868316650391

> <b_mmod_Minimization_Converged-OPLS-2005>
0

> <r_mmod_RMS_Derivative-OPLS-2005>
1.08910441398621

$$$$
86
                    3D
 Structure written by MMmdl.
163172  0  0  1  0            999 V2000
  -30.7041  -14.4906   20.5443 C   0  0  0  0  0  0
  -30.4322  -12.3177   19.4266 C   0  0  0  0  0  0
  -29.4960  -12.5165   18.2159 C   0  0  0  0  0  0
  -28.0194  -12.3807   18.6314 C   0  0  0  0  0  0
  -27.6656  -13.2132   19.8930 C   0  0  2  0  0  0
  -28.7149  -13.0027   21.0126 C   0  0  0  0  0  0
  -25.2545  -13.8149   20.5646 C   0  0  0  0  0  0
  -24.1800  -13.0429   20.9148 C   0  0  0  0  0  0
  -24.6387  -11.6901   20.8735 C   0  0  0  0  0  0
  -23.9069  -10.4264   21.0377 C   0  0  0  0  0  0
  -24.3604   -9.4183   21.9170 C   0  0  0  0  0  0
  -23.6269   -8.2213   22.0732 C   0  0  0  0  0  0
  -22.4237   -8.0274   21.3521 C   0  0  0  0  0  0
  -21.9879   -9.0271   20.4634 C   0  0  0  0  0  0
  -22.7228  -10.2145   20.3034 C   0  0  0  0  0  0
  -21.6861   -6.0712   22.5234 C   0  0  0  0  0  0
  -21.4032   -6.5608   23.8179 C   0  0  0  0  0  0
  -21.3664   -5.6757   24.9138 C   0  0  0  0  0  0
  -21.6054   -4.3020   24.7189 C   0  0  0  0  0  0
  -21.8821   -3.8123   23.4306 C   0  0  0  0  0  0
  -21.9200   -4.6939   22.3372 C   0  0  0  0  0  0
  -22.7825  -13.5221   21.1836 C   0  0  0  0  0  0
  -22.1638   -4.2134   21.0949 F   0  0  0  0  0  0
  -21.5664   -3.4506   25.7709 F   0  0  0  0  0  0
  -30.0472  -13.3006   20.4542 N   0  0  0  0  0  0
  -26.3039  -12.9358   20.3487 N   0  0  0  0  0  0
  -25.9338  -11.6520   20.5829 N   0  0  0  0  0  0
  -22.0471  -12.8191   22.0385 N   0  0  0  0  0  0
  -25.4317  -15.1845   20.3992 N   0  0  0  0  0  0
  -31.8378  -14.6730   20.0906 O   0  0  0  0  0  0
  -21.6621   -6.8846   21.4195 O   0  0  0  0  0  0
  -22.3513  -14.5537   20.6726 O   0  0  0  0  0  0
  -24.6157  -31.8667   23.2122 C   0  0  0  0  0  0
  -25.9055  -32.4820   23.8394 C   0  0  1  0  0  0
  -27.2310  -27.3995   20.0944 C   0  0  0  0  0  0
  -25.5913  -33.8627   24.2311 N   0  0  0  0  0  0
  -23.4038  -30.4933   21.5531 C   0  0  2  0  0  0
  -24.8484  -28.9582   20.1170 C   0  0  0  0  0  0
  -22.7422  -29.4651   22.5001 C   0  0  0  0  0  0
  -18.0266  -28.1378   22.8482 C   0  0  0  0  0  0
  -24.1502  -36.7297   23.2641 C   0  0  0  0  0  0
  -25.9388  -30.8215   21.3737 C   0  0  0  0  0  0
  -26.0107  -29.4550   20.7164 C   0  0  0  0  0  0
  -27.1990  -28.6825   20.7004 C   0  0  0  0  0  0
  -26.0340  -26.9265   19.4986 C   0  0  0  0  0  0
  -24.8566  -27.6955   19.5107 C   0  0  0  0  0  0
  -23.6124  -29.8289   20.1669 C   0  0  0  0  0  0
  -25.4119  -36.3106   24.0330 C   0  0  1  0  0  0
  -20.5859  -28.3663   23.1323 C   0  0  2  0  0  0
  -20.6761  -26.9392   22.5432 C   0  0  0  0  0  0
  -19.5752  -26.6377   21.5211 C   0  0  0  0  0  0
  -18.1917  -26.7930   22.1593 C   0  0  0  0  0  0
  -19.1516  -28.8827   23.2892 C   0  0  0  0  0  0
  -18.9442  -30.1441   23.8890 C   0  0  0  0  0  0
  -17.6455  -30.6592   24.0546 C   0  0  0  0  0  0
  -25.9042  -34.9472   23.5110 C   0  0  0  0  0  0
  -16.5339  -29.9087   23.6327 C   0  0  0  0  0  0
  -16.7266  -28.6495   23.0350 C   0  0  0  0  0  0
  -26.4474  -31.6628   25.0744 C   0  0  0  0  0  0
  -25.3739  -31.3757   26.1496 C   0  0  0  0  0  0
  -27.0298  -30.3055   24.6164 C   0  0  0  0  0  0
  -27.6043  -32.4363   25.7496 C   0  0  0  0  0  0
  -27.5586  -37.1805   24.8456 C   0  0  0  0  0  0
  -21.4135  -29.3037   22.3738 N   0  0  0  0  0  0
  -26.4295  -37.3792   23.9404 N   0  0  0  0  0  0
  -24.6703  -31.0768   22.1023 N   0  0  0  0  0  0
  -23.4186  -28.8177   23.3028 O   0  0  0  0  0  0
  -28.4236  -26.6842   20.1248 O   0  0  0  0  0  0
  -26.5588  -34.8913   22.4663 O   0  0  0  0  0  0
  -23.5344  -32.1416   23.7518 O   0  0  0  0  0  0
  -30.5042  -17.9599   20.9443 C   0  0  0  0  0  0
  -29.6539  -19.2999   19.0786 C   0  0  0  0  0  0
  -29.2072  -16.9071   19.1583 C   0  0  0  0  0  0
  -30.3484  -19.2234   20.3039 C   0  0  0  0  0  0
  -29.9236  -16.7953   20.3717 C   0  0  0  0  0  0
  -29.0786  -18.1502   18.5120 C   0  0  0  0  0  0
  -30.9369  -20.4520   20.8601 C   0  0  0  0  0  0
  -30.3842  -24.0835   20.8632 C   0  0  0  0  0  0
  -28.3380  -22.8415   20.0855 C   0  0  0  0  0  0
  -30.7854  -22.8383   21.6936 C   0  0  0  0  0  0
  -28.7385  -21.6680   21.0021 C   0  0  0  0  0  0
  -28.8632  -24.2118   20.5870 C   0  0  0  0  0  0
  -28.5355  -25.3511   19.5667 C   0  0  0  0  0  0
  -30.2163  -21.5876   21.1196 N   0  0  0  0  0  0
  -29.9790  -15.5197   21.0210 N   0  0  0  0  0  0
  -32.2483  -20.4440   21.0780 N   0  3  0  0  0  0
  -28.3933  -18.2423   17.3473 F   0  0  0  0  0  0
  -28.2220  -24.4744   21.7284 F   0  0  0  0  0  0
  -31.4716  -12.4302   19.1109 H   0  0  0  0  0  0
  -30.3544  -11.3059   19.8255 H   0  0  0  0  0  0
  -29.7253  -11.7931   17.4345 H   0  0  0  0  0  0
  -29.6686  -13.5025   17.7786 H   0  0  0  0  0  0
  -27.8231  -11.3240   18.8225 H   0  0  0  0  0  0
  -27.3720  -12.6675   17.8021 H   0  0  0  0  0  0
  -27.7036  -14.2609   19.6045 H   0  0  0  0  0  0
  -28.6861  -11.9716   21.3686 H   0  0  0  0  0  0
  -28.4857  -13.6151   21.8868 H   0  0  0  0  0  0
  -25.2727   -9.5695   22.4779 H   0  0  0  0  0  0
  -24.0007   -7.4566   22.7435 H   0  0  0  0  0  0
  -21.0812   -8.8800   19.8903 H   0  0  0  0  0  0
  -22.3663  -10.9710   19.6155 H   0  0  0  0  0  0
  -21.2011   -7.6115   23.9673 H   0  0  0  0  0  0
  -21.1496   -6.0484   25.9042 H   0  0  0  0  0  0
  -22.0609   -2.7596   23.2800 H   0  0  0  0  0  0
  -22.4049  -11.9818   22.4742 H   0  0  0  0  0  0
  -21.1134  -13.1293   22.2679 H   0  0  0  0  0  0
  -24.6827  -15.8552   20.5197 H   0  0  0  0  0  0
  -26.2984  -15.6116   20.0987 H   0  0  0  0  0  0
  -26.7147  -32.5516   23.1173 H   0  0  0  0  0  0
  -25.0111  -33.9790   25.0493 H   0  0  0  0  0  0
  -22.6925  -31.3108   21.4181 H   0  0  0  0  0  0
  -23.3763  -35.9633   23.3321 H   0  0  0  0  0  0
  -24.3595  -36.8894   22.2050 H   0  0  0  0  0  0
  -23.7257  -37.6502   23.6659 H   0  0  0  0  0  0
  -26.0696  -31.5889   20.6103 H   0  0  0  0  0  0
  -26.8202  -30.8639   22.0026 H   0  0  0  0  0  0
  -28.0998  -29.0619   21.1631 H   0  0  0  0  0  0
  -25.9406  -25.9668   19.0228 H   0  0  0  0  0  0
  -23.9590  -27.3038   19.0548 H   0  0  0  0  0  0
  -23.7340  -30.6049   19.4100 H   0  0  0  0  0  0
  -22.7298  -29.2592   19.8671 H   0  0  0  0  0  0
  -25.1296  -36.1961   25.0818 H   0  0  0  0  0  0
  -20.9920  -28.3237   24.1455 H   0  0  0  0  0  0
  -20.5670  -26.2243   23.3605 H   0  0  0  0  0  0
  -21.6642  -26.7461   22.1232 H   0  0  0  0  0  0
  -19.6910  -25.6289   21.1242 H   0  0  0  0  0  0
  -19.6704  -27.3175   20.6727 H   0  0  0  0  0  0
  -17.4184  -26.6700   21.3989 H   0  0  0  0  0  0
  -18.0292  -26.0092   22.8996 H   0  0  0  0  0  0
  -19.7916  -30.7255   24.2270 H   0  0  0  0  0  0
  -17.5008  -31.6273   24.5147 H   0  0  0  0  0  0
  -15.5345  -30.2967   23.7677 H   0  0  0  0  0  0
  -15.8665  -28.0824   22.7067 H   0  0  0  0  0  0
  -24.5881  -30.7142   25.7833 H   0  0  0  0  0  0
  -24.8980  -32.2930   26.4968 H   0  0  0  0  0  0
  -25.8087  -30.8895   27.0239 H   0  0  0  0  0  0
  -26.2845  -29.6834   24.1191 H   0  0  0  0  0  0
  -27.4000  -29.7296   25.4657 H   0  0  0  0  0  0
  -27.8728  -30.4351   23.9371 H   0  0  0  0  0  0
  -27.2651  -33.3648   26.2109 H   0  0  0  0  0  0
  -28.3820  -32.6948   25.0300 H   0  0  0  0  0  0
  -28.0757  -31.8478   26.5383 H   0  0  0  0  0  0
  -28.2599  -38.0107   24.7506 H   0  0  0  0  0  0
  -28.1082  -36.2628   24.6273 H   0  0  0  0  0  0
  -27.2317  -37.1464   25.8867 H   0  0  0  0  0  0
  -20.9285  -29.8736   21.6955 H   0  0  0  0  0  0
  -26.0171  -38.2871   24.1397 H   0  0  0  0  0  0
  -31.0553  -17.8939   21.8704 H   0  0  0  0  0  0
  -29.5532  -20.2442   18.5651 H   0  0  0  0  0  0
  -28.7445  -16.0456   18.7029 H   0  0  0  0  0  0
  -30.9269  -24.0495   19.9178 H   0  0  0  0  0  0
  -30.7341  -24.9812   21.3736 H   0  0  0  0  0  0
  -27.2503  -22.8704   20.0044 H   0  0  0  0  0  0
  -28.7096  -22.6460   19.0772 H   0  0  0  0  0  0
  -30.4195  -22.9357   22.7177 H   0  0  0  0  0  0
  -31.8731  -22.8051   21.7731 H   0  0  0  0  0  0
  -28.2789  -20.7445   20.6534 H   0  0  0  0  0  0
  -28.3246  -21.8231   22.0022 H   0  0  0  0  0  0
  -27.6878  -25.0456   18.9675 H   0  0  0  0  0  0
  -29.3369  -25.3942   18.8285 H   0  0  0  0  0  0
  -29.1151  -15.2257   21.4496 H   0  0  0  0  0  0
  -32.7863  -19.6362   20.7966 H   0  0  0  0  0  0
  -32.7440  -21.2499   21.4197 H   0  0  0  0  0  0
  1 25  1  0  0  0
  1 30  2  0  0  0
  1 85  1  0  0  0
  2  3  1  0  0  0
  2 25  1  0  0  0
  2 89  1  0  0  0
  2 90  1  0  0  0
  3  4  1  0  0  0
  3 91  1  0  0  0
  3 92  1  0  0  0
  4  5  1  0  0  0
  4 93  1  0  0  0
  4 94  1  0  0  0
  5  6  1  0  0  0
  5 26  1  0  0  0
  5 95  1  0  0  0
  6 25  1  0  0  0
  6 96  1  0  0  0
  6 97  1  0  0  0
  7  8  2  0  0  0
  7 26  1  0  0  0
  7 29  1  0  0  0
  8  9  1  0  0  0
  8 22  1  0  0  0
  9 10  1  0  0  0
  9 27  2  0  0  0
 10 11  2  0  0  0
 10 15  1  0  0  0
 11 12  1  0  0  0
 11 98  1  0  0  0
 12 13  2  0  0  0
 12 99  1  0  0  0
 13 14  1  0  0  0
 13 31  1  0  0  0
 14 15  2  0  0  0
 14100  1  0  0  0
 15101  1  0  0  0
 16 17  2  0  0  0
 16 21  1  0  0  0
 16 31  1  0  0  0
 17 18  1  0  0  0
 17102  1  0  0  0
 18 19  2  0  0  0
 18103  1  0  0  0
 19 20  1  0  0  0
 19 24  1  0  0  0
 20 21  2  0  0  0
 20104  1  0  0  0
 21 23  1  0  0  0
 22 28  1  0  0  0
 22 32  2  0  0  0
 26 27  1  0  0  0
 28105  1  0  0  0
 28106  1  0  0  0
 29107  1  0  0  0
 29108  1  0  0  0
 33 34  1  0  0  0
 33 66  1  0  0  0
 33 70  2  0  0  0
 34 36  1  0  0  0
 34 59  1  0  0  0
 34109  1  0  0  0
 35 44  2  0  0  0
 35 45  1  0  0  0
 35 68  1  0  0  0
 36 56  1  0  0  0
 36110  1  0  0  0
 37 39  1  0  0  0
 37 47  1  0  0  0
 37 66  1  0  0  0
 37111  1  0  0  0
 38 43  2  0  0  0
 38 46  1  0  0  0
 38 47  1  0  0  0
 39 64  1  0  0  0
 39 67  2  0  0  0
 40 52  1  0  0  0
 40 53  2  0  0  0
 40 58  1  0  0  0
 41112  1  0  0  0
 41113  1  0  0  0
 41114  1  0  0  0
 41 48  1  0  0  0
 42 43  1  0  0  0
 42 66  1  0  0  0
 42115  1  0  0  0
 42116  1  0  0  0
 43 44  1  0  0  0
 44117  1  0  0  0
 45 46  2  0  0  0
 45118  1  0  0  0
 46119  1  0  0  0
 47120  1  0  0  0
 47121  1  0  0  0
 48 56  1  0  0  0
 48 65  1  0  0  0
 48122  1  0  0  0
 49 50  1  0  0  0
 49 53  1  0  0  0
 49 64  1  0  0  0
 49123  1  0  0  0
 50 51  1  0  0  0
 50124  1  0  0  0
 50125  1  0  0  0
 51 52  1  0  0  0
 51126  1  0  0  0
 51127  1  0  0  0
 52128  1  0  0  0
 52129  1  0  0  0
 53 54  1  0  0  0
 54 55  2  0  0  0
 54130  1  0  0  0
 55 57  1  0  0  0
 55131  1  0  0  0
 56 69  2  0  0  0
 57 58  2  0  0  0
 57132  1  0  0  0
 58133  1  0  0  0
 59 60  1  0  0  0
 59 61  1  0  0  0
 59 62  1  0  0  0
 60134  1  0  0  0
 60135  1  0  0  0
 60136  1  0  0  0
 61137  1  0  0  0
 61138  1  0  0  0
 61139  1  0  0  0
 62140  1  0  0  0
 62141  1  0  0  0
 62142  1  0  0  0
 63 65  1  0  0  0
 63143  1  0  0  0
 63144  1  0  0  0
 63145  1  0  0  0
 64146  1  0  0  0
 65147  1  0  0  0
 68 83  1  0  0  0
 71 74  2  0  0  0
 71 75  1  0  0  0
 71148  1  0  0  0
 72 74  1  0  0  0
 72 76  2  0  0  0
 72149  1  0  0  0
 73 75  2  0  0  0
 73 76  1  0  0  0
 73150  1  0  0  0
 74 77  1  0  0  0
 75 85  1  0  0  0
 76 87  1  0  0  0
 77 84  1  0  0  0
 77 86  2  0  0  0
 78 80  1  0  0  0
 78 82  1  0  0  0
 78151  1  0  0  0
 78152  1  0  0  0
 79 81  1  0  0  0
 79 82  1  0  0  0
 79153  1  0  0  0
 79154  1  0  0  0
 80 84  1  0  0  0
 80155  1  0  0  0
 80156  1  0  0  0
 81 84  1  0  0  0
 81157  1  0  0  0
 81158  1  0  0  0
 82 83  1  0  0  0
 82 88  1  0  0  0
 83159  1  0  0  0
 83160  1  0  0  0
 85161  1  0  0  0
 86162  1  0  0  0
 86163  1  0  0  0
M  CHG  1  86   1
M  ISO  4   1 100  68 101  83 101  85 100
M  END
> <chiral flag>
0

> <version>
0

> <s_m_source_file>
/data/baiqing/PycharmProjects/Reinvent-master-3.2/result/LINK_invent/BTK/process_docking_weight1_custom_product_contain_oxygen_bond_distance_aromatic_linkinvent_7_9_3/rearranged_h_0152.sdf

> <i_m_source_file_index>
87

> <r_mmod_Potential_Energy-OPLS-2005>
-206.562240600586

> <r_mmod_Stretch_Energy-OPLS-2005>
46.2418518066406

> <r_mmod_Bend_Energy-OPLS-2005>
118.580177307129

> <r_mmod_Torsional_Energy-OPLS-2005>
288.369476318359

> <r_mmod_Improper_Torsional_Energy-OPLS-2005>
6.86121368408203

> <r_mmod_Van_der_Waal_Energy-OPLS-2005>
163.72444152832

> <r_mmod_Electrostatic_Energy-OPLS-2005>
-429.608459472656

> <r_mmod_Solvation_Energy-OPLS-2005>
-417.21875

> <b_mmod_Minimization_Converged-OPLS-2005>
0

> <r_mmod_RMS_Derivative-OPLS-2005>
4.72809410095215

$$$$
87
                    3D
 Structure written by MMmdl.
163172  0  0  1  0            999 V2000
  -30.6577  -14.5493   20.5335 C   0  0  0  0  0  0
  -30.4334  -12.3410   19.4358 C   0  0  0  0  0  0
  -29.5015  -12.4978   18.2151 C   0  0  0  0  0  0
  -28.0232  -12.3511   18.6269 C   0  0  0  0  0  0
  -27.6600  -13.2067   19.8703 C   0  0  2  0  0  0
  -28.7031  -13.0172   20.9951 C   0  0  0  0  0  0
  -25.2591  -13.8154   20.5680 C   0  0  0  0  0  0
  -24.1841  -13.0438   20.9195 C   0  0  0  0  0  0
  -24.6392  -11.6904   20.8746 C   0  0  0  0  0  0
  -23.9055  -10.4289   21.0397 C   0  0  0  0  0  0
  -24.3615   -9.4205   21.9168 C   0  0  0  0  0  0
  -23.6297   -8.2244   22.0743 C   0  0  0  0  0  0
  -22.4279   -8.0281   21.3540 C   0  0  0  0  0  0
  -21.9910   -9.0247   20.4639 C   0  0  0  0  0  0
  -22.7231  -10.2125   20.3043 C   0  0  0  0  0  0
  -21.6849   -6.0734   22.5277 C   0  0  0  0  0  0
  -21.4015   -6.5637   23.8212 C   0  0  0  0  0  0
  -21.3664   -5.6786   24.9170 C   0  0  0  0  0  0
  -21.6045   -4.3050   24.7220 C   0  0  0  0  0  0
  -21.8824   -3.8143   23.4344 C   0  0  0  0  0  0
  -21.9198   -4.6961   22.3400 C   0  0  0  0  0  0
  -22.7864  -13.5240   21.1850 C   0  0  0  0  0  0
  -22.1658   -4.2149   21.0974 F   0  0  0  0  0  0
  -21.5632   -3.4535   25.7736 F   0  0  0  0  0  0
  -30.0279  -13.3416   20.4395 N   0  0  0  0  0  0
  -26.3018  -12.9319   20.3347 N   0  0  0  0  0  0
  -25.9318  -11.6488   20.5768 N   0  0  0  0  0  0
  -22.0500  -12.8236   22.0403 N   0  0  0  0  0  0
  -25.4332  -15.1873   20.4079 N   0  0  0  0  0  0
  -31.8057  -14.7173   20.1112 O   0  0  0  0  0  0
  -21.6644   -6.8878   21.4240 O   0  0  0  0  0  0
  -22.3553  -14.5545   20.6693 O   0  0  0  0  0  0
  -24.6192  -31.8649   23.2081 C   0  0  0  0  0  0
  -25.9066  -32.4812   23.8388 C   0  0  1  0  0  0
  -27.2286  -27.3805   20.1040 C   0  0  0  0  0  0
  -25.5902  -33.8613   24.2324 N   0  0  0  0  0  0
  -23.4089  -30.4915   21.5490 C   0  0  2  0  0  0
  -24.8531  -28.9522   20.1146 C   0  0  0  0  0  0
  -22.7429  -29.4658   22.4952 C   0  0  0  0  0  0
  -18.0276  -28.1378   22.8488 C   0  0  0  0  0  0
  -24.1482  -36.7307   23.2640 C   0  0  0  0  0  0
  -25.9436  -30.8154   21.3676 C   0  0  0  0  0  0
  -26.0181  -29.4465   20.7135 C   0  0  0  0  0  0
  -27.2063  -28.6702   20.7023 C   0  0  0  0  0  0
  -26.0352  -26.9157   19.4991 C   0  0  0  0  0  0
  -24.8599  -27.6891   19.5037 C   0  0  0  0  0  0
  -23.6201  -29.8284   20.1628 C   0  0  0  0  0  0
  -25.4104  -36.3109   24.0341 C   0  0  1  0  0  0
  -20.5875  -28.3679   23.1294 C   0  0  2  0  0  0
  -20.6773  -26.9409   22.5410 C   0  0  0  0  0  0
  -19.5752  -26.6385   21.5208 C   0  0  0  0  0  0
  -18.1928  -26.7924   22.1615 C   0  0  0  0  0  0
  -19.1528  -28.8840   23.2892 C   0  0  0  0  0  0
  -18.9454  -30.1441   23.8914 C   0  0  0  0  0  0
  -17.6458  -30.6585   24.0563 C   0  0  0  0  0  0
  -25.9031  -34.9471   23.5130 C   0  0  0  0  0  0
  -16.5347  -29.9088   23.6325 C   0  0  0  0  0  0
  -16.7264  -28.6500   23.0353 C   0  0  0  0  0  0
  -26.4484  -31.6594   25.0724 C   0  0  0  0  0  0
  -25.3754  -31.3699   26.1476 C   0  0  0  0  0  0
  -27.0311  -30.3032   24.6113 C   0  0  0  0  0  0
  -27.6055  -32.4317   25.7483 C   0  0  0  0  0  0
  -27.5580  -37.1808   24.8468 C   0  0  0  0  0  0
  -21.4147  -29.3045   22.3693 N   0  0  0  0  0  0
  -26.4292  -37.3796   23.9413 N   0  0  0  0  0  0
  -24.6764  -31.0723   22.0996 N   0  0  0  0  0  0
  -23.4178  -28.8190   23.3004 O   0  0  0  0  0  0
  -28.3923  -26.6155   20.1337 O   0  0  0  0  0  0
  -26.5599  -34.8925   22.4694 O   0  0  0  0  0  0
  -23.5370  -32.1415   23.7448 O   0  0  0  0  0  0
  -31.2382  -19.0928   20.3725 C   0  0  0  0  0  0
  -28.8747  -19.2199   20.8521 C   0  0  0  0  0  0
  -31.2080  -17.6829   20.5192 C   0  0  0  0  0  0
  -28.8427  -17.8073   21.0005 C   0  0  0  0  0  0
  -30.0767  -19.8905   20.5288 C   0  0  0  0  0  0
  -30.0009  -17.0058   20.8261 C   0  0  0  0  0  0
  -29.4644  -21.9340   19.0384 C   0  0  0  0  0  0
  -29.6199  -22.3250   21.4522 C   0  0  0  0  0  0
  -29.9046  -23.3849   18.7119 C   0  0  0  0  0  0
  -30.0114  -23.8231   21.2424 C   0  0  0  0  0  0
  -30.1541  -21.4276   20.3157 C   0  0  1  0  0  0
  -29.7200  -24.4682   19.8371 C   0  0  2  0  0  0
  -28.3299  -25.2069   19.7533 C   0  0  0  0  0  0
  -29.8789  -15.5709   20.9785 N   0  0  0  0  0  0
  -30.7297  -25.5277   19.5952 N   0  3  0  0  0  0
  -31.4743  -12.4569   19.1288 H   0  0  0  0  0  0
  -30.3524  -11.3361   19.8530 H   0  0  0  0  0  0
  -29.7515  -11.7538   17.4574 H   0  0  0  0  0  0
  -29.6601  -13.4717   17.7509 H   0  0  0  0  0  0
  -27.8435  -11.2953   18.8383 H   0  0  0  0  0  0
  -27.3702  -12.6043   17.7909 H   0  0  0  0  0  0
  -27.6925  -14.2498   19.5549 H   0  0  0  0  0  0
  -28.6954  -11.9857   21.3498 H   0  0  0  0  0  0
  -28.4566  -13.6275   21.8655 H   0  0  0  0  0  0
  -25.2754   -9.5694   22.4741 H   0  0  0  0  0  0
  -24.0010   -7.4643   22.7461 H   0  0  0  0  0  0
  -21.0839   -8.8759   19.8952 H   0  0  0  0  0  0
  -22.3674  -10.9665   19.6163 H   0  0  0  0  0  0
  -21.1997   -7.6141   23.9716 H   0  0  0  0  0  0
  -21.1481   -6.0511   25.9074 H   0  0  0  0  0  0
  -22.0601   -2.7608   23.2840 H   0  0  0  0  0  0
  -22.4109  -11.9899   22.4811 H   0  0  0  0  0  0
  -21.1111  -13.1257   22.2592 H   0  0  0  0  0  0
  -24.6694  -15.8460   20.5164 H   0  0  0  0  0  0
  -26.2779  -15.6192   20.0552 H   0  0  0  0  0  0
  -26.7128  -32.5508   23.1137 H   0  0  0  0  0  0
  -25.0077  -33.9779   25.0485 H   0  0  0  0  0  0
  -22.7007  -31.3115   21.4108 H   0  0  0  0  0  0
  -23.3751  -35.9633   23.3305 H   0  0  0  0  0  0
  -24.3583  -36.8916   22.2055 H   0  0  0  0  0  0
  -23.7220  -37.6506   23.6650 H   0  0  0  0  0  0
  -26.0639  -31.5792   20.5979 H   0  0  0  0  0  0
  -26.8284  -30.8680   21.9898 H   0  0  0  0  0  0
  -28.1028  -29.0490   21.1735 H   0  0  0  0  0  0
  -25.9747  -25.9512   19.0200 H   0  0  0  0  0  0
  -23.9631  -27.3048   19.0371 H   0  0  0  0  0  0
  -23.7378  -30.6081   19.4089 H   0  0  0  0  0  0
  -22.7398  -29.2594   19.8587 H   0  0  0  0  0  0
  -25.1280  -36.1978   25.0838 H   0  0  0  0  0  0
  -20.9980  -28.3255   24.1408 H   0  0  0  0  0  0
  -20.5685  -26.2287   23.3604 H   0  0  0  0  0  0
  -21.6644  -26.7453   22.1198 H   0  0  0  0  0  0
  -19.6924  -25.6300   21.1230 H   0  0  0  0  0  0
  -19.6698  -27.3203   20.6747 H   0  0  0  0  0  0
  -17.4206  -26.6675   21.4012 H   0  0  0  0  0  0
  -18.0326  -26.0054   22.9002 H   0  0  0  0  0  0
  -19.7935  -30.7244   24.2300 H   0  0  0  0  0  0
  -17.5018  -31.6273   24.5150 H   0  0  0  0  0  0
  -15.5351  -30.3001   23.7637 H   0  0  0  0  0  0
  -15.8660  -28.0820   22.7073 H   0  0  0  0  0  0
  -24.5934  -30.7035   25.7822 H   0  0  0  0  0  0
  -24.8945  -32.2853   26.4935 H   0  0  0  0  0  0
  -25.8119  -30.8871   27.0230 H   0  0  0  0  0  0
  -26.2855  -29.6790   24.1176 H   0  0  0  0  0  0
  -27.4083  -29.7270   25.4570 H   0  0  0  0  0  0
  -27.8693  -30.4342   23.9267 H   0  0  0  0  0  0
  -27.2674  -33.3607   26.2087 H   0  0  0  0  0  0
  -28.3850  -32.6895   25.0302 H   0  0  0  0  0  0
  -28.0743  -31.8432   26.5378 H   0  0  0  0  0  0
  -28.2605  -38.0099   24.7513 H   0  0  0  0  0  0
  -28.1066  -36.2632   24.6294 H   0  0  0  0  0  0
  -27.2302  -37.1460   25.8873 H   0  0  0  0  0  0
  -20.9304  -29.8770   21.6922 H   0  0  0  0  0  0
  -26.0180  -38.2873   24.1426 H   0  0  0  0  0  0
  -32.1797  -19.5634   20.1271 H   0  0  0  0  0  0
  -27.9642  -19.7883   20.9794 H   0  0  0  0  0  0
  -32.1322  -17.1391   20.3887 H   0  0  0  0  0  0
  -27.8975  -17.3411   21.2422 H   0  0  0  0  0  0
  -29.7351  -21.2897   18.2007 H   0  0  0  0  0  0
  -28.3798  -21.8688   19.1355 H   0  0  0  0  0  0
  -28.5373  -22.2228   21.5383 H   0  0  0  0  0  0
  -30.0303  -21.9851   22.4044 H   0  0  0  0  0  0
  -29.4194  -23.7047   17.7883 H   0  0  0  0  0  0
  -30.9631  -23.3211   18.4544 H   0  0  0  0  0  0
  -31.0845  -23.8753   21.4362 H   0  0  0  0  0  0
  -29.5590  -24.4298   22.0291 H   0  0  0  0  0  0
  -31.2195  -21.6458   20.2184 H   0  0  0  0  0  0
  -27.5848  -24.6764   20.3486 H   0  0  0  0  0  0
  -27.9887  -25.1685   18.7182 H   0  0  0  0  0  0
  -28.9782  -15.2555   21.3035 H   0  0  0  0  0  0
  -31.6721  -25.1921   19.6921 H   0  0  0  0  0  0
  -30.5863  -26.2818   20.2476 H   0  0  0  0  0  0
  -30.6260  -25.9181   18.6738 H   0  0  0  0  0  0
  1 25  1  0  0  0
  1 30  2  0  0  0
  1 84  1  0  0  0
  2  3  1  0  0  0
  2 25  1  0  0  0
  2 86  1  0  0  0
  2 87  1  0  0  0
  3  4  1  0  0  0
  3 88  1  0  0  0
  3 89  1  0  0  0
  4  5  1  0  0  0
  4 90  1  0  0  0
  4 91  1  0  0  0
  5  6  1  0  0  0
  5 26  1  0  0  0
  5 92  1  0  0  0
  6 25  1  0  0  0
  6 93  1  0  0  0
  6 94  1  0  0  0
  7  8  2  0  0  0
  7 26  1  0  0  0
  7 29  1  0  0  0
  8  9  1  0  0  0
  8 22  1  0  0  0
  9 10  1  0  0  0
  9 27  2  0  0  0
 10 11  2  0  0  0
 10 15  1  0  0  0
 11 12  1  0  0  0
 11 95  1  0  0  0
 12 13  2  0  0  0
 12 96  1  0  0  0
 13 14  1  0  0  0
 13 31  1  0  0  0
 14 15  2  0  0  0
 14 97  1  0  0  0
 15 98  1  0  0  0
 16 17  2  0  0  0
 16 21  1  0  0  0
 16 31  1  0  0  0
 17 18  1  0  0  0
 17 99  1  0  0  0
 18 19  2  0  0  0
 18100  1  0  0  0
 19 20  1  0  0  0
 19 24  1  0  0  0
 20 21  2  0  0  0
 20101  1  0  0  0
 21 23  1  0  0  0
 22 28  1  0  0  0
 22 32  2  0  0  0
 26 27  1  0  0  0
 28102  1  0  0  0
 28103  1  0  0  0
 29104  1  0  0  0
 29105  1  0  0  0
 33 34  1  0  0  0
 33 66  1  0  0  0
 33 70  2  0  0  0
 34 36  1  0  0  0
 34 59  1  0  0  0
 34106  1  0  0  0
 35 44  2  0  0  0
 35 45  1  0  0  0
 35 68  1  0  0  0
 36 56  1  0  0  0
 36107  1  0  0  0
 37 39  1  0  0  0
 37 47  1  0  0  0
 37 66  1  0  0  0
 37108  1  0  0  0
 38 43  2  0  0  0
 38 46  1  0  0  0
 38 47  1  0  0  0
 39 64  1  0  0  0
 39 67  2  0  0  0
 40 52  1  0  0  0
 40 53  2  0  0  0
 40 58  1  0  0  0
 41109  1  0  0  0
 41110  1  0  0  0
 41111  1  0  0  0
 41 48  1  0  0  0
 42 43  1  0  0  0
 42 66  1  0  0  0
 42112  1  0  0  0
 42113  1  0  0  0
 43 44  1  0  0  0
 44114  1  0  0  0
 45 46  2  0  0  0
 45115  1  0  0  0
 46116  1  0  0  0
 47117  1  0  0  0
 47118  1  0  0  0
 48 56  1  0  0  0
 48 65  1  0  0  0
 48119  1  0  0  0
 49 50  1  0  0  0
 49 53  1  0  0  0
 49 64  1  0  0  0
 49120  1  0  0  0
 50 51  1  0  0  0
 50121  1  0  0  0
 50122  1  0  0  0
 51 52  1  0  0  0
 51123  1  0  0  0
 51124  1  0  0  0
 52125  1  0  0  0
 52126  1  0  0  0
 53 54  1  0  0  0
 54 55  2  0  0  0
 54127  1  0  0  0
 55 57  1  0  0  0
 55128  1  0  0  0
 56 69  2  0  0  0
 57 58  2  0  0  0
 57129  1  0  0  0
 58130  1  0  0  0
 59 60  1  0  0  0
 59 61  1  0  0  0
 59 62  1  0  0  0
 60131  1  0  0  0
 60132  1  0  0  0
 60133  1  0  0  0
 61134  1  0  0  0
 61135  1  0  0  0
 61136  1  0  0  0
 62137  1  0  0  0
 62138  1  0  0  0
 62139  1  0  0  0
 63 65  1  0  0  0
 63140  1  0  0  0
 63141  1  0  0  0
 63142  1  0  0  0
 64143  1  0  0  0
 65144  1  0  0  0
 68 83  1  0  0  0
 71 73  2  0  0  0
 71 75  1  0  0  0
 71145  1  0  0  0
 72 74  1  0  0  0
 72 75  2  0  0  0
 72146  1  0  0  0
 73 76  1  0  0  0
 73147  1  0  0  0
 74 76  2  0  0  0
 74148  1  0  0  0
 75 81  1  0  0  0
 76 84  1  0  0  0
 77 79  1  0  0  0
 77 81  1  0  0  0
 77149  1  0  0  0
 77150  1  0  0  0
 78 80  1  0  0  0
 78 81  1  0  0  0
 78151  1  0  0  0
 78152  1  0  0  0
 79 82  1  0  0  0
 79153  1  0  0  0
 79154  1  0  0  0
 80 82  1  0  0  0
 80155  1  0  0  0
 80156  1  0  0  0
 81157  1  0  0  0
 82 83  1  0  0  0
 82 85  1  0  0  0
 83158  1  0  0  0
 83159  1  0  0  0
 84160  1  0  0  0
 85161  1  0  0  0
 85162  1  0  0  0
 85163  1  0  0  0
M  CHG  1  85   1
M  ISO  4   1 100  68 101  83 101  84 100
M  END
> <chiral flag>
0

> <version>
0

> <s_m_source_file>
/data/baiqing/PycharmProjects/Reinvent-master-3.2/result/LINK_invent/BTK/process_docking_weight1_custom_product_contain_oxygen_bond_distance_aromatic_linkinvent_7_9_3/rearranged_h_0152.sdf

> <i_m_source_file_index>
88

> <r_mmod_Potential_Energy-OPLS-2005>
-129.884552001953

> <r_mmod_Stretch_Energy-OPLS-2005>
56.3036155700684

> <r_mmod_Bend_Energy-OPLS-2005>
128.405853271484

> <r_mmod_Torsional_Energy-OPLS-2005>
259.625457763672

> <r_mmod_Improper_Torsional_Energy-OPLS-2005>
4.0118260383606

> <r_mmod_Van_der_Waal_Energy-OPLS-2005>
158.084930419922

> <r_mmod_Electrostatic_Energy-OPLS-2005>
-305.604248046875

> <r_mmod_Solvation_Energy-OPLS-2005>
-454.452545166016

> <b_mmod_Minimization_Converged-OPLS-2005>
0

> <r_mmod_RMS_Derivative-OPLS-2005>
1.55177688598633

$$$$
88
                    3D
 Structure written by MMmdl.
157166  0  0  1  0            999 V2000
  -30.6126  -14.9227   20.4144 C   0  0  0  0  0  0
  -30.4195  -12.5794   19.4876 C   0  0  0  0  0  0
  -29.5072  -12.5312   18.2438 C   0  0  0  0  0  0
  -28.0397  -12.3283   18.6639 C   0  0  0  0  0  0
  -27.6247  -13.2569   19.8370 C   0  0  2  0  0  0
  -28.6745  -13.3046   20.9661 C   0  0  0  0  0  0
  -25.2465  -13.8234   20.5776 C   0  0  0  0  0  0
  -24.1781  -13.0443   20.9246 C   0  0  0  0  0  0
  -24.6416  -11.6933   20.8769 C   0  0  0  0  0  0
  -23.9098  -10.4299   21.0404 C   0  0  0  0  0  0
  -24.3648   -9.4209   21.9188 C   0  0  0  0  0  0
  -23.6325   -8.2239   22.0746 C   0  0  0  0  0  0
  -22.4300   -8.0295   21.3539 C   0  0  0  0  0  0
  -21.9941   -9.0265   20.4633 C   0  0  0  0  0  0
  -22.7268  -10.2147   20.3050 C   0  0  0  0  0  0
  -21.6852   -6.0755   22.5285 C   0  0  0  0  0  0
  -21.4007   -6.5648   23.8220 C   0  0  0  0  0  0
  -21.3659   -5.6800   24.9179 C   0  0  0  0  0  0
  -21.6045   -4.3064   24.7217 C   0  0  0  0  0  0
  -21.8826   -3.8159   23.4340 C   0  0  0  0  0  0
  -21.9192   -4.6983   22.3404 C   0  0  0  0  0  0
  -22.7799  -13.5208   21.1885 C   0  0  0  0  0  0
  -22.1658   -4.2170   21.0981 F   0  0  0  0  0  0
  -21.5641   -3.4545   25.7719 F   0  0  0  0  0  0
  -29.9392  -13.7048   20.3409 N   0  0  0  0  0  0
  -26.2887  -12.9488   20.3301 N   0  0  0  0  0  0
  -25.9356  -11.6596   20.5771 N   0  0  0  0  0  0
  -22.0440  -12.8200   22.0431 N   0  0  0  0  0  0
  -25.4166  -15.1961   20.4277 N   0  0  0  0  0  0
  -31.8270  -14.8719   20.1871 O   0  0  0  0  0  0
  -21.6647   -6.8907   21.4250 O   0  0  0  0  0  0
  -22.3493  -14.5509   20.6715 O   0  0  0  0  0  0
  -24.6445  -31.8422   23.1891 C   0  0  0  0  0  0
  -25.9227  -32.4675   23.8279 C   0  0  1  0  0  0
  -27.2070  -27.1482   20.1145 C   0  0  0  0  0  0
  -25.5986  -33.8480   24.2193 N   0  0  0  0  0  0
  -23.4457  -30.4692   21.5343 C   0  0  2  0  0  0
  -24.8898  -28.9036   20.1001 C   0  0  0  0  0  0
  -22.7555  -29.4570   22.4844 C   0  0  0  0  0  0
  -18.0306  -28.1387   22.8483 C   0  0  0  0  0  0
  -24.1491  -36.7245   23.2640 C   0  0  0  0  0  0
  -26.0027  -30.7229   21.3821 C   0  0  0  0  0  0
  -26.0701  -29.3388   20.7134 C   0  0  0  0  0  0
  -27.2289  -28.4733   20.7101 C   0  0  0  0  0  0
  -25.9927  -26.8100   19.4908 C   0  0  0  0  0  0
  -24.8605  -27.6496   19.4768 C   0  0  0  0  0  0
  -23.6674  -29.8043   20.1509 C   0  0  0  0  0  0
  -25.4122  -36.3009   24.0304 C   0  0  1  0  0  0
  -20.5919  -28.3726   23.1213 C   0  0  2  0  0  0
  -20.6784  -26.9428   22.5389 C   0  0  0  0  0  0
  -19.5754  -26.6382   21.5200 C   0  0  0  0  0  0
  -18.1940  -26.7925   22.1619 C   0  0  0  0  0  0
  -19.1563  -28.8874   23.2844 C   0  0  0  0  0  0
  -18.9470  -30.1467   23.8876 C   0  0  0  0  0  0
  -17.6466  -30.6584   24.0561 C   0  0  0  0  0  0
  -25.9081  -34.9388   23.5053 C   0  0  0  0  0  0
  -16.5363  -29.9072   23.6334 C   0  0  0  0  0  0
  -16.7288  -28.6486   23.0365 C   0  0  0  0  0  0
  -26.4557  -31.6543   25.0729 C   0  0  0  0  0  0
  -25.3745  -31.3714   26.1424 C   0  0  0  0  0  0
  -27.0401  -30.2927   24.6299 C   0  0  0  0  0  0
  -27.6093  -32.4308   25.7515 C   0  0  0  0  0  0
  -27.5571  -37.1768   24.8456 C   0  0  0  0  0  0
  -21.4244  -29.3067   22.3596 N   0  0  0  0  0  0
  -26.4270  -37.3736   23.9422 N   0  0  0  0  0  0
  -24.7186  -31.0319   22.0908 N   0  0  0  0  0  0
  -23.4213  -28.8103   23.2972 O   0  0  0  0  0  0
  -28.2128  -26.1291   20.2723 O   0  0  0  0  0  0
  -26.5658  -34.8896   22.4624 O   0  0  0  0  0  0
  -23.5566  -32.1301   23.7122 O   0  0  0  0  0  0
  -28.8632  -22.3706   20.1055 C   0  0  0  0  0  0
  -26.7449  -21.6062   18.5896 C   0  0  0  0  0  0
  -28.0717  -23.4735   19.5088 C   0  0  0  0  0  0
  -27.0315  -22.9887   18.6724 C   0  0  0  0  0  0
  -28.5480  -20.9295   19.8995 C   0  0  0  0  0  0
  -28.5614  -18.3989   21.0880 C   0  0  0  0  0  0
  -29.9227  -18.6716   19.1532 C   0  0  0  0  0  0
  -29.2737  -16.9673   21.3956 C   0  0  0  0  0  0
  -30.6733  -17.2966   19.5180 C   0  0  0  0  0  0
  -29.3492  -19.5536   20.3251 C   0  0  0  0  0  0
  -27.4561  -20.6254   19.1717 N   0  0  0  0  0  0
  -29.9679  -16.2030   20.2947 N   0  0  0  0  0  0
  -26.3346  -23.8513   17.8133 N   0  0  0  0  0  0
  -28.3047  -24.9261   19.2896 N   0  0  0  0  0  0
  -31.4579  -12.6996   19.1755 H   0  0  0  0  0  0
  -30.3819  -11.6365   20.0355 H   0  0  0  0  0  0
  -29.8188  -11.7304   17.5725 H   0  0  0  0  0  0
  -29.6064  -13.4616   17.6826 H   0  0  0  0  0  0
  -27.9227  -11.2850   18.9573 H   0  0  0  0  0  0
  -27.3769  -12.4755   17.8094 H   0  0  0  0  0  0
  -27.5840  -14.2601   19.4114 H   0  0  0  0  0  0
  -28.7666  -12.3396   21.4662 H   0  0  0  0  0  0
  -28.3846  -14.0250   21.7305 H   0  0  0  0  0  0
  -25.2786   -9.5678   22.4787 H   0  0  0  0  0  0
  -24.0030   -7.4623   22.7459 H   0  0  0  0  0  0
  -21.0871   -8.8786   19.8945 H   0  0  0  0  0  0
  -22.3723  -10.9700   19.6169 H   0  0  0  0  0  0
  -21.1993   -7.6151   23.9740 H   0  0  0  0  0  0
  -21.1475   -6.0514   25.9086 H   0  0  0  0  0  0
  -22.0603   -2.7623   23.2828 H   0  0  0  0  0  0
  -22.4048  -11.9862   22.4830 H   0  0  0  0  0  0
  -21.1059  -13.1233   22.2619 H   0  0  0  0  0  0
  -24.6623  -15.8578   20.5771 H   0  0  0  0  0  0
  -26.2872  -15.6382   20.1611 H   0  0  0  0  0  0
  -26.7309  -32.5263   23.1024 H   0  0  0  0  0  0
  -25.0146  -33.9596   25.0348 H   0  0  0  0  0  0
  -22.7500  -31.2980   21.3828 H   0  0  0  0  0  0
  -23.3752  -35.9574   23.3260 H   0  0  0  0  0  0
  -24.3612  -36.8917   22.2072 H   0  0  0  0  0  0
  -23.7232  -37.6420   23.6707 H   0  0  0  0  0  0
  -26.1613  -31.4835   20.6153 H   0  0  0  0  0  0
  -26.8724  -30.7677   22.0249 H   0  0  0  0  0  0
  -28.1200  -28.7915   21.2317 H   0  0  0  0  0  0
  -25.8636  -25.8368   19.0674 H   0  0  0  0  0  0
  -23.9501  -27.2981   19.0107 H   0  0  0  0  0  0
  -23.8002  -30.5806   19.3965 H   0  0  0  0  0  0
  -22.7818  -29.2464   19.8418 H   0  0  0  0  0  0
  -25.1308  -36.1819   25.0792 H   0  0  0  0  0  0
  -21.0032  -28.3310   24.1323 H   0  0  0  0  0  0
  -20.5644  -26.2353   23.3621 H   0  0  0  0  0  0
  -21.6652  -26.7410   22.1203 H   0  0  0  0  0  0
  -19.6916  -25.6284   21.1254 H   0  0  0  0  0  0
  -19.6675  -27.3168   20.6718 H   0  0  0  0  0  0
  -17.4207  -26.6665   21.4034 H   0  0  0  0  0  0
  -18.0349  -26.0061   22.9014 H   0  0  0  0  0  0
  -19.7947  -30.7286   24.2238 H   0  0  0  0  0  0
  -17.5016  -31.6264   24.5166 H   0  0  0  0  0  0
  -15.5357  -30.2966   23.7665 H   0  0  0  0  0  0
  -15.8690  -28.0786   22.7109 H   0  0  0  0  0  0
  -24.5936  -30.7061   25.7733 H   0  0  0  0  0  0
  -24.8939  -32.2881   26.4838 H   0  0  0  0  0  0
  -25.8043  -30.8888   27.0203 H   0  0  0  0  0  0
  -26.2996  -29.6661   24.1313 H   0  0  0  0  0  0
  -27.4007  -29.7234   25.4874 H   0  0  0  0  0  0
  -27.8921  -30.4166   23.9610 H   0  0  0  0  0  0
  -27.2704  -33.3623   26.2056 H   0  0  0  0  0  0
  -28.3931  -32.6832   25.0367 H   0  0  0  0  0  0
  -28.0729  -31.8447   26.5453 H   0  0  0  0  0  0
  -28.2538  -38.0116   24.7557 H   0  0  0  0  0  0
  -28.1110  -36.2641   24.6198 H   0  0  0  0  0  0
  -27.2310  -37.1318   25.8862 H   0  0  0  0  0  0
  -20.9427  -29.8839   21.6830 H   0  0  0  0  0  0
  -26.0105  -38.2779   24.1466 H   0  0  0  0  0  0
  -29.7592  -22.6192   20.6538 H   0  0  0  0  0  0
  -25.9387  -21.2627   17.9559 H   0  0  0  0  0  0
  -28.1989  -18.8088   22.0310 H   0  0  0  0  0  0
  -27.6566  -18.1837   20.5172 H   0  0  0  0  0  0
  -29.1069  -18.4343   18.4682 H   0  0  0  0  0  0
  -30.6057  -19.2921   18.5715 H   0  0  0  0  0  0
  -28.5336  -16.3118   21.8529 H   0  0  0  0  0  0
  -30.0232  -17.1341   22.1712 H   0  0  0  0  0  0
  -31.5840  -17.5520   20.0657 H   0  0  0  0  0  0
  -31.0236  -16.8608   18.5809 H   0  0  0  0  0  0
  -30.1824  -19.8667   20.9538 H   0  0  0  0  0  0
  -26.0295  -23.3766   16.9674 H   0  0  0  0  0  0
  -25.4765  -24.1952   18.2319 H   0  0  0  0  0  0
  -27.6271  -25.1132   18.5437 H   0  0  0  0  0  0
  1 25  1  0  0  0
  1 30  2  0  0  0
  1 82  1  0  0  0
  2  3  1  0  0  0
  2 25  1  0  0  0
  2 85  1  0  0  0
  2 86  1  0  0  0
  3  4  1  0  0  0
  3 87  1  0  0  0
  3 88  1  0  0  0
  4  5  1  0  0  0
  4 89  1  0  0  0
  4 90  1  0  0  0
  5  6  1  0  0  0
  5 26  1  0  0  0
  5 91  1  0  0  0
  6 25  1  0  0  0
  6 92  1  0  0  0
  6 93  1  0  0  0
  7  8  2  0  0  0
  7 26  1  0  0  0
  7 29  1  0  0  0
  8  9  1  0  0  0
  8 22  1  0  0  0
  9 10  1  0  0  0
  9 27  2  0  0  0
 10 11  2  0  0  0
 10 15  1  0  0  0
 11 12  1  0  0  0
 11 94  1  0  0  0
 12 13  2  0  0  0
 12 95  1  0  0  0
 13 14  1  0  0  0
 13 31  1  0  0  0
 14 15  2  0  0  0
 14 96  1  0  0  0
 15 97  1  0  0  0
 16 17  2  0  0  0
 16 21  1  0  0  0
 16 31  1  0  0  0
 17 18  1  0  0  0
 17 98  1  0  0  0
 18 19  2  0  0  0
 18 99  1  0  0  0
 19 20  1  0  0  0
 19 24  1  0  0  0
 20 21  2  0  0  0
 20100  1  0  0  0
 21 23  1  0  0  0
 22 28  1  0  0  0
 22 32  2  0  0  0
 26 27  1  0  0  0
 28101  1  0  0  0
 28102  1  0  0  0
 29103  1  0  0  0
 29104  1  0  0  0
 33 34  1  0  0  0
 33 66  1  0  0  0
 33 70  2  0  0  0
 34 36  1  0  0  0
 34 59  1  0  0  0
 34105  1  0  0  0
 35 44  2  0  0  0
 35 45  1  0  0  0
 35 68  1  0  0  0
 36 56  1  0  0  0
 36106  1  0  0  0
 37 39  1  0  0  0
 37 47  1  0  0  0
 37 66  1  0  0  0
 37107  1  0  0  0
 38 43  2  0  0  0
 38 46  1  0  0  0
 38 47  1  0  0  0
 39 64  1  0  0  0
 39 67  2  0  0  0
 40 52  1  0  0  0
 40 53  2  0  0  0
 40 58  1  0  0  0
 41108  1  0  0  0
 41109  1  0  0  0
 41110  1  0  0  0
 41 48  1  0  0  0
 42 43  1  0  0  0
 42 66  1  0  0  0
 42111  1  0  0  0
 42112  1  0  0  0
 43 44  1  0  0  0
 44113  1  0  0  0
 45 46  2  0  0  0
 45114  1  0  0  0
 46115  1  0  0  0
 47116  1  0  0  0
 47117  1  0  0  0
 48 56  1  0  0  0
 48 65  1  0  0  0
 48118  1  0  0  0
 49 50  1  0  0  0
 49 53  1  0  0  0
 49 64  1  0  0  0
 49119  1  0  0  0
 50 51  1  0  0  0
 50120  1  0  0  0
 50121  1  0  0  0
 51 52  1  0  0  0
 51122  1  0  0  0
 51123  1  0  0  0
 52124  1  0  0  0
 52125  1  0  0  0
 53 54  1  0  0  0
 54 55  2  0  0  0
 54126  1  0  0  0
 55 57  1  0  0  0
 55127  1  0  0  0
 56 69  2  0  0  0
 57 58  2  0  0  0
 57128  1  0  0  0
 58129  1  0  0  0
 59 60  1  0  0  0
 59 61  1  0  0  0
 59 62  1  0  0  0
 60130  1  0  0  0
 60131  1  0  0  0
 60132  1  0  0  0
 61133  1  0  0  0
 61134  1  0  0  0
 61135  1  0  0  0
 62136  1  0  0  0
 62137  1  0  0  0
 62138  1  0  0  0
 63 65  1  0  0  0
 63139  1  0  0  0
 63140  1  0  0  0
 63141  1  0  0  0
 64142  1  0  0  0
 65143  1  0  0  0
 68 84  1  0  0  0
 71 73  2  0  0  0
 71 75  1  0  0  0
 71144  1  0  0  0
 72 74  2  0  0  0
 72 81  1  0  0  0
 72145  1  0  0  0
 73 74  1  0  0  0
 73 84  1  0  0  0
 74 83  1  0  0  0
 75 81  2  0  0  0
 75 80  1  0  0  0
 76 78  1  0  0  0
 76 80  1  0  0  0
 76146  1  0  0  0
 76147  1  0  0  0
 77 79  1  0  0  0
 77 80  1  0  0  0
 77148  1  0  0  0
 77149  1  0  0  0
 78 82  1  0  0  0
 78150  1  0  0  0
 78151  1  0  0  0
 79 82  1  0  0  0
 79152  1  0  0  0
 79153  1  0  0  0
 80154  1  0  0  0
 83155  1  0  0  0
 83156  1  0  0  0
 84157  1  0  0  0
M  ISO  4   1 100  68 101  82 100  84 101
M  END
> <chiral flag>
0

> <version>
0

> <s_m_source_file>
/data/baiqing/PycharmProjects/Reinvent-master-3.2/result/LINK_invent/BTK/process_docking_weight1_custom_product_contain_oxygen_bond_distance_aromatic_linkinvent_7_9_3/rearranged_h_0152.sdf

> <i_m_source_file_index>
89

> <r_mmod_Potential_Energy-OPLS-2005>
534.709106445312

> <r_mmod_Stretch_Energy-OPLS-2005>
217.677734375

> <r_mmod_Bend_Energy-OPLS-2005>
322.657379150391

> <r_mmod_Torsional_Energy-OPLS-2005>
323.069793701172

> <r_mmod_Improper_Torsional_Energy-OPLS-2005>
34.8139190673828

> <r_mmod_Van_der_Waal_Energy-OPLS-2005>
152.296081542969

> <r_mmod_Electrostatic_Energy-OPLS-2005>
-482.533874511719

> <r_mmod_Solvation_Energy-OPLS-2005>
-221.672698974609

> <b_mmod_Minimization_Converged-OPLS-2005>
0

> <r_mmod_RMS_Derivative-OPLS-2005>
2.45577478408813

$$$$
89
                    3D
 Structure written by MMmdl.
152161  0  0  1  0            999 V2000
  -30.6277  -14.7621   20.4947 C   0  0  0  0  0  0
  -30.4279  -12.4757   19.4792 C   0  0  0  0  0  0
  -29.5104  -12.5191   18.2369 C   0  0  0  0  0  0
  -28.0354  -12.3398   18.6437 C   0  0  0  0  0  0
  -27.6390  -13.2344   19.8474 C   0  0  2  0  0  0
  -28.6785  -13.1598   20.9826 C   0  0  0  0  0  0
  -25.2501  -13.8206   20.5688 C   0  0  0  0  0  0
  -24.1795  -13.0445   20.9194 C   0  0  0  0  0  0
  -24.6388  -11.6924   20.8732 C   0  0  0  0  0  0
  -23.9069  -10.4298   21.0403 C   0  0  0  0  0  0
  -24.3622   -9.4215   21.9181 C   0  0  0  0  0  0
  -23.6299   -8.2248   22.0755 C   0  0  0  0  0  0
  -22.4280   -8.0284   21.3547 C   0  0  0  0  0  0
  -21.9915   -9.0254   20.4647 C   0  0  0  0  0  0
  -22.7242  -10.2134   20.3053 C   0  0  0  0  0  0
  -21.6858   -6.0735   22.5276 C   0  0  0  0  0  0
  -21.4019   -6.5640   23.8209 C   0  0  0  0  0  0
  -21.3659   -5.6791   24.9171 C   0  0  0  0  0  0
  -21.6043   -4.3054   24.7221 C   0  0  0  0  0  0
  -21.8820   -3.8146   23.4343 C   0  0  0  0  0  0
  -21.9196   -4.6963   22.3400 C   0  0  0  0  0  0
  -22.7818  -13.5226   21.1858 C   0  0  0  0  0  0
  -22.1663   -4.2150   21.0976 F   0  0  0  0  0  0
  -21.5628   -3.4537   25.7732 F   0  0  0  0  0  0
  -29.9777  -13.5423   20.4121 N   0  0  0  0  0  0
  -26.2916  -12.9414   20.3245 N   0  0  0  0  0  0
  -25.9314  -11.6553   20.5717 N   0  0  0  0  0  0
  -22.0470  -12.8218   22.0420 N   0  0  0  0  0  0
  -25.4208  -15.1932   20.4136 N   0  0  0  0  0  0
  -31.7940  -14.8292   20.0911 O   0  0  0  0  0  0
  -21.6646   -6.8879   21.4238 O   0  0  0  0  0  0
  -22.3497  -14.5525   20.6699 O   0  0  0  0  0  0
  -24.6322  -31.8530   23.1960 C   0  0  0  0  0  0
  -25.9144  -32.4738   23.8310 C   0  0  1  0  0  0
  -27.2201  -27.2438   20.1238 C   0  0  0  0  0  0
  -25.5936  -33.8543   24.2236 N   0  0  0  0  0  0
  -23.4291  -30.4748   21.5402 C   0  0  2  0  0  0
  -24.8740  -28.9165   20.1090 C   0  0  0  0  0  0
  -22.7507  -29.4587   22.4907 C   0  0  0  0  0  0
  -18.0293  -28.1378   22.8485 C   0  0  0  0  0  0
  -24.1489  -36.7275   23.2643 C   0  0  0  0  0  0
  -25.9756  -30.7592   21.3780 C   0  0  0  0  0  0
  -26.0455  -29.3806   20.7185 C   0  0  0  0  0  0
  -27.2169  -28.5560   20.7141 C   0  0  0  0  0  0
  -26.0186  -26.8433   19.4972 C   0  0  0  0  0  0
  -24.8668  -27.6567   19.4899 C   0  0  0  0  0  0
  -23.6466  -29.8070   20.1565 C   0  0  0  0  0  0
  -25.4117  -36.3060   24.0325 C   0  0  1  0  0  0
  -20.5897  -28.3689   23.1265 C   0  0  2  0  0  0
  -20.6781  -26.9403   22.5407 C   0  0  0  0  0  0
  -19.5760  -26.6379   21.5209 C   0  0  0  0  0  0
  -18.1938  -26.7919   22.1623 C   0  0  0  0  0  0
  -19.1546  -28.8855   23.2868 C   0  0  0  0  0  0
  -18.9469  -30.1454   23.8888 C   0  0  0  0  0  0
  -17.6468  -30.6586   24.0557 C   0  0  0  0  0  0
  -25.9059  -34.9431   23.5085 C   0  0  0  0  0  0
  -16.5358  -29.9081   23.6330 C   0  0  0  0  0  0
  -16.7279  -28.6499   23.0351 C   0  0  0  0  0  0
  -26.4507  -31.6575   25.0714 C   0  0  0  0  0  0
  -25.3725  -31.3731   26.1432 C   0  0  0  0  0  0
  -27.0369  -30.2990   24.6226 C   0  0  0  0  0  0
  -27.6048  -32.4330   25.7493 C   0  0  0  0  0  0
  -27.5576  -37.1794   24.8467 C   0  0  0  0  0  0
  -21.4214  -29.3032   22.3655 N   0  0  0  0  0  0
  -26.4289  -37.3761   23.9408 N   0  0  0  0  0  0
  -24.6984  -31.0476   22.0943 N   0  0  0  0  0  0
  -23.4202  -28.8133   23.3014 O   0  0  0  0  0  0
  -28.3406  -26.3788   20.2015 O   0  0  0  0  0  0
  -26.5637  -34.8915   22.4657 O   0  0  0  0  0  0
  -23.5472  -32.1361   23.7253 O   0  0  0  0  0  0
  -29.5140  -18.5743   20.3750 C   0  0  0  0  0  0
  -28.7319  -18.6161   21.4872 C   0  0  0  0  0  0
  -28.9758  -20.9046   20.4234 C   0  0  0  0  0  0
  -30.1740  -17.2233   19.9135 C   0  0  0  0  0  0
  -28.4615  -17.3818   22.2933 C   0  0  0  0  0  0
  -29.5798  -16.3035   22.1336 C   0  0  0  0  0  0
  -28.4489  -23.6390   20.6101 C   0  0  0  0  0  0
  -28.4065  -24.9669   19.6656 C   0  0  0  0  0  0
  -29.6300  -19.8859   19.7771 N   0  0  0  0  0  0
  -29.9140  -15.9476   20.7296 N   0  0  0  0  0  0
  -28.9248  -22.3048   20.0384 N   0  0  0  0  0  0
  -28.1585  -20.2523   21.8604 S   0  0  0  0  0  0
  -30.3750  -11.4989   19.9625 H   0  0  0  0  0  0
  -31.4690  -12.5939   19.1747 H   0  0  0  0  0  0
  -29.7987  -11.7444   17.5247 H   0  0  0  0  0  0
  -29.6359  -13.4720   17.7199 H   0  0  0  0  0  0
  -27.8904  -11.2900   18.9008 H   0  0  0  0  0  0
  -27.3812  -12.5369   17.7935 H   0  0  0  0  0  0
  -27.6366  -14.2597   19.4765 H   0  0  0  0  0  0
  -28.7250  -12.1525   21.3995 H   0  0  0  0  0  0
  -28.3742  -13.8050   21.8017 H   0  0  0  0  0  0
  -25.2766   -9.5694   22.4756 H   0  0  0  0  0  0
  -24.0008   -7.4642   22.7477 H   0  0  0  0  0  0
  -21.0844   -8.8770   19.8955 H   0  0  0  0  0  0
  -22.3695  -10.9671   19.6161 H   0  0  0  0  0  0
  -21.2016   -7.6148   23.9711 H   0  0  0  0  0  0
  -21.1479   -6.0522   25.9073 H   0  0  0  0  0  0
  -22.0602   -2.7608   23.2840 H   0  0  0  0  0  0
  -22.4093  -11.9881   22.4803 H   0  0  0  0  0  0
  -21.1080  -13.1230   22.2619 H   0  0  0  0  0  0
  -24.6543  -15.8478   20.5259 H   0  0  0  0  0  0
  -26.2765  -15.6337   20.1008 H   0  0  0  0  0  0
  -26.7206  -32.5372   23.1043 H   0  0  0  0  0  0
  -25.0080  -33.9673   25.0382 H   0  0  0  0  0  0
  -22.7262  -31.2976   21.3937 H   0  0  0  0  0  0
  -23.3755  -35.9604   23.3302 H   0  0  0  0  0  0
  -24.3578  -36.8906   22.2058 H   0  0  0  0  0  0
  -23.7241  -37.6473   23.6675 H   0  0  0  0  0  0
  -26.1188  -31.5199   20.6096 H   0  0  0  0  0  0
  -26.8517  -30.8054   22.0132 H   0  0  0  0  0  0
  -28.1142  -28.9069   21.2041 H   0  0  0  0  0  0
  -25.9230  -25.8766   19.0304 H   0  0  0  0  0  0
  -23.9659  -27.2920   19.0158 H   0  0  0  0  0  0
  -23.7743  -30.5833   19.4007 H   0  0  0  0  0  0
  -22.7634  -29.2427   19.8507 H   0  0  0  0  0  0
  -25.1303  -36.1901   25.0818 H   0  0  0  0  0  0
  -20.9983  -28.3265   24.1386 H   0  0  0  0  0  0
  -20.5678  -26.2294   23.3611 H   0  0  0  0  0  0
  -21.6652  -26.7425   22.1209 H   0  0  0  0  0  0
  -19.6914  -25.6289   21.1244 H   0  0  0  0  0  0
  -19.6695  -27.3182   20.6730 H   0  0  0  0  0  0
  -17.4211  -26.6664   21.4025 H   0  0  0  0  0  0
  -18.0341  -26.0061   22.9016 H   0  0  0  0  0  0
  -19.7947  -30.7277   24.2255 H   0  0  0  0  0  0
  -17.5024  -31.6262   24.5165 H   0  0  0  0  0  0
  -15.5363  -30.2987   23.7659 H   0  0  0  0  0  0
  -15.8675  -28.0825   22.7067 H   0  0  0  0  0  0
  -24.5903  -30.7077   25.7757 H   0  0  0  0  0  0
  -24.8918  -32.2905   26.4839 H   0  0  0  0  0  0
  -25.8038  -30.8919   27.0220 H   0  0  0  0  0  0
  -26.2964  -29.6716   24.1251 H   0  0  0  0  0  0
  -27.4044  -29.7273   25.4758 H   0  0  0  0  0  0
  -27.8841  -30.4259   23.9483 H   0  0  0  0  0  0
  -27.2643  -33.3636   26.2044 H   0  0  0  0  0  0
  -28.3871  -32.6881   25.0333 H   0  0  0  0  0  0
  -28.0701  -31.8477   26.5434 H   0  0  0  0  0  0
  -28.2592  -38.0092   24.7509 H   0  0  0  0  0  0
  -28.1075  -36.2622   24.6300 H   0  0  0  0  0  0
  -27.2296  -37.1450   25.8871 H   0  0  0  0  0  0
  -20.9396  -29.8741   21.6850 H   0  0  0  0  0  0
  -26.0166  -38.2834   24.1406 H   0  0  0  0  0  0
  -31.2536  -17.3729   19.8623 H   0  0  0  0  0  0
  -29.8677  -17.0118   18.8885 H   0  0  0  0  0  0
  -28.3566  -17.6460   23.3463 H   0  0  0  0  0  0
  -27.5026  -16.9588   21.9906 H   0  0  0  0  0  0
  -30.4944  -16.6888   22.5879 H   0  0  0  0  0  0
  -29.3272  -15.4293   22.7300 H   0  0  0  0  0  0
  -27.4574  -23.4888   21.0393 H   0  0  0  0  0  0
  -29.0998  -23.8596   21.4570 H   0  0  0  0  0  0
  -27.6805  -24.8078   18.8719 H   0  0  0  0  0  0
  -29.3546  -24.9633   19.1278 H   0  0  0  0  0  0
  -29.4216  -22.4454   19.1643 H   0  0  0  0  0  0
  1 25  1  0  0  0
  1 30  2  0  0  0
  1 80  1  0  0  0
  2  3  1  0  0  0
  2 25  1  0  0  0
  2 83  1  0  0  0
  2 84  1  0  0  0
  3  4  1  0  0  0
  3 85  1  0  0  0
  3 86  1  0  0  0
  4  5  1  0  0  0
  4 87  1  0  0  0
  4 88  1  0  0  0
  5  6  1  0  0  0
  5 26  1  0  0  0
  5 89  1  0  0  0
  6 25  1  0  0  0
  6 90  1  0  0  0
  6 91  1  0  0  0
  7  8  2  0  0  0
  7 26  1  0  0  0
  7 29  1  0  0  0
  8  9  1  0  0  0
  8 22  1  0  0  0
  9 10  1  0  0  0
  9 27  2  0  0  0
 10 11  2  0  0  0
 10 15  1  0  0  0
 11 12  1  0  0  0
 11 92  1  0  0  0
 12 13  2  0  0  0
 12 93  1  0  0  0
 13 14  1  0  0  0
 13 31  1  0  0  0
 14 15  2  0  0  0
 14 94  1  0  0  0
 15 95  1  0  0  0
 16 17  2  0  0  0
 16 21  1  0  0  0
 16 31  1  0  0  0
 17 18  1  0  0  0
 17 96  1  0  0  0
 18 19  2  0  0  0
 18 97  1  0  0  0
 19 20  1  0  0  0
 19 24  1  0  0  0
 20 21  2  0  0  0
 20 98  1  0  0  0
 21 23  1  0  0  0
 22 28  1  0  0  0
 22 32  2  0  0  0
 26 27  1  0  0  0
 28 99  1  0  0  0
 28100  1  0  0  0
 29101  1  0  0  0
 29102  1  0  0  0
 33 34  1  0  0  0
 33 66  1  0  0  0
 33 70  2  0  0  0
 34 36  1  0  0  0
 34 59  1  0  0  0
 34103  1  0  0  0
 35 44  2  0  0  0
 35 45  1  0  0  0
 35 68  1  0  0  0
 36 56  1  0  0  0
 36104  1  0  0  0
 37 39  1  0  0  0
 37 47  1  0  0  0
 37 66  1  0  0  0
 37105  1  0  0  0
 38 43  2  0  0  0
 38 46  1  0  0  0
 38 47  1  0  0  0
 39 64  1  0  0  0
 39 67  2  0  0  0
 40 52  1  0  0  0
 40 53  2  0  0  0
 40 58  1  0  0  0
 41106  1  0  0  0
 41107  1  0  0  0
 41108  1  0  0  0
 41 48  1  0  0  0
 42 43  1  0  0  0
 42 66  1  0  0  0
 42109  1  0  0  0
 42110  1  0  0  0
 43 44  1  0  0  0
 44111  1  0  0  0
 45 46  2  0  0  0
 45112  1  0  0  0
 46113  1  0  0  0
 47114  1  0  0  0
 47115  1  0  0  0
 48 56  1  0  0  0
 48 65  1  0  0  0
 48116  1  0  0  0
 49 50  1  0  0  0
 49 53  1  0  0  0
 49 64  1  0  0  0
 49117  1  0  0  0
 50 51  1  0  0  0
 50118  1  0  0  0
 50119  1  0  0  0
 51 52  1  0  0  0
 51120  1  0  0  0
 51121  1  0  0  0
 52122  1  0  0  0
 52123  1  0  0  0
 53 54  1  0  0  0
 54 55  2  0  0  0
 54124  1  0  0  0
 55 57  1  0  0  0
 55125  1  0  0  0
 56 69  2  0  0  0
 57 58  2  0  0  0
 57126  1  0  0  0
 58127  1  0  0  0
 59 60  1  0  0  0
 59 61  1  0  0  0
 59 62  1  0  0  0
 60128  1  0  0  0
 60129  1  0  0  0
 60130  1  0  0  0
 61131  1  0  0  0
 61132  1  0  0  0
 61133  1  0  0  0
 62134  1  0  0  0
 62135  1  0  0  0
 62136  1  0  0  0
 63 65  1  0  0  0
 63137  1  0  0  0
 63138  1  0  0  0
 63139  1  0  0  0
 64140  1  0  0  0
 65141  1  0  0  0
 68 78  1  0  0  0
 71 72  2  0  0  0
 71 74  1  0  0  0
 71 79  1  0  0  0
 72 75  1  0  0  0
 72 82  1  0  0  0
 73 79  2  0  0  0
 73 81  1  0  0  0
 73 82  1  0  0  0
 74 80  1  0  0  0
 74142  1  0  0  0
 74143  1  0  0  0
 75 76  1  0  0  0
 75144  1  0  0  0
 75145  1  0  0  0
 76 80  1  0  0  0
 76146  1  0  0  0
 76147  1  0  0  0
 77 78  1  0  0  0
 77 81  1  0  0  0
 77148  1  0  0  0
 77149  1  0  0  0
 78150  1  0  0  0
 78151  1  0  0  0
 81152  1  0  0  0
M  ISO  4   1 100  68 101  78 101  80 100
M  END
> <chiral flag>
0

> <version>
0

> <s_m_source_file>
/data/baiqing/PycharmProjects/Reinvent-master-3.2/result/LINK_invent/BTK/process_docking_weight1_custom_product_contain_oxygen_bond_distance_aromatic_linkinvent_7_9_3/rearranged_h_0152.sdf

> <i_m_source_file_index>
90

> <r_mmod_Potential_Energy-OPLS-2005>
195.815887451172

> <r_mmod_Stretch_Energy-OPLS-2005>
129.771118164062

> <r_mmod_Bend_Energy-OPLS-2005>
188.180374145508

> <r_mmod_Torsional_Energy-OPLS-2005>
261.997863769531

> <r_mmod_Improper_Torsional_Energy-OPLS-2005>
10.5894174575806

> <r_mmod_Van_der_Waal_Energy-OPLS-2005>
120.987884521484

> <r_mmod_Electrostatic_Energy-OPLS-2005>
-386.835418701172

> <r_mmod_Solvation_Energy-OPLS-2005>
-217.319839477539

> <b_mmod_Minimization_Converged-OPLS-2005>
0

> <r_mmod_RMS_Derivative-OPLS-2005>
0.73664402961731

$$$$
90
                    3D
 Structure written by MMmdl.
157166  0  0  1  0            999 V2000
  -30.5705  -14.8621   20.4440 C   0  0  0  0  0  0
  -30.4484  -12.5303   19.4854 C   0  0  0  0  0  0
  -29.5258  -12.5234   18.2473 C   0  0  0  0  0  0
  -28.0535  -12.3240   18.6622 C   0  0  0  0  0  0
  -27.6409  -13.2379   19.8466 C   0  0  2  0  0  0
  -28.6851  -13.2218   20.9829 C   0  0  0  0  0  0
  -25.2532  -13.8193   20.5704 C   0  0  0  0  0  0
  -24.1839  -13.0438   20.9234 C   0  0  0  0  0  0
  -24.6448  -11.6925   20.8757 C   0  0  0  0  0  0
  -23.9118  -10.4312   21.0412 C   0  0  0  0  0  0
  -24.3639   -9.4228   21.9210 C   0  0  0  0  0  0
  -23.6302   -8.2268   22.0777 C   0  0  0  0  0  0
  -22.4296   -8.0307   21.3556 C   0  0  0  0  0  0
  -21.9934   -9.0295   20.4667 C   0  0  0  0  0  0
  -22.7275  -10.2170   20.3079 C   0  0  0  0  0  0
  -21.6850   -6.0761   22.5292 C   0  0  0  0  0  0
  -21.4004   -6.5653   23.8234 C   0  0  0  0  0  0
  -21.3663   -5.6796   24.9194 C   0  0  0  0  0  0
  -21.6061   -4.3066   24.7228 C   0  0  0  0  0  0
  -21.8809   -3.8164   23.4344 C   0  0  0  0  0  0
  -21.9196   -4.6989   22.3411 C   0  0  0  0  0  0
  -22.7847  -13.5236   21.1856 C   0  0  0  0  0  0
  -22.1661   -4.2175   21.0987 F   0  0  0  0  0  0
  -21.5637   -3.4551   25.7743 F   0  0  0  0  0  0
  -29.9675  -13.6139   20.3842 N   0  0  0  0  0  0
  -26.2966  -12.9420   20.3280 N   0  0  0  0  0  0
  -25.9377  -11.6567   20.5739 N   0  0  0  0  0  0
  -22.0449  -12.8271   22.0385 N   0  0  0  0  0  0
  -25.4153  -15.1929   20.4093 N   0  0  0  0  0  0
  -31.7730  -14.9343   20.1657 O   0  0  0  0  0  0
  -21.6650   -6.8913   21.4253 O   0  0  0  0  0  0
  -22.3564  -14.5560   20.6701 O   0  0  0  0  0  0
  -24.6429  -31.8440   23.1844 C   0  0  0  0  0  0
  -25.9198  -32.4678   23.8258 C   0  0  1  0  0  0
  -27.2288  -27.1644   20.1351 C   0  0  0  0  0  0
  -25.5947  -33.8480   24.2176 N   0  0  0  0  0  0
  -23.4465  -30.4654   21.5270 C   0  0  2  0  0  0
  -24.8984  -28.8905   20.1001 C   0  0  0  0  0  0
  -22.7559  -29.4583   22.4806 C   0  0  0  0  0  0
  -18.0334  -28.1408   22.8510 C   0  0  0  0  0  0
  -24.1490  -36.7260   23.2644 C   0  0  0  0  0  0
  -25.9999  -30.7274   21.3784 C   0  0  0  0  0  0
  -26.0703  -29.3398   20.7206 C   0  0  0  0  0  0
  -27.2311  -28.4863   20.7289 C   0  0  0  0  0  0
  -26.0317  -26.8053   19.4772 C   0  0  0  0  0  0
  -24.8902  -27.6372   19.4662 C   0  0  0  0  0  0
  -23.6726  -29.7891   20.1461 C   0  0  0  0  0  0
  -25.4118  -36.3029   24.0321 C   0  0  1  0  0  0
  -20.5939  -28.3741   23.1228 C   0  0  2  0  0  0
  -20.6809  -26.9448   22.5406 C   0  0  0  0  0  0
  -19.5760  -26.6344   21.5265 C   0  0  0  0  0  0
  -18.1970  -26.7937   22.1694 C   0  0  0  0  0  0
  -19.1586  -28.8904   23.2848 C   0  0  0  0  0  0
  -18.9470  -30.1518   23.8839 C   0  0  0  0  0  0
  -17.6459  -30.6599   24.0556 C   0  0  0  0  0  0
  -25.9074  -34.9395   23.5069 C   0  0  0  0  0  0
  -16.5347  -29.9092   23.6335 C   0  0  0  0  0  0
  -16.7330  -28.6505   23.0372 C   0  0  0  0  0  0
  -26.4536  -31.6556   25.0696 C   0  0  0  0  0  0
  -25.3747  -31.3712   26.1405 C   0  0  0  0  0  0
  -27.0385  -30.2957   24.6251 C   0  0  0  0  0  0
  -27.6059  -32.4312   25.7503 C   0  0  0  0  0  0
  -27.5572  -37.1788   24.8473 C   0  0  0  0  0  0
  -21.4253  -29.3096   22.3603 N   0  0  0  0  0  0
  -26.4276  -37.3741   23.9424 N   0  0  0  0  0  0
  -24.7160  -31.0312   22.0853 N   0  0  0  0  0  0
  -23.4197  -28.8103   23.2939 O   0  0  0  0  0  0
  -28.3048  -26.2255   20.2605 O   0  0  0  0  0  0
  -26.5660  -34.8891   22.4649 O   0  0  0  0  0  0
  -23.5549  -32.1289   23.7087 O   0  0  0  0  0  0
  -31.0559  -17.5061   21.8858 C   0  0  0  0  0  0
  -30.3410  -17.7020   23.0438 C   0  0  0  0  0  0
  -30.1444  -17.4887   20.7869 C   0  0  0  0  0  0
  -29.2338  -18.5800   21.0579 C   0  0  0  0  0  0
  -29.4657  -21.2728   21.6494 C   0  0  0  0  0  0
  -29.0154  -22.8040   21.4415 C   0  0  0  0  0  0
  -29.1428  -20.7535   19.2379 C   0  0  0  0  0  0
  -28.9280  -20.1463   20.6751 C   0  0  2  0  0  0
  -28.4199  -23.2512   20.0572 C   0  0  1  0  0  0
  -28.4649  -24.8656   19.5513 C   0  0  0  0  0  0
  -29.7796  -16.0294   20.5670 N   0  0  0  0  0  0
  -29.0116  -22.2801   19.0342 N   0  3  0  0  0  0
  -28.7195  -18.2404   22.6877 S   0  0  0  0  0  0
  -31.4862  -12.6782   19.1775 H   0  0  0  0  0  0
  -30.4258  -11.5635   19.9938 H   0  0  0  0  0  0
  -29.8296  -11.7400   17.5538 H   0  0  0  0  0  0
  -29.6337  -13.4681   17.7102 H   0  0  0  0  0  0
  -27.9299  -11.2764   18.9429 H   0  0  0  0  0  0
  -27.3939  -12.4884   17.8105 H   0  0  0  0  0  0
  -27.6156  -14.2519   19.4429 H   0  0  0  0  0  0
  -28.7528  -12.2353   21.4431 H   0  0  0  0  0  0
  -28.4030  -13.9111   21.7797 H   0  0  0  0  0  0
  -25.2789   -9.5715   22.4781 H   0  0  0  0  0  0
  -24.0028   -7.4663   22.7495 H   0  0  0  0  0  0
  -21.0874   -8.8852   19.8938 H   0  0  0  0  0  0
  -22.3775  -10.9729   19.6193 H   0  0  0  0  0  0
  -21.1967   -7.6157   23.9754 H   0  0  0  0  0  0
  -21.1489   -6.0520   25.9109 H   0  0  0  0  0  0
  -22.0569   -2.7621   23.2846 H   0  0  0  0  0  0
  -22.4007  -11.9950   22.4848 H   0  0  0  0  0  0
  -21.1062  -13.1331   22.2507 H   0  0  0  0  0  0
  -24.6325  -15.8267   20.5272 H   0  0  0  0  0  0
  -26.2481  -15.6521   20.0607 H   0  0  0  0  0  0
  -26.7283  -32.5297   23.1023 H   0  0  0  0  0  0
  -25.0066  -33.9612   25.0304 H   0  0  0  0  0  0
  -22.7518  -31.2922   21.3653 H   0  0  0  0  0  0
  -23.3744  -35.9600   23.3297 H   0  0  0  0  0  0
  -24.3567  -36.8900   22.2059 H   0  0  0  0  0  0
  -23.7253  -37.6458   23.6685 H   0  0  0  0  0  0
  -26.1501  -31.4798   20.6027 H   0  0  0  0  0  0
  -26.8729  -30.7827   22.0183 H   0  0  0  0  0  0
  -28.1245  -28.8214   21.2389 H   0  0  0  0  0  0
  -25.9350  -25.8379   19.0078 H   0  0  0  0  0  0
  -23.9883  -27.2912   18.9802 H   0  0  0  0  0  0
  -23.8089  -30.5614   19.3867 H   0  0  0  0  0  0
  -22.7907  -29.2263   19.8330 H   0  0  0  0  0  0
  -25.1309  -36.1856   25.0805 H   0  0  0  0  0  0
  -21.0031  -28.3322   24.1341 H   0  0  0  0  0  0
  -20.5711  -26.2358   23.3616 H   0  0  0  0  0  0
  -21.6701  -26.7540   22.1206 H   0  0  0  0  0  0
  -19.6875  -25.6213   21.1410 H   0  0  0  0  0  0
  -19.6660  -27.3048   20.6745 H   0  0  0  0  0  0
  -17.4221  -26.6689   21.4114 H   0  0  0  0  0  0
  -18.0378  -26.0135   22.9164 H   0  0  0  0  0  0
  -19.7919  -30.7421   24.2132 H   0  0  0  0  0  0
  -17.5011  -31.6302   24.5172 H   0  0  0  0  0  0
  -15.5339  -30.2998   23.7658 H   0  0  0  0  0  0
  -15.8731  -28.0830   22.7061 H   0  0  0  0  0  0
  -24.5968  -30.7011   25.7740 H   0  0  0  0  0  0
  -24.8901  -32.2872   26.4789 H   0  0  0  0  0  0
  -25.8077  -30.8942   27.0211 H   0  0  0  0  0  0
  -26.2972  -29.6689   24.1279 H   0  0  0  0  0  0
  -27.4037  -29.7248   25.4803 H   0  0  0  0  0  0
  -27.8874  -30.4194   23.9516 H   0  0  0  0  0  0
  -27.2651  -33.3639   26.2016 H   0  0  0  0  0  0
  -28.3926  -32.6824   25.0370 H   0  0  0  0  0  0
  -28.0668  -31.8472   26.5493 H   0  0  0  0  0  0
  -28.2583  -38.0086   24.7494 H   0  0  0  0  0  0
  -28.1072  -36.2614   24.6329 H   0  0  0  0  0  0
  -27.2287  -37.1464   25.8872 H   0  0  0  0  0  0
  -20.9404  -29.8727   21.6761 H   0  0  0  0  0  0
  -26.0149  -38.2809   24.1412 H   0  0  0  0  0  0
  -32.0215  -17.0188   21.8752 H   0  0  0  0  0  0
  -30.6375  -17.5047   24.0663 H   0  0  0  0  0  0
  -29.2000  -21.0107   22.6728 H   0  0  0  0  0  0
  -30.5557  -21.2345   21.6316 H   0  0  0  0  0  0
  -29.8660  -23.4460   21.6889 H   0  0  0  0  0  0
  -28.2626  -23.0388   22.1959 H   0  0  0  0  0  0
  -28.4669  -20.2517   18.5449 H   0  0  0  0  0  0
  -30.1435  -20.4834   18.8985 H   0  0  0  0  0  0
  -27.8453  -20.2215   20.7973 H   0  0  0  0  0  0
  -27.3607  -22.9951   20.0993 H   0  0  0  0  0  0
  -27.8640  -24.9118   18.6418 H   0  0  0  0  0  0
  -29.4758  -24.9762   19.1551 H   0  0  0  0  0  0
  -28.7968  -15.8276   20.6281 H   0  0  0  0  0  0
  -28.5494  -22.4109   18.1481 H   0  0  0  0  0  0
  -29.9599  -22.5859   18.8794 H   0  0  0  0  0  0
  1 25  1  0  0  0
  1 30  2  0  0  0
  1 81  1  0  0  0
  2  3  1  0  0  0
  2 25  1  0  0  0
  2 84  1  0  0  0
  2 85  1  0  0  0
  3  4  1  0  0  0
  3 86  1  0  0  0
  3 87  1  0  0  0
  4  5  1  0  0  0
  4 88  1  0  0  0
  4 89  1  0  0  0
  5  6  1  0  0  0
  5 26  1  0  0  0
  5 90  1  0  0  0
  6 25  1  0  0  0
  6 91  1  0  0  0
  6 92  1  0  0  0
  7  8  2  0  0  0
  7 26  1  0  0  0
  7 29  1  0  0  0
  8  9  1  0  0  0
  8 22  1  0  0  0
  9 10  1  0  0  0
  9 27  2  0  0  0
 10 11  2  0  0  0
 10 15  1  0  0  0
 11 12  1  0  0  0
 11 93  1  0  0  0
 12 13  2  0  0  0
 12 94  1  0  0  0
 13 14  1  0  0  0
 13 31  1  0  0  0
 14 15  2  0  0  0
 14 95  1  0  0  0
 15 96  1  0  0  0
 16 17  2  0  0  0
 16 21  1  0  0  0
 16 31  1  0  0  0
 17 18  1  0  0  0
 17 97  1  0  0  0
 18 19  2  0  0  0
 18 98  1  0  0  0
 19 20  1  0  0  0
 19 24  1  0  0  0
 20 21  2  0  0  0
 20 99  1  0  0  0
 21 23  1  0  0  0
 22 28  1  0  0  0
 22 32  2  0  0  0
 26 27  1  0  0  0
 28100  1  0  0  0
 28101  1  0  0  0
 29102  1  0  0  0
 29103  1  0  0  0
 33 34  1  0  0  0
 33 66  1  0  0  0
 33 70  2  0  0  0
 34 36  1  0  0  0
 34 59  1  0  0  0
 34104  1  0  0  0
 35 44  2  0  0  0
 35 45  1  0  0  0
 35 68  1  0  0  0
 36 56  1  0  0  0
 36105  1  0  0  0
 37 39  1  0  0  0
 37 47  1  0  0  0
 37 66  1  0  0  0
 37106  1  0  0  0
 38 43  2  0  0  0
 38 46  1  0  0  0
 38 47  1  0  0  0
 39 64  1  0  0  0
 39 67  2  0  0  0
 40 52  1  0  0  0
 40 53  2  0  0  0
 40 58  1  0  0  0
 41107  1  0  0  0
 41108  1  0  0  0
 41109  1  0  0  0
 41 48  1  0  0  0
 42 43  1  0  0  0
 42 66  1  0  0  0
 42110  1  0  0  0
 42111  1  0  0  0
 43 44  1  0  0  0
 44112  1  0  0  0
 45 46  2  0  0  0
 45113  1  0  0  0
 46114  1  0  0  0
 47115  1  0  0  0
 47116  1  0  0  0
 48 56  1  0  0  0
 48 65  1  0  0  0
 48117  1  0  0  0
 49 50  1  0  0  0
 49 53  1  0  0  0
 49 64  1  0  0  0
 49118  1  0  0  0
 50 51  1  0  0  0
 50119  1  0  0  0
 50120  1  0  0  0
 51 52  1  0  0  0
 51121  1  0  0  0
 51122  1  0  0  0
 52123  1  0  0  0
 52124  1  0  0  0
 53 54  1  0  0  0
 54 55  2  0  0  0
 54125  1  0  0  0
 55 57  1  0  0  0
 55126  1  0  0  0
 56 69  2  0  0  0
 57 58  2  0  0  0
 57127  1  0  0  0
 58128  1  0  0  0
 59 60  1  0  0  0
 59 61  1  0  0  0
 59 62  1  0  0  0
 60129  1  0  0  0
 60130  1  0  0  0
 60131  1  0  0  0
 61132  1  0  0  0
 61133  1  0  0  0
 61134  1  0  0  0
 62135  1  0  0  0
 62136  1  0  0  0
 62137  1  0  0  0
 63 65  1  0  0  0
 63138  1  0  0  0
 63139  1  0  0  0
 63140  1  0  0  0
 64141  1  0  0  0
 65142  1  0  0  0
 68 80  1  0  0  0
 71 72  2  0  0  0
 71 73  1  0  0  0
 71143  1  0  0  0
 72 83  1  0  0  0
 72144  1  0  0  0
 73 74  2  0  0  0
 73 81  1  0  0  0
 74 83  1  0  0  0
 74 78  1  0  0  0
 75 76  1  0  0  0
 75 78  1  0  0  0
 75145  1  0  0  0
 75146  1  0  0  0
 76 79  1  0  0  0
 76147  1  0  0  0
 76148  1  0  0  0
 77 78  1  0  0  0
 77 82  1  0  0  0
 77149  1  0  0  0
 77150  1  0  0  0
 78151  1  0  0  0
 79 80  1  0  0  0
 79 82  1  0  0  0
 79152  1  0  0  0
 80153  1  0  0  0
 80154  1  0  0  0
 81155  1  0  0  0
 82156  1  0  0  0
 82157  1  0  0  0
M  CHG  1  82   1
M  ISO  4   1 100  68 101  80 101  81 100
M  END
> <chiral flag>
0

> <version>
0

> <s_m_source_file>
/data/baiqing/PycharmProjects/Reinvent-master-3.2/result/LINK_invent/BTK/process_docking_weight1_custom_product_contain_oxygen_bond_distance_aromatic_linkinvent_7_9_3/rearranged_h_0152.sdf

> <i_m_source_file_index>
91

> <r_mmod_Potential_Energy-OPLS-2005>
582.273864746094

> <r_mmod_Stretch_Energy-OPLS-2005>
212.4326171875

> <r_mmod_Bend_Energy-OPLS-2005>
325.294738769531

> <r_mmod_Torsional_Energy-OPLS-2005>
472.344818115234

> <r_mmod_Improper_Torsional_Energy-OPLS-2005>
40.5030250549316

> <r_mmod_Van_der_Waal_Energy-OPLS-2005>
116.221244812012

> <r_mmod_Electrostatic_Energy-OPLS-2005>
-273.76025390625

> <r_mmod_Solvation_Energy-OPLS-2005>
-460.920776367188

> <b_mmod_Minimization_Converged-OPLS-2005>
0

> <r_mmod_RMS_Derivative-OPLS-2005>
4.8576807975769

$$$$
91
                    3D
 Structure written by MMmdl.
164173  0  0  1  0            999 V2000
  -30.6470  -14.5884   20.5100 C   0  0  0  0  0  0
  -30.4273  -12.3607   19.4398 C   0  0  0  0  0  0
  -29.5017  -12.4930   18.2117 C   0  0  0  0  0  0
  -28.0247  -12.3399   18.6267 C   0  0  0  0  0  0
  -27.6520  -13.2112   19.8561 C   0  0  2  0  0  0
  -28.6937  -13.0595   20.9863 C   0  0  0  0  0  0
  -25.2575  -13.8160   20.5674 C   0  0  0  0  0  0
  -24.1847  -13.0432   20.9205 C   0  0  0  0  0  0
  -24.6408  -11.6904   20.8736 C   0  0  0  0  0  0
  -23.9081  -10.4292   21.0410 C   0  0  0  0  0  0
  -24.3630   -9.4205   21.9187 C   0  0  0  0  0  0
  -23.6305   -8.2241   22.0751 C   0  0  0  0  0  0
  -22.4279   -8.0288   21.3547 C   0  0  0  0  0  0
  -21.9923   -9.0262   20.4642 C   0  0  0  0  0  0
  -22.7259  -10.2138   20.3051 C   0  0  0  0  0  0
  -21.6855   -6.0749   22.5297 C   0  0  0  0  0  0
  -21.4006   -6.5646   23.8232 C   0  0  0  0  0  0
  -21.3652   -5.6790   24.9186 C   0  0  0  0  0  0
  -21.6043   -4.3055   24.7233 C   0  0  0  0  0  0
  -21.8819   -3.8154   23.4351 C   0  0  0  0  0  0
  -21.9194   -4.6976   22.3409 C   0  0  0  0  0  0
  -22.7877  -13.5235   21.1872 C   0  0  0  0  0  0
  -22.1667   -4.2164   21.0986 F   0  0  0  0  0  0
  -21.5627   -3.4536   25.7745 F   0  0  0  0  0  0
  -30.0097  -13.3825   20.4203 N   0  0  0  0  0  0
  -26.2984  -12.9334   20.3267 N   0  0  0  0  0  0
  -25.9323  -11.6496   20.5720 N   0  0  0  0  0  0
  -22.0487  -12.8218   22.0393 N   0  0  0  0  0  0
  -25.4279  -15.1888   20.4079 N   0  0  0  0  0  0
  -31.8140  -14.7131   20.1286 O   0  0  0  0  0  0
  -21.6632   -6.8892   21.4256 O   0  0  0  0  0  0
  -22.3587  -14.5555   20.6737 O   0  0  0  0  0  0
  -24.6232  -31.8609   23.1977 C   0  0  0  0  0  0
  -25.9081  -32.4788   23.8317 C   0  0  1  0  0  0
  -27.2330  -27.3530   20.1138 C   0  0  0  0  0  0
  -25.5893  -33.8584   24.2264 N   0  0  0  0  0  0
  -23.4141  -30.4788   21.5408 C   0  0  2  0  0  0
  -24.8581  -28.9240   20.1068 C   0  0  0  0  0  0
  -22.7456  -29.4628   22.4956 C   0  0  0  0  0  0
  -18.0279  -28.1420   22.8499 C   0  0  0  0  0  0
  -24.1464  -36.7277   23.2644 C   0  0  0  0  0  0
  -25.9458  -30.8037   21.3545 C   0  0  0  0  0  0
  -26.0169  -29.4265   20.7089 C   0  0  0  0  0  0
  -27.2011  -28.6482   20.7032 C   0  0  0  0  0  0
  -26.0613  -26.8806   19.4925 C   0  0  0  0  0  0
  -24.8804  -27.6557   19.4914 C   0  0  0  0  0  0
  -23.6232  -29.7995   20.1576 C   0  0  0  0  0  0
  -25.4105  -36.3094   24.0336 C   0  0  1  0  0  0
  -20.5878  -28.3709   23.1309 C   0  0  2  0  0  0
  -20.6747  -26.9437   22.5424 C   0  0  0  0  0  0
  -19.5732  -26.6416   21.5221 C   0  0  0  0  0  0
  -18.1910  -26.7973   22.1628 C   0  0  0  0  0  0
  -19.1533  -28.8886   23.2903 C   0  0  0  0  0  0
  -18.9464  -30.1487   23.8930 C   0  0  0  0  0  0
  -17.6461  -30.6618   24.0587 C   0  0  0  0  0  0
  -25.9053  -34.9463   23.5114 C   0  0  0  0  0  0
  -16.5353  -29.9131   23.6324 C   0  0  0  0  0  0
  -16.7272  -28.6547   23.0356 C   0  0  0  0  0  0
  -26.4471  -31.6600   25.0678 C   0  0  0  0  0  0
  -25.3721  -31.3707   26.1416 C   0  0  0  0  0  0
  -27.0320  -30.3045   24.6074 C   0  0  0  0  0  0
  -27.6061  -32.4305   25.7440 C   0  0  0  0  0  0
  -27.5572  -37.1811   24.8480 C   0  0  0  0  0  0
  -21.4179  -29.3051   22.3698 N   0  0  0  0  0  0
  -26.4281  -37.3796   23.9426 N   0  0  0  0  0  0
  -24.6809  -31.0653   22.0887 N   0  0  0  0  0  0
  -23.4202  -28.8175   23.3025 O   0  0  0  0  0  0
  -28.4143  -26.6237   20.1864 O   0  0  0  0  0  0
  -26.5640  -34.8939   22.4688 O   0  0  0  0  0  0
  -23.5406  -32.1387   23.7339 O   0  0  0  0  0  0
  -30.7588  -19.8955   21.0909 C   0  0  0  0  0  0
  -31.5064  -17.5682   20.9134 C   0  0  0  0  0  0
  -29.1298  -18.0879   20.9607 C   0  0  0  0  0  0
  -31.7985  -18.9440   21.0244 C   0  0  0  0  0  0
  -29.4059  -19.4973   21.0723 C   0  0  0  0  0  0
  -30.1707  -17.0966   20.8797 C   0  0  0  0  0  0
  -28.2575  -24.1289   20.3434 C   0  0  0  0  0  0
  -28.6436  -25.3085   19.7663 C   0  0  0  0  0  0
  -33.1912  -19.3851   21.1248 C   0  0  0  0  0  0
  -27.1938  -23.8942   21.3717 C   0  0  0  0  0  0
  -28.8932  -22.7410   20.1064 C   0  0  0  0  0  0
  -26.7326  -22.4509   21.0539 C   0  0  0  0  0  0
  -28.3160  -20.5571   21.4400 C   0  0  0  0  0  0
  -33.5483  -20.3062   22.0181 N   0  0  0  0  0  0
  -29.8667  -15.6662   20.8422 N   0  0  0  0  0  0
  -34.1195  -18.8725   20.3206 N   0  3  0  0  0  0
  -27.8996  -21.6901   20.5137 N   0  3  2  0  0  0
  -31.4711  -12.4677   19.1393 H   0  0  0  0  0  0
  -30.3455  -11.3625   19.8738 H   0  0  0  0  0  0
  -29.7569  -11.7419   17.4626 H   0  0  0  0  0  0
  -29.6562  -13.4625   17.7342 H   0  0  0  0  0  0
  -27.8595  -11.2869   18.8593 H   0  0  0  0  0  0
  -27.3716  -12.5700   17.7848 H   0  0  0  0  0  0
  -27.6731  -14.2460   19.5141 H   0  0  0  0  0  0
  -28.6963  -12.0385   21.3714 H   0  0  0  0  0  0
  -28.4497  -13.6977   21.8360 H   0  0  0  0  0  0
  -25.2775   -9.5689   22.4761 H   0  0  0  0  0  0
  -24.0029   -7.4629   22.7458 H   0  0  0  0  0  0
  -21.0860   -8.8786   19.8938 H   0  0  0  0  0  0
  -22.3733  -10.9679   19.6154 H   0  0  0  0  0  0
  -21.1985   -7.6152   23.9749 H   0  0  0  0  0  0
  -21.1469   -6.0508   25.9095 H   0  0  0  0  0  0
  -22.0597   -2.7618   23.2848 H   0  0  0  0  0  0
  -22.4056  -11.9853   22.4771 H   0  0  0  0  0  0
  -21.1093  -13.1251   22.2548 H   0  0  0  0  0  0
  -24.6486  -15.8308   20.5004 H   0  0  0  0  0  0
  -26.2523  -15.6228   20.0150 H   0  0  0  0  0  0
  -26.7160  -32.5484   23.1082 H   0  0  0  0  0  0
  -25.0021  -33.9710   25.0400 H   0  0  0  0  0  0
  -22.7072  -31.2976   21.3949 H   0  0  0  0  0  0
  -23.3742  -35.9592   23.3321 H   0  0  0  0  0  0
  -24.3552  -36.8875   22.2054 H   0  0  0  0  0  0
  -23.7185  -37.6475   23.6643 H   0  0  0  0  0  0
  -26.0605  -31.5612   20.5762 H   0  0  0  0  0  0
  -26.8339  -30.8658   21.9708 H   0  0  0  0  0  0
  -28.0994  -29.0296   21.1664 H   0  0  0  0  0  0
  -26.0526  -25.9058   19.0241 H   0  0  0  0  0  0
  -23.9900  -27.2679   19.0173 H   0  0  0  0  0  0
  -23.7342  -30.5692   19.3948 H   0  0  0  0  0  0
  -22.7435  -29.2220   19.8646 H   0  0  0  0  0  0
  -25.1275  -36.1946   25.0827 H   0  0  0  0  0  0
  -20.9990  -28.3286   24.1422 H   0  0  0  0  0  0
  -20.5635  -26.2329   23.3622 H   0  0  0  0  0  0
  -21.6628  -26.7455   22.1235 H   0  0  0  0  0  0
  -19.6871  -25.6332   21.1238 H   0  0  0  0  0  0
  -19.6650  -27.3229   20.6755 H   0  0  0  0  0  0
  -17.4175  -26.6746   21.4028 H   0  0  0  0  0  0
  -18.0290  -26.0115   22.9016 H   0  0  0  0  0  0
  -19.7940  -30.7302   24.2301 H   0  0  0  0  0  0
  -17.5016  -31.6292   24.5196 H   0  0  0  0  0  0
  -15.5361  -30.3038   23.7641 H   0  0  0  0  0  0
  -15.8668  -28.0873   22.7065 H   0  0  0  0  0  0
  -24.5919  -30.7018   25.7746 H   0  0  0  0  0  0
  -24.8884  -32.2864   26.4842 H   0  0  0  0  0  0
  -25.8072  -30.8905   27.0191 H   0  0  0  0  0  0
  -26.2871  -29.6790   24.1140 H   0  0  0  0  0  0
  -27.4106  -29.7297   25.4535 H   0  0  0  0  0  0
  -27.8678  -30.4373   23.9204 H   0  0  0  0  0  0
  -27.2715  -33.3629   26.2002 H   0  0  0  0  0  0
  -28.3877  -32.6822   25.0257 H   0  0  0  0  0  0
  -28.0702  -31.8425   26.5365 H   0  0  0  0  0  0
  -28.2633  -38.0073   24.7538 H   0  0  0  0  0  0
  -28.1021  -36.2616   24.6286 H   0  0  0  0  0  0
  -27.2307  -37.1464   25.8890 H   0  0  0  0  0  0
  -20.9348  -29.8772   21.6910 H   0  0  0  0  0  0
  -26.0157  -38.2868   24.1436 H   0  0  0  0  0  0
  -31.0131  -20.9361   21.2273 H   0  0  0  0  0  0
  -32.3404  -16.8816   20.9105 H   0  0  0  0  0  0
  -28.1016  -17.7567   20.9989 H   0  0  0  0  0  0
  -29.4533  -25.3070   19.0492 H   0  0  0  0  0  0
  -26.3824  -24.6205   21.3201 H   0  0  0  0  0  0
  -27.6488  -23.9443   22.3614 H   0  0  0  0  0  0
  -29.7723  -22.6869   20.7456 H   0  0  0  0  0  0
  -29.2188  -22.6193   19.0728 H   0  0  0  0  0  0
  -25.9743  -22.4812   20.2699 H   0  0  0  0  0  0
  -26.2616  -21.9757   21.9161 H   0  0  0  0  0  0
  -28.6104  -20.9972   22.3943 H   0  0  0  0  0  0
  -27.4142  -19.9845   21.6635 H   0  0  0  0  0  0
  -32.8741  -20.6216   22.7010 H   0  0  0  0  0  0
  -34.4830  -20.6796   22.0773 H   0  0  0  0  0  0
  -28.9095  -15.4211   21.0393 H   0  0  0  0  0  0
  -33.8421  -18.1965   19.6242 H   0  0  0  0  0  0
  -35.0897  -19.1396   20.3686 H   0  0  0  0  0  0
  -27.5742  -21.2443   19.6691 H   0  0  0  0  0  0
  1 25  1  0  0  0
  1 30  2  0  0  0
  1 85  1  0  0  0
  2  3  1  0  0  0
  2 25  1  0  0  0
  2 88  1  0  0  0
  2 89  1  0  0  0
  3  4  1  0  0  0
  3 90  1  0  0  0
  3 91  1  0  0  0
  4  5  1  0  0  0
  4 92  1  0  0  0
  4 93  1  0  0  0
  5  6  1  0  0  0
  5 26  1  0  0  0
  5 94  1  0  0  0
  6 25  1  0  0  0
  6 95  1  0  0  0
  6 96  1  0  0  0
  7  8  2  0  0  0
  7 26  1  0  0  0
  7 29  1  0  0  0
  8  9  1  0  0  0
  8 22  1  0  0  0
  9 10  1  0  0  0
  9 27  2  0  0  0
 10 11  2  0  0  0
 10 15  1  0  0  0
 11 12  1  0  0  0
 11 97  1  0  0  0
 12 13  2  0  0  0
 12 98  1  0  0  0
 13 14  1  0  0  0
 13 31  1  0  0  0
 14 15  2  0  0  0
 14 99  1  0  0  0
 15100  1  0  0  0
 16 17  2  0  0  0
 16 21  1  0  0  0
 16 31  1  0  0  0
 17 18  1  0  0  0
 17101  1  0  0  0
 18 19  2  0  0  0
 18102  1  0  0  0
 19 20  1  0  0  0
 19 24  1  0  0  0
 20 21  2  0  0  0
 20103  1  0  0  0
 21 23  1  0  0  0
 22 28  1  0  0  0
 22 32  2  0  0  0
 26 27  1  0  0  0
 28104  1  0  0  0
 28105  1  0  0  0
 29106  1  0  0  0
 29107  1  0  0  0
 33 34  1  0  0  0
 33 66  1  0  0  0
 33 70  2  0  0  0
 34 36  1  0  0  0
 34 59  1  0  0  0
 34108  1  0  0  0
 35 44  2  0  0  0
 35 45  1  0  0  0
 35 68  1  0  0  0
 36 56  1  0  0  0
 36109  1  0  0  0
 37 39  1  0  0  0
 37 47  1  0  0  0
 37 66  1  0  0  0
 37110  1  0  0  0
 38 43  2  0  0  0
 38 46  1  0  0  0
 38 47  1  0  0  0
 39 64  1  0  0  0
 39 67  2  0  0  0
 40 52  1  0  0  0
 40 53  2  0  0  0
 40 58  1  0  0  0
 41111  1  0  0  0
 41112  1  0  0  0
 41113  1  0  0  0
 41 48  1  0  0  0
 42 43  1  0  0  0
 42 66  1  0  0  0
 42114  1  0  0  0
 42115  1  0  0  0
 43 44  1  0  0  0
 44116  1  0  0  0
 45 46  2  0  0  0
 45117  1  0  0  0
 46118  1  0  0  0
 47119  1  0  0  0
 47120  1  0  0  0
 48 56  1  0  0  0
 48 65  1  0  0  0
 48121  1  0  0  0
 49 50  1  0  0  0
 49 53  1  0  0  0
 49 64  1  0  0  0
 49122  1  0  0  0
 50 51  1  0  0  0
 50123  1  0  0  0
 50124  1  0  0  0
 51 52  1  0  0  0
 51125  1  0  0  0
 51126  1  0  0  0
 52127  1  0  0  0
 52128  1  0  0  0
 53 54  1  0  0  0
 54 55  2  0  0  0
 54129  1  0  0  0
 55 57  1  0  0  0
 55130  1  0  0  0
 56 69  2  0  0  0
 57 58  2  0  0  0
 57131  1  0  0  0
 58132  1  0  0  0
 59 60  1  0  0  0
 59 61  1  0  0  0
 59 62  1  0  0  0
 60133  1  0  0  0
 60134  1  0  0  0
 60135  1  0  0  0
 61136  1  0  0  0
 61137  1  0  0  0
 61138  1  0  0  0
 62139  1  0  0  0
 62140  1  0  0  0
 62141  1  0  0  0
 63 65  1  0  0  0
 63142  1  0  0  0
 63143  1  0  0  0
 63144  1  0  0  0
 64145  1  0  0  0
 65146  1  0  0  0
 68 78  1  0  0  0
 71 74  2  0  0  0
 71 75  1  0  0  0
 71147  1  0  0  0
 72 74  1  0  0  0
 72 76  2  0  0  0
 72148  1  0  0  0
 73 75  2  0  0  0
 73 76  1  0  0  0
 73149  1  0  0  0
 74 79  1  0  0  0
 75 83  1  0  0  0
 76 85  1  0  0  0
 77 78  2  0  0  0
 77 80  1  0  0  0
 77 81  1  0  0  0
 78150  1  0  0  0
 79 84  1  0  0  0
 79 86  2  0  0  0
 80 82  1  0  0  0
 80151  1  0  0  0
 80152  1  0  0  0
 81 87  1  0  0  0
 81153  1  0  0  0
 81154  1  0  0  0
 82 87  1  0  0  0
 82155  1  0  0  0
 82156  1  0  0  0
 83157  1  0  0  0
 83158  1  0  0  0
 83 87  1  0  0  0
 84159  1  0  0  0
 84160  1  0  0  0
 85161  1  0  0  0
 86162  1  0  0  0
 86163  1  0  0  0
 87164  1  0  0  0
M  CHG  2  86   1  87   1
M  ISO  4   1 100  68 101  78 101  85 100
M  END
> <chiral flag>
0

> <version>
0

> <s_m_source_file>
/data/baiqing/PycharmProjects/Reinvent-master-3.2/result/LINK_invent/BTK/process_docking_weight1_custom_product_contain_oxygen_bond_distance_aromatic_linkinvent_7_9_3/rearranged_h_0152.sdf

> <i_m_source_file_index>
92

> <r_mmod_Potential_Energy-OPLS-2005>
-346.024017333984

> <r_mmod_Stretch_Energy-OPLS-2005>
66.71337890625

> <r_mmod_Bend_Energy-OPLS-2005>
185.363662719727

> <r_mmod_Torsional_Energy-OPLS-2005>
260.324615478516

> <r_mmod_Improper_Torsional_Energy-OPLS-2005>
7.27534294128418

> <r_mmod_Van_der_Waal_Energy-OPLS-2005>
140.8154296875

> <r_mmod_Electrostatic_Energy-OPLS-2005>
-134.85221862793

> <r_mmod_Solvation_Energy-OPLS-2005>
-904.824584960938

> <b_mmod_Minimization_Converged-OPLS-2005>
0

> <r_mmod_RMS_Derivative-OPLS-2005>
2.61632251739502

$$$$
92
                    3D
 Structure written by MMmdl.
155164  0  0  1  0            999 V2000
  -30.5263  -15.0240   20.3979 C   0  0  0  0  0  0
  -30.4366  -12.6364   19.5089 C   0  0  0  0  0  0
  -29.5236  -12.5374   18.2646 C   0  0  0  0  0  0
  -28.0598  -12.3113   18.6841 C   0  0  0  0  0  0
  -27.6241  -13.2565   19.8338 C   0  0  2  0  0  0
  -28.6648  -13.3260   20.9716 C   0  0  0  0  0  0
  -25.2438  -13.8230   20.5722 C   0  0  0  0  0  0
  -24.1767  -13.0441   20.9240 C   0  0  0  0  0  0
  -24.6395  -11.6930   20.8760 C   0  0  0  0  0  0
  -23.9084  -10.4295   21.0409 C   0  0  0  0  0  0
  -24.3630   -9.4207   21.9186 C   0  0  0  0  0  0
  -23.6301   -8.2244   22.0755 C   0  0  0  0  0  0
  -22.4283   -8.0283   21.3545 C   0  0  0  0  0  0
  -21.9922   -9.0258   20.4646 C   0  0  0  0  0  0
  -22.7255  -10.2135   20.3057 C   0  0  0  0  0  0
  -21.6856   -6.0738   22.5279 C   0  0  0  0  0  0
  -21.4016   -6.5641   23.8212 C   0  0  0  0  0  0
  -21.3660   -5.6793   24.9174 C   0  0  0  0  0  0
  -21.6044   -4.3056   24.7224 C   0  0  0  0  0  0
  -21.8819   -3.8148   23.4345 C   0  0  0  0  0  0
  -21.9193   -4.6965   22.3402 C   0  0  0  0  0  0
  -22.7785  -13.5204   21.1890 C   0  0  0  0  0  0
  -22.1661   -4.2150   21.0979 F   0  0  0  0  0  0
  -21.5628   -3.4540   25.7737 F   0  0  0  0  0  0
  -29.9313  -13.7552   20.3646 N   0  0  0  0  0  0
  -26.2863  -12.9475   20.3237 N   0  0  0  0  0  0
  -25.9329  -11.6597   20.5739 N   0  0  0  0  0  0
  -22.0439  -12.8188   22.0444 N   0  0  0  0  0  0
  -25.4087  -15.1961   20.4141 N   0  0  0  0  0  0
  -31.7371  -15.0416   20.1480 O   0  0  0  0  0  0
  -21.6644   -6.8882   21.4241 O   0  0  0  0  0  0
  -22.3466  -14.5507   20.6732 O   0  0  0  0  0  0
  -24.6486  -31.8387   23.1833 C   0  0  0  0  0  0
  -25.9235  -32.4666   23.8243 C   0  0  1  0  0  0
  -27.2143  -27.0802   20.1628 C   0  0  0  0  0  0
  -25.5962  -33.8474   24.2157 N   0  0  0  0  0  0
  -23.4550  -30.4562   21.5300 C   0  0  2  0  0  0
  -24.9053  -28.8731   20.1095 C   0  0  0  0  0  0
  -22.7593  -29.4520   22.4839 C   0  0  0  0  0  0
  -18.0310  -28.1399   22.8475 C   0  0  0  0  0  0
  -24.1492  -36.7242   23.2644 C   0  0  0  0  0  0
  -26.0147  -30.6950   21.3903 C   0  0  0  0  0  0
  -26.0847  -29.3010   20.7320 C   0  0  0  0  0  0
  -27.2396  -28.4226   20.7374 C   0  0  0  0  0  0
  -26.0103  -26.7699   19.4928 C   0  0  0  0  0  0
  -24.8846  -27.6237   19.4720 C   0  0  0  0  0  0
  -23.6845  -29.7821   20.1508 C   0  0  0  0  0  0
  -25.4127  -36.3014   24.0311 C   0  0  1  0  0  0
  -20.5926  -28.3730   23.1222 C   0  0  2  0  0  0
  -20.6792  -26.9427   22.5404 C   0  0  0  0  0  0
  -19.5765  -26.6379   21.5214 C   0  0  0  0  0  0
  -18.1946  -26.7936   22.1624 C   0  0  0  0  0  0
  -19.1568  -28.8884   23.2839 C   0  0  0  0  0  0
  -18.9482  -30.1478   23.8867 C   0  0  0  0  0  0
  -17.6477  -30.6593   24.0559 C   0  0  0  0  0  0
  -25.9082  -34.9392   23.5046 C   0  0  0  0  0  0
  -16.5368  -29.9084   23.6339 C   0  0  0  0  0  0
  -16.7293  -28.6504   23.0359 C   0  0  0  0  0  0
  -26.4536  -31.6555   25.0709 C   0  0  0  0  0  0
  -25.3703  -31.3763   26.1393 C   0  0  0  0  0  0
  -27.0413  -30.2943   24.6334 C   0  0  0  0  0  0
  -27.6053  -32.4337   25.7501 C   0  0  0  0  0  0
  -27.5573  -37.1779   24.8466 C   0  0  0  0  0  0
  -21.4280  -29.3045   22.3586 N   0  0  0  0  0  0
  -26.4285  -37.3733   23.9407 N   0  0  0  0  0  0
  -24.7263  -31.0194   22.0892 N   0  0  0  0  0  0
  -23.4208  -28.8083   23.3022 O   0  0  0  0  0  0
  -28.2514  -26.0591   20.2420 O   0  0  0  0  0  0
  -26.5675  -34.8900   22.4630 O   0  0  0  0  0  0
  -23.5592  -32.1288   23.7020 O   0  0  0  0  0  0
  -31.7532  -19.5008   19.8336 C   0  0  0  0  0  0
  -30.8584  -20.5884   19.9566 C   0  0  0  0  0  0
  -31.3727  -18.1519   20.0217 C   0  0  0  0  0  0
  -29.1388  -18.9643   20.4710 C   0  0  0  0  0  0
  -29.4969  -20.4212   20.2835 C   0  0  0  0  0  0
  -30.0519  -17.7686   20.3494 C   0  0  0  0  0  0
  -27.1671  -24.1187   21.5391 C   0  0  0  0  0  0
  -26.8629  -22.6314   21.8326 C   0  0  0  0  0  0
  -27.2778  -21.5906   20.7578 C   0  0  0  0  0  0
  -29.0812  -23.1990   20.1164 C   0  0  0  0  0  0
  -27.9770  -24.4878   20.2765 C   0  0  2  0  0  0
  -28.6860  -21.6936   20.3867 N   0  0  0  0  0  0
  -29.7564  -16.2414   20.5151 N   0  0  0  0  0  0
  -26.7727  -24.9810   22.3314 O   0  0  0  0  0  0
  -31.4690  -12.7946   19.1939 H   0  0  0  0  0  0
  -30.4393  -11.6970   20.0642 H   0  0  0  0  0  0
  -29.8563  -11.7291   17.6120 H   0  0  0  0  0  0
  -29.6004  -13.4558   17.6804 H   0  0  0  0  0  0
  -27.9692  -11.2739   19.0082 H   0  0  0  0  0  0
  -27.3954  -12.4214   17.8262 H   0  0  0  0  0  0
  -27.5743  -14.2495   19.3860 H   0  0  0  0  0  0
  -28.7698  -12.3626   21.4726 H   0  0  0  0  0  0
  -28.3511  -14.0403   21.7345 H   0  0  0  0  0  0
  -25.2773   -9.5683   22.4765 H   0  0  0  0  0  0
  -24.0007   -7.4636   22.7475 H   0  0  0  0  0  0
  -21.0853   -8.8781   19.8952 H   0  0  0  0  0  0
  -22.3714  -10.9676   19.6168 H   0  0  0  0  0  0
  -21.2010   -7.6149   23.9716 H   0  0  0  0  0  0
  -21.1481   -6.0524   25.9077 H   0  0  0  0  0  0
  -22.0597   -2.7610   23.2845 H   0  0  0  0  0  0
  -22.4067  -11.9855   22.4834 H   0  0  0  0  0  0
  -21.1052  -13.1199   22.2649 H   0  0  0  0  0  0
  -24.6355  -15.8437   20.5215 H   0  0  0  0  0  0
  -26.2438  -15.6364   20.0509 H   0  0  0  0  0  0
  -26.7301  -32.5252   23.0967 H   0  0  0  0  0  0
  -25.0081  -33.9579   25.0287 H   0  0  0  0  0  0
  -22.7603  -31.2837   21.3714 H   0  0  0  0  0  0
  -23.3760  -35.9567   23.3290 H   0  0  0  0  0  0
  -24.3573  -36.8893   22.2061 H   0  0  0  0  0  0
  -23.7242  -37.6429   23.6697 H   0  0  0  0  0  0
  -26.1778  -31.4463   20.6165 H   0  0  0  0  0  0
  -26.8820  -30.7458   22.0369 H   0  0  0  0  0  0
  -28.1355  -28.7445   21.2495 H   0  0  0  0  0  0
  -25.9034  -25.8178   18.9966 H   0  0  0  0  0  0
  -23.9863  -27.2926   18.9691 H   0  0  0  0  0  0
  -23.8257  -30.5552   19.3946 H   0  0  0  0  0  0
  -22.7978  -29.2275   19.8386 H   0  0  0  0  0  0
  -25.1318  -36.1833   25.0803 H   0  0  0  0  0  0
  -21.0017  -28.3326   24.1344 H   0  0  0  0  0  0
  -20.5683  -26.2345   23.3630 H   0  0  0  0  0  0
  -21.6657  -26.7424   22.1204 H   0  0  0  0  0  0
  -19.6926  -25.6282   21.1263 H   0  0  0  0  0  0
  -19.6702  -27.3173   20.6731 H   0  0  0  0  0  0
  -17.4215  -26.6681   21.4027 H   0  0  0  0  0  0
  -18.0343  -26.0084   22.9027 H   0  0  0  0  0  0
  -19.7958  -30.7304   24.2220 H   0  0  0  0  0  0
  -17.5030  -31.6270   24.5166 H   0  0  0  0  0  0
  -15.5367  -30.2976   23.7680 H   0  0  0  0  0  0
  -15.8694  -28.0812   22.7090 H   0  0  0  0  0  0
  -24.5894  -30.7099   25.7710 H   0  0  0  0  0  0
  -24.8880  -32.2951   26.4739 H   0  0  0  0  0  0
  -25.7971  -30.8987   27.0222 H   0  0  0  0  0  0
  -26.3048  -29.6649   24.1326 H   0  0  0  0  0  0
  -27.3988  -29.7262   25.4933 H   0  0  0  0  0  0
  -27.8970  -30.4163   23.9690 H   0  0  0  0  0  0
  -27.2635  -33.3663   26.2001 H   0  0  0  0  0  0
  -28.3904  -32.6856   25.0360 H   0  0  0  0  0  0
  -28.0676  -31.8515   26.5482 H   0  0  0  0  0  0
  -28.2582  -38.0083   24.7509 H   0  0  0  0  0  0
  -28.1077  -36.2610   24.6299 H   0  0  0  0  0  0
  -27.2289  -37.1430   25.8869 H   0  0  0  0  0  0
  -20.9502  -29.8746   21.6745 H   0  0  0  0  0  0
  -26.0146  -38.2799   24.1409 H   0  0  0  0  0  0
  -32.7830  -19.7119   19.5822 H   0  0  0  0  0  0
  -31.2532  -21.5808   19.7942 H   0  0  0  0  0  0
  -32.1453  -17.4088   19.8991 H   0  0  0  0  0  0
  -28.1120  -18.7426   20.7185 H   0  0  0  0  0  0
  -25.7929  -22.5410   22.0200 H   0  0  0  0  0  0
  -27.3551  -22.3831   22.7728 H   0  0  0  0  0  0
  -26.6670  -21.7206   19.8627 H   0  0  0  0  0  0
  -27.0484  -20.5957   21.1375 H   0  0  0  0  0  0
  -29.9260  -23.4193   20.7699 H   0  0  0  0  0  0
  -29.4869  -23.2439   19.1054 H   0  0  0  0  0  0
  -27.2855  -24.3238   19.4524 H   0  0  0  0  0  0
  -28.7866  -16.0414   20.7087 H   0  0  0  0  0  0
  1 25  1  0  0  0
  1 30  2  0  0  0
  1 83  1  0  0  0
  2  3  1  0  0  0
  2 25  1  0  0  0
  2 85  1  0  0  0
  2 86  1  0  0  0
  3  4  1  0  0  0
  3 87  1  0  0  0
  3 88  1  0  0  0
  4  5  1  0  0  0
  4 89  1  0  0  0
  4 90  1  0  0  0
  5  6  1  0  0  0
  5 26  1  0  0  0
  5 91  1  0  0  0
  6 25  1  0  0  0
  6 92  1  0  0  0
  6 93  1  0  0  0
  7  8  2  0  0  0
  7 26  1  0  0  0
  7 29  1  0  0  0
  8  9  1  0  0  0
  8 22  1  0  0  0
  9 10  1  0  0  0
  9 27  2  0  0  0
 10 11  2  0  0  0
 10 15  1  0  0  0
 11 12  1  0  0  0
 11 94  1  0  0  0
 12 13  2  0  0  0
 12 95  1  0  0  0
 13 14  1  0  0  0
 13 31  1  0  0  0
 14 15  2  0  0  0
 14 96  1  0  0  0
 15 97  1  0  0  0
 16 17  2  0  0  0
 16 21  1  0  0  0
 16 31  1  0  0  0
 17 18  1  0  0  0
 17 98  1  0  0  0
 18 19  2  0  0  0
 18 99  1  0  0  0
 19 20  1  0  0  0
 19 24  1  0  0  0
 20 21  2  0  0  0
 20100  1  0  0  0
 21 23  1  0  0  0
 22 28  1  0  0  0
 22 32  2  0  0  0
 26 27  1  0  0  0
 28101  1  0  0  0
 28102  1  0  0  0
 29103  1  0  0  0
 29104  1  0  0  0
 33 34  1  0  0  0
 33 66  1  0  0  0
 33 70  2  0  0  0
 34 36  1  0  0  0
 34 59  1  0  0  0
 34105  1  0  0  0
 35 44  2  0  0  0
 35 45  1  0  0  0
 35 68  1  0  0  0
 36 56  1  0  0  0
 36106  1  0  0  0
 37 39  1  0  0  0
 37 47  1  0  0  0
 37 66  1  0  0  0
 37107  1  0  0  0
 38 43  2  0  0  0
 38 46  1  0  0  0
 38 47  1  0  0  0
 39 64  1  0  0  0
 39 67  2  0  0  0
 40 52  1  0  0  0
 40 53  2  0  0  0
 40 58  1  0  0  0
 41108  1  0  0  0
 41109  1  0  0  0
 41110  1  0  0  0
 41 48  1  0  0  0
 42 43  1  0  0  0
 42 66  1  0  0  0
 42111  1  0  0  0
 42112  1  0  0  0
 43 44  1  0  0  0
 44113  1  0  0  0
 45 46  2  0  0  0
 45114  1  0  0  0
 46115  1  0  0  0
 47116  1  0  0  0
 47117  1  0  0  0
 48 56  1  0  0  0
 48 65  1  0  0  0
 48118  1  0  0  0
 49 50  1  0  0  0
 49 53  1  0  0  0
 49 64  1  0  0  0
 49119  1  0  0  0
 50 51  1  0  0  0
 50120  1  0  0  0
 50121  1  0  0  0
 51 52  1  0  0  0
 51122  1  0  0  0
 51123  1  0  0  0
 52124  1  0  0  0
 52125  1  0  0  0
 53 54  1  0  0  0
 54 55  2  0  0  0
 54126  1  0  0  0
 55 57  1  0  0  0
 55127  1  0  0  0
 56 69  2  0  0  0
 57 58  2  0  0  0
 57128  1  0  0  0
 58129  1  0  0  0
 59 60  1  0  0  0
 59 61  1  0  0  0
 59 62  1  0  0  0
 60130  1  0  0  0
 60131  1  0  0  0
 60132  1  0  0  0
 61133  1  0  0  0
 61134  1  0  0  0
 61135  1  0  0  0
 62136  1  0  0  0
 62137  1  0  0  0
 62138  1  0  0  0
 63 65  1  0  0  0
 63139  1  0  0  0
 63140  1  0  0  0
 63141  1  0  0  0
 64142  1  0  0  0
 65143  1  0  0  0
 68 81  1  0  0  0
 71 72  2  0  0  0
 71 73  1  0  0  0
 71144  1  0  0  0
 72 75  1  0  0  0
 72145  1  0  0  0
 73 76  2  0  0  0
 73146  1  0  0  0
 74 75  2  0  0  0
 74 76  1  0  0  0
 74147  1  0  0  0
 75 82  1  0  0  0
 76 83  1  0  0  0
 77 78  1  0  0  0
 77 81  1  0  0  0
 77 84  2  0  0  0
 78 79  1  0  0  0
 78148  1  0  0  0
 78149  1  0  0  0
 79 82  1  0  0  0
 79150  1  0  0  0
 79151  1  0  0  0
 80 81  1  0  0  0
 80 82  1  0  0  0
 80152  1  0  0  0
 80153  1  0  0  0
 81154  1  0  0  0
 83155  1  0  0  0
M  ISO  4   1 100  68 101  81 101  83 100
M  END
> <chiral flag>
0

> <version>
0

> <s_m_source_file>
/data/baiqing/PycharmProjects/Reinvent-master-3.2/result/LINK_invent/BTK/process_docking_weight1_custom_product_contain_oxygen_bond_distance_aromatic_linkinvent_7_9_3/rearranged_h_0152.sdf

> <i_m_source_file_index>
93

> <r_mmod_Potential_Energy-OPLS-2005>
638.064514160156

> <r_mmod_Stretch_Energy-OPLS-2005>
325.10986328125

> <r_mmod_Bend_Energy-OPLS-2005>
288.291320800781

> <r_mmod_Torsional_Energy-OPLS-2005>
191.953659057617

> <r_mmod_Improper_Torsional_Energy-OPLS-2005>
4.10915946960449

> <r_mmod_Van_der_Waal_Energy-OPLS-2005>
138.227066040039

> <r_mmod_Electrostatic_Energy-OPLS-2005>
-307.307250976562

> <r_mmod_Solvation_Energy-OPLS-2005>
-249.465362548828

> <b_mmod_Minimization_Converged-OPLS-2005>
0

> <r_mmod_RMS_Derivative-OPLS-2005>
0.0905323252081871

$$$$
93
                    3D
 Structure written by MMmdl.
151159  0  0  1  0            999 V2000
  -30.6981  -14.4640   20.5725 C   0  0  0  0  0  0
  -30.4244  -12.2998   19.4237 C   0  0  0  0  0  0
  -29.4964  -12.5057   18.2082 C   0  0  0  0  0  0
  -28.0170  -12.3661   18.6193 C   0  0  0  0  0  0
  -27.6639  -13.2042   19.8770 C   0  0  2  0  0  0
  -28.7038  -12.9758   20.9977 C   0  0  0  0  0  0
  -25.2599  -13.8158   20.5677 C   0  0  0  0  0  0
  -24.1845  -13.0439   20.9173 C   0  0  0  0  0  0
  -24.6391  -11.6903   20.8730 C   0  0  0  0  0  0
  -23.9054  -10.4294   21.0405 C   0  0  0  0  0  0
  -24.3610   -9.4208   21.9181 C   0  0  0  0  0  0
  -23.6289   -8.2242   22.0750 C   0  0  0  0  0  0
  -22.4270   -8.0281   21.3546 C   0  0  0  0  0  0
  -21.9901   -9.0255   20.4650 C   0  0  0  0  0  0
  -22.7226  -10.2136   20.3057 C   0  0  0  0  0  0
  -21.6852   -6.0736   22.5281 C   0  0  0  0  0  0
  -21.4014   -6.5639   23.8214 C   0  0  0  0  0  0
  -21.3659   -5.6792   24.9177 C   0  0  0  0  0  0
  -21.6043   -4.3055   24.7226 C   0  0  0  0  0  0
  -21.8820   -3.8147   23.4347 C   0  0  0  0  0  0
  -21.9192   -4.6965   22.3404 C   0  0  0  0  0  0
  -22.7869  -13.5243   21.1840 C   0  0  0  0  0  0
  -22.1661   -4.2150   21.0982 F   0  0  0  0  0  0
  -21.5629   -3.4539   25.7737 F   0  0  0  0  0  0
  -30.0381  -13.2799   20.4509 N   0  0  0  0  0  0
  -26.3034  -12.9323   20.3369 N   0  0  0  0  0  0
  -25.9317  -11.6484   20.5758 N   0  0  0  0  0  0
  -22.0507  -12.8247   22.0405 N   0  0  0  0  0  0
  -25.4339  -15.1875   20.4092 N   0  0  0  0  0  0
  -31.8227  -14.6472   20.0963 O   0  0  0  0  0  0
  -21.6635   -6.8877   21.4240 O   0  0  0  0  0  0
  -22.3557  -14.5551   20.6688 O   0  0  0  0  0  0
  -24.6136  -31.8683   23.2106 C   0  0  0  0  0  0
  -25.9027  -32.4828   23.8406 C   0  0  1  0  0  0
  -27.2330  -27.4416   20.1022 C   0  0  0  0  0  0
  -25.5882  -33.8626   24.2332 N   0  0  0  0  0  0
  -23.4026  -30.4916   21.5502 C   0  0  2  0  0  0
  -24.8511  -28.9595   20.1133 C   0  0  0  0  0  0
  -22.7410  -29.4654   22.4984 C   0  0  0  0  0  0
  -18.0272  -28.1381   22.8491 C   0  0  0  0  0  0
  -24.1485  -36.7324   23.2640 C   0  0  0  0  0  0
  -25.9311  -30.8370   21.3636 C   0  0  0  0  0  0
  -26.0107  -29.4726   20.7096 C   0  0  0  0  0  0
  -27.2089  -28.7219   20.6986 C   0  0  0  0  0  0
  -26.0620  -26.9440   19.4930 C   0  0  0  0  0  0
  -24.8712  -27.6942   19.5006 C   0  0  0  0  0  0
  -23.6118  -29.8245   20.1644 C   0  0  0  0  0  0
  -25.4105  -36.3118   24.0340 C   0  0  1  0  0  0
  -20.5862  -28.3663   23.1322 C   0  0  2  0  0  0
  -20.6758  -26.9398   22.5426 C   0  0  0  0  0  0
  -19.5740  -26.6387   21.5217 C   0  0  0  0  0  0
  -18.1919  -26.7926   22.1625 C   0  0  0  0  0  0
  -19.1522  -28.8838   23.2905 C   0  0  0  0  0  0
  -18.9448  -30.1443   23.8917 C   0  0  0  0  0  0
  -17.6451  -30.6584   24.0570 C   0  0  0  0  0  0
  -25.9027  -34.9479   23.5135 C   0  0  0  0  0  0
  -16.5342  -29.9090   23.6325 C   0  0  0  0  0  0
  -16.7262  -28.6508   23.0342 C   0  0  0  0  0  0
  -26.4453  -31.6610   25.0735 C   0  0  0  0  0  0
  -25.3723  -31.3741   26.1497 C   0  0  0  0  0  0
  -27.0268  -30.3043   24.6118 C   0  0  0  0  0  0
  -27.6047  -32.4322   25.7477 C   0  0  0  0  0  0
  -27.5585  -37.1813   24.8462 C   0  0  0  0  0  0
  -21.4138  -29.3031   22.3727 N   0  0  0  0  0  0
  -26.4296  -37.3797   23.9406 N   0  0  0  0  0  0
  -24.6672  -31.0795   22.0999 N   0  0  0  0  0  0
  -23.4184  -28.8194   23.3023 O   0  0  0  0  0  0
  -28.3744  -26.6725   20.1158 O   0  0  0  0  0  0
  -26.5595  -34.8924   22.4700 O   0  0  0  0  0  0
  -23.5327  -32.1427   23.7500 O   0  0  0  0  0  0
  -30.9656  -18.9515   20.4862 C   0  0  0  0  0  0
  -31.1800  -17.5393   20.4741 C   0  0  0  0  0  0
  -29.7702  -19.3336   21.0486 C   0  0  0  0  0  0
  -30.1509  -16.8066   21.0221 C   0  0  0  0  0  0
  -29.6433  -21.7654   20.7440 C   0  0  0  0  0  0
  -28.8592  -23.0048   21.2144 C   0  0  0  0  0  0
  -29.0451  -24.2865   20.3557 C   0  0  0  0  0  0
  -28.2598  -25.4888   20.9232 C   0  0  0  0  0  0
  -29.2386  -20.5768   21.2393 N   0  0  0  0  0  0
  -29.9885  -15.4555   21.1499 N   0  0  0  0  0  0
  -30.5832  -21.8945   19.9558 O   0  0  0  0  0  0
  -28.9086  -17.9051   21.5892 S   0  0  0  0  0  0
  -31.4692  -12.3970   19.1231 H   0  0  0  0  0  0
  -30.3224  -11.2868   19.8161 H   0  0  0  0  0  0
  -29.7362  -11.7856   17.4247 H   0  0  0  0  0  0
  -29.6664  -13.4936   17.7772 H   0  0  0  0  0  0
  -27.8273  -11.3100   18.8145 H   0  0  0  0  0  0
  -27.3669  -12.6414   17.7878 H   0  0  0  0  0  0
  -27.7115  -14.2531   19.5831 H   0  0  0  0  0  0
  -28.6766  -11.9374   21.3311 H   0  0  0  0  0  0
  -28.4632  -13.5671   21.8820 H   0  0  0  0  0  0
  -25.2758   -9.5684   22.4747 H   0  0  0  0  0  0
  -24.0004   -7.4633   22.7464 H   0  0  0  0  0  0
  -21.0832   -8.8775   19.8960 H   0  0  0  0  0  0
  -22.3684  -10.9674   19.6167 H   0  0  0  0  0  0
  -21.2005   -7.6146   23.9717 H   0  0  0  0  0  0
  -21.1481   -6.0521   25.9079 H   0  0  0  0  0  0
  -22.0598   -2.7609   23.2847 H   0  0  0  0  0  0
  -22.4117  -11.9908   22.4800 H   0  0  0  0  0  0
  -21.1129  -13.1287   22.2611 H   0  0  0  0  0  0
  -24.6688  -15.8448   20.5154 H   0  0  0  0  0  0
  -26.2894  -15.6249   20.0904 H   0  0  0  0  0  0
  -26.7102  -32.5543   23.1179 H   0  0  0  0  0  0
  -25.0017  -33.9790   25.0466 H   0  0  0  0  0  0
  -22.6912  -31.3083   21.4113 H   0  0  0  0  0  0
  -23.3735  -35.9672   23.3325 H   0  0  0  0  0  0
  -24.3579  -36.8912   22.2049 H   0  0  0  0  0  0
  -23.7252  -37.6545   23.6634 H   0  0  0  0  0  0
  -26.0447  -31.6046   20.5967 H   0  0  0  0  0  0
  -26.8181  -30.8889   21.9836 H   0  0  0  0  0  0
  -28.1044  -29.1109   21.1627 H   0  0  0  0  0  0
  -26.0711  -25.9714   19.0210 H   0  0  0  0  0  0
  -23.9805  -27.2941   19.0360 H   0  0  0  0  0  0
  -23.7191  -30.5999   19.4050 H   0  0  0  0  0  0
  -22.7366  -29.2433   19.8690 H   0  0  0  0  0  0
  -25.1281  -36.1991   25.0835 H   0  0  0  0  0  0
  -20.9959  -28.3228   24.1441 H   0  0  0  0  0  0
  -20.5650  -26.2270   23.3613 H   0  0  0  0  0  0
  -21.6629  -26.7433   22.1229 H   0  0  0  0  0  0
  -19.6899  -25.6300   21.1239 H   0  0  0  0  0  0
  -19.6685  -27.3205   20.6753 H   0  0  0  0  0  0
  -17.4190  -26.6679   21.4024 H   0  0  0  0  0  0
  -18.0316  -26.0068   22.9021 H   0  0  0  0  0  0
  -19.7924  -30.7253   24.2297 H   0  0  0  0  0  0
  -17.5008  -31.6265   24.5172 H   0  0  0  0  0  0
  -15.5343  -30.2998   23.7638 H   0  0  0  0  0  0
  -15.8663  -28.0839   22.7037 H   0  0  0  0  0  0
  -24.5869  -30.7110   25.7849 H   0  0  0  0  0  0
  -24.8941  -32.2908   26.4957 H   0  0  0  0  0  0
  -25.8073  -30.8902   27.0250 H   0  0  0  0  0  0
  -26.2812  -29.6827   24.1144 H   0  0  0  0  0  0
  -27.3991  -29.7262   25.4587 H   0  0  0  0  0  0
  -27.8673  -30.4351   23.9298 H   0  0  0  0  0  0
  -27.2682  -33.3605   26.2106 H   0  0  0  0  0  0
  -28.3816  -32.6911   25.0271 H   0  0  0  0  0  0
  -28.0763  -31.8417   26.5341 H   0  0  0  0  0  0
  -28.2621  -38.0092   24.7487 H   0  0  0  0  0  0
  -28.1058  -36.2623   24.6303 H   0  0  0  0  0  0
  -27.2308  -37.1495   25.8868 H   0  0  0  0  0  0
  -20.9291  -29.8764   21.6965 H   0  0  0  0  0  0
  -26.0191  -38.2881   24.1393 H   0  0  0  0  0  0
  -31.7060  -19.6262   20.0810 H   0  0  0  0  0  0
  -32.0853  -17.1277   20.0513 H   0  0  0  0  0  0
  -29.1606  -23.2127   22.2417 H   0  0  0  0  0  0
  -27.7993  -22.7503   21.2513 H   0  0  0  0  0  0
  -28.7151  -24.0887   19.3353 H   0  0  0  0  0  0
  -30.1026  -24.5456   20.2946 H   0  0  0  0  0  0
  -28.6340  -25.7295   21.9190 H   0  0  0  0  0  0
  -27.2200  -25.1875   21.0644 H   0  0  0  0  0  0
  -28.4188  -20.6137   21.8308 H   0  0  0  0  0  0
  -29.1155  -15.1567   21.5583 H   0  0  0  0  0  0
  1 25  1  0  0  0
  1 30  2  0  0  0
  1 80  1  0  0  0
  2  3  1  0  0  0
  2 25  1  0  0  0
  2 83  1  0  0  0
  2 84  1  0  0  0
  3  4  1  0  0  0
  3 85  1  0  0  0
  3 86  1  0  0  0
  4  5  1  0  0  0
  4 87  1  0  0  0
  4 88  1  0  0  0
  5  6  1  0  0  0
  5 26  1  0  0  0
  5 89  1  0  0  0
  6 25  1  0  0  0
  6 90  1  0  0  0
  6 91  1  0  0  0
  7  8  2  0  0  0
  7 26  1  0  0  0
  7 29  1  0  0  0
  8  9  1  0  0  0
  8 22  1  0  0  0
  9 10  1  0  0  0
  9 27  2  0  0  0
 10 11  2  0  0  0
 10 15  1  0  0  0
 11 12  1  0  0  0
 11 92  1  0  0  0
 12 13  2  0  0  0
 12 93  1  0  0  0
 13 14  1  0  0  0
 13 31  1  0  0  0
 14 15  2  0  0  0
 14 94  1  0  0  0
 15 95  1  0  0  0
 16 17  2  0  0  0
 16 21  1  0  0  0
 16 31  1  0  0  0
 17 18  1  0  0  0
 17 96  1  0  0  0
 18 19  2  0  0  0
 18 97  1  0  0  0
 19 20  1  0  0  0
 19 24  1  0  0  0
 20 21  2  0  0  0
 20 98  1  0  0  0
 21 23  1  0  0  0
 22 28  1  0  0  0
 22 32  2  0  0  0
 26 27  1  0  0  0
 28 99  1  0  0  0
 28100  1  0  0  0
 29101  1  0  0  0
 29102  1  0  0  0
 33 34  1  0  0  0
 33 66  1  0  0  0
 33 70  2  0  0  0
 34 36  1  0  0  0
 34 59  1  0  0  0
 34103  1  0  0  0
 35 44  2  0  0  0
 35 45  1  0  0  0
 35 68  1  0  0  0
 36 56  1  0  0  0
 36104  1  0  0  0
 37 39  1  0  0  0
 37 47  1  0  0  0
 37 66  1  0  0  0
 37105  1  0  0  0
 38 43  2  0  0  0
 38 46  1  0  0  0
 38 47  1  0  0  0
 39 64  1  0  0  0
 39 67  2  0  0  0
 40 52  1  0  0  0
 40 53  2  0  0  0
 40 58  1  0  0  0
 41106  1  0  0  0
 41107  1  0  0  0
 41108  1  0  0  0
 41 48  1  0  0  0
 42 43  1  0  0  0
 42 66  1  0  0  0
 42109  1  0  0  0
 42110  1  0  0  0
 43 44  1  0  0  0
 44111  1  0  0  0
 45 46  2  0  0  0
 45112  1  0  0  0
 46113  1  0  0  0
 47114  1  0  0  0
 47115  1  0  0  0
 48 56  1  0  0  0
 48 65  1  0  0  0
 48116  1  0  0  0
 49 50  1  0  0  0
 49 53  1  0  0  0
 49 64  1  0  0  0
 49117  1  0  0  0
 50 51  1  0  0  0
 50118  1  0  0  0
 50119  1  0  0  0
 51 52  1  0  0  0
 51120  1  0  0  0
 51121  1  0  0  0
 52122  1  0  0  0
 52123  1  0  0  0
 53 54  1  0  0  0
 54 55  2  0  0  0
 54124  1  0  0  0
 55 57  1  0  0  0
 55125  1  0  0  0
 56 69  2  0  0  0
 57 58  2  0  0  0
 57126  1  0  0  0
 58127  1  0  0  0
 59 60  1  0  0  0
 59 61  1  0  0  0
 59 62  1  0  0  0
 60128  1  0  0  0
 60129  1  0  0  0
 60130  1  0  0  0
 61131  1  0  0  0
 61132  1  0  0  0
 61133  1  0  0  0
 62134  1  0  0  0
 62135  1  0  0  0
 62136  1  0  0  0
 63 65  1  0  0  0
 63137  1  0  0  0
 63138  1  0  0  0
 63139  1  0  0  0
 64140  1  0  0  0
 65141  1  0  0  0
 68 78  1  0  0  0
 71 72  1  0  0  0
 71 73  2  0  0  0
 71142  1  0  0  0
 72 74  2  0  0  0
 72143  1  0  0  0
 73 79  1  0  0  0
 73 82  1  0  0  0
 74 80  1  0  0  0
 74 82  1  0  0  0
 75 76  1  0  0  0
 75 79  1  0  0  0
 75 81  2  0  0  0
 76 77  1  0  0  0
 76144  1  0  0  0
 76145  1  0  0  0
 77 78  1  0  0  0
 77146  1  0  0  0
 77147  1  0  0  0
 78148  1  0  0  0
 78149  1  0  0  0
 79150  1  0  0  0
 80151  1  0  0  0
M  ISO  4   1 100  68 101  78 101  80 100
M  END
> <chiral flag>
0

> <version>
0

> <s_m_source_file>
/data/baiqing/PycharmProjects/Reinvent-master-3.2/result/LINK_invent/BTK/process_docking_weight1_custom_product_contain_oxygen_bond_distance_aromatic_linkinvent_7_9_3/rearranged_h_0152.sdf

> <i_m_source_file_index>
94

> <r_mmod_Potential_Energy-OPLS-2005>
-128.622650146484

> <r_mmod_Stretch_Energy-OPLS-2005>
34.6965484619141

> <r_mmod_Bend_Energy-OPLS-2005>
102.030227661133

> <r_mmod_Torsional_Energy-OPLS-2005>
236.178344726562

> <r_mmod_Improper_Torsional_Energy-OPLS-2005>
3.33467268943787

> <r_mmod_Van_der_Waal_Energy-OPLS-2005>
136.293426513672

> <r_mmod_Electrostatic_Energy-OPLS-2005>
-425.963653564453

> <r_mmod_Solvation_Energy-OPLS-2005>
-227.439437866211

> <b_mmod_Minimization_Converged-OPLS-2005>
0

> <r_mmod_RMS_Derivative-OPLS-2005>
0.517617881298065

$$$$
94
                    3D
 Structure written by MMmdl.
160169  0  0  1  0            999 V2000
  -30.6950  -14.5762   20.5266 C   0  0  0  0  0  0
  -30.4192  -12.3625   19.4479 C   0  0  0  0  0  0
  -29.4968  -12.5007   18.2195 C   0  0  0  0  0  0
  -28.0208  -12.3499   18.6332 C   0  0  0  0  0  0
  -27.6512  -13.2222   19.8630 C   0  0  2  0  0  0
  -28.6966  -13.0879   20.9935 C   0  0  0  0  0  0
  -25.2550  -13.8191   20.5702 C   0  0  0  0  0  0
  -24.1821  -13.0448   20.9201 C   0  0  0  0  0  0
  -24.6393  -11.6920   20.8747 C   0  0  0  0  0  0
  -23.9063  -10.4300   21.0408 C   0  0  0  0  0  0
  -24.3618   -9.4215   21.9184 C   0  0  0  0  0  0
  -23.6298   -8.2246   22.0752 C   0  0  0  0  0  0
  -22.4280   -8.0280   21.3542 C   0  0  0  0  0  0
  -21.9914   -9.0252   20.4642 C   0  0  0  0  0  0
  -22.7235  -10.2137   20.3058 C   0  0  0  0  0  0
  -21.6853   -6.0736   22.5277 C   0  0  0  0  0  0
  -21.4005   -6.5640   23.8208 C   0  0  0  0  0  0
  -21.3666   -5.6794   24.9174 C   0  0  0  0  0  0
  -21.6050   -4.3056   24.7224 C   0  0  0  0  0  0
  -21.8819   -3.8147   23.4343 C   0  0  0  0  0  0
  -21.9193   -4.6965   22.3399 C   0  0  0  0  0  0
  -22.7843  -13.5233   21.1863 C   0  0  0  0  0  0
  -22.1665   -4.2153   21.0976 F   0  0  0  0  0  0
  -21.5640   -3.4539   25.7737 F   0  0  0  0  0  0
  -30.0150  -13.3952   20.4219 N   0  0  0  0  0  0
  -26.2981  -12.9383   20.3337 N   0  0  0  0  0  0
  -25.9325  -11.6531   20.5768 N   0  0  0  0  0  0
  -22.0492  -12.8214   22.0414 N   0  0  0  0  0  0
  -25.4260  -15.1911   20.4119 N   0  0  0  0  0  0
  -31.8543  -14.6790   20.1210 O   0  0  0  0  0  0
  -21.6640   -6.8879   21.4239 O   0  0  0  0  0  0
  -22.3531  -14.5550   20.6727 O   0  0  0  0  0  0
  -24.6235  -31.8639   23.2085 C   0  0  0  0  0  0
  -25.9101  -32.4800   23.8392 C   0  0  1  0  0  0
  -27.2167  -27.3451   20.0978 C   0  0  0  0  0  0
  -25.5934  -33.8602   24.2313 N   0  0  0  0  0  0
  -23.4144  -30.4917   21.5514 C   0  0  2  0  0  0
  -24.8576  -28.9598   20.1097 C   0  0  0  0  0  0
  -22.7457  -29.4647   22.4957 C   0  0  0  0  0  0
  -18.0283  -28.1382   22.8491 C   0  0  0  0  0  0
  -24.1489  -36.7299   23.2631 C   0  0  0  0  0  0
  -25.9558  -30.7988   21.3809 C   0  0  0  0  0  0
  -26.0261  -29.4303   20.7208 C   0  0  0  0  0  0
  -27.2050  -28.6304   20.7169 C   0  0  0  0  0  0
  -26.0257  -26.9404   19.4423 C   0  0  0  0  0  0
  -24.8577  -27.7176   19.4653 C   0  0  0  0  0  0
  -23.6261  -29.8364   20.1635 C   0  0  0  0  0  0
  -25.4111  -36.3096   24.0329 C   0  0  1  0  0  0
  -20.5881  -28.3684   23.1293 C   0  0  2  0  0  0
  -20.6774  -26.9411   22.5412 C   0  0  0  0  0  0
  -19.5745  -26.6388   21.5216 C   0  0  0  0  0  0
  -18.1927  -26.7928   22.1626 C   0  0  0  0  0  0
  -19.1533  -28.8852   23.2888 C   0  0  0  0  0  0
  -18.9457  -30.1458   23.8900 C   0  0  0  0  0  0
  -17.6456  -30.6587   24.0568 C   0  0  0  0  0  0
  -25.9054  -34.9465   23.5118 C   0  0  0  0  0  0
  -16.5349  -29.9084   23.6331 C   0  0  0  0  0  0
  -16.7272  -28.6503   23.0352 C   0  0  0  0  0  0
  -26.4493  -31.6596   25.0746 C   0  0  0  0  0  0
  -25.3738  -31.3715   26.1477 C   0  0  0  0  0  0
  -27.0326  -30.3020   24.6183 C   0  0  0  0  0  0
  -27.6071  -32.4315   25.7505 C   0  0  0  0  0  0
  -27.5593  -37.1787   24.8451 C   0  0  0  0  0  0
  -21.4176  -29.3042   22.3691 N   0  0  0  0  0  0
  -26.4285  -37.3797   23.9428 N   0  0  0  0  0  0
  -24.6833  -31.0670   22.1035 N   0  0  0  0  0  0
  -23.4197  -28.8175   23.3016 O   0  0  0  0  0  0
  -28.3360  -26.5010   20.1640 O   0  0  0  0  0  0
  -26.5614  -34.8922   22.4679 O   0  0  0  0  0  0
  -23.5405  -32.1436   23.7422 O   0  0  0  0  0  0
  -29.6823  -18.2154   20.7845 C   0  0  0  0  0  0
  -31.6036  -19.5948   21.2645 C   0  0  0  0  0  0
  -31.8283  -17.2915   21.3942 C   0  0  0  0  0  0
  -30.2429  -19.5296   20.9081 C   0  0  0  0  0  0
  -30.4896  -17.0530   21.0103 C   0  0  0  0  0  0
  -29.7504  -21.4681   19.2644 C   0  0  0  0  0  0
  -29.6973  -21.9905   21.6968 C   0  0  0  0  0  0
  -28.9567  -22.7783   18.9830 C   0  0  0  0  0  0
  -28.9376  -23.3326   21.4162 C   0  0  0  0  0  0
  -29.4512  -20.8539   20.6510 C   0  0  2  0  0  0
  -29.1623  -23.9419   20.0017 C   0  0  2  0  0  0
  -28.1988  -25.1418   19.6192 C   0  0  0  0  0  0
  -32.3720  -18.5177   21.5146 N   0  0  0  0  0  0
  -29.9883  -15.6880   20.8914 N   0  0  0  0  0  0
  -30.4997  -24.3800   19.8521 O   0  0  0  0  0  0
  -31.4637  -12.4539   19.1449 H   0  0  0  0  0  0
  -30.3249  -11.3698   19.8913 H   0  0  0  0  0  0
  -29.7514  -11.7522   17.4678 H   0  0  0  0  0  0
  -29.6508  -13.4732   17.7484 H   0  0  0  0  0  0
  -27.8500  -11.2968   18.8607 H   0  0  0  0  0  0
  -27.3671  -12.5884   17.7930 H   0  0  0  0  0  0
  -27.6682  -14.2567   19.5199 H   0  0  0  0  0  0
  -28.6948  -12.0765   21.4025 H   0  0  0  0  0  0
  -28.4543  -13.7497   21.8265 H   0  0  0  0  0  0
  -25.2762   -9.5694   22.4759 H   0  0  0  0  0  0
  -24.0014   -7.4636   22.7469 H   0  0  0  0  0  0
  -21.0848   -8.8761   19.8946 H   0  0  0  0  0  0
  -22.3685  -10.9675   19.6171 H   0  0  0  0  0  0
  -21.1980   -7.6145   23.9710 H   0  0  0  0  0  0
  -21.1500   -6.0525   25.9078 H   0  0  0  0  0  0
  -22.0591   -2.7608   23.2838 H   0  0  0  0  0  0
  -22.4116  -11.9867   22.4781 H   0  0  0  0  0  0
  -21.1113  -13.1233   22.2634 H   0  0  0  0  0  0
  -24.6582  -15.8450   20.5185 H   0  0  0  0  0  0
  -26.2727  -15.6287   20.0714 H   0  0  0  0  0  0
  -26.7164  -32.5476   23.1138 H   0  0  0  0  0  0
  -25.0091  -33.9764   25.0463 H   0  0  0  0  0  0
  -22.7067  -31.3120   21.4146 H   0  0  0  0  0  0
  -23.3769  -35.9609   23.3256 H   0  0  0  0  0  0
  -24.3596  -36.8960   22.2054 H   0  0  0  0  0  0
  -23.7210  -37.6476   23.6676 H   0  0  0  0  0  0
  -26.0881  -31.5640   20.6146 H   0  0  0  0  0  0
  -26.8367  -30.8433   22.0094 H   0  0  0  0  0  0
  -28.0985  -28.9835   21.2129 H   0  0  0  0  0  0
  -25.9453  -26.0132   18.8974 H   0  0  0  0  0  0
  -23.9655  -27.3575   18.9713 H   0  0  0  0  0  0
  -23.7435  -30.6173   19.4114 H   0  0  0  0  0  0
  -22.7461  -29.2666   19.8596 H   0  0  0  0  0  0
  -25.1280  -36.1948   25.0816 H   0  0  0  0  0  0
  -20.9975  -28.3258   24.1410 H   0  0  0  0  0  0
  -20.5690  -26.2293   23.3607 H   0  0  0  0  0  0
  -21.6642  -26.7451   22.1195 H   0  0  0  0  0  0
  -19.6909  -25.6301   21.1240 H   0  0  0  0  0  0
  -19.6683  -27.3204   20.6751 H   0  0  0  0  0  0
  -17.4199  -26.6684   21.4026 H   0  0  0  0  0  0
  -18.0323  -26.0068   22.9018 H   0  0  0  0  0  0
  -19.7933  -30.7278   24.2266 H   0  0  0  0  0  0
  -17.5009  -31.6266   24.5168 H   0  0  0  0  0  0
  -15.5350  -30.2986   23.7655 H   0  0  0  0  0  0
  -15.8674  -28.0828   22.7059 H   0  0  0  0  0  0
  -24.5923  -30.7053   25.7807 H   0  0  0  0  0  0
  -24.8916  -32.2867   26.4914 H   0  0  0  0  0  0
  -25.8075  -30.8888   27.0245 H   0  0  0  0  0  0
  -26.2887  -29.6778   24.1219 H   0  0  0  0  0  0
  -27.4039  -29.7267   25.4678 H   0  0  0  0  0  0
  -27.8756  -30.4310   23.9390 H   0  0  0  0  0  0
  -27.2710  -33.3629   26.2074 H   0  0  0  0  0  0
  -28.3881  -32.6852   25.0324 H   0  0  0  0  0  0
  -28.0733  -31.8438   26.5424 H   0  0  0  0  0  0
  -28.2552  -38.0145   24.7599 H   0  0  0  0  0  0
  -28.1151  -36.2685   24.6147 H   0  0  0  0  0  0
  -27.2329  -37.1277   25.8853 H   0  0  0  0  0  0
  -20.9347  -29.8780   21.6917 H   0  0  0  0  0  0
  -26.0164  -38.2855   24.1497 H   0  0  0  0  0  0
  -28.6456  -18.1026   20.5016 H   0  0  0  0  0  0
  -32.1091  -20.5437   21.3561 H   0  0  0  0  0  0
  -32.5017  -16.4849   21.6400 H   0  0  0  0  0  0
  -30.8187  -21.6663   19.1685 H   0  0  0  0  0  0
  -29.5125  -20.7384   18.4893 H   0  0  0  0  0  0
  -29.4230  -21.6311   22.6893 H   0  0  0  0  0  0
  -30.7593  -22.2277   21.7526 H   0  0  0  0  0  0
  -27.8955  -22.5247   18.9579 H   0  0  0  0  0  0
  -29.1920  -23.1241   17.9749 H   0  0  0  0  0  0
  -29.1977  -24.0695   22.1774 H   0  0  0  0  0  0
  -27.8709  -23.1453   21.5485 H   0  0  0  0  0  0
  -28.3907  -20.5978   20.6852 H   0  0  0  0  0  0
  -27.2206  -24.7486   19.8938 H   0  0  0  0  0  0
  -28.1971  -25.2520   18.5333 H   0  0  0  0  0  0
  -28.9997  -15.5487   21.0377 H   0  0  0  0  0  0
  -31.0651  -23.6372   20.0255 H   0  0  0  0  0  0
  1 25  1  0  0  0
  1 30  2  0  0  0
  1 84  1  0  0  0
  2  3  1  0  0  0
  2 25  1  0  0  0
  2 86  1  0  0  0
  2 87  1  0  0  0
  3  4  1  0  0  0
  3 88  1  0  0  0
  3 89  1  0  0  0
  4  5  1  0  0  0
  4 90  1  0  0  0
  4 91  1  0  0  0
  5  6  1  0  0  0
  5 26  1  0  0  0
  5 92  1  0  0  0
  6 25  1  0  0  0
  6 93  1  0  0  0
  6 94  1  0  0  0
  7  8  2  0  0  0
  7 26  1  0  0  0
  7 29  1  0  0  0
  8  9  1  0  0  0
  8 22  1  0  0  0
  9 10  1  0  0  0
  9 27  2  0  0  0
 10 11  2  0  0  0
 10 15  1  0  0  0
 11 12  1  0  0  0
 11 95  1  0  0  0
 12 13  2  0  0  0
 12 96  1  0  0  0
 13 14  1  0  0  0
 13 31  1  0  0  0
 14 15  2  0  0  0
 14 97  1  0  0  0
 15 98  1  0  0  0
 16 17  2  0  0  0
 16 21  1  0  0  0
 16 31  1  0  0  0
 17 18  1  0  0  0
 17 99  1  0  0  0
 18 19  2  0  0  0
 18100  1  0  0  0
 19 20  1  0  0  0
 19 24  1  0  0  0
 20 21  2  0  0  0
 20101  1  0  0  0
 21 23  1  0  0  0
 22 28  1  0  0  0
 22 32  2  0  0  0
 26 27  1  0  0  0
 28102  1  0  0  0
 28103  1  0  0  0
 29104  1  0  0  0
 29105  1  0  0  0
 33 34  1  0  0  0
 33 66  1  0  0  0
 33 70  2  0  0  0
 34 36  1  0  0  0
 34 59  1  0  0  0
 34106  1  0  0  0
 35 44  2  0  0  0
 35 45  1  0  0  0
 35 68  1  0  0  0
 36 56  1  0  0  0
 36107  1  0  0  0
 37 39  1  0  0  0
 37 47  1  0  0  0
 37 66  1  0  0  0
 37108  1  0  0  0
 38 43  2  0  0  0
 38 46  1  0  0  0
 38 47  1  0  0  0
 39 64  1  0  0  0
 39 67  2  0  0  0
 40 52  1  0  0  0
 40 53  2  0  0  0
 40 58  1  0  0  0
 41109  1  0  0  0
 41110  1  0  0  0
 41111  1  0  0  0
 41 48  1  0  0  0
 42 43  1  0  0  0
 42 66  1  0  0  0
 42112  1  0  0  0
 42113  1  0  0  0
 43 44  1  0  0  0
 44114  1  0  0  0
 45 46  2  0  0  0
 45115  1  0  0  0
 46116  1  0  0  0
 47117  1  0  0  0
 47118  1  0  0  0
 48 56  1  0  0  0
 48 65  1  0  0  0
 48119  1  0  0  0
 49 50  1  0  0  0
 49 53  1  0  0  0
 49 64  1  0  0  0
 49120  1  0  0  0
 50 51  1  0  0  0
 50121  1  0  0  0
 50122  1  0  0  0
 51 52  1  0  0  0
 51123  1  0  0  0
 51124  1  0  0  0
 52125  1  0  0  0
 52126  1  0  0  0
 53 54  1  0  0  0
 54 55  2  0  0  0
 54127  1  0  0  0
 55 57  1  0  0  0
 55128  1  0  0  0
 56 69  2  0  0  0
 57 58  2  0  0  0
 57129  1  0  0  0
 58130  1  0  0  0
 59 60  1  0  0  0
 59 61  1  0  0  0
 59 62  1  0  0  0
 60131  1  0  0  0
 60132  1  0  0  0
 60133  1  0  0  0
 61134  1  0  0  0
 61135  1  0  0  0
 61136  1  0  0  0
 62137  1  0  0  0
 62138  1  0  0  0
 62139  1  0  0  0
 63 65  1  0  0  0
 63140  1  0  0  0
 63141  1  0  0  0
 63142  1  0  0  0
 64143  1  0  0  0
 65144  1  0  0  0
 68 82  1  0  0  0
 71 74  2  0  0  0
 71 75  1  0  0  0
 71145  1  0  0  0
 72 74  1  0  0  0
 72 83  2  0  0  0
 72146  1  0  0  0
 73 75  2  0  0  0
 73 83  1  0  0  0
 73147  1  0  0  0
 74 80  1  0  0  0
 75 84  1  0  0  0
 76 78  1  0  0  0
 76 80  1  0  0  0
 76148  1  0  0  0
 76149  1  0  0  0
 77 79  1  0  0  0
 77 80  1  0  0  0
 77150  1  0  0  0
 77151  1  0  0  0
 78 81  1  0  0  0
 78152  1  0  0  0
 78153  1  0  0  0
 79 81  1  0  0  0
 79154  1  0  0  0
 79155  1  0  0  0
 80156  1  0  0  0
 81 82  1  0  0  0
 81 85  1  0  0  0
 82157  1  0  0  0
 82158  1  0  0  0
 84159  1  0  0  0
 85160  1  0  0  0
M  ISO  4   1 100  68 101  82 101  84 100
M  END
> <chiral flag>
0

> <version>
0

> <s_m_source_file>
/data/baiqing/PycharmProjects/Reinvent-master-3.2/result/LINK_invent/BTK/process_docking_weight1_custom_product_contain_oxygen_bond_distance_aromatic_linkinvent_7_9_3/rearranged_h_0152.sdf

> <i_m_source_file_index>
95

> <r_mmod_Potential_Energy-OPLS-2005>
-143.647476196289

> <r_mmod_Stretch_Energy-OPLS-2005>
66.0148773193359

> <r_mmod_Bend_Energy-OPLS-2005>
129.86946105957

> <r_mmod_Torsional_Energy-OPLS-2005>
252.635238647461

> <r_mmod_Improper_Torsional_Energy-OPLS-2005>
4.64910459518433

> <r_mmod_Van_der_Waal_Energy-OPLS-2005>
166.511093139648

> <r_mmod_Electrostatic_Energy-OPLS-2005>
-559.393920898438

> <r_mmod_Solvation_Energy-OPLS-2005>
-241.598892211914

> <b_mmod_Minimization_Converged-OPLS-2005>
0

> <r_mmod_RMS_Derivative-OPLS-2005>
0.640678286552429

$$$$
95
                    3D
 Structure written by MMmdl.
152161  0  0  1  0            999 V2000
  -30.6615  -14.7073   20.4703 C   0  0  0  0  0  0
  -30.4191  -12.4342   19.4760 C   0  0  0  0  0  0
  -29.5029  -12.4983   18.2363 C   0  0  0  0  0  0
  -28.0304  -12.3300   18.6525 C   0  0  0  0  0  0
  -27.6405  -13.2355   19.8516 C   0  0  2  0  0  0
  -28.6851  -13.1805   20.9883 C   0  0  0  0  0  0
  -25.2499  -13.8214   20.5706 C   0  0  0  0  0  0
  -24.1794  -13.0450   20.9211 C   0  0  0  0  0  0
  -24.6393  -11.6931   20.8758 C   0  0  0  0  0  0
  -23.9076  -10.4301   21.0414 C   0  0  0  0  0  0
  -24.3625   -9.4213   21.9189 C   0  0  0  0  0  0
  -23.6299   -8.2249   22.0758 C   0  0  0  0  0  0
  -22.4281   -8.0288   21.3547 C   0  0  0  0  0  0
  -21.9920   -9.0263   20.4648 C   0  0  0  0  0  0
  -22.7250  -10.2139   20.3062 C   0  0  0  0  0  0
  -21.6855   -6.0741   22.5278 C   0  0  0  0  0  0
  -21.4015   -6.5642   23.8212 C   0  0  0  0  0  0
  -21.3658   -5.6793   24.9173 C   0  0  0  0  0  0
  -21.6043   -4.3058   24.7223 C   0  0  0  0  0  0
  -21.8818   -3.8150   23.4344 C   0  0  0  0  0  0
  -21.9191   -4.6968   22.3400 C   0  0  0  0  0  0
  -22.7813  -13.5224   21.1866 C   0  0  0  0  0  0
  -22.1660   -4.2154   21.0978 F   0  0  0  0  0  0
  -21.5626   -3.4541   25.7735 F   0  0  0  0  0  0
  -29.9890  -13.5088   20.4016 N   0  0  0  0  0  0
  -26.2930  -12.9429   20.3303 N   0  0  0  0  0  0
  -25.9327  -11.6567   20.5782 N   0  0  0  0  0  0
  -22.0463  -12.8212   22.0422 N   0  0  0  0  0  0
  -25.4183  -15.1941   20.4117 N   0  0  0  0  0  0
  -31.8468  -14.7532   20.1337 O   0  0  0  0  0  0
  -21.6641   -6.8886   21.4242 O   0  0  0  0  0  0
  -22.3493  -14.5528   20.6712 O   0  0  0  0  0  0
  -24.6307  -31.8565   23.2020 C   0  0  0  0  0  0
  -25.9137  -32.4760   23.8351 C   0  0  1  0  0  0
  -27.2076  -27.2650   20.1225 C   0  0  0  0  0  0
  -25.5934  -33.8564   24.2264 N   0  0  0  0  0  0
  -23.4262  -30.4831   21.5454 C   0  0  2  0  0  0
  -24.8717  -28.9409   20.1058 C   0  0  0  0  0  0
  -22.7502  -29.4607   22.4911 C   0  0  0  0  0  0
  -18.0285  -28.1389   22.8480 C   0  0  0  0  0  0
  -24.1490  -36.7285   23.2639 C   0  0  0  0  0  0
  -25.9741  -30.7693   21.3848 C   0  0  0  0  0  0
  -26.0443  -29.3952   20.7227 C   0  0  0  0  0  0
  -27.2145  -28.5684   20.7255 C   0  0  0  0  0  0
  -26.0159  -26.8970   19.4520 C   0  0  0  0  0  0
  -24.8630  -27.6993   19.4597 C   0  0  0  0  0  0
  -23.6435  -29.8266   20.1583 C   0  0  0  0  0  0
  -25.4118  -36.3070   24.0324 C   0  0  1  0  0  0
  -20.5891  -28.3700   23.1262 C   0  0  2  0  0  0
  -20.6776  -26.9417   22.5406 C   0  0  0  0  0  0
  -19.5753  -26.6382   21.5210 C   0  0  0  0  0  0
  -18.1930  -26.7928   22.1620 C   0  0  0  0  0  0
  -19.1542  -28.8861   23.2864 C   0  0  0  0  0  0
  -18.9465  -30.1456   23.8892 C   0  0  0  0  0  0
  -17.6468  -30.6589   24.0563 C   0  0  0  0  0  0
  -25.9060  -34.9440   23.5095 C   0  0  0  0  0  0
  -16.5357  -29.9089   23.6336 C   0  0  0  0  0  0
  -16.7273  -28.6505   23.0358 C   0  0  0  0  0  0
  -26.4510  -31.6588   25.0740 C   0  0  0  0  0  0
  -25.3728  -31.3735   26.1456 C   0  0  0  0  0  0
  -27.0361  -30.2999   24.6237 C   0  0  0  0  0  0
  -27.6056  -32.4341   25.7510 C   0  0  0  0  0  0
  -27.5578  -37.1797   24.8466 C   0  0  0  0  0  0
  -21.4210  -29.3048   22.3654 N   0  0  0  0  0  0
  -26.4292  -37.3770   23.9410 N   0  0  0  0  0  0
  -24.6959  -31.0539   22.0999 N   0  0  0  0  0  0
  -23.4206  -28.8127   23.2992 O   0  0  0  0  0  0
  -28.2783  -26.3407   20.2103 O   0  0  0  0  0  0
  -26.5631  -34.8912   22.4664 O   0  0  0  0  0  0
  -23.5459  -32.1387   23.7319 O   0  0  0  0  0  0
  -29.8789  -20.8417   21.6471 C   0  0  0  0  0  0
  -30.2767  -19.4515   21.7203 C   0  0  0  0  0  0
  -29.8736  -18.6447   20.7051 C   0  0  0  0  0  0
  -29.1701  -21.1818   20.5065 C   0  0  0  0  0  0
  -28.8841  -23.7271   20.5092 C   0  0  0  0  0  0
  -31.1847  -18.7165   22.6403 C   0  0  0  0  0  0
  -31.6152  -17.4621   21.8286 C   0  0  0  0  0  0
  -30.6208  -17.2732   20.6402 C   0  0  1  0  0  0
  -27.9777  -24.8958   19.9068 C   0  0  0  0  0  0
  -28.6521  -22.4209   20.1026 N   0  0  0  0  0  0
  -29.9810  -15.8901   20.7195 N   0  0  0  0  0  0
  -29.7616  -24.0079   21.3304 O   0  0  0  0  0  0
  -28.9899  -19.6614   19.5449 S   0  0  0  0  0  0
  -31.4633  -12.5303   19.1735 H   0  0  0  0  0  0
  -30.3421  -11.4609   19.9635 H   0  0  0  0  0  0
  -29.7799  -11.7230   17.5207 H   0  0  0  0  0  0
  -29.6363  -13.4525   17.7240 H   0  0  0  0  0  0
  -27.8857  -11.2826   18.9197 H   0  0  0  0  0  0
  -27.3716  -12.5190   17.8043 H   0  0  0  0  0  0
  -27.6344  -14.2559   19.4670 H   0  0  0  0  0  0
  -28.7110  -12.1914   21.4482 H   0  0  0  0  0  0
  -28.4274  -13.8826   21.7831 H   0  0  0  0  0  0
  -25.2769   -9.5682   22.4766 H   0  0  0  0  0  0
  -24.0003   -7.4638   22.7479 H   0  0  0  0  0  0
  -21.0850   -8.8785   19.8955 H   0  0  0  0  0  0
  -22.3713  -10.9680   19.6173 H   0  0  0  0  0  0
  -21.2013   -7.6152   23.9716 H   0  0  0  0  0  0
  -21.1478   -6.0525   25.9073 H   0  0  0  0  0  0
  -22.0599   -2.7615   23.2841 H   0  0  0  0  0  0
  -22.4085  -11.9874   22.4804 H   0  0  0  0  0  0
  -21.1084  -13.1232   22.2642 H   0  0  0  0  0  0
  -24.6507  -15.8477   20.5233 H   0  0  0  0  0  0
  -26.2662  -15.6348   20.0782 H   0  0  0  0  0  0
  -26.7197  -32.5410   23.1087 H   0  0  0  0  0  0
  -25.0074  -33.9704   25.0403 H   0  0  0  0  0  0
  -22.7218  -31.3057   21.4045 H   0  0  0  0  0  0
  -23.3747  -35.9621   23.3308 H   0  0  0  0  0  0
  -24.3578  -36.8912   22.2054 H   0  0  0  0  0  0
  -23.7251  -37.6489   23.6667 H   0  0  0  0  0  0
  -26.1171  -31.5326   20.6187 H   0  0  0  0  0  0
  -26.8498  -30.8125   22.0205 H   0  0  0  0  0  0
  -28.1061  -28.9045   21.2360 H   0  0  0  0  0  0
  -25.9290  -25.9608   18.9220 H   0  0  0  0  0  0
  -23.9691  -27.3517   18.9602 H   0  0  0  0  0  0
  -23.7675  -30.6079   19.4072 H   0  0  0  0  0  0
  -22.7614  -29.2622   19.8504 H   0  0  0  0  0  0
  -25.1299  -36.1922   25.0817 H   0  0  0  0  0  0
  -20.9977  -28.3285   24.1386 H   0  0  0  0  0  0
  -20.5681  -26.2313   23.3613 H   0  0  0  0  0  0
  -21.6643  -26.7447   22.1197 H   0  0  0  0  0  0
  -19.6921  -25.6290   21.1242 H   0  0  0  0  0  0
  -19.6691  -27.3190   20.6737 H   0  0  0  0  0  0
  -17.4200  -26.6667   21.4020 H   0  0  0  0  0  0
  -18.0335  -26.0071   22.9021 H   0  0  0  0  0  0
  -19.7946  -30.7263   24.2264 H   0  0  0  0  0  0
  -17.5028  -31.6274   24.5163 H   0  0  0  0  0  0
  -15.5359  -30.2994   23.7665 H   0  0  0  0  0  0
  -15.8669  -28.0823   22.7086 H   0  0  0  0  0  0
  -24.5910  -30.7082   25.7780 H   0  0  0  0  0  0
  -24.8913  -32.2905   26.4864 H   0  0  0  0  0  0
  -25.8038  -30.8925   27.0248 H   0  0  0  0  0  0
  -26.2955  -29.6737   24.1249 H   0  0  0  0  0  0
  -27.4025  -29.7272   25.4770 H   0  0  0  0  0  0
  -27.8842  -30.4263   23.9501 H   0  0  0  0  0  0
  -27.2656  -33.3650   26.2058 H   0  0  0  0  0  0
  -28.3871  -32.6895   25.0342 H   0  0  0  0  0  0
  -28.0713  -31.8493   26.5452 H   0  0  0  0  0  0
  -28.2592  -38.0095   24.7512 H   0  0  0  0  0  0
  -28.1079  -36.2629   24.6296 H   0  0  0  0  0  0
  -27.2296  -37.1453   25.8867 H   0  0  0  0  0  0
  -20.9393  -29.8799   21.6883 H   0  0  0  0  0  0
  -26.0170  -38.2844   24.1412 H   0  0  0  0  0  0
  -30.1703  -21.5479   22.4124 H   0  0  0  0  0  0
  -30.6499  -18.4221   23.5440 H   0  0  0  0  0  0
  -32.0440  -19.3160   22.9430 H   0  0  0  0  0  0
  -31.7248  -16.5860   22.4683 H   0  0  0  0  0  0
  -32.6035  -17.6548   21.4084 H   0  0  0  0  0  0
  -31.1940  -17.2780   19.7107 H   0  0  0  0  0  0
  -26.9850  -24.6500   20.2854 H   0  0  0  0  0  0
  -27.9479  -24.7707   18.8241 H   0  0  0  0  0  0
  -27.9648  -22.3575   19.3630 H   0  0  0  0  0  0
  -28.9973  -15.8352   20.9361 H   0  0  0  0  0  0
  1 25  1  0  0  0
  1 30  2  0  0  0
  1 81  1  0  0  0
  2  3  1  0  0  0
  2 25  1  0  0  0
  2 84  1  0  0  0
  2 85  1  0  0  0
  3  4  1  0  0  0
  3 86  1  0  0  0
  3 87  1  0  0  0
  4  5  1  0  0  0
  4 88  1  0  0  0
  4 89  1  0  0  0
  5  6  1  0  0  0
  5 26  1  0  0  0
  5 90  1  0  0  0
  6 25  1  0  0  0
  6 91  1  0  0  0
  6 92  1  0  0  0
  7  8  2  0  0  0
  7 26  1  0  0  0
  7 29  1  0  0  0
  8  9  1  0  0  0
  8 22  1  0  0  0
  9 10  1  0  0  0
  9 27  2  0  0  0
 10 11  2  0  0  0
 10 15  1  0  0  0
 11 12  1  0  0  0
 11 93  1  0  0  0
 12 13  2  0  0  0
 12 94  1  0  0  0
 13 14  1  0  0  0
 13 31  1  0  0  0
 14 15  2  0  0  0
 14 95  1  0  0  0
 15 96  1  0  0  0
 16 17  2  0  0  0
 16 21  1  0  0  0
 16 31  1  0  0  0
 17 18  1  0  0  0
 17 97  1  0  0  0
 18 19  2  0  0  0
 18 98  1  0  0  0
 19 20  1  0  0  0
 19 24  1  0  0  0
 20 21  2  0  0  0
 20 99  1  0  0  0
 21 23  1  0  0  0
 22 28  1  0  0  0
 22 32  2  0  0  0
 26 27  1  0  0  0
 28100  1  0  0  0
 28101  1  0  0  0
 29102  1  0  0  0
 29103  1  0  0  0
 33 34  1  0  0  0
 33 66  1  0  0  0
 33 70  2  0  0  0
 34 36  1  0  0  0
 34 59  1  0  0  0
 34104  1  0  0  0
 35 44  2  0  0  0
 35 45  1  0  0  0
 35 68  1  0  0  0
 36 56  1  0  0  0
 36105  1  0  0  0
 37 39  1  0  0  0
 37 47  1  0  0  0
 37 66  1  0  0  0
 37106  1  0  0  0
 38 43  2  0  0  0
 38 46  1  0  0  0
 38 47  1  0  0  0
 39 64  1  0  0  0
 39 67  2  0  0  0
 40 52  1  0  0  0
 40 53  2  0  0  0
 40 58  1  0  0  0
 41107  1  0  0  0
 41108  1  0  0  0
 41109  1  0  0  0
 41 48  1  0  0  0
 42 43  1  0  0  0
 42 66  1  0  0  0
 42110  1  0  0  0
 42111  1  0  0  0
 43 44  1  0  0  0
 44112  1  0  0  0
 45 46  2  0  0  0
 45113  1  0  0  0
 46114  1  0  0  0
 47115  1  0  0  0
 47116  1  0  0  0
 48 56  1  0  0  0
 48 65  1  0  0  0
 48117  1  0  0  0
 49 50  1  0  0  0
 49 53  1  0  0  0
 49 64  1  0  0  0
 49118  1  0  0  0
 50 51  1  0  0  0
 50119  1  0  0  0
 50120  1  0  0  0
 51 52  1  0  0  0
 51121  1  0  0  0
 51122  1  0  0  0
 52123  1  0  0  0
 52124  1  0  0  0
 53 54  1  0  0  0
 54 55  2  0  0  0
 54125  1  0  0  0
 55 57  1  0  0  0
 55126  1  0  0  0
 56 69  2  0  0  0
 57 58  2  0  0  0
 57127  1  0  0  0
 58128  1  0  0  0
 59 60  1  0  0  0
 59 61  1  0  0  0
 59 62  1  0  0  0
 60129  1  0  0  0
 60130  1  0  0  0
 60131  1  0  0  0
 61132  1  0  0  0
 61133  1  0  0  0
 61134  1  0  0  0
 62135  1  0  0  0
 62136  1  0  0  0
 62137  1  0  0  0
 63 65  1  0  0  0
 63138  1  0  0  0
 63139  1  0  0  0
 63140  1  0  0  0
 64141  1  0  0  0
 65142  1  0  0  0
 68 79  1  0  0  0
 71 72  1  0  0  0
 71 74  2  0  0  0
 71143  1  0  0  0
 72 73  2  0  0  0
 72 76  1  0  0  0
 73 78  1  0  0  0
 73 83  1  0  0  0
 74 80  1  0  0  0
 74 83  1  0  0  0
 75 79  1  0  0  0
 75 80  1  0  0  0
 75 82  2  0  0  0
 76 77  1  0  0  0
 76144  1  0  0  0
 76145  1  0  0  0
 77 78  1  0  0  0
 77146  1  0  0  0
 77147  1  0  0  0
 78 81  1  0  0  0
 78148  1  0  0  0
 79149  1  0  0  0
 79150  1  0  0  0
 80151  1  0  0  0
 81152  1  0  0  0
M  ISO  4   1 100  68 101  79 101  81 100
M  END
> <chiral flag>
0

> <version>
0

> <s_m_source_file>
/data/baiqing/PycharmProjects/Reinvent-master-3.2/result/LINK_invent/BTK/process_docking_weight1_custom_product_contain_oxygen_bond_distance_aromatic_linkinvent_7_9_3/rearranged_h_0152.sdf

> <i_m_source_file_index>
96

> <r_mmod_Potential_Energy-OPLS-2005>
145.449661254883

> <r_mmod_Stretch_Energy-OPLS-2005>
104.852073669434

> <r_mmod_Bend_Energy-OPLS-2005>
244.877105712891

> <r_mmod_Torsional_Energy-OPLS-2005>
225.005157470703

> <r_mmod_Improper_Torsional_Energy-OPLS-2005>
9.43771553039551

> <r_mmod_Van_der_Waal_Energy-OPLS-2005>
124.98112487793

> <r_mmod_Electrostatic_Energy-OPLS-2005>
-404.538879394531

> <r_mmod_Solvation_Energy-OPLS-2005>
-240.952178955078

> <b_mmod_Minimization_Converged-OPLS-2005>
0

> <r_mmod_RMS_Derivative-OPLS-2005>
0.706223607063293

$$$$
96
                    3D
 Structure written by MMmdl.
149158  0  0  1  0            999 V2000
  -30.6487  -14.8523   20.4447 C   0  0  0  0  0  0
  -30.4167  -12.5355   19.4871 C   0  0  0  0  0  0
  -29.5047  -12.5121   18.2434 C   0  0  0  0  0  0
  -28.0382  -12.3153   18.6653 C   0  0  0  0  0  0
  -27.6261  -13.2470   19.8358 C   0  0  2  0  0  0
  -28.6735  -13.2732   20.9708 C   0  0  0  0  0  0
  -25.2422  -13.8207   20.5703 C   0  0  0  0  0  0
  -24.1755  -13.0428   20.9245 C   0  0  0  0  0  0
  -24.6383  -11.6920   20.8773 C   0  0  0  0  0  0
  -23.9075  -10.4288   21.0415 C   0  0  0  0  0  0
  -24.3626   -9.4201   21.9189 C   0  0  0  0  0  0
  -23.6299   -8.2238   22.0755 C   0  0  0  0  0  0
  -22.4281   -8.0279   21.3545 C   0  0  0  0  0  0
  -21.9919   -9.0253   20.4648 C   0  0  0  0  0  0
  -22.7248  -10.2131   20.3061 C   0  0  0  0  0  0
  -21.6854   -6.0736   22.5279 C   0  0  0  0  0  0
  -21.4014   -6.5640   23.8211 C   0  0  0  0  0  0
  -21.3659   -5.6792   24.9174 C   0  0  0  0  0  0
  -21.6044   -4.3056   24.7224 C   0  0  0  0  0  0
  -21.8819   -3.8147   23.4344 C   0  0  0  0  0  0
  -21.9192   -4.6964   22.3402 C   0  0  0  0  0  0
  -22.7776  -13.5199   21.1891 C   0  0  0  0  0  0
  -22.1662   -4.2149   21.0980 F   0  0  0  0  0  0
  -21.5629   -3.4539   25.7737 F   0  0  0  0  0  0
  -29.9528  -13.6517   20.3596 N   0  0  0  0  0  0
  -26.2864  -12.9455   20.3255 N   0  0  0  0  0  0
  -25.9317  -11.6585   20.5767 N   0  0  0  0  0  0
  -22.0428  -12.8191   22.0448 N   0  0  0  0  0  0
  -25.4012  -15.1927   20.4071 N   0  0  0  0  0  0
  -31.8552  -14.8081   20.1806 O   0  0  0  0  0  0
  -21.6641   -6.8879   21.4241 O   0  0  0  0  0  0
  -22.3460  -14.5501   20.6727 O   0  0  0  0  0  0
  -24.6387  -31.8498   23.1946 C   0  0  0  0  0  0
  -25.9183  -32.4725   23.8312 C   0  0  1  0  0  0
  -27.2071  -27.1869   20.1447 C   0  0  0  0  0  0
  -25.5955  -33.8530   24.2230 N   0  0  0  0  0  0
  -23.4389  -30.4727   21.5396 C   0  0  2  0  0  0
  -24.8867  -28.9123   20.1101 C   0  0  0  0  0  0
  -22.7542  -29.4579   22.4885 C   0  0  0  0  0  0
  -18.0300  -28.1391   22.8479 C   0  0  0  0  0  0
  -24.1492  -36.7268   23.2641 C   0  0  0  0  0  0
  -25.9924  -30.7386   21.3883 C   0  0  0  0  0  0
  -26.0629  -29.3553   20.7296 C   0  0  0  0  0  0
  -27.2278  -28.5073   20.7338 C   0  0  0  0  0  0
  -26.0151  -26.8470   19.4679 C   0  0  0  0  0  0
  -24.8728  -27.6695   19.4638 C   0  0  0  0  0  0
  -23.6618  -29.8082   20.1564 C   0  0  0  0  0  0
  -25.4121  -36.3051   24.0321 C   0  0  1  0  0  0
  -20.5910  -28.3713   23.1246 C   0  0  2  0  0  0
  -20.6786  -26.9423   22.5402 C   0  0  0  0  0  0
  -19.5759  -26.6381   21.5210 C   0  0  0  0  0  0
  -18.1942  -26.7932   22.1624 C   0  0  0  0  0  0
  -19.1555  -28.8870   23.2855 C   0  0  0  0  0  0
  -18.9472  -30.1468   23.8878 C   0  0  0  0  0  0
  -17.6470  -30.6590   24.0557 C   0  0  0  0  0  0
  -25.9068  -34.9423   23.5079 C   0  0  0  0  0  0
  -16.5361  -29.9083   23.6335 C   0  0  0  0  0  0
  -16.7285  -28.6501   23.0357 C   0  0  0  0  0  0
  -26.4520  -31.6574   25.0733 C   0  0  0  0  0  0
  -25.3719  -31.3756   26.1439 C   0  0  0  0  0  0
  -27.0373  -30.2972   24.6286 C   0  0  0  0  0  0
  -27.6063  -32.4328   25.7508 C   0  0  0  0  0  0
  -27.5578  -37.1791   24.8464 C   0  0  0  0  0  0
  -21.4241  -29.3049   22.3626 N   0  0  0  0  0  0
  -26.4290  -37.3757   23.9408 N   0  0  0  0  0  0
  -24.7094  -31.0401   22.0960 N   0  0  0  0  0  0
  -23.4210  -28.8117   23.3008 O   0  0  0  0  0  0
  -28.2489  -26.2074   20.1959 O   0  0  0  0  0  0
  -26.5641  -34.8908   22.4650 O   0  0  0  0  0  0
  -23.5518  -32.1353   23.7197 O   0  0  0  0  0  0
  -29.9206  -20.1305   20.1013 C   0  0  0  0  0  0
  -29.9046  -18.6556   20.2730 C   0  0  0  0  0  0
  -28.7974  -18.1981   20.8608 C   0  0  0  0  0  0
  -28.7826  -20.8212   20.5741 C   0  0  0  0  0  0
  -28.8000  -23.4580   20.2697 C   0  0  0  0  0  0
  -30.7662  -17.4022   19.9940 C   0  0  0  0  0  0
  -28.7653  -16.6727   21.0380 C   0  0  0  0  0  0
  -27.8586  -24.7640   20.5612 C   0  0  0  0  0  0
  -30.0380  -16.1347   20.4455 N   0  0  0  0  0  0
  -28.3462  -22.1790   20.6302 N   0  0  0  0  0  0
  -29.8996  -23.6143   19.7320 O   0  0  0  0  0  0
  -27.7057  -19.5403   21.2380 S   0  0  0  0  0  0
  -31.4563  -12.6440   19.1747 H   0  0  0  0  0  0
  -30.3702  -11.5846   20.0202 H   0  0  0  0  0  0
  -29.8096  -11.7154   17.5636 H   0  0  0  0  0  0
  -29.6087  -13.4467   17.6898 H   0  0  0  0  0  0
  -27.9231  -11.2735   18.9662 H   0  0  0  0  0  0
  -27.3741  -12.4597   17.8122 H   0  0  0  0  0  0
  -27.5902  -14.2467   19.4043 H   0  0  0  0  0  0
  -28.7457  -12.3013   21.4613 H   0  0  0  0  0  0
  -28.3880  -13.9867   21.7441 H   0  0  0  0  0  0
  -25.2766   -9.5680   22.4770 H   0  0  0  0  0  0
  -24.0006   -7.4629   22.7474 H   0  0  0  0  0  0
  -21.0850   -8.8775   19.8953 H   0  0  0  0  0  0
  -22.3706  -10.9674   19.6176 H   0  0  0  0  0  0
  -21.2006   -7.6147   23.9715 H   0  0  0  0  0  0
  -21.1482   -6.0522   25.9077 H   0  0  0  0  0  0
  -22.0599   -2.7609   23.2843 H   0  0  0  0  0  0
  -22.4053  -11.9861   22.4845 H   0  0  0  0  0  0
  -21.1042  -13.1208   22.2651 H   0  0  0  0  0  0
  -24.6244  -15.8362   20.5126 H   0  0  0  0  0  0
  -26.2299  -15.6329   20.0315 H   0  0  0  0  0  0
  -26.7249  -32.5348   23.1046 H   0  0  0  0  0  0
  -25.0096  -33.9656   25.0372 H   0  0  0  0  0  0
  -22.7390  -31.2976   21.3910 H   0  0  0  0  0  0
  -23.3758  -35.9596   23.3295 H   0  0  0  0  0  0
  -24.3579  -36.8901   22.2056 H   0  0  0  0  0  0
  -23.7242  -37.6464   23.6673 H   0  0  0  0  0  0
  -26.1441  -31.4958   20.6180 H   0  0  0  0  0  0
  -26.8648  -30.7856   22.0284 H   0  0  0  0  0  0
  -28.1233  -28.8383   21.2410 H   0  0  0  0  0  0
  -25.9380  -25.9123   18.9336 H   0  0  0  0  0  0
  -23.9799  -27.3320   18.9556 H   0  0  0  0  0  0
  -23.7941  -30.5852   19.4026 H   0  0  0  0  0  0
  -22.7777  -29.2480   19.8468 H   0  0  0  0  0  0
  -25.1308  -36.1888   25.0814 H   0  0  0  0  0  0
  -21.0002  -28.3297   24.1366 H   0  0  0  0  0  0
  -20.5683  -26.2326   23.3615 H   0  0  0  0  0  0
  -21.6653  -26.7436   22.1197 H   0  0  0  0  0  0
  -19.6920  -25.6287   21.1253 H   0  0  0  0  0  0
  -19.6696  -27.3179   20.6730 H   0  0  0  0  0  0
  -17.4210  -26.6672   21.4029 H   0  0  0  0  0  0
  -18.0345  -26.0079   22.9026 H   0  0  0  0  0  0
  -19.7948  -30.7288   24.2239 H   0  0  0  0  0  0
  -17.5024  -31.6270   24.5161 H   0  0  0  0  0  0
  -15.5361  -30.2978   23.7670 H   0  0  0  0  0  0
  -15.8685  -28.0812   22.7085 H   0  0  0  0  0  0
  -24.5886  -30.7118   25.7760 H   0  0  0  0  0  0
  -24.8924  -32.2938   26.4840 H   0  0  0  0  0  0
  -25.8011  -30.8937   27.0233 H   0  0  0  0  0  0
  -26.2979  -29.6706   24.1285 H   0  0  0  0  0  0
  -27.3985  -29.7260   25.4848 H   0  0  0  0  0  0
  -27.8892  -30.4212   23.9596 H   0  0  0  0  0  0
  -27.2667  -33.3642   26.2051 H   0  0  0  0  0  0
  -28.3891  -32.6865   25.0348 H   0  0  0  0  0  0
  -28.0713  -31.8476   26.5453 H   0  0  0  0  0  0
  -28.2593  -38.0091   24.7510 H   0  0  0  0  0  0
  -28.1077  -36.2621   24.6294 H   0  0  0  0  0  0
  -27.2295  -37.1443   25.8867 H   0  0  0  0  0  0
  -20.9440  -29.8770   21.6819 H   0  0  0  0  0  0
  -26.0163  -38.2828   24.1405 H   0  0  0  0  0  0
  -30.7635  -20.6234   19.6370 H   0  0  0  0  0  0
  -31.7214  -17.4779   20.5155 H   0  0  0  0  0  0
  -30.9928  -17.3212   18.9301 H   0  0  0  0  0  0
  -27.9069  -16.2516   20.5222 H   0  0  0  0  0  0
  -28.6960  -16.4056   22.0930 H   0  0  0  0  0  0
  -27.6846  -24.7716   21.6374 H   0  0  0  0  0  0
  -26.8957  -24.4997   20.1323 H   0  0  0  0  0  0
  -27.4325  -22.2561   21.0577 H   0  0  0  0  0  0
  1 25  1  0  0  0
  1 30  2  0  0  0
  1 79  1  0  0  0
  2  3  1  0  0  0
  2 25  1  0  0  0
  2 83  1  0  0  0
  2 84  1  0  0  0
  3  4  1  0  0  0
  3 85  1  0  0  0
  3 86  1  0  0  0
  4  5  1  0  0  0
  4 87  1  0  0  0
  4 88  1  0  0  0
  5  6  1  0  0  0
  5 26  1  0  0  0
  5 89  1  0  0  0
  6 25  1  0  0  0
  6 90  1  0  0  0
  6 91  1  0  0  0
  7  8  2  0  0  0
  7 26  1  0  0  0
  7 29  1  0  0  0
  8  9  1  0  0  0
  8 22  1  0  0  0
  9 10  1  0  0  0
  9 27  2  0  0  0
 10 11  2  0  0  0
 10 15  1  0  0  0
 11 12  1  0  0  0
 11 92  1  0  0  0
 12 13  2  0  0  0
 12 93  1  0  0  0
 13 14  1  0  0  0
 13 31  1  0  0  0
 14 15  2  0  0  0
 14 94  1  0  0  0
 15 95  1  0  0  0
 16 17  2  0  0  0
 16 21  1  0  0  0
 16 31  1  0  0  0
 17 18  1  0  0  0
 17 96  1  0  0  0
 18 19  2  0  0  0
 18 97  1  0  0  0
 19 20  1  0  0  0
 19 24  1  0  0  0
 20 21  2  0  0  0
 20 98  1  0  0  0
 21 23  1  0  0  0
 22 28  1  0  0  0
 22 32  2  0  0  0
 26 27  1  0  0  0
 28 99  1  0  0  0
 28100  1  0  0  0
 29101  1  0  0  0
 29102  1  0  0  0
 33 34  1  0  0  0
 33 66  1  0  0  0
 33 70  2  0  0  0
 34 36  1  0  0  0
 34 59  1  0  0  0
 34103  1  0  0  0
 35 44  2  0  0  0
 35 45  1  0  0  0
 35 68  1  0  0  0
 36 56  1  0  0  0
 36104  1  0  0  0
 37 39  1  0  0  0
 37 47  1  0  0  0
 37 66  1  0  0  0
 37105  1  0  0  0
 38 43  2  0  0  0
 38 46  1  0  0  0
 38 47  1  0  0  0
 39 64  1  0  0  0
 39 67  2  0  0  0
 40 52  1  0  0  0
 40 53  2  0  0  0
 40 58  1  0  0  0
 41106  1  0  0  0
 41107  1  0  0  0
 41108  1  0  0  0
 41 48  1  0  0  0
 42 43  1  0  0  0
 42 66  1  0  0  0
 42109  1  0  0  0
 42110  1  0  0  0
 43 44  1  0  0  0
 44111  1  0  0  0
 45 46  2  0  0  0
 45112  1  0  0  0
 46113  1  0  0  0
 47114  1  0  0  0
 47115  1  0  0  0
 48 56  1  0  0  0
 48 65  1  0  0  0
 48116  1  0  0  0
 49 50  1  0  0  0
 49 53  1  0  0  0
 49 64  1  0  0  0
 49117  1  0  0  0
 50 51  1  0  0  0
 50118  1  0  0  0
 50119  1  0  0  0
 51 52  1  0  0  0
 51120  1  0  0  0
 51121  1  0  0  0
 52122  1  0  0  0
 52123  1  0  0  0
 53 54  1  0  0  0
 54 55  2  0  0  0
 54124  1  0  0  0
 55 57  1  0  0  0
 55125  1  0  0  0
 56 69  2  0  0  0
 57 58  2  0  0  0
 57126  1  0  0  0
 58127  1  0  0  0
 59 60  1  0  0  0
 59 61  1  0  0  0
 59 62  1  0  0  0
 60128  1  0  0  0
 60129  1  0  0  0
 60130  1  0  0  0
 61131  1  0  0  0
 61132  1  0  0  0
 61133  1  0  0  0
 62134  1  0  0  0
 62135  1  0  0  0
 62136  1  0  0  0
 63 65  1  0  0  0
 63137  1  0  0  0
 63138  1  0  0  0
 63139  1  0  0  0
 64140  1  0  0  0
 65141  1  0  0  0
 68 78  1  0  0  0
 71 72  1  0  0  0
 71 74  2  0  0  0
 71142  1  0  0  0
 72 73  2  0  0  0
 72 76  1  0  0  0
 73 77  1  0  0  0
 73 82  1  0  0  0
 74 80  1  0  0  0
 74 82  1  0  0  0
 75 78  1  0  0  0
 75 80  1  0  0  0
 75 81  2  0  0  0
 76 79  1  0  0  0
 76143  1  0  0  0
 76144  1  0  0  0
 77 79  1  0  0  0
 77145  1  0  0  0
 77146  1  0  0  0
 78147  1  0  0  0
 78148  1  0  0  0
 80149  1  0  0  0
M  ISO  4   1 100  68 101  78 101  79 100
M  END
> <chiral flag>
0

> <version>
0

> <s_m_source_file>
/data/baiqing/PycharmProjects/Reinvent-master-3.2/result/LINK_invent/BTK/process_docking_weight1_custom_product_contain_oxygen_bond_distance_aromatic_linkinvent_7_9_3/rearranged_h_0152.sdf

> <i_m_source_file_index>
97

> <r_mmod_Potential_Energy-OPLS-2005>
427.202453613281

> <r_mmod_Stretch_Energy-OPLS-2005>
167.784561157227

> <r_mmod_Bend_Energy-OPLS-2005>
306.031890869141

> <r_mmod_Torsional_Energy-OPLS-2005>
257.585876464844

> <r_mmod_Improper_Torsional_Energy-OPLS-2005>
10.344162940979

> <r_mmod_Van_der_Waal_Energy-OPLS-2005>
111.17017364502

> <r_mmod_Electrostatic_Energy-OPLS-2005>
-329.476287841797

> <r_mmod_Solvation_Energy-OPLS-2005>
-240.983840942383

> <b_mmod_Minimization_Converged-OPLS-2005>
0

> <r_mmod_RMS_Derivative-OPLS-2005>
0.333023279905319

$$$$
97
                    3D
 Structure written by MMmdl.
147155  0  0  1  0            999 V2000
  -29.2902  -17.0828   20.1978 C   0  0  0  0  0  0
  -30.0911  -14.2389   19.4939 C   0  0  0  0  0  0
  -29.5136  -13.1523   18.4630 C   0  0  0  0  0  0
  -28.2633  -12.4411   18.9758 C   0  0  0  0  0  0
  -27.5046  -13.4666   19.8196 C   0  0  2  0  0  0
  -28.3378  -14.3320   20.8381 C   0  0  0  0  0  0
  -25.1760  -13.8478   20.5944 C   0  0  0  0  0  0
  -24.1400  -13.0393   20.9401 C   0  0  0  0  0  0
  -24.6373  -11.6991   20.8783 C   0  0  0  0  0  0
  -23.9167  -10.4268   21.0352 C   0  0  0  0  0  0
  -24.3692   -9.4190   21.9149 C   0  0  0  0  0  0
  -23.6338   -8.2240   22.0740 C   0  0  0  0  0  0
  -22.4315   -8.0278   21.3536 C   0  0  0  0  0  0
  -21.9971   -9.0238   20.4618 C   0  0  0  0  0  0
  -22.7328  -10.2097   20.3007 C   0  0  0  0  0  0
  -21.6864   -6.0745   22.5281 C   0  0  0  0  0  0
  -21.4028   -6.5645   23.8217 C   0  0  0  0  0  0
  -21.3671   -5.6793   24.9177 C   0  0  0  0  0  0
  -21.6045   -4.3055   24.7222 C   0  0  0  0  0  0
  -21.8815   -3.8150   23.4341 C   0  0  0  0  0  0
  -21.9194   -4.6971   22.3401 C   0  0  0  0  0  0
  -22.7402  -13.4997   21.2017 C   0  0  0  0  0  0
  -22.1661   -4.2158   21.0979 F   0  0  0  0  0  0
  -21.5627   -3.4538   25.7733 F   0  0  0  0  0  0
  -29.1223  -15.4354   20.0893 N   0  0  0  0  0  0
  -26.2386  -13.0113   20.3483 N   0  0  0  0  0  0
  -25.9363  -11.7004   20.5661 N   0  0  0  0  0  0
  -22.0159  -12.7922   22.0587 N   0  0  0  0  0  0
  -25.3023  -15.2258   20.4283 N   0  0  0  0  0  0
  -30.5727  -16.8836   20.1956 O   0  0  0  0  0  0
  -21.6658   -6.8891   21.4244 O   0  0  0  0  0  0
  -22.3027  -14.5284   20.6861 O   0  0  0  0  0  0
  -24.6603  -31.6188   22.9918 C   0  0  0  0  0  0
  -25.8987  -32.3513   23.6728 C   0  0  1  0  0  0
  -28.3940  -26.8910   19.8786 C   0  0  0  0  0  0
  -25.5392  -33.7461   24.0732 N   0  0  0  0  0  0
  -23.5024  -29.9101   21.4554 C   0  0  2  0  0  0
  -24.8096  -27.4404   20.5788 C   0  0  0  0  0  0
  -22.7193  -29.3063   22.5880 C   0  0  0  0  0  0
  -18.0042  -28.1370   22.8478 C   0  0  0  0  0  0
  -24.1473  -36.6843   23.2746 C   0  0  0  0  0  0
  -25.9175  -30.1152   21.2055 C   0  0  0  0  0  0
  -26.0516  -28.5447   20.6824 C   0  0  0  0  0  0
  -27.5813  -28.2626   20.3154 C   0  0  0  0  0  0
  -27.7117  -25.3180   19.6135 C   0  0  0  0  0  0
  -25.0401  -25.5306   20.1651 C   0  0  0  0  0  0
  -23.6743  -28.6297   20.4178 C   0  0  0  0  0  0
  -25.4177  -36.2402   24.0193 C   0  0  1  0  0  0
  -20.5471  -28.3404   23.1770 C   0  0  2  0  0  0
  -20.6402  -26.9151   22.5795 C   0  0  0  0  0  0
  -19.5605  -26.6341   21.5320 C   0  0  0  0  0  0
  -18.1703  -26.7947   22.1541 C   0  0  0  0  0  0
  -19.1253  -28.8760   23.3039 C   0  0  0  0  0  0
  -18.9266  -30.1394   23.9006 C   0  0  0  0  0  0
  -17.6298  -30.6608   24.0563 C   0  0  0  0  0  0
  -25.9109  -34.8811   23.4555 C   0  0  0  0  0  0
  -16.5184  -29.9144   23.6267 C   0  0  0  0  0  0
  -16.7061  -28.6558   23.0272 C   0  0  0  0  0  0
  -26.4391  -31.6170   24.9762 C   0  0  0  0  0  0
  -25.3542  -31.3623   26.0544 C   0  0  0  0  0  0
  -27.0504  -30.2582   24.5858 C   0  0  0  0  0  0
  -27.5726  -32.4336   25.6542 C   0  0  0  0  0  0
  -27.5516  -37.1510   24.8465 C   0  0  0  0  0  0
  -21.3950  -29.2547   22.4318 N   0  0  0  0  0  0
  -26.4224  -37.3286   23.9383 N   0  0  0  0  0  0
  -24.7250  -30.6302   21.9644 N   0  0  0  0  0  0
  -23.3315  -28.7567   23.5019 O   0  0  0  0  0  0
  -29.5720  -26.8495   20.4368 O   0  0  0  0  0  0
  -26.6179  -34.8710   22.4474 O   0  0  0  0  0  0
  -23.5712  -31.9822   23.4755 O   0  0  0  0  0  0
  -26.8277  -24.0652   21.3749 C   0  0  0  0  0  0
  -26.2770  -26.6959   18.9199 C   0  0  0  0  0  0
  -26.7251  -26.0980   21.3331 C   0  0  0  0  0  0
  -26.9897  -22.7679   20.1906 C   0  0  0  0  0  0
  -28.0756  -20.6510   20.2173 C   0  0  0  0  0  0
  -28.5139  -26.8770   22.7891 C   0  0  0  0  0  0
  -29.5702  -26.2848   21.7850 C   0  0  0  0  0  0
  -27.1928  -26.7463   22.5304 N   0  0  0  0  0  0
  -28.3172  -18.7477   20.1638 N   0  0  0  0  0  0
  -29.2382  -21.0330   20.3882 O   0  0  0  0  0  0
  -28.8977  -27.4845   23.7900 O   0  0  0  0  0  0
  -26.0786  -24.0608   18.3562 S   0  0  0  0  0  0
  -30.8864  -14.7462   18.9475 H   0  0  0  0  0  0
  -30.6404  -13.7385   20.2948 H   0  0  0  0  0  0
  -30.2825  -12.4263   18.1940 H   0  0  0  0  0  0
  -29.2507  -13.6763   17.5425 H   0  0  0  0  0  0
  -28.5506  -11.5939   19.5991 H   0  0  0  0  0  0
  -27.6539  -12.0525   18.1584 H   0  0  0  0  0  0
  -27.1988  -14.1837   19.0546 H   0  0  0  0  0  0
  -28.9237  -13.7113   21.5195 H   0  0  0  0  0  0
  -27.6651  -14.8619   21.5116 H   0  0  0  0  0  0
  -25.2820   -9.5679   22.4746 H   0  0  0  0  0  0
  -24.0036   -7.4638   22.7469 H   0  0  0  0  0  0
  -21.0909   -8.8753   19.8919 H   0  0  0  0  0  0
  -22.3774  -10.9629   19.6117 H   0  0  0  0  0  0
  -21.2029   -7.6155   23.9725 H   0  0  0  0  0  0
  -21.1502   -6.0524   25.9082 H   0  0  0  0  0  0
  -22.0583   -2.7612   23.2834 H   0  0  0  0  0  0
  -22.3891  -11.9627   22.4966 H   0  0  0  0  0  0
  -21.0748  -13.0820   22.2845 H   0  0  0  0  0  0
  -24.5190  -15.8615   20.5345 H   0  0  0  0  0  0
  -26.1439  -15.6742   20.0931 H   0  0  0  0  0  0
  -26.7007  -32.3881   22.9344 H   0  0  0  0  0  0
  -24.9055  -33.8247   24.8547 H   0  0  0  0  0  0
  -22.8797  -30.6673   20.9762 H   0  0  0  0  0  0
  -23.3743  -35.9158   23.3252 H   0  0  0  0  0  0
  -24.3463  -36.8753   22.2193 H   0  0  0  0  0  0
  -23.7255  -37.5925   23.7056 H   0  0  0  0  0  0
  -26.0156  -30.7404   20.3173 H   0  0  0  0  0  0
  -26.8062  -30.3305   21.7944 H   0  0  0  0  0  0
  -28.2373  -29.0971   20.5195 H   0  0  0  0  0  0
  -28.3714  -24.4938   19.3590 H   0  0  0  0  0  0
  -24.2447  -24.8018   20.0625 H   0  0  0  0  0  0
  -23.8552  -29.0557   19.4298 H   0  0  0  0  0  0
  -22.7134  -28.1266   20.2949 H   0  0  0  0  0  0
  -25.1490  -36.0962   25.0679 H   0  0  0  0  0  0
  -20.9255  -28.2886   24.2009 H   0  0  0  0  0  0
  -20.4993  -26.1991   23.3914 H   0  0  0  0  0  0
  -21.6338  -26.7024   22.1837 H   0  0  0  0  0  0
  -19.6747  -25.6278   21.1273 H   0  0  0  0  0  0
  -19.6767  -27.3235   20.6945 H   0  0  0  0  0  0
  -17.4089  -26.6815   21.3811 H   0  0  0  0  0  0
  -17.9913  -26.0047   22.8847 H   0  0  0  0  0  0
  -19.7761  -30.7124   24.2469 H   0  0  0  0  0  0
  -17.4862  -31.6295   24.5151 H   0  0  0  0  0  0
  -15.5191  -30.3097   23.7518 H   0  0  0  0  0  0
  -15.8450  -28.0946   22.6898 H   0  0  0  0  0  0
  -24.5711  -30.6935   25.6953 H   0  0  0  0  0  0
  -24.8729  -32.2883   26.3698 H   0  0  0  0  0  0
  -25.7778  -30.9003   26.9468 H   0  0  0  0  0  0
  -26.3124  -29.5837   24.1517 H   0  0  0  0  0  0
  -27.4682  -29.7439   25.4517 H   0  0  0  0  0  0
  -27.8615  -30.3742   23.8665 H   0  0  0  0  0  0
  -27.2121  -33.3752   26.0689 H   0  0  0  0  0  0
  -28.3632  -32.6742   24.9428 H   0  0  0  0  0  0
  -28.0315  -31.8838   26.4763 H   0  0  0  0  0  0
  -28.2464  -37.9862   24.7451 H   0  0  0  0  0  0
  -28.1069  -36.2352   24.6361 H   0  0  0  0  0  0
  -27.2208  -37.1213   25.8863 H   0  0  0  0  0  0
  -20.9739  -29.7390   21.6517 H   0  0  0  0  0  0
  -25.9951  -38.2294   24.1359 H   0  0  0  0  0  0
  -27.1065  -23.7438   22.3678 H   0  0  0  0  0  0
  -26.1539  -27.5449   18.2556 H   0  0  0  0  0  0
  -29.4735  -25.1987   21.7522 H   0  0  0  0  0  0
  -30.5580  -26.4746   22.2040 H   0  0  0  0  0  0
  -26.5215  -27.2170   23.1200 H   0  0  0  0  0  0
  -27.3651  -18.4322   20.0439 H   0  0  0  0  0  0
  1 25  1  0  0  0
  1 30  2  0  0  0
  1 79  1  0  0  0
  2  3  1  0  0  0
  2 25  1  0  0  0
  2 83  1  0  0  0
  2 84  1  0  0  0
  3  4  1  0  0  0
  3 85  1  0  0  0
  3 86  1  0  0  0
  4  5  1  0  0  0
  4 87  1  0  0  0
  4 88  1  0  0  0
  5  6  1  0  0  0
  5 26  1  0  0  0
  5 89  1  0  0  0
  6 25  1  0  0  0
  6 90  1  0  0  0
  6 91  1  0  0  0
  7  8  2  0  0  0
  7 26  1  0  0  0
  7 29  1  0  0  0
  8  9  1  0  0  0
  8 22  1  0  0  0
  9 10  1  0  0  0
  9 27  2  0  0  0
 10 11  2  0  0  0
 10 15  1  0  0  0
 11 12  1  0  0  0
 11 92  1  0  0  0
 12 13  2  0  0  0
 12 93  1  0  0  0
 13 14  1  0  0  0
 13 31  1  0  0  0
 14 15  2  0  0  0
 14 94  1  0  0  0
 15 95  1  0  0  0
 16 17  2  0  0  0
 16 21  1  0  0  0
 16 31  1  0  0  0
 17 18  1  0  0  0
 17 96  1  0  0  0
 18 19  2  0  0  0
 18 97  1  0  0  0
 19 20  1  0  0  0
 19 24  1  0  0  0
 20 21  2  0  0  0
 20 98  1  0  0  0
 21 23  1  0  0  0
 22 28  1  0  0  0
 22 32  2  0  0  0
 26 27  1  0  0  0
 28 99  1  0  0  0
 28100  1  0  0  0
 29101  1  0  0  0
 29102  1  0  0  0
 33 34  1  0  0  0
 33 66  1  0  0  0
 33 70  2  0  0  0
 34 36  1  0  0  0
 34 59  1  0  0  0
 34103  1  0  0  0
 35 44  2  0  0  0
 35 45  1  0  0  0
 35 68  1  0  0  0
 36 56  1  0  0  0
 36104  1  0  0  0
 37 39  1  0  0  0
 37 47  1  0  0  0
 37 66  1  0  0  0
 37105  1  0  0  0
 38 43  2  0  0  0
 38 46  1  0  0  0
 38 47  1  0  0  0
 39 64  1  0  0  0
 39 67  2  0  0  0
 40 52  1  0  0  0
 40 53  2  0  0  0
 40 58  1  0  0  0
 41106  1  0  0  0
 41107  1  0  0  0
 41108  1  0  0  0
 41 48  1  0  0  0
 42 43  1  0  0  0
 42 66  1  0  0  0
 42109  1  0  0  0
 42110  1  0  0  0
 43 44  1  0  0  0
 44111  1  0  0  0
 45 46  2  0  0  0
 45112  1  0  0  0
 46113  1  0  0  0
 47114  1  0  0  0
 47115  1  0  0  0
 48 56  1  0  0  0
 48 65  1  0  0  0
 48116  1  0  0  0
 49 50  1  0  0  0
 49 53  1  0  0  0
 49 64  1  0  0  0
 49117  1  0  0  0
 50 51  1  0  0  0
 50118  1  0  0  0
 50119  1  0  0  0
 51 52  1  0  0  0
 51120  1  0  0  0
 51121  1  0  0  0
 52122  1  0  0  0
 52123  1  0  0  0
 53 54  1  0  0  0
 54 55  2  0  0  0
 54124  1  0  0  0
 55 57  1  0  0  0
 55125  1  0  0  0
 56 69  2  0  0  0
 57 58  2  0  0  0
 57126  1  0  0  0
 58127  1  0  0  0
 59 60  1  0  0  0
 59 61  1  0  0  0
 59 62  1  0  0  0
 60128  1  0  0  0
 60129  1  0  0  0
 60130  1  0  0  0
 61131  1  0  0  0
 61132  1  0  0  0
 61133  1  0  0  0
 62134  1  0  0  0
 62135  1  0  0  0
 62136  1  0  0  0
 63 65  1  0  0  0
 63137  1  0  0  0
 63138  1  0  0  0
 63139  1  0  0  0
 64140  1  0  0  0
 65141  1  0  0  0
 68 77  1  0  0  0
 71 73  1  0  0  0
 71 74  2  0  0  0
 71142  1  0  0  0
 72 73  2  0  0  0
 72 82  1  0  0  0
 72143  1  0  0  0
 73 78  1  0  0  0
 74 75  1  0  0  0
 74 82  1  0  0  0
 75 79  1  0  0  0
 75 80  2  0  0  0
 76 77  1  0  0  0
 76 78  1  0  0  0
 76 81  2  0  0  0
 77144  1  0  0  0
 77145  1  0  0  0
 78146  1  0  0  0
 79147  1  0  0  0
M  ISO  4   1 100  68 101  77 101  79 100
M  END
> <chiral flag>
0

> <version>
0

> <s_m_source_file>
/data/baiqing/PycharmProjects/Reinvent-master-3.2/result/LINK_invent/BTK/process_docking_weight1_custom_product_contain_oxygen_bond_distance_aromatic_linkinvent_7_9_3/rearranged_h_0152.sdf

> <i_m_source_file_index>
98

> <r_mmod_Potential_Energy-OPLS-2005>
23079.689453125

> <r_mmod_Stretch_Energy-OPLS-2005>
13099.7509765625

> <r_mmod_Bend_Energy-OPLS-2005>
1414.16186523438

> <r_mmod_Torsional_Energy-OPLS-2005>
436.585479736328

> <r_mmod_Improper_Torsional_Energy-OPLS-2005>
26.9583396911621

> <r_mmod_Van_der_Waal_Energy-OPLS-2005>
3781.28344726562

> <r_mmod_Electrostatic_Energy-OPLS-2005>
-432.877380371094

> <r_mmod_Solvation_Energy-OPLS-2005>
-252.878265380859

> <b_mmod_Minimization_Converged-OPLS-2005>
0

> <r_mmod_RMS_Derivative-OPLS-2005>
4.73190879821777

$$$$
