0
                    3D
 Structure written by MMmdl.
170178  0  0  1  0            999 V2000
  -30.7520  -14.3895   20.6088 C   0  0  0  0  0  0
  -30.4069  -12.2673   19.4151 C   0  0  0  0  0  0
  -29.4856  -12.5022   18.2028 C   0  0  0  0  0  0
  -28.0071  -12.3732   18.6144 C   0  0  0  0  0  0
  -27.6631  -13.2048   19.8794 C   0  0  2  0  0  0
  -28.7008  -12.9658   20.9995 C   0  0  0  0  0  0
  -25.2587  -13.8176   20.5680 C   0  0  0  0  0  0
  -24.1830  -13.0451   20.9174 C   0  0  0  0  0  0
  -24.6382  -11.6918   20.8733 C   0  0  0  0  0  0
  -23.9052  -10.4296   21.0405 C   0  0  0  0  0  0
  -24.3602   -9.4214   21.9185 C   0  0  0  0  0  0
  -23.6279   -8.2248   22.0757 C   0  0  0  0  0  0
  -22.4265   -8.0282   21.3545 C   0  0  0  0  0  0
  -21.9903   -9.0250   20.4643 C   0  0  0  0  0  0
  -22.7227  -10.2135   20.3052 C   0  0  0  0  0  0
  -21.6845   -6.0732   22.5275 C   0  0  0  0  0  0
  -21.4014   -6.5634   23.8211 C   0  0  0  0  0  0
  -21.3659   -5.6788   24.9171 C   0  0  0  0  0  0
  -21.6043   -4.3051   24.7224 C   0  0  0  0  0  0
  -21.8820   -3.8142   23.4346 C   0  0  0  0  0  0
  -21.9192   -4.6958   22.3400 C   0  0  0  0  0  0
  -22.7854  -13.5247   21.1838 C   0  0  0  0  0  0
  -22.1659   -4.2143   21.0978 F   0  0  0  0  0  0
  -21.5631   -3.4539   25.7743 F   0  0  0  0  0  0
  -30.0407  -13.2433   20.4531 N   0  0  0  0  0  0
  -26.3021  -12.9340   20.3383 N   0  0  0  0  0  0
  -25.9305  -11.6503   20.5766 N   0  0  0  0  0  0
  -22.0491  -12.8234   22.0387 N   0  0  0  0  0  0
  -25.4327  -15.1893   20.4102 N   0  0  0  0  0  0
  -31.8505  -14.5537   20.0731 O   0  0  0  0  0  0
  -21.6634   -6.8877   21.4239 O   0  0  0  0  0  0
  -22.3541  -14.5555   20.6693 O   0  0  0  0  0  0
  -24.6067  -31.8709   23.2123 C   0  0  0  0  0  0
  -25.8988  -32.4833   23.8410 C   0  0  1  0  0  0
  -27.2569  -27.4894   20.1053 C   0  0  0  0  0  0
  -25.5873  -33.8632   24.2346 N   0  0  0  0  0  0
  -23.3917  -30.4919   21.5504 C   0  0  2  0  0  0
  -24.8425  -28.9596   20.1194 C   0  0  0  0  0  0
  -22.7354  -29.4673   22.5021 C   0  0  0  0  0  0
  -18.0256  -28.1363   22.8506 C   0  0  0  0  0  0
  -24.1480  -36.7321   23.2639 C   0  0  0  0  0  0
  -25.9096  -30.8611   21.3494 C   0  0  0  0  0  0
  -25.9935  -29.4940   20.7088 C   0  0  0  0  0  0
  -27.2011  -28.7727   20.6970 C   0  0  0  0  0  0
  -26.0929  -26.9654   19.5063 C   0  0  0  0  0  0
  -24.8845  -27.6903   19.5136 C   0  0  0  0  0  0
  -23.5974  -29.8145   20.1673 C   0  0  0  0  0  0
  -25.4103  -36.3117   24.0342 C   0  0  1  0  0  0
  -20.5838  -28.3645   23.1341 C   0  0  2  0  0  0
  -20.6747  -26.9390   22.5418 C   0  0  0  0  0  0
  -19.5731  -26.6385   21.5205 C   0  0  0  0  0  0
  -18.1903  -26.7918   22.1616 C   0  0  0  0  0  0
  -19.1502  -28.8818   23.2926 C   0  0  0  0  0  0
  -18.9439  -30.1433   23.8927 C   0  0  0  0  0  0
  -17.6445  -30.6580   24.0569 C   0  0  0  0  0  0
  -25.9025  -34.9478   23.5142 C   0  0  0  0  0  0
  -16.5336  -29.9083   23.6330 C   0  0  0  0  0  0
  -16.7250  -28.6495   23.0359 C   0  0  0  0  0  0
  -26.4449  -31.6585   25.0705 C   0  0  0  0  0  0
  -25.3749  -31.3633   26.1470 C   0  0  0  0  0  0
  -27.0297  -30.3063   24.5997 C   0  0  0  0  0  0
  -27.6034  -32.4286   25.7473 C   0  0  0  0  0  0
  -27.5580  -37.1812   24.8465 C   0  0  0  0  0  0
  -21.4092  -29.3026   22.3760 N   0  0  0  0  0  0
  -26.4291  -37.3798   23.9411 N   0  0  0  0  0  0
  -24.6542  -31.0875   22.0978 N   0  0  0  0  0  0
  -23.4150  -28.8228   23.3054 O   0  0  0  0  0  0
  -28.4004  -26.7263   20.0364 O   0  0  0  0  0  0
  -26.5590  -34.8927   22.4700 O   0  0  0  0  0  0
  -23.5282  -32.1428   23.7564 O   0  0  0  0  0  0
  -31.7954  -18.7133   20.8412 C   0  0  0  0  0  0
  -31.4695  -17.3640   20.6449 C   0  0  0  0  0  0
  -29.8916  -17.4780   22.4883 C   0  0  0  0  0  0
  -31.1670  -19.4727   21.8467 C   0  0  0  0  0  0
  -30.2011  -18.8455   22.6788 C   0  0  0  0  0  0
  -30.5265  -16.7189   21.4814 C   0  0  0  0  0  0
  -31.5725  -20.8944   21.9791 C   0  0  0  0  0  0
  -30.2455  -23.0823   21.7217 C   0  0  0  0  0  0
  -29.4754  -19.6141   23.7732 C   0  0  0  0  0  0
  -33.2597  -23.3293   20.6725 C   0  0  0  0  0  0
  -29.9314  -21.2961   20.0377 C   0  0  0  0  0  0
  -29.9498  -24.3736   20.9436 C   0  0  0  0  0  0
  -32.1352  -22.4775   20.0434 C   0  0  0  0  0  0
  -29.4571  -25.5260   21.8334 C   0  0  0  0  0  0
  -29.3789  -26.8496   21.0706 C   0  0  0  0  0  0
  -30.9934  -21.9386   20.9722 C   0  0  2  0  0  0
  -32.4086  -21.2064   22.8814 N   0  0  0  0  0  0
  -30.1566  -15.3477   21.3406 N   0  0  0  0  0  0
  -29.8005  -22.9458   22.8673 O   0  0  0  0  0  0
  -31.4533  -12.3381   19.1129 H   0  0  0  0  0  0
  -30.2836  -11.2536   19.8000 H   0  0  0  0  0  0
  -29.7153  -11.7877   17.4115 H   0  0  0  0  0  0
  -29.6663  -13.4937   17.7847 H   0  0  0  0  0  0
  -27.8062  -11.3174   18.7998 H   0  0  0  0  0  0
  -27.3590  -12.6639   17.7867 H   0  0  0  0  0  0
  -27.7164  -14.2559   19.5949 H   0  0  0  0  0  0
  -28.6588  -11.9295   21.3382 H   0  0  0  0  0  0
  -28.4631  -13.5638   21.8801 H   0  0  0  0  0  0
  -25.2743   -9.5691   22.4767 H   0  0  0  0  0  0
  -23.9987   -7.4639   22.7480 H   0  0  0  0  0  0
  -21.0841   -8.8760   19.8939 H   0  0  0  0  0  0
  -22.3684  -10.9672   19.6158 H   0  0  0  0  0  0
  -21.2013   -7.6141   23.9715 H   0  0  0  0  0  0
  -21.1479   -6.0520   25.9077 H   0  0  0  0  0  0
  -22.0603   -2.7605   23.2852 H   0  0  0  0  0  0
  -22.4094  -11.9876   22.4751 H   0  0  0  0  0  0
  -21.1110  -13.1256   22.2596 H   0  0  0  0  0  0
  -24.6722  -15.8509   20.5254 H   0  0  0  0  0  0
  -26.2951  -15.6276   20.1095 H   0  0  0  0  0  0
  -26.7069  -32.5586   23.1201 H   0  0  0  0  0  0
  -25.0048  -33.9805   25.0505 H   0  0  0  0  0  0
  -22.6775  -31.3054   21.4083 H   0  0  0  0  0  0
  -23.3740  -35.9651   23.3287 H   0  0  0  0  0  0
  -24.3586  -36.8953   22.2060 H   0  0  0  0  0  0
  -23.7225  -37.6514   23.6672 H   0  0  0  0  0  0
  -26.0002  -31.6236   20.5744 H   0  0  0  0  0  0
  -26.8048  -30.9312   21.9548 H   0  0  0  0  0  0
  -28.0795  -29.2361   21.1206 H   0  0  0  0  0  0
  -26.1259  -25.9926   19.0362 H   0  0  0  0  0  0
  -24.0015  -27.2699   19.0522 H   0  0  0  0  0  0
  -23.6930  -30.5829   19.3996 H   0  0  0  0  0  0
  -22.7267  -29.2223   19.8800 H   0  0  0  0  0  0
  -25.1269  -36.1992   25.0833 H   0  0  0  0  0  0
  -20.9931  -28.3203   24.1463 H   0  0  0  0  0  0
  -20.5643  -26.2245   23.3591 H   0  0  0  0  0  0
  -21.6625  -26.7440   22.1227 H   0  0  0  0  0  0
  -19.6894  -25.6301   21.1223 H   0  0  0  0  0  0
  -19.6668  -27.3213   20.6753 H   0  0  0  0  0  0
  -17.4173  -26.6682   21.4014 H   0  0  0  0  0  0
  -18.0302  -26.0043   22.8994 H   0  0  0  0  0  0
  -19.7908  -30.7253   24.2300 H   0  0  0  0  0  0
  -17.4992  -31.6263   24.5162 H   0  0  0  0  0  0
  -15.5343  -30.3006   23.7631 H   0  0  0  0  0  0
  -15.8643  -28.0833   22.7065 H   0  0  0  0  0  0
  -24.5931  -30.6972   25.7800 H   0  0  0  0  0  0
  -24.8933  -32.2766   26.4972 H   0  0  0  0  0  0
  -25.8136  -30.8767   27.0193 H   0  0  0  0  0  0
  -26.2823  -29.6806   24.1105 H   0  0  0  0  0  0
  -27.4196  -29.7295   25.4395 H   0  0  0  0  0  0
  -27.8584  -30.4448   23.9046 H   0  0  0  0  0  0
  -27.2668  -33.3593   26.2052 H   0  0  0  0  0  0
  -28.3851  -32.6821   25.0299 H   0  0  0  0  0  0
  -28.0684  -31.8394   26.5386 H   0  0  0  0  0  0
  -28.2585  -38.0120   24.7536 H   0  0  0  0  0  0
  -28.1089  -36.2654   24.6270 H   0  0  0  0  0  0
  -27.2295  -37.1444   25.8865 H   0  0  0  0  0  0
  -20.9229  -29.8755   21.7002 H   0  0  0  0  0  0
  -26.0178  -38.2870   24.1425 H   0  0  0  0  0  0
  -32.5315  -19.1733   20.1962 H   0  0  0  0  0  0
  -31.9682  -16.8613   19.8317 H   0  0  0  0  0  0
  -29.1564  -17.0084   23.1274 H   0  0  0  0  0  0
  -28.9071  -18.9465   24.4213 H   0  0  0  0  0  0
  -28.7789  -20.3303   23.3359 H   0  0  0  0  0  0
  -30.1771  -20.1609   24.4037 H   0  0  0  0  0  0
  -33.8982  -23.7495   19.8945 H   0  0  0  0  0  0
  -33.9054  -22.7334   21.3168 H   0  0  0  0  0  0
  -32.8781  -24.1614   21.2633 H   0  0  0  0  0  0
  -29.1084  -20.8530   20.6011 H   0  0  0  0  0  0
  -30.3585  -20.5185   19.4049 H   0  0  0  0  0  0
  -29.4919  -22.0255   19.3572 H   0  0  0  0  0  0
  -29.2085  -24.1587   20.1744 H   0  0  0  0  0  0
  -30.8481  -24.7002   20.4245 H   0  0  0  0  0  0
  -32.6055  -21.6327   19.5377 H   0  0  0  0  0  0
  -31.6940  -23.0579   19.2324 H   0  0  0  0  0  0
  -30.1369  -25.6517   22.6780 H   0  0  0  0  0  0
  -28.4798  -25.2873   22.2563 H   0  0  0  0  0  0
  -30.3422  -27.0846   20.6160 H   0  0  0  0  0  0
  -29.1860  -27.6304   21.8020 H   0  0  0  0  0  0
  -32.6810  -20.3909   23.4185 H   0  0  0  0  0  0
  -29.3088  -15.0607   21.8057 H   0  0  0  0  0  0
  1 25  1  0  0  0
  1 30  2  0  0  0
  1 88  1  0  0  0
  2  3  1  0  0  0
  2 25  1  0  0  0
  2 90  1  0  0  0
  2 91  1  0  0  0
  3  4  1  0  0  0
  3 92  1  0  0  0
  3 93  1  0  0  0
  4  5  1  0  0  0
  4 94  1  0  0  0
  4 95  1  0  0  0
  5  6  1  0  0  0
  5 26  1  0  0  0
  5 96  1  0  0  0
  6 25  1  0  0  0
  6 97  1  0  0  0
  6 98  1  0  0  0
  7  8  2  0  0  0
  7 26  1  0  0  0
  7 29  1  0  0  0
  8  9  1  0  0  0
  8 22  1  0  0  0
  9 10  1  0  0  0
  9 27  2  0  0  0
 10 11  2  0  0  0
 10 15  1  0  0  0
 11 12  1  0  0  0
 11 99  1  0  0  0
 12 13  2  0  0  0
 12100  1  0  0  0
 13 14  1  0  0  0
 13 31  1  0  0  0
 14 15  2  0  0  0
 14101  1  0  0  0
 15102  1  0  0  0
 16 17  2  0  0  0
 16 21  1  0  0  0
 16 31  1  0  0  0
 17 18  1  0  0  0
 17103  1  0  0  0
 18 19  2  0  0  0
 18104  1  0  0  0
 19 20  1  0  0  0
 19 24  1  0  0  0
 20 21  2  0  0  0
 20105  1  0  0  0
 21 23  1  0  0  0
 22 28  1  0  0  0
 22 32  2  0  0  0
 26 27  1  0  0  0
 28106  1  0  0  0
 28107  1  0  0  0
 29108  1  0  0  0
 29109  1  0  0  0
 33 34  1  0  0  0
 33 66  1  0  0  0
 33 70  2  0  0  0
 34 36  1  0  0  0
 34 59  1  0  0  0
 34110  1  0  0  0
 35 44  2  0  0  0
 35 45  1  0  0  0
 35 68  1  0  0  0
 36 56  1  0  0  0
 36111  1  0  0  0
 37 39  1  0  0  0
 37 47  1  0  0  0
 37 66  1  0  0  0
 37112  1  0  0  0
 38 43  2  0  0  0
 38 46  1  0  0  0
 38 47  1  0  0  0
 39 64  1  0  0  0
 39 67  2  0  0  0
 40 52  1  0  0  0
 40 53  2  0  0  0
 40 58  1  0  0  0
 41113  1  0  0  0
 41114  1  0  0  0
 41115  1  0  0  0
 41 48  1  0  0  0
 42 43  1  0  0  0
 42 66  1  0  0  0
 42116  1  0  0  0
 42117  1  0  0  0
 43 44  1  0  0  0
 44118  1  0  0  0
 45 46  2  0  0  0
 45119  1  0  0  0
 46120  1  0  0  0
 47121  1  0  0  0
 47122  1  0  0  0
 48 56  1  0  0  0
 48 65  1  0  0  0
 48123  1  0  0  0
 49 50  1  0  0  0
 49 53  1  0  0  0
 49 64  1  0  0  0
 49124  1  0  0  0
 50 51  1  0  0  0
 50125  1  0  0  0
 50126  1  0  0  0
 51 52  1  0  0  0
 51127  1  0  0  0
 51128  1  0  0  0
 52129  1  0  0  0
 52130  1  0  0  0
 53 54  1  0  0  0
 54 55  2  0  0  0
 54131  1  0  0  0
 55 57  1  0  0  0
 55132  1  0  0  0
 56 69  2  0  0  0
 57 58  2  0  0  0
 57133  1  0  0  0
 58134  1  0  0  0
 59 60  1  0  0  0
 59 61  1  0  0  0
 59 62  1  0  0  0
 60135  1  0  0  0
 60136  1  0  0  0
 60137  1  0  0  0
 61138  1  0  0  0
 61139  1  0  0  0
 61140  1  0  0  0
 62141  1  0  0  0
 62142  1  0  0  0
 62143  1  0  0  0
 63 65  1  0  0  0
 63144  1  0  0  0
 63145  1  0  0  0
 63146  1  0  0  0
 64147  1  0  0  0
 65148  1  0  0  0
 68 85  1  0  0  0
 71 72  2  0  0  0
 71 74  1  0  0  0
 71149  1  0  0  0
 72 76  1  0  0  0
 72150  1  0  0  0
 73 75  1  0  0  0
 73 76  2  0  0  0
 73151  1  0  0  0
 74 75  2  0  0  0
 74 77  1  0  0  0
 75 79  1  0  0  0
 76 88  1  0  0  0
 77 87  2  0  0  0
 77 86  1  0  0  0
 78 82  1  0  0  0
 78 86  1  0  0  0
 78 89  2  0  0  0
 79152  1  0  0  0
 79153  1  0  0  0
 79154  1  0  0  0
 80 83  1  0  0  0
 80155  1  0  0  0
 80156  1  0  0  0
 80157  1  0  0  0
 81158  1  0  0  0
 81159  1  0  0  0
 81160  1  0  0  0
 81 86  1  0  0  0
 82 84  1  0  0  0
 82161  1  0  0  0
 82162  1  0  0  0
 83 86  1  0  0  0
 83163  1  0  0  0
 83164  1  0  0  0
 84 85  1  0  0  0
 84165  1  0  0  0
 84166  1  0  0  0
 85167  1  0  0  0
 85168  1  0  0  0
 87169  1  0  0  0
 88170  1  0  0  0
M  ISO  4   1 100  68 101  85 101  88 100
M  END
> <chiral flag>
0

> <version>
0

> <s_m_source_file>
/data/baiqing/PycharmProjects/Reinvent-master-3.2/result/LINK_invent/BTK/process_docking_weight1_custom_product_contain_oxygen_bond_distance_aromatic_linkinvent_7_9_3/rearranged_h_0141.sdf

> <i_m_source_file_index>
1

> <r_mmod_Potential_Energy-OPLS-2005>
42.3196105957031

> <r_mmod_Stretch_Energy-OPLS-2005>
41.0927581787109

> <r_mmod_Bend_Energy-OPLS-2005>
114.597686767578

> <r_mmod_Torsional_Energy-OPLS-2005>
224.262100219727

> <r_mmod_Improper_Torsional_Energy-OPLS-2005>
3.03893280029297

> <r_mmod_Van_der_Waal_Energy-OPLS-2005>
182.980087280273

> <r_mmod_Electrostatic_Energy-OPLS-2005>
-316.916015625

> <r_mmod_Solvation_Energy-OPLS-2005>
-214.358657836914

> <b_mmod_Minimization_Converged-OPLS-2005>
0

> <r_mmod_RMS_Derivative-OPLS-2005>
1.07270061969757

$$$$
1
                    3D
 Structure written by MMmdl.
161169  0  0  1  0            999 V2000
  -30.6075  -14.6923   20.4763 C   0  0  0  0  0  0
  -30.4279  -12.4182   19.4704 C   0  0  0  0  0  0
  -29.5067  -12.5113   18.2345 C   0  0  0  0  0  0
  -28.0285  -12.3565   18.6407 C   0  0  0  0  0  0
  -27.6476  -13.2292   19.8651 C   0  0  2  0  0  0
  -28.6909  -13.1151   20.9994 C   0  0  0  0  0  0
  -25.2551  -13.8208   20.5712 C   0  0  0  0  0  0
  -24.1834  -13.0453   20.9196 C   0  0  0  0  0  0
  -24.6390  -11.6926   20.8737 C   0  0  0  0  0  0
  -23.9051  -10.4314   21.0404 C   0  0  0  0  0  0
  -24.3609   -9.4225   21.9178 C   0  0  0  0  0  0
  -23.6306   -8.2249   22.0739 C   0  0  0  0  0  0
  -22.4291   -8.0274   21.3529 C   0  0  0  0  0  0
  -21.9921   -9.0245   20.4632 C   0  0  0  0  0  0
  -22.7216  -10.2138   20.3057 C   0  0  0  0  0  0
  -21.6880   -6.0727   22.5266 C   0  0  0  0  0  0
  -21.4003   -6.5626   23.8186 C   0  0  0  0  0  0
  -21.3670   -5.6789   24.9170 C   0  0  0  0  0  0
  -21.6072   -4.3048   24.7236 C   0  0  0  0  0  0
  -21.8828   -3.8135   23.4357 C   0  0  0  0  0  0
  -21.9186   -4.6950   22.3405 C   0  0  0  0  0  0
  -22.7868  -13.5245   21.1863 C   0  0  0  0  0  0
  -22.1668   -4.2128   21.0994 F   0  0  0  0  0  0
  -21.5642   -3.4534   25.7752 F   0  0  0  0  0  0
  -30.0027  -13.4592   20.4371 N   0  0  0  0  0  0
  -26.2969  -12.9387   20.3335 N   0  0  0  0  0  0
  -25.9323  -11.6536   20.5782 N   0  0  0  0  0  0
  -22.0522  -12.8209   22.0404 N   0  0  0  0  0  0
  -25.4363  -15.1920   20.4150 N   0  0  0  0  0  0
  -31.7604  -14.8308   20.0537 O   0  0  0  0  0  0
  -21.6665   -6.8877   21.4231 O   0  0  0  0  0  0
  -22.3544  -14.5565   20.6743 O   0  0  0  0  0  0
  -24.6280  -31.8604   23.2017 C   0  0  0  0  0  0
  -25.9130  -32.4786   23.8343 C   0  0  1  0  0  0
  -27.2059  -27.2871   20.1339 C   0  0  0  0  0  0
  -25.5943  -33.8581   24.2279 N   0  0  0  0  0  0
  -23.4206  -30.4884   21.5452 C   0  0  2  0  0  0
  -24.8639  -28.9425   20.1078 C   0  0  0  0  0  0
  -22.7488  -29.4637   22.4892 C   0  0  0  0  0  0
  -18.0308  -28.1388   22.8491 C   0  0  0  0  0  0
  -24.1492  -36.7285   23.2624 C   0  0  0  0  0  0
  -25.9649  -30.7843   21.3772 C   0  0  0  0  0  0
  -26.0359  -29.4102   20.7163 C   0  0  0  0  0  0
  -27.2117  -28.5964   20.7145 C   0  0  0  0  0  0
  -26.0162  -26.8908   19.4814 C   0  0  0  0  0  0
  -24.8595  -27.6905   19.4770 C   0  0  0  0  0  0
  -23.6359  -29.8291   20.1584 C   0  0  0  0  0  0
  -25.4128  -36.3075   24.0308 C   0  0  1  0  0  0
  -20.5905  -28.3713   23.1257 C   0  0  2  0  0  0
  -20.6792  -26.9432   22.5406 C   0  0  0  0  0  0
  -19.5770  -26.6387   21.5208 C   0  0  0  0  0  0
  -18.1944  -26.7934   22.1620 C   0  0  0  0  0  0
  -19.1554  -28.8862   23.2866 C   0  0  0  0  0  0
  -18.9476  -30.1455   23.8890 C   0  0  0  0  0  0
  -17.6469  -30.6581   24.0561 C   0  0  0  0  0  0
  -25.9073  -34.9446   23.5094 C   0  0  0  0  0  0
  -16.5363  -29.9079   23.6329 C   0  0  0  0  0  0
  -16.7286  -28.6501   23.0343 C   0  0  0  0  0  0
  -26.4510  -31.6579   25.0704 C   0  0  0  0  0  0
  -25.3731  -31.3733   26.1409 C   0  0  0  0  0  0
  -27.0360  -30.2996   24.6180 C   0  0  0  0  0  0
  -27.6070  -32.4318   25.7491 C   0  0  0  0  0  0
  -27.5595  -37.1799   24.8459 C   0  0  0  0  0  0
  -21.4199  -29.3058   22.3643 N   0  0  0  0  0  0
  -26.4307  -37.3785   23.9399 N   0  0  0  0  0  0
  -24.6893  -31.0604   22.0981 N   0  0  0  0  0  0
  -23.4202  -28.8162   23.2966 O   0  0  0  0  0  0
  -28.2904  -26.3922   20.2214 O   0  0  0  0  0  0
  -26.5636  -34.8920   22.4667 O   0  0  0  0  0  0
  -23.5449  -32.1374   23.7366 O   0  0  0  0  0  0
  -29.3528  -19.6767   18.9850 C   0  0  0  0  0  0
  -29.5674  -18.3586   21.0176 C   0  0  0  0  0  0
  -29.7387  -17.2476   18.8628 C   0  0  0  0  0  0
  -29.3773  -19.6631   20.3972 C   0  0  0  0  0  0
  -29.5195  -18.4947   18.2312 C   0  0  0  0  0  0
  -29.7638  -17.1304   20.2731 C   0  0  0  0  0  0
  -29.2637  -21.0039   21.1653 C   0  0  0  0  0  0
  -29.3054  -24.2237   22.1761 C   0  0  0  0  0  0
  -30.3197  -23.9102   19.8920 C   0  0  0  0  0  0
  -28.4535  -22.2927   20.6453 C   0  0  0  0  0  0
  -27.9976  -24.9246   20.1422 C   0  0  0  0  0  0
  -29.0216  -23.8184   20.7124 C   0  0  0  0  0  0
  -29.7928  -21.0695   22.3133 N   0  0  0  0  0  0
  -29.4749  -18.5721   16.8356 N   0  0  0  0  0  0
  -29.8604  -15.7832   20.8789 N   0  0  0  0  0  0
  -31.4693  -12.5342   19.1655 H   0  0  0  0  0  0
  -30.3591  -11.4231   19.9160 H   0  0  0  0  0  0
  -29.7740  -11.7420   17.5086 H   0  0  0  0  0  0
  -29.6483  -13.4755   17.7401 H   0  0  0  0  0  0
  -27.8579  -11.3024   18.8588 H   0  0  0  0  0  0
  -27.3845  -12.5981   17.7962 H   0  0  0  0  0  0
  -27.6532  -14.2617   19.5117 H   0  0  0  0  0  0
  -28.7123  -12.1039   21.4053 H   0  0  0  0  0  0
  -28.4327  -13.7664   21.8364 H   0  0  0  0  0  0
  -25.2766   -9.5743   22.4729 H   0  0  0  0  0  0
  -24.0033   -7.4673   22.7451 H   0  0  0  0  0  0
  -21.0854   -8.8784   19.8937 H   0  0  0  0  0  0
  -22.3680  -10.9694   19.6180 H   0  0  0  0  0  0
  -21.1976   -7.6129   23.9694 H   0  0  0  0  0  0
  -21.1498   -6.0516   25.9067 H   0  0  0  0  0  0
  -22.0594   -2.7588   23.2876 H   0  0  0  0  0  0
  -22.4146  -11.9851   22.4771 H   0  0  0  0  0  0
  -21.1130  -13.1235   22.2599 H   0  0  0  0  0  0
  -24.6937  -15.8713   20.5396 H   0  0  0  0  0  0
  -26.3056  -15.6137   20.1112 H   0  0  0  0  0  0
  -26.7184  -32.5445   23.1080 H   0  0  0  0  0  0
  -25.0119  -33.9750   25.0434 H   0  0  0  0  0  0
  -22.7150  -31.3076   21.4056 H   0  0  0  0  0  0
  -23.3775  -35.9599   23.3271 H   0  0  0  0  0  0
  -24.3579  -36.8935   22.2042 H   0  0  0  0  0  0
  -23.7217  -37.6467   23.6672 H   0  0  0  0  0  0
  -26.1045  -31.5480   20.6101 H   0  0  0  0  0  0
  -26.8429  -30.8298   22.0110 H   0  0  0  0  0  0
  -28.1084  -28.9493   21.2042 H   0  0  0  0  0  0
  -25.9427  -25.9352   18.9820 H   0  0  0  0  0  0
  -23.9612  -27.3339   18.9895 H   0  0  0  0  0  0
  -23.7612  -30.6078   19.4060 H   0  0  0  0  0  0
  -22.7533  -29.2659   19.8516 H   0  0  0  0  0  0
  -25.1314  -36.1931   25.0803 H   0  0  0  0  0  0
  -21.0020  -28.3290   24.1362 H   0  0  0  0  0  0
  -20.5707  -26.2331   23.3609 H   0  0  0  0  0  0
  -21.6656  -26.7453   22.1182 H   0  0  0  0  0  0
  -19.6933  -25.6288   21.1251 H   0  0  0  0  0  0
  -19.6696  -27.3189   20.6727 H   0  0  0  0  0  0
  -17.4221  -26.6684   21.4005 H   0  0  0  0  0  0
  -18.0335  -26.0060   22.9006 H   0  0  0  0  0  0
  -19.7936  -30.7284   24.2247 H   0  0  0  0  0  0
  -17.5012  -31.6264   24.5169 H   0  0  0  0  0  0
  -15.5360  -30.2982   23.7640 H   0  0  0  0  0  0
  -15.8686  -28.0813   22.7054 H   0  0  0  0  0  0
  -24.5903  -30.7115   25.7688 H   0  0  0  0  0  0
  -24.8947  -32.2923   26.4807 H   0  0  0  0  0  0
  -25.8012  -30.8885   27.0188 H   0  0  0  0  0  0
  -26.2941  -29.6744   24.1211 H   0  0  0  0  0  0
  -27.4040  -29.7260   25.4692 H   0  0  0  0  0  0
  -27.8816  -30.4259   23.9420 H   0  0  0  0  0  0
  -27.2666  -33.3602   26.2090 H   0  0  0  0  0  0
  -28.3879  -32.6909   25.0327 H   0  0  0  0  0  0
  -28.0744  -31.8431   26.5391 H   0  0  0  0  0  0
  -28.2597  -38.0114   24.7548 H   0  0  0  0  0  0
  -28.1113  -36.2652   24.6255 H   0  0  0  0  0  0
  -27.2311  -37.1402   25.8860 H   0  0  0  0  0  0
  -20.9373  -29.8785   21.6859 H   0  0  0  0  0  0
  -26.0178  -38.2858   24.1434 H   0  0  0  0  0  0
  -29.2311  -20.6145   18.4619 H   0  0  0  0  0  0
  -29.5625  -18.3007   22.0984 H   0  0  0  0  0  0
  -29.8563  -16.3640   18.2517 H   0  0  0  0  0  0
  -30.1316  -23.6612   22.6100 H   0  0  0  0  0  0
  -28.4294  -24.0634   22.8069 H   0  0  0  0  0  0
  -29.5703  -25.2780   22.2544 H   0  0  0  0  0  0
  -31.0860  -23.2374   20.2772 H   0  0  0  0  0  0
  -30.7313  -24.9184   19.9086 H   0  0  0  0  0  0
  -30.1466  -23.6466   18.8469 H   0  0  0  0  0  0
  -27.5213  -22.2969   21.2122 H   0  0  0  0  0  0
  -28.1241  -22.1055   19.6247 H   0  0  0  0  0  0
  -27.0517  -24.7451   20.6532 H   0  0  0  0  0  0
  -27.8155  -24.6895   19.0925 H   0  0  0  0  0  0
  -30.2619  -20.2058   22.5559 H   0  0  0  0  0  0
  -29.0344  -19.3756   16.3930 H   0  0  0  0  0  0
  -29.4228  -17.7270   16.2738 H   0  0  0  0  0  0
  -29.0919  -15.5466   21.4903 H   0  0  0  0  0  0
  1 25  1  0  0  0
  1 30  2  0  0  0
  1 85  1  0  0  0
  2  3  1  0  0  0
  2 25  1  0  0  0
  2 86  1  0  0  0
  2 87  1  0  0  0
  3  4  1  0  0  0
  3 88  1  0  0  0
  3 89  1  0  0  0
  4  5  1  0  0  0
  4 90  1  0  0  0
  4 91  1  0  0  0
  5  6  1  0  0  0
  5 26  1  0  0  0
  5 92  1  0  0  0
  6 25  1  0  0  0
  6 93  1  0  0  0
  6 94  1  0  0  0
  7  8  2  0  0  0
  7 26  1  0  0  0
  7 29  1  0  0  0
  8  9  1  0  0  0
  8 22  1  0  0  0
  9 10  1  0  0  0
  9 27  2  0  0  0
 10 11  2  0  0  0
 10 15  1  0  0  0
 11 12  1  0  0  0
 11 95  1  0  0  0
 12 13  2  0  0  0
 12 96  1  0  0  0
 13 14  1  0  0  0
 13 31  1  0  0  0
 14 15  2  0  0  0
 14 97  1  0  0  0
 15 98  1  0  0  0
 16 17  2  0  0  0
 16 21  1  0  0  0
 16 31  1  0  0  0
 17 18  1  0  0  0
 17 99  1  0  0  0
 18 19  2  0  0  0
 18100  1  0  0  0
 19 20  1  0  0  0
 19 24  1  0  0  0
 20 21  2  0  0  0
 20101  1  0  0  0
 21 23  1  0  0  0
 22 28  1  0  0  0
 22 32  2  0  0  0
 26 27  1  0  0  0
 28102  1  0  0  0
 28103  1  0  0  0
 29104  1  0  0  0
 29105  1  0  0  0
 33 34  1  0  0  0
 33 66  1  0  0  0
 33 70  2  0  0  0
 34 36  1  0  0  0
 34 59  1  0  0  0
 34106  1  0  0  0
 35 44  2  0  0  0
 35 45  1  0  0  0
 35 68  1  0  0  0
 36 56  1  0  0  0
 36107  1  0  0  0
 37 39  1  0  0  0
 37 47  1  0  0  0
 37 66  1  0  0  0
 37108  1  0  0  0
 38 43  2  0  0  0
 38 46  1  0  0  0
 38 47  1  0  0  0
 39 64  1  0  0  0
 39 67  2  0  0  0
 40 52  1  0  0  0
 40 53  2  0  0  0
 40 58  1  0  0  0
 41109  1  0  0  0
 41110  1  0  0  0
 41111  1  0  0  0
 41 48  1  0  0  0
 42 43  1  0  0  0
 42 66  1  0  0  0
 42112  1  0  0  0
 42113  1  0  0  0
 43 44  1  0  0  0
 44114  1  0  0  0
 45 46  2  0  0  0
 45115  1  0  0  0
 46116  1  0  0  0
 47117  1  0  0  0
 47118  1  0  0  0
 48 56  1  0  0  0
 48 65  1  0  0  0
 48119  1  0  0  0
 49 50  1  0  0  0
 49 53  1  0  0  0
 49 64  1  0  0  0
 49120  1  0  0  0
 50 51  1  0  0  0
 50121  1  0  0  0
 50122  1  0  0  0
 51 52  1  0  0  0
 51123  1  0  0  0
 51124  1  0  0  0
 52125  1  0  0  0
 52126  1  0  0  0
 53 54  1  0  0  0
 54 55  2  0  0  0
 54127  1  0  0  0
 55 57  1  0  0  0
 55128  1  0  0  0
 56 69  2  0  0  0
 57 58  2  0  0  0
 57129  1  0  0  0
 58130  1  0  0  0
 59 60  1  0  0  0
 59 61  1  0  0  0
 59 62  1  0  0  0
 60131  1  0  0  0
 60132  1  0  0  0
 60133  1  0  0  0
 61134  1  0  0  0
 61135  1  0  0  0
 61136  1  0  0  0
 62137  1  0  0  0
 62138  1  0  0  0
 62139  1  0  0  0
 63 65  1  0  0  0
 63140  1  0  0  0
 63141  1  0  0  0
 63142  1  0  0  0
 64143  1  0  0  0
 65144  1  0  0  0
 68 81  1  0  0  0
 71 74  2  0  0  0
 71 75  1  0  0  0
 71145  1  0  0  0
 72 74  1  0  0  0
 72 76  2  0  0  0
 72146  1  0  0  0
 73 75  2  0  0  0
 73 76  1  0  0  0
 73147  1  0  0  0
 74 77  1  0  0  0
 75 84  1  0  0  0
 76 85  1  0  0  0
 77 80  1  0  0  0
 77 83  2  0  0  0
 78148  1  0  0  0
 78149  1  0  0  0
 78150  1  0  0  0
 78 82  1  0  0  0
 79 82  1  0  0  0
 79151  1  0  0  0
 79152  1  0  0  0
 79153  1  0  0  0
 80 82  1  0  0  0
 80154  1  0  0  0
 80155  1  0  0  0
 81 82  1  0  0  0
 81156  1  0  0  0
 81157  1  0  0  0
 83158  1  0  0  0
 84159  1  0  0  0
 84160  1  0  0  0
 85161  1  0  0  0
M  ISO  4   1 100  68 101  81 101  85 100
M  END
> <chiral flag>
0

> <version>
0

> <s_m_source_file>
/data/baiqing/PycharmProjects/Reinvent-master-3.2/result/LINK_invent/BTK/process_docking_weight1_custom_product_contain_oxygen_bond_distance_aromatic_linkinvent_7_9_3/rearranged_h_0141.sdf

> <i_m_source_file_index>
2

> <r_mmod_Potential_Energy-OPLS-2005>
151.423553466797

> <r_mmod_Stretch_Energy-OPLS-2005>
115.970748901367

> <r_mmod_Bend_Energy-OPLS-2005>
157.17121887207

> <r_mmod_Torsional_Energy-OPLS-2005>
250.381683349609

> <r_mmod_Improper_Torsional_Energy-OPLS-2005>
6.90063953399658

> <r_mmod_Van_der_Waal_Energy-OPLS-2005>
141.097778320312

> <r_mmod_Electrostatic_Energy-OPLS-2005>
-359.94091796875

> <r_mmod_Solvation_Energy-OPLS-2005>
-228.896255493164

> <b_mmod_Minimization_Converged-OPLS-2005>
0

> <r_mmod_RMS_Derivative-OPLS-2005>
4.24808597564697

$$$$
2
                    3D
 Structure written by MMmdl.
163172  0  0  1  0            999 V2000
  -30.6675  -14.5397   20.5403 C   0  0  0  0  0  0
  -30.4306  -12.3395   19.4290 C   0  0  0  0  0  0
  -29.4963  -12.4945   18.2095 C   0  0  0  0  0  0
  -28.0183  -12.3519   18.6237 C   0  0  0  0  0  0
  -27.6575  -13.2072   19.8675 C   0  0  2  0  0  0
  -28.7023  -13.0177   20.9907 C   0  0  0  0  0  0
  -25.2585  -13.8158   20.5680 C   0  0  0  0  0  0
  -24.1841  -13.0438   20.9199 C   0  0  0  0  0  0
  -24.6391  -11.6904   20.8747 C   0  0  0  0  0  0
  -23.9057  -10.4291   21.0413 C   0  0  0  0  0  0
  -24.3613   -9.4204   21.9189 C   0  0  0  0  0  0
  -23.6290   -8.2239   22.0754 C   0  0  0  0  0  0
  -22.4272   -8.0281   21.3545 C   0  0  0  0  0  0
  -21.9908   -9.0251   20.4645 C   0  0  0  0  0  0
  -22.7233  -10.2133   20.3058 C   0  0  0  0  0  0
  -21.6852   -6.0738   22.5281 C   0  0  0  0  0  0
  -21.4010   -6.5641   23.8214 C   0  0  0  0  0  0
  -21.3657   -5.6793   24.9175 C   0  0  0  0  0  0
  -21.6044   -4.3059   24.7226 C   0  0  0  0  0  0
  -21.8820   -3.8151   23.4346 C   0  0  0  0  0  0
  -21.9193   -4.6967   22.3403 C   0  0  0  0  0  0
  -22.7863  -13.5240   21.1857 C   0  0  0  0  0  0
  -22.1663   -4.2154   21.0983 F   0  0  0  0  0  0
  -21.5629   -3.4540   25.7737 F   0  0  0  0  0  0
  -30.0250  -13.3400   20.4313 N   0  0  0  0  0  0
  -26.3008  -12.9321   20.3335 N   0  0  0  0  0  0
  -25.9317  -11.6485   20.5768 N   0  0  0  0  0  0
  -22.0498  -12.8228   22.0405 N   0  0  0  0  0  0
  -25.4312  -15.1874   20.4055 N   0  0  0  0  0  0
  -31.8186  -14.6996   20.1250 O   0  0  0  0  0  0
  -21.6641   -6.8879   21.4241 O   0  0  0  0  0  0
  -22.3555  -14.5554   20.6716 O   0  0  0  0  0  0
  -24.6195  -31.8643   23.2054 C   0  0  0  0  0  0
  -25.9068  -32.4804   23.8370 C   0  0  1  0  0  0
  -27.2340  -27.3844   20.1065 C   0  0  0  0  0  0
  -25.5900  -33.8601   24.2298 N   0  0  0  0  0  0
  -23.4104  -30.4887   21.5450 C   0  0  2  0  0  0
  -24.8575  -28.9488   20.1123 C   0  0  0  0  0  0
  -22.7445  -29.4649   22.4938 C   0  0  0  0  0  0
  -18.0290  -28.1378   22.8487 C   0  0  0  0  0  0
  -24.1484  -36.7296   23.2645 C   0  0  0  0  0  0
  -25.9453  -30.8146   21.3681 C   0  0  0  0  0  0
  -26.0214  -29.4468   20.7118 C   0  0  0  0  0  0
  -27.2116  -28.6744   20.7010 C   0  0  0  0  0  0
  -26.0471  -26.9170   19.4941 C   0  0  0  0  0  0
  -24.8695  -27.6861   19.4976 C   0  0  0  0  0  0
  -23.6225  -29.8212   20.1601 C   0  0  0  0  0  0
  -25.4107  -36.3093   24.0338 C   0  0  1  0  0  0
  -20.5881  -28.3672   23.1293 C   0  0  2  0  0  0
  -20.6780  -26.9407   22.5400 C   0  0  0  0  0  0
  -19.5756  -26.6380   21.5206 C   0  0  0  0  0  0
  -18.1935  -26.7922   22.1619 C   0  0  0  0  0  0
  -19.1542  -28.8841   23.2889 C   0  0  0  0  0  0
  -18.9473  -30.1442   23.8904 C   0  0  0  0  0  0
  -17.6477  -30.6580   24.0563 C   0  0  0  0  0  0
  -25.9040  -34.9465   23.5115 C   0  0  0  0  0  0
  -16.5367  -29.9081   23.6331 C   0  0  0  0  0  0
  -16.7280  -28.6498   23.0349 C   0  0  0  0  0  0
  -26.4469  -31.6607   25.0724 C   0  0  0  0  0  0
  -25.3715  -31.3734   26.1461 C   0  0  0  0  0  0
  -27.0319  -30.3051   24.6123 C   0  0  0  0  0  0
  -27.6037  -32.4333   25.7487 C   0  0  0  0  0  0
  -27.5574  -37.1807   24.8469 C   0  0  0  0  0  0
  -21.4165  -29.3036   22.3694 N   0  0  0  0  0  0
  -26.4291  -37.3781   23.9406 N   0  0  0  0  0  0
  -24.6764  -31.0709   22.0972 N   0  0  0  0  0  0
  -23.4206  -28.8191   23.2988 O   0  0  0  0  0  0
  -28.3877  -26.6085   20.1442 O   0  0  0  0  0  0
  -26.5605  -34.8929   22.4678 O   0  0  0  0  0  0
  -23.5373  -32.1403   23.7425 O   0  0  0  0  0  0
  -31.5803  -18.9869   21.1220 C   0  0  0  0  0  0
  -29.2192  -19.2414   21.5968 C   0  0  0  0  0  0
  -31.4012  -17.6005   20.8914 C   0  0  0  0  0  0
  -29.0428  -17.8480   21.3741 C   0  0  0  0  0  0
  -30.5052  -19.8226   21.5190 C   0  0  0  0  0  0
  -30.1313  -16.9917   21.0546 C   0  0  0  0  0  0
  -30.8115  -21.1608   22.0927 C   0  0  0  0  0  0
  -29.7831  -24.7413   22.0518 C   0  0  0  0  0  0
  -30.6475  -23.5969   22.5838 C   0  0  0  0  0  0
  -29.3198  -22.8065   20.7390 C   0  0  0  0  0  0
  -29.4877  -24.3664   20.5965 C   0  0  2  0  0  0
  -30.7007  -24.6846   19.6947 C   0  0  0  0  0  0
  -28.2434  -25.1595   20.0650 C   0  0  0  0  0  0
  -30.2892  -22.3934   21.7934 N   0  0  0  0  0  0
  -29.8894  -15.5685   20.9657 N   0  0  0  0  0  0
  -31.7245  -21.1225   23.0631 N   0  3  0  0  0  0
  -31.4718  -12.4542   19.1223 H   0  0  0  0  0  0
  -30.3543  -11.3344   19.8473 H   0  0  0  0  0  0
  -29.7416  -11.7485   17.4522 H   0  0  0  0  0  0
  -29.6550  -13.4676   17.7419 H   0  0  0  0  0  0
  -27.8361  -11.2973   18.8352 H   0  0  0  0  0  0
  -27.3658  -12.6089   17.7882 H   0  0  0  0  0  0
  -27.6901  -14.2494   19.5491 H   0  0  0  0  0  0
  -28.6936  -11.9858   21.3454 H   0  0  0  0  0  0
  -28.4592  -13.6273   21.8623 H   0  0  0  0  0  0
  -25.2753   -9.5686   22.4765 H   0  0  0  0  0  0
  -24.0006   -7.4628   22.7465 H   0  0  0  0  0  0
  -21.0847   -8.8763   19.8940 H   0  0  0  0  0  0
  -22.3691  -10.9674   19.6171 H   0  0  0  0  0  0
  -21.1998   -7.6147   23.9720 H   0  0  0  0  0  0
  -21.1478   -6.0522   25.9079 H   0  0  0  0  0  0
  -22.0601   -2.7611   23.2845 H   0  0  0  0  0  0
  -22.4112  -11.9887   22.4792 H   0  0  0  0  0  0
  -21.1110  -13.1247   22.2600 H   0  0  0  0  0  0
  -24.6576  -15.8368   20.4989 H   0  0  0  0  0  0
  -26.2622  -15.6157   20.0187 H   0  0  0  0  0  0
  -26.7155  -32.5488   23.1141 H   0  0  0  0  0  0
  -25.0067  -33.9764   25.0455 H   0  0  0  0  0  0
  -22.7011  -31.3064   21.4019 H   0  0  0  0  0  0
  -23.3748  -35.9631   23.3319 H   0  0  0  0  0  0
  -24.3589  -36.8889   22.2060 H   0  0  0  0  0  0
  -23.7240  -37.6506   23.6650 H   0  0  0  0  0  0
  -26.0677  -31.5808   20.6014 H   0  0  0  0  0  0
  -26.8309  -30.8639   21.9911 H   0  0  0  0  0  0
  -28.1074  -29.0524   21.1749 H   0  0  0  0  0  0
  -26.0093  -25.9519   19.0103 H   0  0  0  0  0  0
  -23.9782  -27.2951   19.0267 H   0  0  0  0  0  0
  -23.7365  -30.5962   19.4008 H   0  0  0  0  0  0
  -22.7451  -29.2451   19.8604 H   0  0  0  0  0  0
  -25.1293  -36.1953   25.0836 H   0  0  0  0  0  0
  -20.9980  -28.3237   24.1409 H   0  0  0  0  0  0
  -20.5677  -26.2286   23.3589 H   0  0  0  0  0  0
  -21.6652  -26.7432   22.1198 H   0  0  0  0  0  0
  -19.6922  -25.6289   21.1239 H   0  0  0  0  0  0
  -19.6699  -27.3190   20.6738 H   0  0  0  0  0  0
  -17.4201  -26.6676   21.4024 H   0  0  0  0  0  0
  -18.0336  -26.0057   22.9009 H   0  0  0  0  0  0
  -19.7960  -30.7251   24.2271 H   0  0  0  0  0  0
  -17.5042  -31.6263   24.5154 H   0  0  0  0  0  0
  -15.5373  -30.2987   23.7650 H   0  0  0  0  0  0
  -15.8680  -28.0824   22.7054 H   0  0  0  0  0  0
  -24.5877  -30.7096   25.7783 H   0  0  0  0  0  0
  -24.8922  -32.2905   26.4901 H   0  0  0  0  0  0
  -25.8047  -30.8898   27.0222 H   0  0  0  0  0  0
  -26.2885  -29.6806   24.1150 H   0  0  0  0  0  0
  -27.4070  -29.7288   25.4587 H   0  0  0  0  0  0
  -27.8718  -30.4385   23.9302 H   0  0  0  0  0  0
  -27.2655  -33.3624   26.2085 H   0  0  0  0  0  0
  -28.3834  -32.6905   25.0308 H   0  0  0  0  0  0
  -28.0713  -31.8445   26.5385 H   0  0  0  0  0  0
  -28.2596  -38.0099   24.7501 H   0  0  0  0  0  0
  -28.1070  -36.2627   24.6314 H   0  0  0  0  0  0
  -27.2296  -37.1469   25.8876 H   0  0  0  0  0  0
  -20.9326  -29.8761   21.6922 H   0  0  0  0  0  0
  -26.0176  -38.2859   24.1406 H   0  0  0  0  0  0
  -32.5807  -19.3948   21.0650 H   0  0  0  0  0  0
  -28.3794  -19.8380   21.9264 H   0  0  0  0  0  0
  -32.2748  -17.0160   20.6449 H   0  0  0  0  0  0
  -28.0538  -17.4312   21.5047 H   0  0  0  0  0  0
  -30.2869  -25.7049   22.1344 H   0  0  0  0  0  0
  -28.8647  -24.8042   22.6369 H   0  0  0  0  0  0
  -30.4764  -23.4515   23.6518 H   0  0  0  0  0  0
  -31.7056  -23.8285   22.4452 H   0  0  0  0  0  0
  -29.5113  -22.2912   19.7959 H   0  0  0  0  0  0
  -28.3094  -22.5473   21.0595 H   0  0  0  0  0  0
  -31.6034  -24.1602   20.0091 H   0  0  0  0  0  0
  -30.9250  -25.7519   19.6956 H   0  0  0  0  0  0
  -30.5029  -24.3970   18.6621 H   0  0  0  0  0  0
  -27.3693  -24.8483   20.6404 H   0  0  0  0  0  0
  -28.0526  -24.8744   19.0296 H   0  0  0  0  0  0
  -28.9581  -15.2795   21.2161 H   0  0  0  0  0  0
  -32.0849  -20.2230   23.3443 H   0  0  0  0  0  0
  -32.0316  -21.9402   23.5581 H   0  0  0  0  0  0
  1 25  1  0  0  0
  1 30  2  0  0  0
  1 85  1  0  0  0
  2  3  1  0  0  0
  2 25  1  0  0  0
  2 87  1  0  0  0
  2 88  1  0  0  0
  3  4  1  0  0  0
  3 89  1  0  0  0
  3 90  1  0  0  0
  4  5  1  0  0  0
  4 91  1  0  0  0
  4 92  1  0  0  0
  5  6  1  0  0  0
  5 26  1  0  0  0
  5 93  1  0  0  0
  6 25  1  0  0  0
  6 94  1  0  0  0
  6 95  1  0  0  0
  7  8  2  0  0  0
  7 26  1  0  0  0
  7 29  1  0  0  0
  8  9  1  0  0  0
  8 22  1  0  0  0
  9 10  1  0  0  0
  9 27  2  0  0  0
 10 11  2  0  0  0
 10 15  1  0  0  0
 11 12  1  0  0  0
 11 96  1  0  0  0
 12 13  2  0  0  0
 12 97  1  0  0  0
 13 14  1  0  0  0
 13 31  1  0  0  0
 14 15  2  0  0  0
 14 98  1  0  0  0
 15 99  1  0  0  0
 16 17  2  0  0  0
 16 21  1  0  0  0
 16 31  1  0  0  0
 17 18  1  0  0  0
 17100  1  0  0  0
 18 19  2  0  0  0
 18101  1  0  0  0
 19 20  1  0  0  0
 19 24  1  0  0  0
 20 21  2  0  0  0
 20102  1  0  0  0
 21 23  1  0  0  0
 22 28  1  0  0  0
 22 32  2  0  0  0
 26 27  1  0  0  0
 28103  1  0  0  0
 28104  1  0  0  0
 29105  1  0  0  0
 29106  1  0  0  0
 33 34  1  0  0  0
 33 66  1  0  0  0
 33 70  2  0  0  0
 34 36  1  0  0  0
 34 59  1  0  0  0
 34107  1  0  0  0
 35 44  2  0  0  0
 35 45  1  0  0  0
 35 68  1  0  0  0
 36 56  1  0  0  0
 36108  1  0  0  0
 37 39  1  0  0  0
 37 47  1  0  0  0
 37 66  1  0  0  0
 37109  1  0  0  0
 38 43  2  0  0  0
 38 46  1  0  0  0
 38 47  1  0  0  0
 39 64  1  0  0  0
 39 67  2  0  0  0
 40 52  1  0  0  0
 40 53  2  0  0  0
 40 58  1  0  0  0
 41110  1  0  0  0
 41111  1  0  0  0
 41112  1  0  0  0
 41 48  1  0  0  0
 42 43  1  0  0  0
 42 66  1  0  0  0
 42113  1  0  0  0
 42114  1  0  0  0
 43 44  1  0  0  0
 44115  1  0  0  0
 45 46  2  0  0  0
 45116  1  0  0  0
 46117  1  0  0  0
 47118  1  0  0  0
 47119  1  0  0  0
 48 56  1  0  0  0
 48 65  1  0  0  0
 48120  1  0  0  0
 49 50  1  0  0  0
 49 53  1  0  0  0
 49 64  1  0  0  0
 49121  1  0  0  0
 50 51  1  0  0  0
 50122  1  0  0  0
 50123  1  0  0  0
 51 52  1  0  0  0
 51124  1  0  0  0
 51125  1  0  0  0
 52126  1  0  0  0
 52127  1  0  0  0
 53 54  1  0  0  0
 54 55  2  0  0  0
 54128  1  0  0  0
 55 57  1  0  0  0
 55129  1  0  0  0
 56 69  2  0  0  0
 57 58  2  0  0  0
 57130  1  0  0  0
 58131  1  0  0  0
 59 60  1  0  0  0
 59 61  1  0  0  0
 59 62  1  0  0  0
 60132  1  0  0  0
 60133  1  0  0  0
 60134  1  0  0  0
 61135  1  0  0  0
 61136  1  0  0  0
 61137  1  0  0  0
 62138  1  0  0  0
 62139  1  0  0  0
 62140  1  0  0  0
 63 65  1  0  0  0
 63141  1  0  0  0
 63142  1  0  0  0
 63143  1  0  0  0
 64144  1  0  0  0
 65145  1  0  0  0
 68 83  1  0  0  0
 71 73  2  0  0  0
 71 75  1  0  0  0
 71146  1  0  0  0
 72 74  1  0  0  0
 72 75  2  0  0  0
 72147  1  0  0  0
 73 76  1  0  0  0
 73148  1  0  0  0
 74 76  2  0  0  0
 74149  1  0  0  0
 75 77  1  0  0  0
 76 85  1  0  0  0
 77 84  1  0  0  0
 77 86  2  0  0  0
 78 79  1  0  0  0
 78 81  1  0  0  0
 78150  1  0  0  0
 78151  1  0  0  0
 79 84  1  0  0  0
 79152  1  0  0  0
 79153  1  0  0  0
 80 81  1  0  0  0
 80 84  1  0  0  0
 80154  1  0  0  0
 80155  1  0  0  0
 81 82  1  0  0  0
 81 83  1  0  0  0
 82156  1  0  0  0
 82157  1  0  0  0
 82158  1  0  0  0
 83159  1  0  0  0
 83160  1  0  0  0
 85161  1  0  0  0
 86162  1  0  0  0
 86163  1  0  0  0
M  CHG  1  86   1
M  ISO  4   1 100  68 101  83 101  85 100
M  END
> <chiral flag>
0

> <version>
0

> <s_m_source_file>
/data/baiqing/PycharmProjects/Reinvent-master-3.2/result/LINK_invent/BTK/process_docking_weight1_custom_product_contain_oxygen_bond_distance_aromatic_linkinvent_7_9_3/rearranged_h_0141.sdf

> <i_m_source_file_index>
3

> <r_mmod_Potential_Energy-OPLS-2005>
-76.9268417358398

> <r_mmod_Stretch_Energy-OPLS-2005>
53.4903755187988

> <r_mmod_Bend_Energy-OPLS-2005>
157.88166809082

> <r_mmod_Torsional_Energy-OPLS-2005>
296.420471191406

> <r_mmod_Improper_Torsional_Energy-OPLS-2005>
6.21990060806274

> <r_mmod_Van_der_Waal_Energy-OPLS-2005>
157.022399902344

> <r_mmod_Electrostatic_Energy-OPLS-2005>
-375.256866455078

> <r_mmod_Solvation_Energy-OPLS-2005>
-395.941772460938

> <b_mmod_Minimization_Converged-OPLS-2005>
0

> <r_mmod_RMS_Derivative-OPLS-2005>
1.42274677753448

$$$$
3
                    3D
 Structure written by MMmdl.
157166  0  0  1  0            999 V2000
  -30.4961  -15.0519   20.4026 C   0  0  0  0  0  0
  -30.4501  -12.6642   19.4834 C   0  0  0  0  0  0
  -29.5274  -12.5322   18.2502 C   0  0  0  0  0  0
  -28.0658  -12.2974   18.6815 C   0  0  0  0  0  0
  -27.6225  -13.2498   19.8229 C   0  0  2  0  0  0
  -28.6699  -13.3320   20.9501 C   0  0  0  0  0  0
  -25.2455  -13.8214   20.5732 C   0  0  0  0  0  0
  -24.1767  -13.0445   20.9243 C   0  0  0  0  0  0
  -24.6381  -11.6930   20.8762 C   0  0  0  0  0  0
  -23.9063  -10.4298   21.0419 C   0  0  0  0  0  0
  -24.3614   -9.4213   21.9195 C   0  0  0  0  0  0
  -23.6292   -8.2244   22.0757 C   0  0  0  0  0  0
  -22.4268   -8.0286   21.3547 C   0  0  0  0  0  0
  -21.9901   -9.0261   20.4645 C   0  0  0  0  0  0
  -22.7237  -10.2138   20.3063 C   0  0  0  0  0  0
  -21.6852   -6.0737   22.5280 C   0  0  0  0  0  0
  -21.4021   -6.5638   23.8217 C   0  0  0  0  0  0
  -21.3660   -5.6784   24.9174 C   0  0  0  0  0  0
  -21.6037   -4.3046   24.7218 C   0  0  0  0  0  0
  -21.8820   -3.8144   23.4337 C   0  0  0  0  0  0
  -21.9187   -4.6964   22.3398 C   0  0  0  0  0  0
  -22.7782  -13.5220   21.1878 C   0  0  0  0  0  0
  -22.1656   -4.2151   21.0971 F   0  0  0  0  0  0
  -21.5630   -3.4526   25.7726 F   0  0  0  0  0  0
  -29.9196  -13.7793   20.3190 N   0  0  0  0  0  0
  -26.2867  -12.9440   20.3201 N   0  0  0  0  0  0
  -25.9305  -11.6579   20.5712 N   0  0  0  0  0  0
  -22.0383  -12.8245   22.0420 N   0  0  0  0  0  0
  -25.4113  -15.1949   20.4201 N   0  0  0  0  0  0
  -31.7281  -15.0971   20.2954 O   0  0  0  0  0  0
  -21.6634   -6.8886   21.4246 O   0  0  0  0  0  0
  -22.3477  -14.5512   20.6696 O   0  0  0  0  0  0
  -24.6490  -31.8380   23.1794 C   0  0  0  0  0  0
  -25.9236  -32.4652   23.8216 C   0  0  1  0  0  0
  -27.2236  -27.0700   20.1828 C   0  0  0  0  0  0
  -25.5968  -33.8459   24.2141 N   0  0  0  0  0  0
  -23.4558  -30.4511   21.5260 C   0  0  2  0  0  0
  -24.9054  -28.8520   20.1223 C   0  0  0  0  0  0
  -22.7597  -29.4515   22.4841 C   0  0  0  0  0  0
  -18.0323  -28.1384   22.8478 C   0  0  0  0  0  0
  -24.1501  -36.7236   23.2643 C   0  0  0  0  0  0
  -26.0134  -30.6911   21.3858 C   0  0  0  0  0  0
  -26.0842  -29.2907   20.7381 C   0  0  0  0  0  0
  -27.2443  -28.4202   20.7392 C   0  0  0  0  0  0
  -26.0140  -26.7318   19.5440 C   0  0  0  0  0  0
  -24.8858  -27.5871   19.5099 C   0  0  0  0  0  0
  -23.6858  -29.7647   20.1524 C   0  0  0  0  0  0
  -25.4132  -36.2993   24.0306 C   0  0  1  0  0  0
  -20.5936  -28.3717   23.1230 C   0  0  2  0  0  0
  -20.6796  -26.9414   22.5407 C   0  0  0  0  0  0
  -19.5764  -26.6371   21.5218 C   0  0  0  0  0  0
  -18.1949  -26.7927   22.1629 C   0  0  0  0  0  0
  -19.1578  -28.8872   23.2840 C   0  0  0  0  0  0
  -18.9486  -30.1474   23.8854 C   0  0  0  0  0  0
  -17.6479  -30.6580   24.0554 C   0  0  0  0  0  0
  -25.9089  -34.9378   23.5036 C   0  0  0  0  0  0
  -16.5373  -29.9064   23.6334 C   0  0  0  0  0  0
  -16.7308  -28.6485   23.0351 C   0  0  0  0  0  0
  -26.4534  -31.6535   25.0683 C   0  0  0  0  0  0
  -25.3706  -31.3744   26.1372 C   0  0  0  0  0  0
  -27.0415  -30.2923   24.6312 C   0  0  0  0  0  0
  -27.6048  -32.4313   25.7482 C   0  0  0  0  0  0
  -27.5574  -37.1768   24.8459 C   0  0  0  0  0  0
  -21.4286  -29.3034   22.3590 N   0  0  0  0  0  0
  -26.4283  -37.3713   23.9401 N   0  0  0  0  0  0
  -24.7259  -31.0179   22.0851 N   0  0  0  0  0  0
  -23.4206  -28.8086   23.3037 O   0  0  0  0  0  0
  -28.3152  -26.1129   20.1362 O   0  0  0  0  0  0
  -26.5676  -34.8891   22.4616 O   0  0  0  0  0  0
  -23.5601  -32.1290   23.6985 O   0  0  0  0  0  0
  -28.9126  -20.3230   21.9150 C   0  0  0  0  0  0
  -29.5032  -19.0149   19.9559 C   0  0  0  0  0  0
  -29.3918  -17.8772   22.0837 C   0  0  0  0  0  0
  -29.1702  -20.3735   20.5314 C   0  0  0  0  0  0
  -29.0397  -19.1255   22.6659 C   0  0  0  0  0  0
  -29.6211  -17.7112   20.6987 C   0  0  0  0  0  0
  -30.0640  -21.9951   18.8669 C   0  0  0  0  0  0
  -29.6850  -23.1685   17.9800 C   0  0  0  0  0  0
  -28.2397  -23.4351   18.3735 C   0  0  0  0  0  0
  -28.2062  -23.0808   19.8620 C   0  0  2  0  0  0
  -28.3654  -24.6054   20.6387 C   0  0  0  0  0  0
  -29.1875  -21.7925   19.8722 N   0  0  0  0  0  0
  -28.7987  -19.1800   24.0386 N   0  0  0  0  0  0
  -29.6968  -16.2345   20.1990 N   0  0  0  0  0  0
  -31.0873  -21.3364   18.6493 O   0  0  0  0  0  0
  -31.4759  -12.8550   19.1644 H   0  0  0  0  0  0
  -30.4797  -11.7338   20.0526 H   0  0  0  0  0  0
  -29.8677  -11.7210   17.6057 H   0  0  0  0  0  0
  -29.5886  -13.4423   17.6514 H   0  0  0  0  0  0
  -27.9886  -11.2653   19.0234 H   0  0  0  0  0  0
  -27.3956  -12.3852   17.8256 H   0  0  0  0  0  0
  -27.5623  -14.2371   19.3653 H   0  0  0  0  0  0
  -28.7917  -12.3718   21.4527 H   0  0  0  0  0  0
  -28.3567  -14.0479   21.7114 H   0  0  0  0  0  0
  -25.2759   -9.5699   22.4778 H   0  0  0  0  0  0
  -23.9999   -7.4635   22.7483 H   0  0  0  0  0  0
  -21.0826   -8.8793   19.8949 H   0  0  0  0  0  0
  -22.3702  -10.9689   19.6174 H   0  0  0  0  0  0
  -21.2025   -7.6146   23.9728 H   0  0  0  0  0  0
  -21.1483   -6.0505   25.9077 H   0  0  0  0  0  0
  -22.0593   -2.7609   23.2824 H   0  0  0  0  0  0
  -22.3964  -11.9945   22.4901 H   0  0  0  0  0  0
  -21.1001  -13.1332   22.2561 H   0  0  0  0  0  0
  -24.6487  -15.8503   20.5532 H   0  0  0  0  0  0
  -26.2682  -15.6428   20.1246 H   0  0  0  0  0  0
  -26.7300  -32.5230   23.0938 H   0  0  0  0  0  0
  -25.0078  -33.9552   25.0265 H   0  0  0  0  0  0
  -22.7606  -31.2768   21.3616 H   0  0  0  0  0  0
  -23.3763  -35.9568   23.3286 H   0  0  0  0  0  0
  -24.3593  -36.8895   22.2063 H   0  0  0  0  0  0
  -23.7265  -37.6424   23.6712 H   0  0  0  0  0  0
  -26.1765  -31.4363   20.6065 H   0  0  0  0  0  0
  -26.8808  -30.7459   22.0312 H   0  0  0  0  0  0
  -28.1521  -28.7638   21.2141 H   0  0  0  0  0  0
  -25.9339  -25.7638   19.0703 H   0  0  0  0  0  0
  -23.9854  -27.2435   19.0187 H   0  0  0  0  0  0
  -23.8281  -30.5298   19.3886 H   0  0  0  0  0  0
  -22.7991  -29.2075   19.8447 H   0  0  0  0  0  0
  -25.1328  -36.1801   25.0797 H   0  0  0  0  0  0
  -21.0038  -28.3311   24.1349 H   0  0  0  0  0  0
  -20.5701  -26.2329   23.3630 H   0  0  0  0  0  0
  -21.6657  -26.7409   22.1201 H   0  0  0  0  0  0
  -19.6923  -25.6276   21.1259 H   0  0  0  0  0  0
  -19.6705  -27.3169   20.6736 H   0  0  0  0  0  0
  -17.4230  -26.6697   21.4020 H   0  0  0  0  0  0
  -18.0328  -26.0069   22.9021 H   0  0  0  0  0  0
  -19.7962  -30.7312   24.2191 H   0  0  0  0  0  0
  -17.5025  -31.6255   24.5161 H   0  0  0  0  0  0
  -15.5365  -30.2940   23.7675 H   0  0  0  0  0  0
  -15.8716  -28.0786   22.7070 H   0  0  0  0  0  0
  -24.5882  -30.7104   25.7680 H   0  0  0  0  0  0
  -24.8900  -32.2938   26.4725 H   0  0  0  0  0  0
  -25.7977  -30.8950   27.0192 H   0  0  0  0  0  0
  -26.3049  -29.6618   24.1326 H   0  0  0  0  0  0
  -27.4011  -29.7251   25.4908 H   0  0  0  0  0  0
  -27.8957  -30.4138   23.9650 H   0  0  0  0  0  0
  -27.2625  -33.3633   26.1993 H   0  0  0  0  0  0
  -28.3893  -32.6848   25.0341 H   0  0  0  0  0  0
  -28.0683  -31.8484   26.5452 H   0  0  0  0  0  0
  -28.2563  -38.0084   24.7501 H   0  0  0  0  0  0
  -28.1093  -36.2611   24.6294 H   0  0  0  0  0  0
  -27.2295  -37.1417   25.8859 H   0  0  0  0  0  0
  -20.9512  -29.8718   21.6733 H   0  0  0  0  0  0
  -26.0144  -38.2778   24.1391 H   0  0  0  0  0  0
  -28.6609  -21.2432   22.4234 H   0  0  0  0  0  0
  -29.6716  -18.9716   18.8890 H   0  0  0  0  0  0
  -29.4257  -17.0005   22.7142 H   0  0  0  0  0  0
  -29.7866  -22.9333   16.9210 H   0  0  0  0  0  0
  -30.3243  -24.0212   18.2133 H   0  0  0  0  0  0
  -27.5781  -22.7737   17.8126 H   0  0  0  0  0  0
  -27.9299  -24.4571   18.1560 H   0  0  0  0  0  0
  -27.2070  -22.7142   20.1000 H   0  0  0  0  0  0
  -29.3450  -24.5521   21.1128 H   0  0  0  0  0  0
  -27.6815  -24.5709   21.4869 H   0  0  0  0  0  0
  -28.7445  -20.0802   24.5067 H   0  0  0  0  0  0
  -29.1410  -18.4350   24.6379 H   0  0  0  0  0  0
  -28.8144  -15.9525   19.7995 H   0  0  0  0  0  0
  1 25  1  0  0  0
  1 30  2  0  0  0
  1 84  1  0  0  0
  2  3  1  0  0  0
  2 25  1  0  0  0
  2 86  1  0  0  0
  2 87  1  0  0  0
  3  4  1  0  0  0
  3 88  1  0  0  0
  3 89  1  0  0  0
  4  5  1  0  0  0
  4 90  1  0  0  0
  4 91  1  0  0  0
  5  6  1  0  0  0
  5 26  1  0  0  0
  5 92  1  0  0  0
  6 25  1  0  0  0
  6 93  1  0  0  0
  6 94  1  0  0  0
  7  8  2  0  0  0
  7 26  1  0  0  0
  7 29  1  0  0  0
  8  9  1  0  0  0
  8 22  1  0  0  0
  9 10  1  0  0  0
  9 27  2  0  0  0
 10 11  2  0  0  0
 10 15  1  0  0  0
 11 12  1  0  0  0
 11 95  1  0  0  0
 12 13  2  0  0  0
 12 96  1  0  0  0
 13 14  1  0  0  0
 13 31  1  0  0  0
 14 15  2  0  0  0
 14 97  1  0  0  0
 15 98  1  0  0  0
 16 17  2  0  0  0
 16 21  1  0  0  0
 16 31  1  0  0  0
 17 18  1  0  0  0
 17 99  1  0  0  0
 18 19  2  0  0  0
 18100  1  0  0  0
 19 20  1  0  0  0
 19 24  1  0  0  0
 20 21  2  0  0  0
 20101  1  0  0  0
 21 23  1  0  0  0
 22 28  1  0  0  0
 22 32  2  0  0  0
 26 27  1  0  0  0
 28102  1  0  0  0
 28103  1  0  0  0
 29104  1  0  0  0
 29105  1  0  0  0
 33 34  1  0  0  0
 33 66  1  0  0  0
 33 70  2  0  0  0
 34 36  1  0  0  0
 34 59  1  0  0  0
 34106  1  0  0  0
 35 44  2  0  0  0
 35 45  1  0  0  0
 35 68  1  0  0  0
 36 56  1  0  0  0
 36107  1  0  0  0
 37 39  1  0  0  0
 37 47  1  0  0  0
 37 66  1  0  0  0
 37108  1  0  0  0
 38 43  2  0  0  0
 38 46  1  0  0  0
 38 47  1  0  0  0
 39 64  1  0  0  0
 39 67  2  0  0  0
 40 52  1  0  0  0
 40 53  2  0  0  0
 40 58  1  0  0  0
 41109  1  0  0  0
 41110  1  0  0  0
 41111  1  0  0  0
 41 48  1  0  0  0
 42 43  1  0  0  0
 42 66  1  0  0  0
 42112  1  0  0  0
 42113  1  0  0  0
 43 44  1  0  0  0
 44114  1  0  0  0
 45 46  2  0  0  0
 45115  1  0  0  0
 46116  1  0  0  0
 47117  1  0  0  0
 47118  1  0  0  0
 48 56  1  0  0  0
 48 65  1  0  0  0
 48119  1  0  0  0
 49 50  1  0  0  0
 49 53  1  0  0  0
 49 64  1  0  0  0
 49120  1  0  0  0
 50 51  1  0  0  0
 50121  1  0  0  0
 50122  1  0  0  0
 51 52  1  0  0  0
 51123  1  0  0  0
 51124  1  0  0  0
 52125  1  0  0  0
 52126  1  0  0  0
 53 54  1  0  0  0
 54 55  2  0  0  0
 54127  1  0  0  0
 55 57  1  0  0  0
 55128  1  0  0  0
 56 69  2  0  0  0
 57 58  2  0  0  0
 57129  1  0  0  0
 58130  1  0  0  0
 59 60  1  0  0  0
 59 61  1  0  0  0
 59 62  1  0  0  0
 60131  1  0  0  0
 60132  1  0  0  0
 60133  1  0  0  0
 61134  1  0  0  0
 61135  1  0  0  0
 61136  1  0  0  0
 62137  1  0  0  0
 62138  1  0  0  0
 62139  1  0  0  0
 63 65  1  0  0  0
 63140  1  0  0  0
 63141  1  0  0  0
 63142  1  0  0  0
 64143  1  0  0  0
 65144  1  0  0  0
 68 81  1  0  0  0
 71 74  2  0  0  0
 71 75  1  0  0  0
 71145  1  0  0  0
 72 74  1  0  0  0
 72 76  2  0  0  0
 72146  1  0  0  0
 73 75  2  0  0  0
 73 76  1  0  0  0
 73147  1  0  0  0
 74 82  1  0  0  0
 75 83  1  0  0  0
 76 84  1  0  0  0
 77 78  1  0  0  0
 77 82  1  0  0  0
 77 85  2  0  0  0
 78 79  1  0  0  0
 78148  1  0  0  0
 78149  1  0  0  0
 79 80  1  0  0  0
 79150  1  0  0  0
 79151  1  0  0  0
 80 81  1  0  0  0
 80 82  1  0  0  0
 80152  1  0  0  0
 81153  1  0  0  0
 81154  1  0  0  0
 83155  1  0  0  0
 83156  1  0  0  0
 84157  1  0  0  0
M  ISO  4   1 100  68 101  81 101  84 100
M  END
> <chiral flag>
0

> <version>
0

> <s_m_source_file>
/data/baiqing/PycharmProjects/Reinvent-master-3.2/result/LINK_invent/BTK/process_docking_weight1_custom_product_contain_oxygen_bond_distance_aromatic_linkinvent_7_9_3/rearranged_h_0141.sdf

> <i_m_source_file_index>
4

> <r_mmod_Potential_Energy-OPLS-2005>
902.309875488281

> <r_mmod_Stretch_Energy-OPLS-2005>
343.304168701172

> <r_mmod_Bend_Energy-OPLS-2005>
378.903503417969

> <r_mmod_Torsional_Energy-OPLS-2005>
357.043395996094

> <r_mmod_Improper_Torsional_Energy-OPLS-2005>
16.9272861480713

> <r_mmod_Van_der_Waal_Energy-OPLS-2005>
115.989044189453

> <r_mmod_Electrostatic_Energy-OPLS-2005>
-329.010925292969

> <r_mmod_Solvation_Energy-OPLS-2005>
-241.442337036133

> <b_mmod_Minimization_Converged-OPLS-2005>
0

> <r_mmod_RMS_Derivative-OPLS-2005>
2.20943403244019

$$$$
4
                    3D
 Structure written by MMmdl.
176184  0  0  1  0            999 V2000
  -30.7134  -14.4535   20.5552 C   0  0  0  0  0  0
  -30.4167  -12.2877   19.4246 C   0  0  0  0  0  0
  -29.4949  -12.5026   18.2084 C   0  0  0  0  0  0
  -28.0148  -12.3751   18.6184 C   0  0  0  0  0  0
  -27.6662  -13.2070   19.8811 C   0  0  2  0  0  0
  -28.7075  -12.9854   21.0027 C   0  0  0  0  0  0
  -25.2617  -13.8168   20.5685 C   0  0  0  0  0  0
  -24.1862  -13.0446   20.9158 C   0  0  0  0  0  0
  -24.6413  -11.6909   20.8740 C   0  0  0  0  0  0
  -23.9073  -10.4296   21.0411 C   0  0  0  0  0  0
  -24.3622   -9.4215   21.9186 C   0  0  0  0  0  0
  -23.6307   -8.2250   22.0766 C   0  0  0  0  0  0
  -22.4294   -8.0283   21.3550 C   0  0  0  0  0  0
  -21.9934   -9.0258   20.4651 C   0  0  0  0  0  0
  -22.7249  -10.2140   20.3064 C   0  0  0  0  0  0
  -21.6867   -6.0740   22.5286 C   0  0  0  0  0  0
  -21.4019   -6.5644   23.8219 C   0  0  0  0  0  0
  -21.3659   -5.6800   24.9187 C   0  0  0  0  0  0
  -21.6041   -4.3064   24.7223 C   0  0  0  0  0  0
  -21.8827   -3.8148   23.4349 C   0  0  0  0  0  0
  -21.9202   -4.6964   22.3406 C   0  0  0  0  0  0
  -22.7880  -13.5229   21.1809 C   0  0  0  0  0  0
  -22.1660   -4.2149   21.0982 F   0  0  0  0  0  0
  -21.5630   -3.4546   25.7730 F   0  0  0  0  0  0
  -30.0420  -13.2743   20.4525 N   0  0  0  0  0  0
  -26.3059  -12.9327   20.3408 N   0  0  0  0  0  0
  -25.9342  -11.6484   20.5791 N   0  0  0  0  0  0
  -22.0530  -12.8225   22.0378 N   0  0  0  0  0  0
  -25.4365  -15.1881   20.4061 N   0  0  0  0  0  0
  -31.8457  -14.6116   20.0867 O   0  0  0  0  0  0
  -21.6651   -6.8885   21.4255 O   0  0  0  0  0  0
  -22.3558  -14.5537   20.6675 O   0  0  0  0  0  0
  -24.6115  -31.8695   23.2111 C   0  0  0  0  0  0
  -25.9013  -32.4824   23.8405 C   0  0  1  0  0  0
  -27.2360  -27.4636   20.0936 C   0  0  0  0  0  0
  -25.5879  -33.8621   24.2342 N   0  0  0  0  0  0
  -23.4000  -30.4934   21.5499 C   0  0  2  0  0  0
  -24.8498  -28.9633   20.1131 C   0  0  0  0  0  0
  -22.7405  -29.4656   22.4979 C   0  0  0  0  0  0
  -18.0265  -28.1370   22.8510 C   0  0  0  0  0  0
  -24.1478  -36.7309   23.2645 C   0  0  0  0  0  0
  -25.9255  -30.8474   21.3582 C   0  0  0  0  0  0
  -26.0085  -29.4846   20.7039 C   0  0  0  0  0  0
  -27.2096  -28.7422   20.6947 C   0  0  0  0  0  0
  -26.0629  -26.9427   19.5182 C   0  0  0  0  0  0
  -24.8709  -27.6897   19.5173 C   0  0  0  0  0  0
  -23.6094  -29.8271   20.1635 C   0  0  0  0  0  0
  -25.4099  -36.3117   24.0357 C   0  0  1  0  0  0
  -20.5859  -28.3647   23.1327 C   0  0  2  0  0  0
  -20.6742  -26.9383   22.5425 C   0  0  0  0  0  0
  -19.5721  -26.6382   21.5220 C   0  0  0  0  0  0
  -18.1901  -26.7921   22.1637 C   0  0  0  0  0  0
  -19.1515  -28.8827   23.2917 C   0  0  0  0  0  0
  -18.9451  -30.1444   23.8914 C   0  0  0  0  0  0
  -17.6453  -30.6594   24.0556 C   0  0  0  0  0  0
  -25.9029  -34.9480   23.5151 C   0  0  0  0  0  0
  -16.5351  -29.9087   23.6316 C   0  0  0  0  0  0
  -16.7256  -28.6496   23.0352 C   0  0  0  0  0  0
  -26.4464  -31.6581   25.0707 C   0  0  0  0  0  0
  -25.3747  -31.3664   26.1468 C   0  0  0  0  0  0
  -27.0278  -30.3039   24.6030 C   0  0  0  0  0  0
  -27.6053  -32.4293   25.7461 C   0  0  0  0  0  0
  -27.5581  -37.1808   24.8477 C   0  0  0  0  0  0
  -21.4131  -29.3022   22.3733 N   0  0  0  0  0  0
  -26.4287  -37.3804   23.9431 N   0  0  0  0  0  0
  -24.6638  -31.0837   22.0987 N   0  0  0  0  0  0
  -23.4184  -28.8194   23.3010 O   0  0  0  0  0  0
  -28.3468  -26.6603   20.1060 O   0  0  0  0  0  0
  -26.5604  -34.8931   22.4715 O   0  0  0  0  0  0
  -23.5315  -32.1406   23.7534 O   0  0  0  0  0  0
  -30.3943  -17.2164   19.4039 C   0  0  0  0  0  0
  -29.9724  -19.1280   21.3186 C   0  0  0  0  0  0
  -30.4543  -18.5705   19.0299 C   0  0  0  0  0  0
  -30.2718  -19.5692   20.0048 C   0  0  0  0  0  0
  -30.1316  -16.8568   20.7446 C   0  0  0  0  0  0
  -30.0713  -24.7531   18.5635 C   0  0  0  0  0  0
  -30.6994  -18.9528   17.5828 C   0  0  0  0  0  0
  -31.2263  -26.7844   17.6613 C   0  0  0  0  0  0
  -33.5041  -24.4111   20.0149 C   0  0  0  0  0  0
  -33.4698  -22.0675   20.8615 C   0  0  0  0  0  0
  -32.3427  -23.9057   22.1666 C   0  0  0  0  0  0
  -30.3894  -21.9736   20.5093 C   0  0  0  0  0  0
  -29.5226  -27.1634   19.4902 C   0  0  0  0  0  0
  -31.3186  -23.0965   19.9466 C   0  0  2  0  0  0
  -29.9085  -26.2772   18.2760 C   0  0  2  0  0  0
  -32.6360  -23.3609   20.7505 C   0  0  0  0  0  0
  -29.8929  -17.8178   21.6689 N   0  0  0  0  0  0
  -30.0239  -15.4794   21.0950 N   0  0  0  0  0  0
  -30.6111  -24.3668   19.7319 N   0  0  0  0  0  0
  -29.7957  -23.9293   17.6847 O   0  0  0  0  0  0
  -28.9223  -26.4830   17.2675 O   0  0  0  0  0  0
  -30.3896  -20.8825   19.5834 O   0  0  0  0  0  0
  -31.4619  -12.3703   19.1213 H   0  0  0  0  0  0
  -30.2991  -11.2747   19.8151 H   0  0  0  0  0  0
  -29.7269  -11.7820   17.4233 H   0  0  0  0  0  0
  -29.6742  -13.4874   17.7761 H   0  0  0  0  0  0
  -27.8126  -11.3209   18.8038 H   0  0  0  0  0  0
  -27.3712  -12.6668   17.7886 H   0  0  0  0  0  0
  -27.7136  -14.2560   19.5874 H   0  0  0  0  0  0
  -28.6795  -11.9524   21.3549 H   0  0  0  0  0  0
  -28.4762  -13.5950   21.8782 H   0  0  0  0  0  0
  -25.2773   -9.5674   22.4749 H   0  0  0  0  0  0
  -24.0023   -7.4642   22.7483 H   0  0  0  0  0  0
  -21.0879   -8.8760   19.8945 H   0  0  0  0  0  0
  -22.3713  -10.9677   19.6168 H   0  0  0  0  0  0
  -21.2014   -7.6149   23.9708 H   0  0  0  0  0  0
  -21.1473   -6.0536   25.9082 H   0  0  0  0  0  0
  -22.0610   -2.7608   23.2851 H   0  0  0  0  0  0
  -22.4147  -11.9875   22.4742 H   0  0  0  0  0  0
  -21.1142  -13.1230   22.2571 H   0  0  0  0  0  0
  -24.6777  -15.8521   20.5139 H   0  0  0  0  0  0
  -26.2913  -15.6178   20.0735 H   0  0  0  0  0  0
  -26.7090  -32.5584   23.1178 H   0  0  0  0  0  0
  -24.9967  -33.9765   25.0449 H   0  0  0  0  0  0
  -22.6871  -31.3097   21.4103 H   0  0  0  0  0  0
  -23.3754  -35.9631   23.3310 H   0  0  0  0  0  0
  -24.3571  -36.8912   22.2058 H   0  0  0  0  0  0
  -23.7212  -37.6508   23.6649 H   0  0  0  0  0  0
  -26.0298  -31.6161   20.5911 H   0  0  0  0  0  0
  -26.8155  -30.9034   21.9732 H   0  0  0  0  0  0
  -28.0999  -29.1338   21.1661 H   0  0  0  0  0  0
  -26.0782  -25.9568   19.0739 H   0  0  0  0  0  0
  -23.9783  -27.2772   19.0671 H   0  0  0  0  0  0
  -23.7160  -30.6027   19.4032 H   0  0  0  0  0  0
  -22.7344  -29.2457   19.8671 H   0  0  0  0  0  0
  -25.1267  -36.1982   25.0850 H   0  0  0  0  0  0
  -20.9964  -28.3216   24.1440 H   0  0  0  0  0  0
  -20.5625  -26.2260   23.3609 H   0  0  0  0  0  0
  -21.6611  -26.7396   22.1233 H   0  0  0  0  0  0
  -19.6874  -25.6297   21.1224 H   0  0  0  0  0  0
  -19.6673  -27.3213   20.6765 H   0  0  0  0  0  0
  -17.4169  -26.6692   21.4031 H   0  0  0  0  0  0
  -18.0304  -26.0060   22.9025 H   0  0  0  0  0  0
  -19.7931  -30.7255   24.2297 H   0  0  0  0  0  0
  -17.5009  -31.6277   24.5151 H   0  0  0  0  0  0
  -15.5351  -30.2997   23.7625 H   0  0  0  0  0  0
  -15.8659  -28.0831   22.7039 H   0  0  0  0  0  0
  -24.5925  -30.6998   25.7813 H   0  0  0  0  0  0
  -24.8916  -32.2795   26.4959 H   0  0  0  0  0  0
  -25.8122  -30.8813   27.0196 H   0  0  0  0  0  0
  -26.2780  -29.6816   24.1123 H   0  0  0  0  0  0
  -27.4103  -29.7268   25.4453 H   0  0  0  0  0  0
  -27.8598  -30.4381   23.9114 H   0  0  0  0  0  0
  -27.2684  -33.3591   26.2067 H   0  0  0  0  0  0
  -28.3843  -32.6855   25.0264 H   0  0  0  0  0  0
  -28.0731  -31.8378   26.5341 H   0  0  0  0  0  0
  -28.2612  -38.0093   24.7515 H   0  0  0  0  0  0
  -28.1058  -36.2621   24.6308 H   0  0  0  0  0  0
  -27.2293  -37.1462   25.8879 H   0  0  0  0  0  0
  -20.9285  -29.8773   21.6990 H   0  0  0  0  0  0
  -26.0184  -38.2883   24.1443 H   0  0  0  0  0  0
  -30.5401  -16.4600   18.6452 H   0  0  0  0  0  0
  -29.7765  -19.8247   22.1198 H   0  0  0  0  0  0
  -30.6784  -18.0822   16.9285 H   0  0  0  0  0  0
  -31.6681  -19.4383   17.4723 H   0  0  0  0  0  0
  -29.9307  -19.6440   17.2394 H   0  0  0  0  0  0
  -32.0393  -26.7370   18.3855 H   0  0  0  0  0  0
  -31.1555  -27.8228   17.3357 H   0  0  0  0  0  0
  -31.5261  -26.1845   16.8002 H   0  0  0  0  0  0
  -34.4877  -24.5157   20.4751 H   0  0  0  0  0  0
  -33.0535  -25.4027   20.0333 H   0  0  0  0  0  0
  -33.6617  -24.1453   18.9689 H   0  0  0  0  0  0
  -34.4431  -22.2593   21.3148 H   0  0  0  0  0  0
  -33.6548  -21.6224   19.8836 H   0  0  0  0  0  0
  -32.9808  -21.3105   21.4750 H   0  0  0  0  0  0
  -33.2655  -24.0809   22.7211 H   0  0  0  0  0  0
  -31.7430  -23.2176   22.7628 H   0  0  0  0  0  0
  -31.8099  -24.8560   22.1384 H   0  0  0  0  0  0
  -29.3631  -22.3258   20.6196 H   0  0  0  0  0  0
  -30.7201  -21.6755   21.5006 H   0  0  0  0  0  0
  -29.4128  -28.2035   19.1769 H   0  0  0  0  0  0
  -30.3208  -27.1585   20.2341 H   0  0  0  0  0  0
  -31.6480  -22.7518   18.9628 H   0  0  0  0  0  0
  -29.2205  -15.2279   21.6478 H   0  0  0  0  0  0
  -30.7637  -25.0806   20.4270 H   0  0  0  0  0  0
  -28.7666  -27.4164   17.2027 H   0  0  0  0  0  0
  1 25  1  0  0  0
  1 30  2  0  0  0
  1 88  1  0  0  0
  2  3  1  0  0  0
  2 25  1  0  0  0
  2 93  1  0  0  0
  2 94  1  0  0  0
  3  4  1  0  0  0
  3 95  1  0  0  0
  3 96  1  0  0  0
  4  5  1  0  0  0
  4 97  1  0  0  0
  4 98  1  0  0  0
  5  6  1  0  0  0
  5 26  1  0  0  0
  5 99  1  0  0  0
  6 25  1  0  0  0
  6100  1  0  0  0
  6101  1  0  0  0
  7  8  2  0  0  0
  7 26  1  0  0  0
  7 29  1  0  0  0
  8  9  1  0  0  0
  8 22  1  0  0  0
  9 10  1  0  0  0
  9 27  2  0  0  0
 10 11  2  0  0  0
 10 15  1  0  0  0
 11 12  1  0  0  0
 11102  1  0  0  0
 12 13  2  0  0  0
 12103  1  0  0  0
 13 14  1  0  0  0
 13 31  1  0  0  0
 14 15  2  0  0  0
 14104  1  0  0  0
 15105  1  0  0  0
 16 17  2  0  0  0
 16 21  1  0  0  0
 16 31  1  0  0  0
 17 18  1  0  0  0
 17106  1  0  0  0
 18 19  2  0  0  0
 18107  1  0  0  0
 19 20  1  0  0  0
 19 24  1  0  0  0
 20 21  2  0  0  0
 20108  1  0  0  0
 21 23  1  0  0  0
 22 28  1  0  0  0
 22 32  2  0  0  0
 26 27  1  0  0  0
 28109  1  0  0  0
 28110  1  0  0  0
 29111  1  0  0  0
 29112  1  0  0  0
 33 34  1  0  0  0
 33 66  1  0  0  0
 33 70  2  0  0  0
 34 36  1  0  0  0
 34 59  1  0  0  0
 34113  1  0  0  0
 35 44  2  0  0  0
 35 45  1  0  0  0
 35 68  1  0  0  0
 36 56  1  0  0  0
 36114  1  0  0  0
 37 39  1  0  0  0
 37 47  1  0  0  0
 37 66  1  0  0  0
 37115  1  0  0  0
 38 43  2  0  0  0
 38 46  1  0  0  0
 38 47  1  0  0  0
 39 64  1  0  0  0
 39 67  2  0  0  0
 40 52  1  0  0  0
 40 53  2  0  0  0
 40 58  1  0  0  0
 41116  1  0  0  0
 41117  1  0  0  0
 41118  1  0  0  0
 41 48  1  0  0  0
 42 43  1  0  0  0
 42 66  1  0  0  0
 42119  1  0  0  0
 42120  1  0  0  0
 43 44  1  0  0  0
 44121  1  0  0  0
 45 46  2  0  0  0
 45122  1  0  0  0
 46123  1  0  0  0
 47124  1  0  0  0
 47125  1  0  0  0
 48 56  1  0  0  0
 48 65  1  0  0  0
 48126  1  0  0  0
 49 50  1  0  0  0
 49 53  1  0  0  0
 49 64  1  0  0  0
 49127  1  0  0  0
 50 51  1  0  0  0
 50128  1  0  0  0
 50129  1  0  0  0
 51 52  1  0  0  0
 51130  1  0  0  0
 51131  1  0  0  0
 52132  1  0  0  0
 52133  1  0  0  0
 53 54  1  0  0  0
 54 55  2  0  0  0
 54134  1  0  0  0
 55 57  1  0  0  0
 55135  1  0  0  0
 56 69  2  0  0  0
 57 58  2  0  0  0
 57136  1  0  0  0
 58137  1  0  0  0
 59 60  1  0  0  0
 59 61  1  0  0  0
 59 62  1  0  0  0
 60138  1  0  0  0
 60139  1  0  0  0
 60140  1  0  0  0
 61141  1  0  0  0
 61142  1  0  0  0
 61143  1  0  0  0
 62144  1  0  0  0
 62145  1  0  0  0
 62146  1  0  0  0
 63 65  1  0  0  0
 63147  1  0  0  0
 63148  1  0  0  0
 63149  1  0  0  0
 64150  1  0  0  0
 65151  1  0  0  0
 68 83  1  0  0  0
 71 73  2  0  0  0
 71 75  1  0  0  0
 71152  1  0  0  0
 72 74  2  0  0  0
 72 87  1  0  0  0
 72153  1  0  0  0
 73 74  1  0  0  0
 73 77  1  0  0  0
 74 92  1  0  0  0
 75 87  2  0  0  0
 75 88  1  0  0  0
 76 89  1  0  0  0
 76 90  2  0  0  0
 76 85  1  0  0  0
 77154  1  0  0  0
 77155  1  0  0  0
 77156  1  0  0  0
 78157  1  0  0  0
 78158  1  0  0  0
 78159  1  0  0  0
 78 85  1  0  0  0
 79160  1  0  0  0
 79161  1  0  0  0
 79162  1  0  0  0
 79 86  1  0  0  0
 80 86  1  0  0  0
 80163  1  0  0  0
 80164  1  0  0  0
 80165  1  0  0  0
 81 86  1  0  0  0
 81166  1  0  0  0
 81167  1  0  0  0
 81168  1  0  0  0
 82 92  1  0  0  0
 82169  1  0  0  0
 82170  1  0  0  0
 82 84  1  0  0  0
 83 85  1  0  0  0
 83171  1  0  0  0
 83172  1  0  0  0
 84 86  1  0  0  0
 84 89  1  0  0  0
 84173  1  0  0  0
 85 91  1  0  0  0
 88174  1  0  0  0
 89175  1  0  0  0
 91176  1  0  0  0
M  ISO  4   1 100  68 101  83 101  88 100
M  END
> <chiral flag>
0

> <version>
0

> <s_m_source_file>
/data/baiqing/PycharmProjects/Reinvent-master-3.2/result/LINK_invent/BTK/process_docking_weight1_custom_product_contain_oxygen_bond_distance_aromatic_linkinvent_7_9_3/rearranged_h_0141.sdf

> <i_m_source_file_index>
5

> <r_mmod_Potential_Energy-OPLS-2005>
-138.558380126953

> <r_mmod_Stretch_Energy-OPLS-2005>
41.4107933044434

> <r_mmod_Bend_Energy-OPLS-2005>
123.999206542969

> <r_mmod_Torsional_Energy-OPLS-2005>
294.790893554688

> <r_mmod_Improper_Torsional_Energy-OPLS-2005>
5.30493927001953

> <r_mmod_Van_der_Waal_Energy-OPLS-2005>
160.952255249023

> <r_mmod_Electrostatic_Energy-OPLS-2005>
-515.356506347656

> <r_mmod_Solvation_Energy-OPLS-2005>
-261.455322265625

> <b_mmod_Minimization_Converged-OPLS-2005>
0

> <r_mmod_RMS_Derivative-OPLS-2005>
2.96610689163208

$$$$
5
                    3D
 Structure written by MMmdl.
162170  0  0  1  0            999 V2000
  -30.6085  -14.6377   20.4907 C   0  0  0  0  0  0
  -30.4372  -12.3945   19.4357 C   0  0  0  0  0  0
  -29.4930  -12.5099   18.2161 C   0  0  0  0  0  0
  -28.0206  -12.3447   18.6389 C   0  0  0  0  0  0
  -27.6541  -13.2145   19.8699 C   0  0  2  0  0  0
  -28.7035  -13.0488   20.9926 C   0  0  0  0  0  0
  -25.2555  -13.8171   20.5724 C   0  0  0  0  0  0
  -24.1819  -13.0427   20.9213 C   0  0  0  0  0  0
  -24.6396  -11.6900   20.8762 C   0  0  0  0  0  0
  -23.9075  -10.4282   21.0418 C   0  0  0  0  0  0
  -24.3623   -9.4195   21.9194 C   0  0  0  0  0  0
  -23.6294   -8.2225   22.0751 C   0  0  0  0  0  0
  -22.4273   -8.0274   21.3540 C   0  0  0  0  0  0
  -21.9912   -9.0255   20.4648 C   0  0  0  0  0  0
  -22.7249  -10.2143   20.3065 C   0  0  0  0  0  0
  -21.6857   -6.0737   22.5289 C   0  0  0  0  0  0
  -21.4002   -6.5642   23.8219 C   0  0  0  0  0  0
  -21.3650   -5.6787   24.9180 C   0  0  0  0  0  0
  -21.6046   -4.3052   24.7227 C   0  0  0  0  0  0
  -21.8817   -3.8153   23.4342 C   0  0  0  0  0  0
  -21.9187   -4.6970   22.3407 C   0  0  0  0  0  0
  -22.7844  -13.5213   21.1881 C   0  0  0  0  0  0
  -22.1664   -4.2157   21.0981 F   0  0  0  0  0  0
  -21.5628   -3.4537   25.7737 F   0  0  0  0  0  0
  -30.0162  -13.4045   20.4286 N   0  0  0  0  0  0
  -26.2993  -12.9349   20.3392 N   0  0  0  0  0  0
  -25.9326  -11.6502   20.5812 N   0  0  0  0  0  0
  -22.0500  -12.8198   22.0447 N   0  0  0  0  0  0
  -25.4239  -15.1888   20.4129 N   0  0  0  0  0  0
  -31.7628  -14.8174   20.0904 O   0  0  0  0  0  0
  -21.6627   -6.8880   21.4245 O   0  0  0  0  0  0
  -22.3523  -14.5529   20.6743 O   0  0  0  0  0  0
  -24.6216  -31.8573   23.1989 C   0  0  0  0  0  0
  -25.9073  -32.4757   23.8306 C   0  0  1  0  0  0
  -27.2448  -27.3339   20.1207 C   0  0  0  0  0  0
  -25.5909  -33.8560   24.2239 N   0  0  0  0  0  0
  -23.4150  -30.4772   21.5378 C   0  0  2  0  0  0
  -24.8705  -28.9246   20.1142 C   0  0  0  0  0  0
  -22.7431  -29.4600   22.4896 C   0  0  0  0  0  0
  -18.0278  -28.1356   22.8447 C   0  0  0  0  0  0
  -24.1489  -36.7267   23.2643 C   0  0  0  0  0  0
  -25.9539  -30.7909   21.3685 C   0  0  0  0  0  0
  -26.0343  -29.4166   20.7184 C   0  0  0  0  0  0
  -27.2244  -28.6331   20.7095 C   0  0  0  0  0  0
  -26.0613  -26.8847   19.4984 C   0  0  0  0  0  0
  -24.8852  -27.6629   19.4959 C   0  0  0  0  0  0
  -23.6336  -29.8000   20.1582 C   0  0  0  0  0  0
  -25.4109  -36.3050   24.0323 C   0  0  1  0  0  0
  -20.5870  -28.3639   23.1262 C   0  0  2  0  0  0
  -20.6762  -26.9363   22.5387 C   0  0  0  0  0  0
  -19.5762  -26.6341   21.5180 C   0  0  0  0  0  0
  -18.1930  -26.7895   22.1582 C   0  0  0  0  0  0
  -19.1531  -28.8812   23.2858 C   0  0  0  0  0  0
  -18.9481  -30.1423   23.8860 C   0  0  0  0  0  0
  -17.6492  -30.6565   24.0554 C   0  0  0  0  0  0
  -25.9031  -34.9427   23.5074 C   0  0  0  0  0  0
  -16.5377  -29.9054   23.6356 C   0  0  0  0  0  0
  -16.7272  -28.6484   23.0340 C   0  0  0  0  0  0
  -26.4510  -31.6568   25.0659 C   0  0  0  0  0  0
  -25.3782  -31.3730   26.1430 C   0  0  0  0  0  0
  -27.0341  -30.2980   24.6062 C   0  0  0  0  0  0
  -27.6042  -32.4327   25.7475 C   0  0  0  0  0  0
  -27.5565  -37.1788   24.8463 C   0  0  0  0  0  0
  -21.4141  -29.3027   22.3668 N   0  0  0  0  0  0
  -26.4279  -37.3739   23.9412 N   0  0  0  0  0  0
  -24.6816  -31.0590   22.0927 N   0  0  0  0  0  0
  -23.4181  -28.8121   23.2939 O   0  0  0  0  0  0
  -28.3871  -26.5258   20.1037 O   0  0  0  0  0  0
  -26.5588  -34.8918   22.4624 O   0  0  0  0  0  0
  -23.5380  -32.1356   23.7331 O   0  0  0  0  0  0
  -29.3592  -19.4520   21.4744 C   0  0  0  0  0  0
  -30.0316  -19.0781   19.2048 C   0  0  0  0  0  0
  -29.4637  -18.0474   21.7499 C   0  0  0  0  0  0
  -29.6261  -20.0090   20.1987 C   0  0  0  0  0  0
  -29.8486  -17.1149   20.7239 C   0  0  0  0  0  0
  -30.1292  -17.6767   19.4482 C   0  0  0  0  0  0
  -29.0963  -17.5947   23.1292 C   0  0  0  0  0  0
  -29.0279  -22.5327   20.5131 C   0  0  0  0  0  0
  -29.3170  -18.5762   24.2760 C   0  0  0  0  0  0
  -28.2439  -23.7793   18.4394 C   0  0  0  0  0  0
  -30.4609  -24.3587   19.4802 C   0  0  0  0  0  0
  -28.2903  -25.1317   20.5953 C   0  0  0  0  0  0
  -29.0011  -23.9481   19.7734 C   0  0  0  0  0  0
  -29.5062  -21.4297   19.8457 N   0  0  0  0  0  0
  -29.8136  -15.6601   20.9320 N   0  0  0  0  0  0
  -28.6433  -16.4759   23.3919 O   0  0  0  0  0  0
  -28.6267  -22.4626   21.6763 O   0  0  0  0  0  0
  -30.4369  -16.8634   18.4091 F   0  0  0  0  0  0
  -31.4744  -12.5324   19.1222 H   0  0  0  0  0  0
  -30.3865  -11.3945   19.8677 H   0  0  0  0  0  0
  -29.7499  -11.7594   17.4669 H   0  0  0  0  0  0
  -29.6263  -13.4798   17.7356 H   0  0  0  0  0  0
  -27.8609  -11.2915   18.8721 H   0  0  0  0  0  0
  -27.3558  -12.5722   17.8056 H   0  0  0  0  0  0
  -27.6754  -14.2524   19.5381 H   0  0  0  0  0  0
  -28.7181  -12.0164   21.3448 H   0  0  0  0  0  0
  -28.4531  -13.6537   21.8649 H   0  0  0  0  0  0
  -25.2763   -9.5659   22.4770 H   0  0  0  0  0  0
  -24.0007   -7.4605   22.7452 H   0  0  0  0  0  0
  -21.0846   -8.8775   19.8949 H   0  0  0  0  0  0
  -22.3706  -10.9676   19.6176 H   0  0  0  0  0  0
  -21.1988   -7.6147   23.9727 H   0  0  0  0  0  0
  -21.1476   -6.0517   25.9082 H   0  0  0  0  0  0
  -22.0603   -2.7614   23.2843 H   0  0  0  0  0  0
  -22.4116  -11.9840   22.4791 H   0  0  0  0  0  0
  -21.1137  -13.1228   22.2712 H   0  0  0  0  0  0
  -24.6534  -15.8386   20.5196 H   0  0  0  0  0  0
  -26.2767  -15.6341   20.0979 H   0  0  0  0  0  0
  -26.7107  -32.5444   23.1025 H   0  0  0  0  0  0
  -25.0158  -33.9716   25.0457 H   0  0  0  0  0  0
  -22.7081  -31.2953   21.3864 H   0  0  0  0  0  0
  -23.3760  -35.9598   23.3288 H   0  0  0  0  0  0
  -24.3578  -36.8899   22.2061 H   0  0  0  0  0  0
  -23.7250  -37.6461   23.6685 H   0  0  0  0  0  0
  -26.0748  -31.5518   20.5965 H   0  0  0  0  0  0
  -26.8370  -30.8476   21.9915 H   0  0  0  0  0  0
  -28.1201  -29.0129   21.1787 H   0  0  0  0  0  0
  -26.0472  -25.9262   18.9997 H   0  0  0  0  0  0
  -23.9958  -27.2806   19.0147 H   0  0  0  0  0  0
  -23.7458  -30.5703   19.3965 H   0  0  0  0  0  0
  -22.7579  -29.2205   19.8606 H   0  0  0  0  0  0
  -25.1302  -36.1883   25.0816 H   0  0  0  0  0  0
  -20.9979  -28.3216   24.1375 H   0  0  0  0  0  0
  -20.5604  -26.2250   23.3571 H   0  0  0  0  0  0
  -21.6630  -26.7332   22.1228 H   0  0  0  0  0  0
  -19.6931  -25.6247   21.1207 H   0  0  0  0  0  0
  -19.6754  -27.3146   20.6717 H   0  0  0  0  0  0
  -17.4197  -26.6624   21.3992 H   0  0  0  0  0  0
  -18.0358  -26.0039   22.8980 H   0  0  0  0  0  0
  -19.7983  -30.7235   24.2180 H   0  0  0  0  0  0
  -17.5080  -31.6260   24.5128 H   0  0  0  0  0  0
  -15.5385  -30.2975   23.7703 H   0  0  0  0  0  0
  -15.8661  -28.0829   22.7047 H   0  0  0  0  0  0
  -24.5950  -30.7048   25.7799 H   0  0  0  0  0  0
  -24.9017  -32.2938   26.4814 H   0  0  0  0  0  0
  -25.8175  -30.8961   27.0207 H   0  0  0  0  0  0
  -26.2861  -29.6729   24.1147 H   0  0  0  0  0  0
  -27.4132  -29.7211   25.4516 H   0  0  0  0  0  0
  -27.8704  -30.4258   23.9184 H   0  0  0  0  0  0
  -27.2589  -33.3645   26.1977 H   0  0  0  0  0  0
  -28.3938  -32.6846   25.0376 H   0  0  0  0  0  0
  -28.0607  -31.8493   26.5486 H   0  0  0  0  0  0
  -28.2548  -38.0106   24.7483 H   0  0  0  0  0  0
  -28.1095  -36.2628   24.6325 H   0  0  0  0  0  0
  -27.2285  -37.1455   25.8865 H   0  0  0  0  0  0
  -20.9261  -29.8815   21.6970 H   0  0  0  0  0  0
  -26.0152  -38.2794   24.1465 H   0  0  0  0  0  0
  -29.0403  -20.1188   22.2602 H   0  0  0  0  0  0
  -30.2458  -19.4273   18.2053 H   0  0  0  0  0  0
  -30.2406  -19.1376   24.1289 H   0  0  0  0  0  0
  -29.3857  -18.0465   25.2256 H   0  0  0  0  0  0
  -28.4858  -19.2778   24.3389 H   0  0  0  0  0  0
  -28.1472  -24.7348   17.9196 H   0  0  0  0  0  0
  -27.2388  -23.3907   18.6025 H   0  0  0  0  0  0
  -28.7528  -23.0964   17.7564 H   0  0  0  0  0  0
  -31.0107  -23.5828   18.9441 H   0  0  0  0  0  0
  -31.0069  -24.5743   20.4005 H   0  0  0  0  0  0
  -30.4981  -25.2554   18.8622 H   0  0  0  0  0  0
  -28.7343  -25.1573   21.5908 H   0  0  0  0  0  0
  -27.2505  -24.8570   20.7717 H   0  0  0  0  0  0
  -29.8112  -21.6522   18.9085 H   0  0  0  0  0  0
  -28.9927  -15.3357   21.4236 H   0  0  0  0  0  0
  1 25  1  0  0  0
  1 30  2  0  0  0
  1 85  1  0  0  0
  2  3  1  0  0  0
  2 25  1  0  0  0
  2 89  1  0  0  0
  2 90  1  0  0  0
  3  4  1  0  0  0
  3 91  1  0  0  0
  3 92  1  0  0  0
  4  5  1  0  0  0
  4 93  1  0  0  0
  4 94  1  0  0  0
  5  6  1  0  0  0
  5 26  1  0  0  0
  5 95  1  0  0  0
  6 25  1  0  0  0
  6 96  1  0  0  0
  6 97  1  0  0  0
  7  8  2  0  0  0
  7 26  1  0  0  0
  7 29  1  0  0  0
  8  9  1  0  0  0
  8 22  1  0  0  0
  9 10  1  0  0  0
  9 27  2  0  0  0
 10 11  2  0  0  0
 10 15  1  0  0  0
 11 12  1  0  0  0
 11 98  1  0  0  0
 12 13  2  0  0  0
 12 99  1  0  0  0
 13 14  1  0  0  0
 13 31  1  0  0  0
 14 15  2  0  0  0
 14100  1  0  0  0
 15101  1  0  0  0
 16 17  2  0  0  0
 16 21  1  0  0  0
 16 31  1  0  0  0
 17 18  1  0  0  0
 17102  1  0  0  0
 18 19  2  0  0  0
 18103  1  0  0  0
 19 20  1  0  0  0
 19 24  1  0  0  0
 20 21  2  0  0  0
 20104  1  0  0  0
 21 23  1  0  0  0
 22 28  1  0  0  0
 22 32  2  0  0  0
 26 27  1  0  0  0
 28105  1  0  0  0
 28106  1  0  0  0
 29107  1  0  0  0
 29108  1  0  0  0
 33 34  1  0  0  0
 33 66  1  0  0  0
 33 70  2  0  0  0
 34 36  1  0  0  0
 34 59  1  0  0  0
 34109  1  0  0  0
 35 44  2  0  0  0
 35 45  1  0  0  0
 35 68  1  0  0  0
 36 56  1  0  0  0
 36110  1  0  0  0
 37 39  1  0  0  0
 37 47  1  0  0  0
 37 66  1  0  0  0
 37111  1  0  0  0
 38 43  2  0  0  0
 38 46  1  0  0  0
 38 47  1  0  0  0
 39 64  1  0  0  0
 39 67  2  0  0  0
 40 52  1  0  0  0
 40 53  2  0  0  0
 40 58  1  0  0  0
 41112  1  0  0  0
 41113  1  0  0  0
 41114  1  0  0  0
 41 48  1  0  0  0
 42 43  1  0  0  0
 42 66  1  0  0  0
 42115  1  0  0  0
 42116  1  0  0  0
 43 44  1  0  0  0
 44117  1  0  0  0
 45 46  2  0  0  0
 45118  1  0  0  0
 46119  1  0  0  0
 47120  1  0  0  0
 47121  1  0  0  0
 48 56  1  0  0  0
 48 65  1  0  0  0
 48122  1  0  0  0
 49 50  1  0  0  0
 49 53  1  0  0  0
 49 64  1  0  0  0
 49123  1  0  0  0
 50 51  1  0  0  0
 50124  1  0  0  0
 50125  1  0  0  0
 51 52  1  0  0  0
 51126  1  0  0  0
 51127  1  0  0  0
 52128  1  0  0  0
 52129  1  0  0  0
 53 54  1  0  0  0
 54 55  2  0  0  0
 54130  1  0  0  0
 55 57  1  0  0  0
 55131  1  0  0  0
 56 69  2  0  0  0
 57 58  2  0  0  0
 57132  1  0  0  0
 58133  1  0  0  0
 59 60  1  0  0  0
 59 61  1  0  0  0
 59 62  1  0  0  0
 60134  1  0  0  0
 60135  1  0  0  0
 60136  1  0  0  0
 61137  1  0  0  0
 61138  1  0  0  0
 61139  1  0  0  0
 62140  1  0  0  0
 62141  1  0  0  0
 62142  1  0  0  0
 63 65  1  0  0  0
 63143  1  0  0  0
 63144  1  0  0  0
 63145  1  0  0  0
 64146  1  0  0  0
 65147  1  0  0  0
 68 82  1  0  0  0
 71 73  2  0  0  0
 71 74  1  0  0  0
 71148  1  0  0  0
 72 74  2  0  0  0
 72 76  1  0  0  0
 72149  1  0  0  0
 73 75  1  0  0  0
 73 77  1  0  0  0
 74 84  1  0  0  0
 75 76  2  0  0  0
 75 85  1  0  0  0
 76 88  1  0  0  0
 77 79  1  0  0  0
 77 86  2  0  0  0
 78 83  1  0  0  0
 78 84  1  0  0  0
 78 87  2  0  0  0
 79150  1  0  0  0
 79151  1  0  0  0
 79152  1  0  0  0
 80153  1  0  0  0
 80154  1  0  0  0
 80155  1  0  0  0
 80 83  1  0  0  0
 81 83  1  0  0  0
 81156  1  0  0  0
 81157  1  0  0  0
 81158  1  0  0  0
 82 83  1  0  0  0
 82159  1  0  0  0
 82160  1  0  0  0
 84161  1  0  0  0
 85162  1  0  0  0
M  ISO  4   1 100  68 101  82 101  85 100
M  END
> <chiral flag>
0

> <version>
0

> <s_m_source_file>
/data/baiqing/PycharmProjects/Reinvent-master-3.2/result/LINK_invent/BTK/process_docking_weight1_custom_product_contain_oxygen_bond_distance_aromatic_linkinvent_7_9_3/rearranged_h_0141.sdf

> <i_m_source_file_index>
6

> <r_mmod_Potential_Energy-OPLS-2005>
34.5734214782715

> <r_mmod_Stretch_Energy-OPLS-2005>
86.6265335083008

> <r_mmod_Bend_Energy-OPLS-2005>
142.274047851562

> <r_mmod_Torsional_Energy-OPLS-2005>
300.794403076172

> <r_mmod_Improper_Torsional_Energy-OPLS-2005>
3.47510480880737

> <r_mmod_Van_der_Waal_Energy-OPLS-2005>
146.895309448242

> <r_mmod_Electrostatic_Energy-OPLS-2005>
-462.735076904297

> <r_mmod_Solvation_Energy-OPLS-2005>
-225.276000976562

> <b_mmod_Minimization_Converged-OPLS-2005>
0

> <r_mmod_RMS_Derivative-OPLS-2005>
3.12923836708069

$$$$
6
                    3D
 Structure written by MMmdl.
162170  0  0  1  0            999 V2000
  -30.7429  -14.4364   20.5910 C   0  0  0  0  0  0
  -30.4057  -12.2899   19.4337 C   0  0  0  0  0  0
  -29.4972  -12.5218   18.2097 C   0  0  0  0  0  0
  -28.0155  -12.3886   18.6098 C   0  0  0  0  0  0
  -27.6611  -13.2143   19.8761 C   0  0  2  0  0  0
  -28.6970  -13.0007   21.0031 C   0  0  0  0  0  0
  -25.2596  -13.8172   20.5689 C   0  0  0  0  0  0
  -24.1835  -13.0464   20.9169 C   0  0  0  0  0  0
  -24.6378  -11.6926   20.8705 C   0  0  0  0  0  0
  -23.9026  -10.4319   21.0390 C   0  0  0  0  0  0
  -24.3583   -9.4246   21.9181 C   0  0  0  0  0  0
  -23.6279   -8.2265   22.0757 C   0  0  0  0  0  0
  -22.4258   -8.0292   21.3545 C   0  0  0  0  0  0
  -21.9878   -9.0252   20.4644 C   0  0  0  0  0  0
  -22.7198  -10.2134   20.3050 C   0  0  0  0  0  0
  -21.6851   -6.0726   22.5286 C   0  0  0  0  0  0
  -21.4033   -6.5626   23.8222 C   0  0  0  0  0  0
  -21.3666   -5.6776   24.9172 C   0  0  0  0  0  0
  -21.6053   -4.3046   24.7221 C   0  0  0  0  0  0
  -21.8812   -3.8138   23.4344 C   0  0  0  0  0  0
  -21.9199   -4.6955   22.3404 C   0  0  0  0  0  0
  -22.7869  -13.5292   21.1799 C   0  0  0  0  0  0
  -22.1671   -4.2152   21.0975 F   0  0  0  0  0  0
  -21.5613   -3.4530   25.7727 F   0  0  0  0  0  0
  -30.0336  -13.2813   20.4569 N   0  0  0  0  0  0
  -26.3023  -12.9356   20.3349 N   0  0  0  0  0  0
  -25.9314  -11.6507   20.5735 N   0  0  0  0  0  0
  -22.0435  -12.8331   22.0330 N   0  0  0  0  0  0
  -25.4348  -15.1901   20.4155 N   0  0  0  0  0  0
  -31.8342  -14.5877   20.0367 O   0  0  0  0  0  0
  -21.6638   -6.8877   21.4251 O   0  0  0  0  0  0
  -22.3595  -14.5594   20.6631 O   0  0  0  0  0  0
  -24.6135  -31.8698   23.2117 C   0  0  0  0  0  0
  -25.9043  -32.4832   23.8382 C   0  0  1  0  0  0
  -27.2277  -27.4519   20.0986 C   0  0  0  0  0  0
  -25.5935  -33.8631   24.2348 N   0  0  0  0  0  0
  -23.3984  -30.4935   21.5503 C   0  0  2  0  0  0
  -24.8439  -28.9607   20.1139 C   0  0  0  0  0  0
  -22.7388  -29.4670   22.4999 C   0  0  0  0  0  0
  -18.0266  -28.1348   22.8520 C   0  0  0  0  0  0
  -24.1477  -36.7311   23.2633 C   0  0  0  0  0  0
  -25.9226  -30.8429   21.3591 C   0  0  0  0  0  0
  -26.0018  -29.4759   20.7106 C   0  0  0  0  0  0
  -27.1987  -28.7290   20.6980 C   0  0  0  0  0  0
  -26.0596  -26.9493   19.4873 C   0  0  0  0  0  0
  -24.8682  -27.6982   19.4953 C   0  0  0  0  0  0
  -23.6057  -29.8264   20.1635 C   0  0  0  0  0  0
  -25.4104  -36.3127   24.0338 C   0  0  1  0  0  0
  -20.5860  -28.3659   23.1330 C   0  0  2  0  0  0
  -20.6762  -26.9394   22.5437 C   0  0  0  0  0  0
  -19.5748  -26.6369   21.5227 C   0  0  0  0  0  0
  -18.1916  -26.7902   22.1630 C   0  0  0  0  0  0
  -19.1523  -28.8824   23.2931 C   0  0  0  0  0  0
  -18.9448  -30.1435   23.8921 C   0  0  0  0  0  0
  -17.6448  -30.6574   24.0571 C   0  0  0  0  0  0
  -25.9031  -34.9492   23.5141 C   0  0  0  0  0  0
  -16.5330  -29.9073   23.6337 C   0  0  0  0  0  0
  -16.7258  -28.6489   23.0360 C   0  0  0  0  0  0
  -26.4497  -31.6604   25.0704 C   0  0  0  0  0  0
  -25.3786  -31.3694   26.1470 C   0  0  0  0  0  0
  -27.0314  -30.3057   24.6044 C   0  0  0  0  0  0
  -27.6078  -32.4313   25.7484 C   0  0  0  0  0  0
  -27.5584  -37.1816   24.8472 C   0  0  0  0  0  0
  -21.4132  -29.3029   22.3736 N   0  0  0  0  0  0
  -26.4291  -37.3808   23.9424 N   0  0  0  0  0  0
  -24.6627  -31.0828   22.0994 N   0  0  0  0  0  0
  -23.4188  -28.8207   23.3016 O   0  0  0  0  0  0
  -28.3798  -26.7039   20.1071 O   0  0  0  0  0  0
  -26.5564  -34.8945   22.4676 O   0  0  0  0  0  0
  -23.5345  -32.1459   23.7528 O   0  0  0  0  0  0
  -29.6968  -17.8612   21.5559 C   0  0  0  0  0  0
  -31.5247  -19.4802   21.6568 C   0  0  0  0  0  0
  -32.0061  -17.1056   21.4300 C   0  0  0  0  0  0
  -30.1355  -19.2102   21.6643 C   0  0  0  0  0  0
  -30.6229  -16.7938   21.4088 C   0  0  0  0  0  0
  -32.4522  -18.4334   21.5371 C   0  0  0  0  0  0
  -27.8984  -24.2806   20.2970 C   0  0  0  0  0  0
  -29.2870  -21.5716   21.5752 C   0  0  0  0  0  0
  -26.0184  -23.7376   21.9080 C   0  0  0  0  0  0
  -26.6115  -22.0769   20.1632 C   0  0  0  0  0  0
  -28.3367  -25.5824   21.0077 C   0  0  0  0  0  0
  -28.1915  -22.4923   22.1421 C   0  0  0  0  0  0
  -27.2108  -23.1455   21.1171 C   0  0  0  0  0  0
  -29.1695  -20.2531   21.8407 N   0  0  0  0  0  0
  -30.1440  -15.4429   21.2636 N   0  0  0  0  0  0
  -28.0944  -24.1495   19.0839 O   0  0  0  0  0  0
  -30.2033  -22.0661   20.9157 O   0  0  0  0  0  0
  -33.7806  -18.7018   21.5368 F   0  0  0  0  0  0
  -31.4589  -12.3405   19.1487 H   0  0  0  0  0  0
  -30.2654  -11.2818   19.8260 H   0  0  0  0  0  0
  -29.7375  -11.8125   17.4184 H   0  0  0  0  0  0
  -29.6845  -13.5152   17.8011 H   0  0  0  0  0  0
  -27.8088  -11.3341   18.7805 H   0  0  0  0  0  0
  -27.3760  -12.6893   17.7799 H   0  0  0  0  0  0
  -27.7089  -14.2635   19.5860 H   0  0  0  0  0  0
  -28.6559  -11.9714   21.3655 H   0  0  0  0  0  0
  -28.4582  -13.6214   21.8668 H   0  0  0  0  0  0
  -25.2714   -9.5738   22.4776 H   0  0  0  0  0  0
  -23.9985   -7.4660   22.7489 H   0  0  0  0  0  0
  -21.0810   -8.8773   19.8961 H   0  0  0  0  0  0
  -22.3656  -10.9665   19.6164 H   0  0  0  0  0  0
  -21.2044   -7.6134   23.9730 H   0  0  0  0  0  0
  -21.1492   -6.0493   25.9072 H   0  0  0  0  0  0
  -22.0585   -2.7609   23.2833 H   0  0  0  0  0  0
  -22.3980  -11.9999   22.4778 H   0  0  0  0  0  0
  -21.1071  -13.1459   22.2467 H   0  0  0  0  0  0
  -24.6711  -15.8496   20.5122 H   0  0  0  0  0  0
  -26.2893  -15.6203   20.0850 H   0  0  0  0  0  0
  -26.7128  -32.5569   23.1154 H   0  0  0  0  0  0
  -25.0174  -33.9772   25.0569 H   0  0  0  0  0  0
  -22.6860  -31.3105   21.4150 H   0  0  0  0  0  0
  -23.3740  -35.9645   23.3310 H   0  0  0  0  0  0
  -24.3575  -36.8909   22.2045 H   0  0  0  0  0  0
  -23.7212  -37.6521   23.6622 H   0  0  0  0  0  0
  -26.0256  -31.6083   20.5866 H   0  0  0  0  0  0
  -26.8117  -30.9010   21.9741 H   0  0  0  0  0  0
  -28.0943  -29.1251   21.1594 H   0  0  0  0  0  0
  -26.0661  -25.9875   18.9975 H   0  0  0  0  0  0
  -23.9813  -27.3039   19.0164 H   0  0  0  0  0  0
  -23.7153  -30.6012   19.4041 H   0  0  0  0  0  0
  -22.7299  -29.2474   19.8658 H   0  0  0  0  0  0
  -25.1273  -36.1999   25.0829 H   0  0  0  0  0  0
  -20.9998  -28.3207   24.1442 H   0  0  0  0  0  0
  -20.5662  -26.2253   23.3613 H   0  0  0  0  0  0
  -21.6635  -26.7450   22.1237 H   0  0  0  0  0  0
  -19.6933  -25.6289   21.1242 H   0  0  0  0  0  0
  -19.6650  -27.3189   20.6756 H   0  0  0  0  0  0
  -17.4177  -26.6699   21.4011 H   0  0  0  0  0  0
  -18.0306  -25.9990   22.8979 H   0  0  0  0  0  0
  -19.7913  -30.7275   24.2277 H   0  0  0  0  0  0
  -17.4996  -31.6260   24.5149 H   0  0  0  0  0  0
  -15.5336  -30.2979   23.7646 H   0  0  0  0  0  0
  -15.8670  -28.0809   22.7053 H   0  0  0  0  0  0
  -24.5957  -30.7048   25.7808 H   0  0  0  0  0  0
  -24.8986  -32.2836   26.4974 H   0  0  0  0  0  0
  -25.8173  -30.8837   27.0194 H   0  0  0  0  0  0
  -26.2824  -29.6813   24.1162 H   0  0  0  0  0  0
  -27.4161  -29.7319   25.4485 H   0  0  0  0  0  0
  -27.8631  -30.4389   23.9124 H   0  0  0  0  0  0
  -27.2701  -33.3592   26.2125 H   0  0  0  0  0  0
  -28.3869  -32.6907   25.0299 H   0  0  0  0  0  0
  -28.0760  -31.8389   26.5365 H   0  0  0  0  0  0
  -28.2618  -38.0100   24.7520 H   0  0  0  0  0  0
  -28.1056  -36.2629   24.6288 H   0  0  0  0  0  0
  -27.2294  -37.1469   25.8875 H   0  0  0  0  0  0
  -20.9280  -29.8735   21.6943 H   0  0  0  0  0  0
  -26.0187  -38.2896   24.1430 H   0  0  0  0  0  0
  -28.6384  -17.6442   21.5718 H   0  0  0  0  0  0
  -31.9032  -20.4856   21.7594 H   0  0  0  0  0  0
  -32.7620  -16.3407   21.3616 H   0  0  0  0  0  0
  -25.3539  -24.3178   21.2650 H   0  0  0  0  0  0
  -26.3416  -24.3862   22.7228 H   0  0  0  0  0  0
  -25.4130  -22.9530   22.3638 H   0  0  0  0  0  0
  -25.8099  -22.4997   19.5563 H   0  0  0  0  0  0
  -26.1805  -21.2419   20.7162 H   0  0  0  0  0  0
  -27.3539  -21.6687   19.4750 H   0  0  0  0  0  0
  -29.3371  -25.4268   21.4128 H   0  0  0  0  0  0
  -27.6895  -25.8065   21.8548 H   0  0  0  0  0  0
  -28.6939  -23.2669   22.7225 H   0  0  0  0  0  0
  -27.6197  -21.9267   22.8796 H   0  0  0  0  0  0
  -28.2872  -19.9771   22.2459 H   0  0  0  0  0  0
  -29.2061  -15.2498   21.5828 H   0  0  0  0  0  0
  1 25  1  0  0  0
  1 30  2  0  0  0
  1 85  1  0  0  0
  2  3  1  0  0  0
  2 25  1  0  0  0
  2 89  1  0  0  0
  2 90  1  0  0  0
  3  4  1  0  0  0
  3 91  1  0  0  0
  3 92  1  0  0  0
  4  5  1  0  0  0
  4 93  1  0  0  0
  4 94  1  0  0  0
  5  6  1  0  0  0
  5 26  1  0  0  0
  5 95  1  0  0  0
  6 25  1  0  0  0
  6 96  1  0  0  0
  6 97  1  0  0  0
  7  8  2  0  0  0
  7 26  1  0  0  0
  7 29  1  0  0  0
  8  9  1  0  0  0
  8 22  1  0  0  0
  9 10  1  0  0  0
  9 27  2  0  0  0
 10 11  2  0  0  0
 10 15  1  0  0  0
 11 12  1  0  0  0
 11 98  1  0  0  0
 12 13  2  0  0  0
 12 99  1  0  0  0
 13 14  1  0  0  0
 13 31  1  0  0  0
 14 15  2  0  0  0
 14100  1  0  0  0
 15101  1  0  0  0
 16 17  2  0  0  0
 16 21  1  0  0  0
 16 31  1  0  0  0
 17 18  1  0  0  0
 17102  1  0  0  0
 18 19  2  0  0  0
 18103  1  0  0  0
 19 20  1  0  0  0
 19 24  1  0  0  0
 20 21  2  0  0  0
 20104  1  0  0  0
 21 23  1  0  0  0
 22 28  1  0  0  0
 22 32  2  0  0  0
 26 27  1  0  0  0
 28105  1  0  0  0
 28106  1  0  0  0
 29107  1  0  0  0
 29108  1  0  0  0
 33 34  1  0  0  0
 33 66  1  0  0  0
 33 70  2  0  0  0
 34 36  1  0  0  0
 34 59  1  0  0  0
 34109  1  0  0  0
 35 44  2  0  0  0
 35 45  1  0  0  0
 35 68  1  0  0  0
 36 56  1  0  0  0
 36110  1  0  0  0
 37 39  1  0  0  0
 37 47  1  0  0  0
 37 66  1  0  0  0
 37111  1  0  0  0
 38 43  2  0  0  0
 38 46  1  0  0  0
 38 47  1  0  0  0
 39 64  1  0  0  0
 39 67  2  0  0  0
 40 52  1  0  0  0
 40 53  2  0  0  0
 40 58  1  0  0  0
 41112  1  0  0  0
 41113  1  0  0  0
 41114  1  0  0  0
 41 48  1  0  0  0
 42 43  1  0  0  0
 42 66  1  0  0  0
 42115  1  0  0  0
 42116  1  0  0  0
 43 44  1  0  0  0
 44117  1  0  0  0
 45 46  2  0  0  0
 45118  1  0  0  0
 46119  1  0  0  0
 47120  1  0  0  0
 47121  1  0  0  0
 48 56  1  0  0  0
 48 65  1  0  0  0
 48122  1  0  0  0
 49 50  1  0  0  0
 49 53  1  0  0  0
 49 64  1  0  0  0
 49123  1  0  0  0
 50 51  1  0  0  0
 50124  1  0  0  0
 50125  1  0  0  0
 51 52  1  0  0  0
 51126  1  0  0  0
 51127  1  0  0  0
 52128  1  0  0  0
 52129  1  0  0  0
 53 54  1  0  0  0
 54 55  2  0  0  0
 54130  1  0  0  0
 55 57  1  0  0  0
 55131  1  0  0  0
 56 69  2  0  0  0
 57 58  2  0  0  0
 57132  1  0  0  0
 58133  1  0  0  0
 59 60  1  0  0  0
 59 61  1  0  0  0
 59 62  1  0  0  0
 60134  1  0  0  0
 60135  1  0  0  0
 60136  1  0  0  0
 61137  1  0  0  0
 61138  1  0  0  0
 61139  1  0  0  0
 62140  1  0  0  0
 62141  1  0  0  0
 62142  1  0  0  0
 63 65  1  0  0  0
 63143  1  0  0  0
 63144  1  0  0  0
 63145  1  0  0  0
 64146  1  0  0  0
 65147  1  0  0  0
 68 81  1  0  0  0
 71 74  2  0  0  0
 71 75  1  0  0  0
 71148  1  0  0  0
 72 74  1  0  0  0
 72 76  2  0  0  0
 72149  1  0  0  0
 73 75  2  0  0  0
 73 76  1  0  0  0
 73150  1  0  0  0
 74 84  1  0  0  0
 75 85  1  0  0  0
 76 88  1  0  0  0
 77 81  1  0  0  0
 77 83  1  0  0  0
 77 86  2  0  0  0
 78 82  1  0  0  0
 78 84  1  0  0  0
 78 87  2  0  0  0
 79151  1  0  0  0
 79152  1  0  0  0
 79153  1  0  0  0
 79 83  1  0  0  0
 80 83  1  0  0  0
 80154  1  0  0  0
 80155  1  0  0  0
 80156  1  0  0  0
 81157  1  0  0  0
 81158  1  0  0  0
 82 83  1  0  0  0
 82159  1  0  0  0
 82160  1  0  0  0
 84161  1  0  0  0
 85162  1  0  0  0
M  ISO  4   1 100  68 101  81 101  85 100
M  END
> <chiral flag>
0

> <version>
0

> <s_m_source_file>
/data/baiqing/PycharmProjects/Reinvent-master-3.2/result/LINK_invent/BTK/process_docking_weight1_custom_product_contain_oxygen_bond_distance_aromatic_linkinvent_7_9_3/rearranged_h_0141.sdf

> <i_m_source_file_index>
7

> <r_mmod_Potential_Energy-OPLS-2005>
0.207815662026405

> <r_mmod_Stretch_Energy-OPLS-2005>
42.9616050720215

> <r_mmod_Bend_Energy-OPLS-2005>
103.641265869141

> <r_mmod_Torsional_Energy-OPLS-2005>
255.825881958008

> <r_mmod_Improper_Torsional_Energy-OPLS-2005>
3.01317763328552

> <r_mmod_Van_der_Waal_Energy-OPLS-2005>
165.781524658203

> <r_mmod_Electrostatic_Energy-OPLS-2005>
-330.777374267578

> <r_mmod_Solvation_Energy-OPLS-2005>
-251.104904174805

> <b_mmod_Minimization_Converged-OPLS-2005>
0

> <r_mmod_RMS_Derivative-OPLS-2005>
4.02608776092529

$$$$
7
                    3D
 Structure written by MMmdl.
163171  0  0  1  0            999 V2000
  -30.6941  -14.4960   20.5682 C   0  0  0  0  0  0
  -30.4264  -12.3269   19.4127 C   0  0  0  0  0  0
  -29.4919  -12.5009   18.1987 C   0  0  0  0  0  0
  -28.0131  -12.3607   18.6127 C   0  0  0  0  0  0
  -27.6575  -13.2078   19.8639 C   0  0  2  0  0  0
  -28.7016  -13.0044   20.9841 C   0  0  0  0  0  0
  -25.2592  -13.8174   20.5666 C   0  0  0  0  0  0
  -24.1839  -13.0446   20.9176 C   0  0  0  0  0  0
  -24.6389  -11.6912   20.8719 C   0  0  0  0  0  0
  -23.9051  -10.4297   21.0387 C   0  0  0  0  0  0
  -24.3612   -9.4217   21.9165 C   0  0  0  0  0  0
  -23.6296   -8.2248   22.0742 C   0  0  0  0  0  0
  -22.4278   -8.0278   21.3536 C   0  0  0  0  0  0
  -21.9908   -9.0251   20.4638 C   0  0  0  0  0  0
  -22.7224  -10.2140   20.3039 C   0  0  0  0  0  0
  -21.6860   -6.0721   22.5272 C   0  0  0  0  0  0
  -21.4018   -6.5628   23.8206 C   0  0  0  0  0  0
  -21.3662   -5.6787   24.9170 C   0  0  0  0  0  0
  -21.6048   -4.3046   24.7229 C   0  0  0  0  0  0
  -21.8821   -3.8133   23.4356 C   0  0  0  0  0  0
  -21.9207   -4.6948   22.3408 C   0  0  0  0  0  0
  -22.7869  -13.5242   21.1854 C   0  0  0  0  0  0
  -22.1680   -4.2132   21.0987 F   0  0  0  0  0  0
  -21.5634   -3.4536   25.7746 F   0  0  0  0  0  0
  -30.0277  -13.3168   20.4262 N   0  0  0  0  0  0
  -26.3007  -12.9333   20.3311 N   0  0  0  0  0  0
  -25.9312  -11.6501   20.5730 N   0  0  0  0  0  0
  -22.0522  -12.8222   22.0412 N   0  0  0  0  0  0
  -25.4348  -15.1884   20.4076 N   0  0  0  0  0  0
  -31.8348  -14.6758   20.1351 O   0  0  0  0  0  0
  -21.6655   -6.8863   21.4231 O   0  0  0  0  0  0
  -22.3547  -14.5541   20.6701 O   0  0  0  0  0  0
  -24.6192  -31.8655   23.2091 C   0  0  0  0  0  0
  -25.9074  -32.4804   23.8382 C   0  0  1  0  0  0
  -27.2320  -27.3981   20.0973 C   0  0  0  0  0  0
  -25.5910  -33.8602   24.2311 N   0  0  0  0  0  0
  -23.4067  -30.4922   21.5499 C   0  0  2  0  0  0
  -24.8510  -28.9577   20.1113 C   0  0  0  0  0  0
  -22.7422  -29.4664   22.4972 C   0  0  0  0  0  0
  -18.0273  -28.1380   22.8497 C   0  0  0  0  0  0
  -24.1478  -36.7318   23.2639 C   0  0  0  0  0  0
  -25.9402  -30.8195   21.3676 C   0  0  0  0  0  0
  -26.0149  -29.4531   20.7114 C   0  0  0  0  0  0
  -27.2055  -28.6824   20.7009 C   0  0  0  0  0  0
  -26.0459  -26.9384   19.4731 C   0  0  0  0  0  0
  -24.8640  -27.6999   19.4883 C   0  0  0  0  0  0
  -23.6145  -29.8284   20.1637 C   0  0  0  0  0  0
  -25.4102  -36.3108   24.0339 C   0  0  1  0  0  0
  -20.5868  -28.3674   23.1300 C   0  0  2  0  0  0
  -20.6757  -26.9401   22.5412 C   0  0  0  0  0  0
  -19.5733  -26.6382   21.5212 C   0  0  0  0  0  0
  -18.1917  -26.7922   22.1633 C   0  0  0  0  0  0
  -19.1527  -28.8843   23.2897 C   0  0  0  0  0  0
  -18.9453  -30.1450   23.8910 C   0  0  0  0  0  0
  -17.6458  -30.6587   24.0569 C   0  0  0  0  0  0
  -25.9038  -34.9471   23.5127 C   0  0  0  0  0  0
  -16.5350  -29.9091   23.6328 C   0  0  0  0  0  0
  -16.7264  -28.6508   23.0347 C   0  0  0  0  0  0
  -26.4478  -31.6593   25.0729 C   0  0  0  0  0  0
  -25.3736  -31.3726   26.1481 C   0  0  0  0  0  0
  -27.0307  -30.3021   24.6139 C   0  0  0  0  0  0
  -27.6035  -32.4326   25.7503 C   0  0  0  0  0  0
  -27.5582  -37.1813   24.8468 C   0  0  0  0  0  0
  -21.4146  -29.3042   22.3709 N   0  0  0  0  0  0
  -26.4288  -37.3798   23.9420 N   0  0  0  0  0  0
  -24.6739  -31.0740   22.0999 N   0  0  0  0  0  0
  -23.4182  -28.8212   23.3023 O   0  0  0  0  0  0
  -28.3902  -26.6270   20.1466 O   0  0  0  0  0  0
  -26.5613  -34.8936   22.4695 O   0  0  0  0  0  0
  -23.5382  -32.1413   23.7481 O   0  0  0  0  0  0
  -30.2762  -17.6975   19.0092 C   0  0  0  0  0  0
  -29.9736  -20.0650   18.4784 C   0  0  0  0  0  0
  -30.0295  -19.3376   20.7971 C   0  0  0  0  0  0
  -30.1596  -18.7313   18.0591 C   0  0  0  0  0  0
  -30.2178  -17.9861   20.3888 C   0  0  0  0  0  0
  -29.8961  -20.3946   19.8539 C   0  0  0  0  0  0
  -29.2571  -22.8349   19.6550 C   0  0  0  0  0  0
  -30.2690  -18.4171   16.5812 C   0  0  0  0  0  0
  -30.7931  -24.8187   19.7841 C   0  0  0  0  0  0
  -29.4068  -24.2179   21.8097 C   0  0  0  0  0  0
  -30.4361  -16.8731   21.4311 C   0  0  0  0  0  0
  -28.2883  -25.2260   19.7756 C   0  0  0  0  0  0
  -29.4349  -24.2705   20.2657 C   0  0  0  0  0  0
  -29.7731  -21.7595   20.3069 N   0  0  0  0  0  0
  -29.9756  -15.5096   21.0927 N   0  0  0  0  0  0
  -28.6381  -22.7157   18.5943 O   0  0  0  0  0  0
  -31.4661  -12.4425   19.1000 H   0  0  0  0  0  0
  -30.3504  -11.3165   19.8189 H   0  0  0  0  0  0
  -29.7353  -11.7652   17.4296 H   0  0  0  0  0  0
  -29.6573  -13.4826   17.7482 H   0  0  0  0  0  0
  -27.8194  -11.3055   18.8132 H   0  0  0  0  0  0
  -27.3634  -12.6311   17.7786 H   0  0  0  0  0  0
  -27.6960  -14.2533   19.5543 H   0  0  0  0  0  0
  -28.6875  -11.9707   21.3315 H   0  0  0  0  0  0
  -28.4568  -13.6077   21.8593 H   0  0  0  0  0  0
  -25.2767   -9.5698   22.4727 H   0  0  0  0  0  0
  -24.0018   -7.4638   22.7460 H   0  0  0  0  0  0
  -21.0843   -8.8762   19.8944 H   0  0  0  0  0  0
  -22.3679  -10.9673   19.6138 H   0  0  0  0  0  0
  -21.1998   -7.6135   23.9701 H   0  0  0  0  0  0
  -21.1487   -6.0518   25.9075 H   0  0  0  0  0  0
  -22.0602   -2.7595   23.2862 H   0  0  0  0  0  0
  -22.4171  -11.9890   22.4786 H   0  0  0  0  0  0
  -21.1126  -13.1201   22.2620 H   0  0  0  0  0  0
  -24.6730  -15.8497   20.5082 H   0  0  0  0  0  0
  -26.2899  -15.6198   20.0791 H   0  0  0  0  0  0
  -26.7146  -32.5501   23.1139 H   0  0  0  0  0  0
  -25.0033  -33.9737   25.0441 H   0  0  0  0  0  0
  -22.6983  -31.3128   21.4135 H   0  0  0  0  0  0
  -23.3735  -35.9653   23.3302 H   0  0  0  0  0  0
  -24.3571  -36.8934   22.2051 H   0  0  0  0  0  0
  -23.7225  -37.6524   23.6650 H   0  0  0  0  0  0
  -26.0594  -31.5845   20.5998 H   0  0  0  0  0  0
  -26.8269  -30.8679   21.9886 H   0  0  0  0  0  0
  -28.1005  -29.0603   21.1738 H   0  0  0  0  0  0
  -26.0018  -25.9863   18.9661 H   0  0  0  0  0  0
  -23.9731  -27.3128   19.0131 H   0  0  0  0  0  0
  -23.7257  -30.6062   19.4067 H   0  0  0  0  0  0
  -22.7347  -29.2541   19.8669 H   0  0  0  0  0  0
  -25.1270  -36.1971   25.0830 H   0  0  0  0  0  0
  -20.9967  -28.3237   24.1418 H   0  0  0  0  0  0
  -20.5644  -26.2283   23.3605 H   0  0  0  0  0  0
  -21.6630  -26.7425   22.1215 H   0  0  0  0  0  0
  -19.6885  -25.6293   21.1240 H   0  0  0  0  0  0
  -19.6669  -27.3195   20.6742 H   0  0  0  0  0  0
  -17.4180  -26.6672   21.4043 H   0  0  0  0  0  0
  -18.0327  -26.0059   22.9027 H   0  0  0  0  0  0
  -19.7931  -30.7265   24.2279 H   0  0  0  0  0  0
  -17.5014  -31.6266   24.5165 H   0  0  0  0  0  0
  -15.5352  -30.3003   23.7635 H   0  0  0  0  0  0
  -15.8666  -28.0841   22.7042 H   0  0  0  0  0  0
  -24.5886  -30.7091   25.7839 H   0  0  0  0  0  0
  -24.8962  -32.2894   26.4947 H   0  0  0  0  0  0
  -25.8089  -30.8888   27.0232 H   0  0  0  0  0  0
  -26.2866  -29.6797   24.1152 H   0  0  0  0  0  0
  -27.4001  -29.7253   25.4629 H   0  0  0  0  0  0
  -27.8738  -30.4323   23.9348 H   0  0  0  0  0  0
  -27.2617  -33.3597   26.2121 H   0  0  0  0  0  0
  -28.3825  -32.6937   25.0328 H   0  0  0  0  0  0
  -28.0720  -31.8431   26.5392 H   0  0  0  0  0  0
  -28.2605  -38.0106   24.7520 H   0  0  0  0  0  0
  -28.1071  -36.2641   24.6275 H   0  0  0  0  0  0
  -27.2315  -37.1453   25.8876 H   0  0  0  0  0  0
  -20.9299  -29.8786   21.6957 H   0  0  0  0  0  0
  -26.0179  -38.2881   24.1406 H   0  0  0  0  0  0
  -30.4472  -16.6849   18.6719 H   0  0  0  0  0  0
  -29.9176  -20.8314   17.7193 H   0  0  0  0  0  0
  -30.0024  -19.5646   21.8547 H   0  0  0  0  0  0
  -30.1080  -17.3570   16.3847 H   0  0  0  0  0  0
  -31.2608  -18.6846   16.2149 H   0  0  0  0  0  0
  -29.5277  -18.9787   16.0115 H   0  0  0  0  0  0
  -31.6197  -24.1945   20.1258 H   0  0  0  0  0  0
  -30.9693  -25.8263   20.1608 H   0  0  0  0  0  0
  -30.8429  -24.8594   18.6946 H   0  0  0  0  0  0
  -30.2629  -23.6846   22.2248 H   0  0  0  0  0  0
  -28.5010  -23.7343   22.1766 H   0  0  0  0  0  0
  -29.4267  -25.2242   22.2297 H   0  0  0  0  0  0
  -29.9296  -17.1651   22.3512 H   0  0  0  0  0  0
  -31.4987  -16.8479   21.6781 H   0  0  0  0  0  0
  -27.3606  -24.8047   20.1662 H   0  0  0  0  0  0
  -28.2212  -25.1975   18.6872 H   0  0  0  0  0  0
  -30.1370  -21.9538   21.2296 H   0  0  0  0  0  0
  -29.0320  -15.2793   21.3647 H   0  0  0  0  0  0
  1 25  1  0  0  0
  1 30  2  0  0  0
  1 85  1  0  0  0
  2  3  1  0  0  0
  2 25  1  0  0  0
  2 87  1  0  0  0
  2 88  1  0  0  0
  3  4  1  0  0  0
  3 89  1  0  0  0
  3 90  1  0  0  0
  4  5  1  0  0  0
  4 91  1  0  0  0
  4 92  1  0  0  0
  5  6  1  0  0  0
  5 26  1  0  0  0
  5 93  1  0  0  0
  6 25  1  0  0  0
  6 94  1  0  0  0
  6 95  1  0  0  0
  7  8  2  0  0  0
  7 26  1  0  0  0
  7 29  1  0  0  0
  8  9  1  0  0  0
  8 22  1  0  0  0
  9 10  1  0  0  0
  9 27  2  0  0  0
 10 11  2  0  0  0
 10 15  1  0  0  0
 11 12  1  0  0  0
 11 96  1  0  0  0
 12 13  2  0  0  0
 12 97  1  0  0  0
 13 14  1  0  0  0
 13 31  1  0  0  0
 14 15  2  0  0  0
 14 98  1  0  0  0
 15 99  1  0  0  0
 16 17  2  0  0  0
 16 21  1  0  0  0
 16 31  1  0  0  0
 17 18  1  0  0  0
 17100  1  0  0  0
 18 19  2  0  0  0
 18101  1  0  0  0
 19 20  1  0  0  0
 19 24  1  0  0  0
 20 21  2  0  0  0
 20102  1  0  0  0
 21 23  1  0  0  0
 22 28  1  0  0  0
 22 32  2  0  0  0
 26 27  1  0  0  0
 28103  1  0  0  0
 28104  1  0  0  0
 29105  1  0  0  0
 29106  1  0  0  0
 33 34  1  0  0  0
 33 66  1  0  0  0
 33 70  2  0  0  0
 34 36  1  0  0  0
 34 59  1  0  0  0
 34107  1  0  0  0
 35 44  2  0  0  0
 35 45  1  0  0  0
 35 68  1  0  0  0
 36 56  1  0  0  0
 36108  1  0  0  0
 37 39  1  0  0  0
 37 47  1  0  0  0
 37 66  1  0  0  0
 37109  1  0  0  0
 38 43  2  0  0  0
 38 46  1  0  0  0
 38 47  1  0  0  0
 39 64  1  0  0  0
 39 67  2  0  0  0
 40 52  1  0  0  0
 40 53  2  0  0  0
 40 58  1  0  0  0
 41110  1  0  0  0
 41111  1  0  0  0
 41112  1  0  0  0
 41 48  1  0  0  0
 42 43  1  0  0  0
 42 66  1  0  0  0
 42113  1  0  0  0
 42114  1  0  0  0
 43 44  1  0  0  0
 44115  1  0  0  0
 45 46  2  0  0  0
 45116  1  0  0  0
 46117  1  0  0  0
 47118  1  0  0  0
 47119  1  0  0  0
 48 56  1  0  0  0
 48 65  1  0  0  0
 48120  1  0  0  0
 49 50  1  0  0  0
 49 53  1  0  0  0
 49 64  1  0  0  0
 49121  1  0  0  0
 50 51  1  0  0  0
 50122  1  0  0  0
 50123  1  0  0  0
 51 52  1  0  0  0
 51124  1  0  0  0
 51125  1  0  0  0
 52126  1  0  0  0
 52127  1  0  0  0
 53 54  1  0  0  0
 54 55  2  0  0  0
 54128  1  0  0  0
 55 57  1  0  0  0
 55129  1  0  0  0
 56 69  2  0  0  0
 57 58  2  0  0  0
 57130  1  0  0  0
 58131  1  0  0  0
 59 60  1  0  0  0
 59 61  1  0  0  0
 59 62  1  0  0  0
 60132  1  0  0  0
 60133  1  0  0  0
 60134  1  0  0  0
 61135  1  0  0  0
 61136  1  0  0  0
 61137  1  0  0  0
 62138  1  0  0  0
 62139  1  0  0  0
 62140  1  0  0  0
 63 65  1  0  0  0
 63141  1  0  0  0
 63142  1  0  0  0
 63143  1  0  0  0
 64144  1  0  0  0
 65145  1  0  0  0
 68 82  1  0  0  0
 71 74  2  0  0  0
 71 75  1  0  0  0
 71146  1  0  0  0
 72 74  1  0  0  0
 72 76  2  0  0  0
 72147  1  0  0  0
 73 75  2  0  0  0
 73 76  1  0  0  0
 73148  1  0  0  0
 74 78  1  0  0  0
 75 81  1  0  0  0
 76 84  1  0  0  0
 77 83  1  0  0  0
 77 84  1  0  0  0
 77 86  2  0  0  0
 78149  1  0  0  0
 78150  1  0  0  0
 78151  1  0  0  0
 79152  1  0  0  0
 79153  1  0  0  0
 79154  1  0  0  0
 79 83  1  0  0  0
 80 83  1  0  0  0
 80155  1  0  0  0
 80156  1  0  0  0
 80157  1  0  0  0
 81 85  1  0  0  0
 81158  1  0  0  0
 81159  1  0  0  0
 82 83  1  0  0  0
 82160  1  0  0  0
 82161  1  0  0  0
 84162  1  0  0  0
 85163  1  0  0  0
M  ISO  4   1 100  68 101  82 101  85 100
M  END
> <chiral flag>
0

> <version>
0

> <s_m_source_file>
/data/baiqing/PycharmProjects/Reinvent-master-3.2/result/LINK_invent/BTK/process_docking_weight1_custom_product_contain_oxygen_bond_distance_aromatic_linkinvent_7_9_3/rearranged_h_0141.sdf

> <i_m_source_file_index>
8

> <r_mmod_Potential_Energy-OPLS-2005>
-109.789215087891

> <r_mmod_Stretch_Energy-OPLS-2005>
49.5615921020508

> <r_mmod_Bend_Energy-OPLS-2005>
107.817291259766

> <r_mmod_Torsional_Energy-OPLS-2005>
223.675964355469

> <r_mmod_Improper_Torsional_Energy-OPLS-2005>
3.39643526077271

> <r_mmod_Van_der_Waal_Energy-OPLS-2005>
161.910522460938

> <r_mmod_Electrostatic_Energy-OPLS-2005>
-452.826599121094

> <r_mmod_Solvation_Energy-OPLS-2005>
-222.060180664062

> <b_mmod_Minimization_Converged-OPLS-2005>
0

> <r_mmod_RMS_Derivative-OPLS-2005>
1.86140751838684

$$$$
8
                    3D
 Structure written by MMmdl.
167175  0  0  1  0            999 V2000
  -30.6422  -14.5849   20.6217 C   0  0  0  0  0  0
  -30.4523  -12.3900   19.4555 C   0  0  0  0  0  0
  -29.5308  -12.5686   18.2288 C   0  0  0  0  0  0
  -28.0449  -12.4177   18.6131 C   0  0  0  0  0  0
  -27.6671  -13.2220   19.8840 C   0  0  2  0  0  0
  -28.7045  -13.0011   21.0084 C   0  0  0  0  0  0
  -25.2549  -13.8075   20.5487 C   0  0  0  0  0  0
  -24.1863  -13.0391   20.9165 C   0  0  0  0  0  0
  -24.6437  -11.6881   20.8762 C   0  0  0  0  0  0
  -23.9077  -10.4291   21.0397 C   0  0  0  0  0  0
  -24.3623   -9.4212   21.9170 C   0  0  0  0  0  0
  -23.6305   -8.2246   22.0746 C   0  0  0  0  0  0
  -22.4294   -8.0276   21.3552 C   0  0  0  0  0  0
  -21.9926   -9.0250   20.4635 C   0  0  0  0  0  0
  -22.7259  -10.2120   20.3052 C   0  0  0  0  0  0
  -21.6878   -6.0740   22.5298 C   0  0  0  0  0  0
  -21.4013   -6.5629   23.8243 C   0  0  0  0  0  0
  -21.3666   -5.6768   24.9194 C   0  0  0  0  0  0
  -21.6049   -4.3030   24.7225 C   0  0  0  0  0  0
  -21.8818   -3.8150   23.4328 C   0  0  0  0  0  0
  -21.9192   -4.6968   22.3412 C   0  0  0  0  0  0
  -22.7889  -13.5242   21.1827 C   0  0  0  0  0  0
  -22.1661   -4.2161   21.0991 F   0  0  0  0  0  0
  -21.5638   -3.4504   25.7725 F   0  0  0  0  0  0
  -30.0369  -13.3617   20.4852 N   0  0  0  0  0  0
  -26.3063  -12.9310   20.3327 N   0  0  0  0  0  0
  -25.9388  -11.6471   20.5761 N   0  0  0  0  0  0
  -22.0472  -12.8281   22.0359 N   0  0  0  0  0  0
  -25.4080  -15.1726   20.3551 N   0  0  0  0  0  0
  -31.6980  -14.8626   20.0425 O   0  0  0  0  0  0
  -21.6660   -6.8873   21.4269 O   0  0  0  0  0  0
  -22.3612  -14.5553   20.6653 O   0  0  0  0  0  0
  -24.6211  -31.8600   23.2063 C   0  0  0  0  0  0
  -25.9092  -32.4747   23.8376 C   0  0  1  0  0  0
  -27.2413  -27.3877   20.1156 C   0  0  0  0  0  0
  -25.5954  -33.8566   24.2296 N   0  0  0  0  0  0
  -23.4112  -30.4845   21.5430 C   0  0  2  0  0  0
  -24.8593  -28.9361   20.1156 C   0  0  0  0  0  0
  -22.7418  -29.4657   22.4944 C   0  0  0  0  0  0
  -18.0286  -28.1430   22.8438 C   0  0  0  0  0  0
  -24.1489  -36.7305   23.2632 C   0  0  0  0  0  0
  -25.9419  -30.8126   21.3642 C   0  0  0  0  0  0
  -26.0200  -29.4419   20.7145 C   0  0  0  0  0  0
  -27.2137  -28.6782   20.7062 C   0  0  0  0  0  0
  -26.0630  -26.9036   19.5053 C   0  0  0  0  0  0
  -24.8792  -27.6699   19.5026 C   0  0  0  0  0  0
  -23.6225  -29.8075   20.1599 C   0  0  0  0  0  0
  -25.4116  -36.3065   24.0313 C   0  0  1  0  0  0
  -20.5864  -28.3735   23.1271 C   0  0  2  0  0  0
  -20.6805  -26.9477   22.5394 C   0  0  0  0  0  0
  -19.5796  -26.6424   21.5191 C   0  0  0  0  0  0
  -18.1957  -26.7969   22.1573 C   0  0  0  0  0  0
  -19.1522  -28.8899   23.2848 C   0  0  0  0  0  0
  -18.9452  -30.1499   23.8888 C   0  0  0  0  0  0
  -17.6453  -30.6614   24.0586 C   0  0  0  0  0  0
  -25.9044  -34.9431   23.5094 C   0  0  0  0  0  0
  -16.5349  -29.9117   23.6342 C   0  0  0  0  0  0
  -16.7268  -28.6549   23.0309 C   0  0  0  0  0  0
  -26.4556  -31.6540   25.0715 C   0  0  0  0  0  0
  -25.3850  -31.3613   26.1471 C   0  0  0  0  0  0
  -27.0403  -30.2969   24.6125 C   0  0  0  0  0  0
  -27.6102  -32.4296   25.7496 C   0  0  0  0  0  0
  -27.5580  -37.1803   24.8456 C   0  0  0  0  0  0
  -21.4144  -29.3066   22.3648 N   0  0  0  0  0  0
  -26.4286  -37.3762   23.9408 N   0  0  0  0  0  0
  -24.6757  -31.0673   22.0964 N   0  0  0  0  0  0
  -23.4150  -28.8225   23.3043 O   0  0  0  0  0  0
  -28.4138  -26.6459   20.0912 O   0  0  0  0  0  0
  -26.5562  -34.8900   22.4625 O   0  0  0  0  0  0
  -23.5395  -32.1409   23.7420 O   0  0  0  0  0  0
  -28.1058  -19.2721   21.4989 C   0  0  0  0  0  0
  -30.1647  -18.0083   21.0897 C   0  0  0  0  0  0
  -28.0920  -16.8401   21.6368 C   0  0  0  0  0  0
  -29.4798  -19.2783   21.1869 C   0  0  0  0  0  0
  -27.4185  -18.0723   21.7357 C   0  0  0  0  0  0
  -29.4705  -16.7692   21.3204 C   0  0  0  0  0  0
  -30.1259  -20.6313   21.1157 C   0  0  0  0  0  0
  -29.9284  -23.1403   20.6606 C   0  0  0  0  0  0
  -25.9004  -18.4743   23.7059 C   0  0  0  0  0  0
  -28.3767  -23.6213   18.6298 C   0  0  0  0  0  0
  -30.4256  -24.9960   19.0696 C   0  0  0  0  0  0
  -25.9768  -18.1393   22.2114 C   0  0  0  0  0  0
  -28.3913  -25.2717   20.5810 C   0  0  0  0  0  0
  -29.2497  -24.2373   19.7482 C   0  0  0  0  0  0
  -30.0366  -15.4405   21.4861 N   0  0  0  0  0  0
  -29.4900  -21.7398   20.5970 N   0  0  0  0  0  0
  -31.3477  -20.7503   21.6518 N   0  3  0  0  0  0
  -30.8810  -23.4572   21.3838 O   0  0  0  0  0  0
  -31.4980  -12.5258   19.1733 H   0  0  0  0  0  0
  -30.3802  -11.3706   19.8369 H   0  0  0  0  0  0
  -29.7996  -11.8603   17.4434 H   0  0  0  0  0  0
  -29.6955  -13.5616   17.8091 H   0  0  0  0  0  0
  -27.8443  -11.3582   18.7630 H   0  0  0  0  0  0
  -27.4215  -12.7301   17.7761 H   0  0  0  0  0  0
  -27.7091  -14.2774   19.6205 H   0  0  0  0  0  0
  -28.7030  -11.9556   21.3217 H   0  0  0  0  0  0
  -28.4257  -13.5641   21.8988 H   0  0  0  0  0  0
  -25.2732   -9.5717   22.4738 H   0  0  0  0  0  0
  -24.0034   -7.4641   22.7444 H   0  0  0  0  0  0
  -21.0853   -8.8757   19.8926 H   0  0  0  0  0  0
  -22.3696  -10.9658   19.6161 H   0  0  0  0  0  0
  -21.2003   -7.6140   23.9755 H   0  0  0  0  0  0
  -21.1503   -6.0491   25.9098 H   0  0  0  0  0  0
  -22.0588   -2.7608   23.2838 H   0  0  0  0  0  0
  -22.4037  -11.9983   22.4865 H   0  0  0  0  0  0
  -21.1069  -13.1337   22.2443 H   0  0  0  0  0  0
  -24.5790  -15.7557   20.3469 H   0  0  0  0  0  0
  -26.1730  -15.5705   19.8288 H   0  0  0  0  0  0
  -26.7138  -32.5432   23.1110 H   0  0  0  0  0  0
  -25.0224  -33.9731   25.0520 H   0  0  0  0  0  0
  -22.7065  -31.3050   21.3956 H   0  0  0  0  0  0
  -23.3738  -35.9647   23.3269 H   0  0  0  0  0  0
  -24.3589  -36.8966   22.2056 H   0  0  0  0  0  0
  -23.7269  -37.6510   23.6680 H   0  0  0  0  0  0
  -26.0560  -31.5770   20.5939 H   0  0  0  0  0  0
  -26.8286  -30.8634   21.9864 H   0  0  0  0  0  0
  -28.1107  -29.0681   21.1675 H   0  0  0  0  0  0
  -26.0623  -25.9359   19.0203 H   0  0  0  0  0  0
  -23.9871  -27.2863   19.0247 H   0  0  0  0  0  0
  -23.7336  -30.5781   19.3958 H   0  0  0  0  0  0
  -22.7472  -29.2252   19.8611 H   0  0  0  0  0  0
  -25.1295  -36.1906   25.0804 H   0  0  0  0  0  0
  -20.9932  -28.3346   24.1397 H   0  0  0  0  0  0
  -20.5758  -26.2360   23.3588 H   0  0  0  0  0  0
  -21.6678  -26.7582   22.1166 H   0  0  0  0  0  0
  -19.7001  -25.6328   21.1244 H   0  0  0  0  0  0
  -19.6776  -27.3218   20.6708 H   0  0  0  0  0  0
  -17.4253  -26.6688   21.3956 H   0  0  0  0  0  0
  -18.0396  -26.0123   22.8983 H   0  0  0  0  0  0
  -19.7937  -30.7302   24.2251 H   0  0  0  0  0  0
  -17.5025  -31.6278   24.5211 H   0  0  0  0  0  0
  -15.5354  -30.3020   23.7707 H   0  0  0  0  0  0
  -15.8656  -28.0901   22.6997 H   0  0  0  0  0  0
  -24.6017  -30.6962   25.7826 H   0  0  0  0  0  0
  -24.9060  -32.2732   26.5015 H   0  0  0  0  0  0
  -25.8252  -30.8736   27.0164 H   0  0  0  0  0  0
  -26.2929  -29.6658   24.1282 H   0  0  0  0  0  0
  -27.4265  -29.7294   25.4606 H   0  0  0  0  0  0
  -27.8732  -30.4287   23.9213 H   0  0  0  0  0  0
  -27.2677  -33.3579   26.2083 H   0  0  0  0  0  0
  -28.3897  -32.6873   25.0313 H   0  0  0  0  0  0
  -28.0764  -31.8407   26.5405 H   0  0  0  0  0  0
  -28.2550  -38.0141   24.7498 H   0  0  0  0  0  0
  -28.1099  -36.2652   24.6253 H   0  0  0  0  0  0
  -27.2283  -37.1421   25.8851 H   0  0  0  0  0  0
  -20.9364  -29.8699   21.6751 H   0  0  0  0  0  0
  -26.0146  -38.2822   24.1427 H   0  0  0  0  0  0
  -27.5753  -20.2041   21.6365 H   0  0  0  0  0  0
  -31.2285  -17.9934   20.8924 H   0  0  0  0  0  0
  -27.5446  -15.9388   21.8776 H   0  0  0  0  0  0
  -26.3510  -19.4436   23.9246 H   0  0  0  0  0  0
  -26.4224  -17.7263   24.3041 H   0  0  0  0  0  0
  -24.8650  -18.5079   24.0445 H   0  0  0  0  0  0
  -28.9129  -22.8561   18.0665 H   0  0  0  0  0  0
  -28.0709  -24.3806   17.9058 H   0  0  0  0  0  0
  -27.4594  -23.1820   19.0232 H   0  0  0  0  0  0
  -31.0714  -24.3230   18.5010 H   0  0  0  0  0  0
  -31.0550  -25.5077   19.8022 H   0  0  0  0  0  0
  -30.0771  -25.7676   18.3793 H   0  0  0  0  0  0
  -25.4655  -17.1976   22.0235 H   0  0  0  0  0  0
  -25.4438  -18.8928   21.6321 H   0  0  0  0  0  0
  -28.7707  -25.3105   21.6033 H   0  0  0  0  0  0
  -27.3694  -24.9011   20.6840 H   0  0  0  0  0  0
  -29.4449  -14.8817   22.0814 H   0  0  0  0  0  0
  -28.6539  -21.4885   20.0916 H   0  0  0  0  0  0
  -31.8151  -19.9689   22.0850 H   0  0  0  0  0  0
  -31.7291  -21.6859   21.7516 H   0  0  0  0  0  0
  1 25  1  0  0  0
  1 30  2  0  0  0
  1 85  1  0  0  0
  2  3  1  0  0  0
  2 25  1  0  0  0
  2 89  1  0  0  0
  2 90  1  0  0  0
  3  4  1  0  0  0
  3 91  1  0  0  0
  3 92  1  0  0  0
  4  5  1  0  0  0
  4 93  1  0  0  0
  4 94  1  0  0  0
  5  6  1  0  0  0
  5 26  1  0  0  0
  5 95  1  0  0  0
  6 25  1  0  0  0
  6 96  1  0  0  0
  6 97  1  0  0  0
  7  8  2  0  0  0
  7 26  1  0  0  0
  7 29  1  0  0  0
  8  9  1  0  0  0
  8 22  1  0  0  0
  9 10  1  0  0  0
  9 27  2  0  0  0
 10 11  2  0  0  0
 10 15  1  0  0  0
 11 12  1  0  0  0
 11 98  1  0  0  0
 12 13  2  0  0  0
 12 99  1  0  0  0
 13 14  1  0  0  0
 13 31  1  0  0  0
 14 15  2  0  0  0
 14100  1  0  0  0
 15101  1  0  0  0
 16 17  2  0  0  0
 16 21  1  0  0  0
 16 31  1  0  0  0
 17 18  1  0  0  0
 17102  1  0  0  0
 18 19  2  0  0  0
 18103  1  0  0  0
 19 20  1  0  0  0
 19 24  1  0  0  0
 20 21  2  0  0  0
 20104  1  0  0  0
 21 23  1  0  0  0
 22 28  1  0  0  0
 22 32  2  0  0  0
 26 27  1  0  0  0
 28105  1  0  0  0
 28106  1  0  0  0
 29107  1  0  0  0
 29108  1  0  0  0
 33 34  1  0  0  0
 33 66  1  0  0  0
 33 70  2  0  0  0
 34 36  1  0  0  0
 34 59  1  0  0  0
 34109  1  0  0  0
 35 44  2  0  0  0
 35 45  1  0  0  0
 35 68  1  0  0  0
 36 56  1  0  0  0
 36110  1  0  0  0
 37 39  1  0  0  0
 37 47  1  0  0  0
 37 66  1  0  0  0
 37111  1  0  0  0
 38 43  2  0  0  0
 38 46  1  0  0  0
 38 47  1  0  0  0
 39 64  1  0  0  0
 39 67  2  0  0  0
 40 52  1  0  0  0
 40 53  2  0  0  0
 40 58  1  0  0  0
 41112  1  0  0  0
 41113  1  0  0  0
 41114  1  0  0  0
 41 48  1  0  0  0
 42 43  1  0  0  0
 42 66  1  0  0  0
 42115  1  0  0  0
 42116  1  0  0  0
 43 44  1  0  0  0
 44117  1  0  0  0
 45 46  2  0  0  0
 45118  1  0  0  0
 46119  1  0  0  0
 47120  1  0  0  0
 47121  1  0  0  0
 48 56  1  0  0  0
 48 65  1  0  0  0
 48122  1  0  0  0
 49 50  1  0  0  0
 49 53  1  0  0  0
 49 64  1  0  0  0
 49123  1  0  0  0
 50 51  1  0  0  0
 50124  1  0  0  0
 50125  1  0  0  0
 51 52  1  0  0  0
 51126  1  0  0  0
 51127  1  0  0  0
 52128  1  0  0  0
 52129  1  0  0  0
 53 54  1  0  0  0
 54 55  2  0  0  0
 54130  1  0  0  0
 55 57  1  0  0  0
 55131  1  0  0  0
 56 69  2  0  0  0
 57 58  2  0  0  0
 57132  1  0  0  0
 58133  1  0  0  0
 59 60  1  0  0  0
 59 61  1  0  0  0
 59 62  1  0  0  0
 60134  1  0  0  0
 60135  1  0  0  0
 60136  1  0  0  0
 61137  1  0  0  0
 61138  1  0  0  0
 61139  1  0  0  0
 62140  1  0  0  0
 62141  1  0  0  0
 62142  1  0  0  0
 63 65  1  0  0  0
 63143  1  0  0  0
 63144  1  0  0  0
 63145  1  0  0  0
 64146  1  0  0  0
 65147  1  0  0  0
 68 83  1  0  0  0
 71 74  2  0  0  0
 71 75  1  0  0  0
 71148  1  0  0  0
 72 74  1  0  0  0
 72 76  2  0  0  0
 72149  1  0  0  0
 73 75  2  0  0  0
 73 76  1  0  0  0
 73150  1  0  0  0
 74 77  1  0  0  0
 75 82  1  0  0  0
 76 85  1  0  0  0
 77 86  1  0  0  0
 77 87  2  0  0  0
 78 84  1  0  0  0
 78 86  1  0  0  0
 78 88  2  0  0  0
 79 82  1  0  0  0
 79151  1  0  0  0
 79152  1  0  0  0
 79153  1  0  0  0
 80154  1  0  0  0
 80155  1  0  0  0
 80156  1  0  0  0
 80 84  1  0  0  0
 81 84  1  0  0  0
 81157  1  0  0  0
 81158  1  0  0  0
 81159  1  0  0  0
 82160  1  0  0  0
 82161  1  0  0  0
 83 84  1  0  0  0
 83162  1  0  0  0
 83163  1  0  0  0
 85164  1  0  0  0
 86165  1  0  0  0
 87166  1  0  0  0
 87167  1  0  0  0
M  CHG  1  87   1
M  ISO  4   1 100  68 101  83 101  85 100
M  END
> <chiral flag>
0

> <version>
0

> <s_m_source_file>
/data/baiqing/PycharmProjects/Reinvent-master-3.2/result/LINK_invent/BTK/process_docking_weight1_custom_product_contain_oxygen_bond_distance_aromatic_linkinvent_7_9_3/rearranged_h_0141.sdf

> <i_m_source_file_index>
9

> <r_mmod_Potential_Energy-OPLS-2005>
-208.165145874023

> <r_mmod_Stretch_Energy-OPLS-2005>
68.2507934570312

> <r_mmod_Bend_Energy-OPLS-2005>
150.022750854492

> <r_mmod_Torsional_Energy-OPLS-2005>
280.851379394531

> <r_mmod_Improper_Torsional_Energy-OPLS-2005>
10.6883306503296

> <r_mmod_Van_der_Waal_Energy-OPLS-2005>
151.825332641602

> <r_mmod_Electrostatic_Energy-OPLS-2005>
-470.407470703125

> <r_mmod_Solvation_Energy-OPLS-2005>
-427.941253662109

> <b_mmod_Minimization_Converged-OPLS-2005>
0

> <r_mmod_RMS_Derivative-OPLS-2005>
5.42035961151123

$$$$
9
                    3D
 Structure written by MMmdl.
182190  0  0  1  0            999 V2000
  -30.7426  -14.5610   20.5150 C   0  0  0  0  0  0
  -30.4094  -12.3468   19.4650 C   0  0  0  0  0  0
  -29.4988  -12.4920   18.2303 C   0  0  0  0  0  0
  -28.0227  -12.3501   18.6411 C   0  0  0  0  0  0
  -27.6531  -13.2293   19.8662 C   0  0  2  0  0  0
  -28.6997  -13.1163   20.9998 C   0  0  0  0  0  0
  -25.2517  -13.8205   20.5668 C   0  0  0  0  0  0
  -24.1803  -13.0446   20.9199 C   0  0  0  0  0  0
  -24.6403  -11.6932   20.8763 C   0  0  0  0  0  0
  -23.9076  -10.4297   21.0411 C   0  0  0  0  0  0
  -24.3619   -9.4210   21.9185 C   0  0  0  0  0  0
  -23.6295   -8.2248   22.0751 C   0  0  0  0  0  0
  -22.4280   -8.0282   21.3541 C   0  0  0  0  0  0
  -21.9918   -9.0256   20.4643 C   0  0  0  0  0  0
  -22.7251  -10.2139   20.3056 C   0  0  0  0  0  0
  -21.6852   -6.0731   22.5275 C   0  0  0  0  0  0
  -21.4010   -6.5634   23.8209 C   0  0  0  0  0  0
  -21.3664   -5.6790   24.9176 C   0  0  0  0  0  0
  -21.6048   -4.3050   24.7228 C   0  0  0  0  0  0
  -21.8821   -3.8142   23.4349 C   0  0  0  0  0  0
  -21.9190   -4.6958   22.3400 C   0  0  0  0  0  0
  -22.7821  -13.5221   21.1855 C   0  0  0  0  0  0
  -22.1659   -4.2142   21.0980 F   0  0  0  0  0  0
  -21.5636   -3.4536   25.7743 F   0  0  0  0  0  0
  -30.0225  -13.4000   20.4274 N   0  0  0  0  0  0
  -26.2991  -12.9426   20.3372 N   0  0  0  0  0  0
  -25.9345  -11.6566   20.5815 N   0  0  0  0  0  0
  -22.0473  -12.8214   22.0426 N   0  0  0  0  0  0
  -25.4158  -15.1907   20.3984 N   0  0  0  0  0  0
  -31.8879  -14.6036   20.0675 O   0  0  0  0  0  0
  -21.6642   -6.8876   21.4241 O   0  0  0  0  0  0
  -22.3500  -14.5524   20.6703 O   0  0  0  0  0  0
  -24.6192  -31.8640   23.2078 C   0  0  0  0  0  0
  -25.9084  -32.4784   23.8375 C   0  0  1  0  0  0
  -27.2202  -27.3873   20.1220 C   0  0  0  0  0  0
  -25.5939  -33.8578   24.2308 N   0  0  0  0  0  0
  -23.4121  -30.4885   21.5458 C   0  0  2  0  0  0
  -24.8673  -28.9714   20.0863 C   0  0  0  0  0  0
  -22.7447  -29.4631   22.4925 C   0  0  0  0  0  0
  -18.0288  -28.1364   22.8471 C   0  0  0  0  0  0
  -24.1502  -36.7283   23.2646 C   0  0  0  0  0  0
  -25.9460  -30.8240   21.3677 C   0  0  0  0  0  0
  -26.0277  -29.4636   20.6982 C   0  0  0  0  0  0
  -27.2107  -28.6799   20.7141 C   0  0  0  0  0  0
  -26.0684  -26.9569   19.4330 C   0  0  0  0  0  0
  -24.8881  -27.7227   19.4412 C   0  0  0  0  0  0
  -23.6235  -29.8321   20.1547 C   0  0  0  0  0  0
  -25.4122  -36.3061   24.0324 C   0  0  1  0  0  0
  -20.5887  -28.3657   23.1286 C   0  0  2  0  0  0
  -20.6772  -26.9382   22.5411 C   0  0  0  0  0  0
  -19.5752  -26.6366   21.5204 C   0  0  0  0  0  0
  -18.1923  -26.7911   22.1610 C   0  0  0  0  0  0
  -19.1542  -28.8826   23.2869 C   0  0  0  0  0  0
  -18.9471  -30.1425   23.8897 C   0  0  0  0  0  0
  -17.6477  -30.6567   24.0544 C   0  0  0  0  0  0
  -25.9057  -34.9436   23.5102 C   0  0  0  0  0  0
  -16.5371  -29.9059   23.6330 C   0  0  0  0  0  0
  -16.7276  -28.6477   23.0350 C   0  0  0  0  0  0
  -26.4503  -31.6575   25.0713 C   0  0  0  0  0  0
  -25.3756  -31.3705   26.1455 C   0  0  0  0  0  0
  -27.0341  -30.3007   24.6093 C   0  0  0  0  0  0
  -27.6049  -32.4335   25.7491 C   0  0  0  0  0  0
  -27.5569  -37.1790   24.8463 C   0  0  0  0  0  0
  -21.4176  -29.3018   22.3681 N   0  0  0  0  0  0
  -26.4290  -37.3756   23.9407 N   0  0  0  0  0  0
  -24.6772  -31.0722   22.0985 N   0  0  0  0  0  0
  -23.4202  -28.8172   23.2981 O   0  0  0  0  0  0
  -28.2229  -26.4433   20.3347 O   0  0  0  0  0  0
  -26.5606  -34.8903   22.4654 O   0  0  0  0  0  0
  -23.5380  -32.1422   23.7434 O   0  0  0  0  0  0
  -31.7151  -19.7162   20.7989 C   0  0  0  0  0  0
  -32.0532  -17.3132   20.9876 C   0  0  0  0  0  0
  -30.3144  -19.5608   20.8596 C   0  0  0  0  0  0
  -30.6587  -17.0667   20.9154 C   0  0  0  0  0  0
  -29.7957  -18.2133   20.8602 C   0  0  0  0  0  0
  -32.5748  -18.6131   20.8936 C   0  0  0  0  0  0
  -31.6033  -22.8779   22.4935 C   0  0  0  0  0  0
  -27.8629  -22.7976   25.1662 C   0  0  0  0  0  0
  -28.6772  -20.3530   23.1722 C   0  0  0  0  0  0
  -26.8797  -22.4430   22.1951 C   0  0  0  0  0  0
  -29.0932  -26.4263   22.4894 C   0  0  0  0  0  0
  -26.6491  -25.7034   22.1402 C   0  0  0  0  0  0
  -29.4675  -20.8840   20.9320 C   0  0  0  0  0  0
  -30.6933  -21.7662   23.0495 C   0  0  0  0  0  0
  -28.4651  -23.5033   23.9389 C   0  0  0  0  0  0
  -28.6298  -24.0946   21.4062 C   0  0  0  0  0  0
  -29.2931  -21.5469   22.3718 C   0  0  2  0  0  0
  -28.3456  -22.8948   22.4780 C   0  0  2  0  0  0
  -28.1195  -25.6317   21.5824 C   0  0  0  0  0  0
  -28.4254  -17.9833   20.7824 N   0  0  0  0  0  0
  -30.1234  -15.7040   20.9350 N   0  0  0  0  0  0
  -34.2823  -18.8597   20.9220 Cl  0  0  0  0  0  0
  -31.4575  -12.4047   19.1647 H   0  0  0  0  0  0
  -30.2925  -11.3615   19.9202 H   0  0  0  0  0  0
  -29.7544  -11.7389   17.4840 H   0  0  0  0  0  0
  -29.6628  -13.4623   17.7585 H   0  0  0  0  0  0
  -27.8500  -11.2987   18.8750 H   0  0  0  0  0  0
  -27.3730  -12.5851   17.7977 H   0  0  0  0  0  0
  -27.6682  -14.2610   19.5149 H   0  0  0  0  0  0
  -28.6899  -12.1164   21.4360 H   0  0  0  0  0  0
  -28.4629  -13.8035   21.8131 H   0  0  0  0  0  0
  -25.2762   -9.5686   22.4761 H   0  0  0  0  0  0
  -24.0002   -7.4638   22.7469 H   0  0  0  0  0  0
  -21.0852   -8.8778   19.8940 H   0  0  0  0  0  0
  -22.3710  -10.9675   19.6162 H   0  0  0  0  0  0
  -21.1998   -7.6140   23.9712 H   0  0  0  0  0  0
  -21.1488   -6.0518   25.9077 H   0  0  0  0  0  0
  -22.0595   -2.7604   23.2855 H   0  0  0  0  0  0
  -22.4097  -11.9887   22.4828 H   0  0  0  0  0  0
  -21.1087  -13.1223   22.2624 H   0  0  0  0  0  0
  -24.6412  -15.8411   20.4776 H   0  0  0  0  0  0
  -26.2635  -15.6285   20.0627 H   0  0  0  0  0  0
  -26.7162  -32.5506   23.1153 H   0  0  0  0  0  0
  -25.0072  -33.9729   25.0436 H   0  0  0  0  0  0
  -22.7065  -31.3098   21.4088 H   0  0  0  0  0  0
  -23.3737  -35.9645   23.3307 H   0  0  0  0  0  0
  -24.3601  -36.8903   22.2064 H   0  0  0  0  0  0
  -23.7282  -37.6492   23.6675 H   0  0  0  0  0  0
  -26.0726  -31.6031   20.6135 H   0  0  0  0  0  0
  -26.8267  -30.8662   21.9951 H   0  0  0  0  0  0
  -28.0841  -29.0308   21.2441 H   0  0  0  0  0  0
  -26.0551  -25.9756   18.9785 H   0  0  0  0  0  0
  -23.9977  -27.3420   18.9620 H   0  0  0  0  0  0
  -23.7207  -30.6165   19.4032 H   0  0  0  0  0  0
  -22.7490  -29.2494   19.8588 H   0  0  0  0  0  0
  -25.1294  -36.1912   25.0811 H   0  0  0  0  0  0
  -20.9990  -28.3237   24.1399 H   0  0  0  0  0  0
  -20.5682  -26.2255   23.3600 H   0  0  0  0  0  0
  -21.6633  -26.7404   22.1202 H   0  0  0  0  0  0
  -19.6925  -25.6278   21.1225 H   0  0  0  0  0  0
  -19.6714  -27.3174   20.6737 H   0  0  0  0  0  0
  -17.4202  -26.6673   21.4004 H   0  0  0  0  0  0
  -18.0302  -26.0059   22.9016 H   0  0  0  0  0  0
  -19.7959  -30.7201   24.2293 H   0  0  0  0  0  0
  -17.5045  -31.6265   24.5110 H   0  0  0  0  0  0
  -15.5361  -30.2949   23.7656 H   0  0  0  0  0  0
  -15.8685  -28.0772   22.7087 H   0  0  0  0  0  0
  -24.5926  -30.7057   25.7797 H   0  0  0  0  0  0
  -24.8948  -32.2869   26.4885 H   0  0  0  0  0  0
  -25.8087  -30.8889   27.0225 H   0  0  0  0  0  0
  -26.2885  -29.6775   24.1136 H   0  0  0  0  0  0
  -27.4108  -29.7234   25.4547 H   0  0  0  0  0  0
  -27.8725  -30.4319   23.9249 H   0  0  0  0  0  0
  -27.2614  -33.3632   26.2043 H   0  0  0  0  0  0
  -28.3848  -32.6920   25.0317 H   0  0  0  0  0  0
  -28.0721  -31.8496   26.5431 H   0  0  0  0  0  0
  -28.2561  -38.0108   24.7463 H   0  0  0  0  0  0
  -28.1074  -36.2615   24.6313 H   0  0  0  0  0  0
  -27.2270  -37.1439   25.8864 H   0  0  0  0  0  0
  -20.9346  -29.8755   21.6907 H   0  0  0  0  0  0
  -26.0156  -38.2816   24.1433 H   0  0  0  0  0  0
  -32.1493  -20.7029   20.7455 H   0  0  0  0  0  0
  -32.7645  -16.5123   21.1028 H   0  0  0  0  0  0
  -32.6067  -22.7804   22.9096 H   0  0  0  0  0  0
  -31.2561  -23.8741   22.7662 H   0  0  0  0  0  0
  -31.6950  -22.8392   21.4091 H   0  0  0  0  0  0
  -27.6758  -23.5271   25.9558 H   0  0  0  0  0  0
  -28.5466  -22.0720   25.6021 H   0  0  0  0  0  0
  -26.9073  -22.3212   24.9529 H   0  0  0  0  0  0
  -29.3805  -19.5284   23.2842 H   0  0  0  0  0  0
  -27.8098  -19.9263   22.6701 H   0  0  0  0  0  0
  -28.3680  -20.5731   24.1817 H   0  0  0  0  0  0
  -26.1440  -23.2301   22.2872 H   0  0  0  0  0  0
  -26.5150  -21.6659   22.8621 H   0  0  0  0  0  0
  -26.7808  -22.0588   21.1801 H   0  0  0  0  0  0
  -29.3537  -25.9341   23.4188 H   0  0  0  0  0  0
  -28.6880  -27.4002   22.7645 H   0  0  0  0  0  0
  -30.0398  -26.6074   21.9783 H   0  0  0  0  0  0
  -26.4408  -25.1895   23.0667 H   0  0  0  0  0  0
  -25.9383  -25.2916   21.4243 H   0  0  0  0  0  0
  -26.3300  -26.7192   22.3691 H   0  0  0  0  0  0
  -28.4913  -20.6884   20.4906 H   0  0  0  0  0  0
  -29.9250  -21.6127   20.2610 H   0  0  0  0  0  0
  -30.5747  -21.9230   24.1212 H   0  0  0  0  0  0
  -31.2637  -20.8402   23.0364 H   0  0  0  0  0  0
  -29.4928  -23.7680   24.1718 H   0  0  0  0  0  0
  -27.9944  -24.4639   23.9993 H   0  0  0  0  0  0
  -28.2434  -23.7508   20.4468 H   0  0  0  0  0  0
  -29.6968  -24.1539   21.2207 H   0  0  0  0  0  0
  -27.8543  -18.7937   20.5783 H   0  0  0  0  0  0
  -28.1598  -17.1965   20.2059 H   0  0  0  0  0  0
  -29.1537  -15.6229   21.2006 H   0  0  0  0  0  0
  1 25  1  0  0  0
  1 30  2  0  0  0
  1 91  1  0  0  0
  2  3  1  0  0  0
  2 25  1  0  0  0
  2 93  1  0  0  0
  2 94  1  0  0  0
  3  4  1  0  0  0
  3 95  1  0  0  0
  3 96  1  0  0  0
  4  5  1  0  0  0
  4 97  1  0  0  0
  4 98  1  0  0  0
  5  6  1  0  0  0
  5 26  1  0  0  0
  5 99  1  0  0  0
  6 25  1  0  0  0
  6100  1  0  0  0
  6101  1  0  0  0
  7  8  2  0  0  0
  7 26  1  0  0  0
  7 29  1  0  0  0
  8  9  1  0  0  0
  8 22  1  0  0  0
  9 10  1  0  0  0
  9 27  2  0  0  0
 10 11  2  0  0  0
 10 15  1  0  0  0
 11 12  1  0  0  0
 11102  1  0  0  0
 12 13  2  0  0  0
 12103  1  0  0  0
 13 14  1  0  0  0
 13 31  1  0  0  0
 14 15  2  0  0  0
 14104  1  0  0  0
 15105  1  0  0  0
 16 17  2  0  0  0
 16 21  1  0  0  0
 16 31  1  0  0  0
 17 18  1  0  0  0
 17106  1  0  0  0
 18 19  2  0  0  0
 18107  1  0  0  0
 19 20  1  0  0  0
 19 24  1  0  0  0
 20 21  2  0  0  0
 20108  1  0  0  0
 21 23  1  0  0  0
 22 28  1  0  0  0
 22 32  2  0  0  0
 26 27  1  0  0  0
 28109  1  0  0  0
 28110  1  0  0  0
 29111  1  0  0  0
 29112  1  0  0  0
 33 34  1  0  0  0
 33 66  1  0  0  0
 33 70  2  0  0  0
 34 36  1  0  0  0
 34 59  1  0  0  0
 34113  1  0  0  0
 35 44  2  0  0  0
 35 45  1  0  0  0
 35 68  1  0  0  0
 36 56  1  0  0  0
 36114  1  0  0  0
 37 39  1  0  0  0
 37 47  1  0  0  0
 37 66  1  0  0  0
 37115  1  0  0  0
 38 43  2  0  0  0
 38 46  1  0  0  0
 38 47  1  0  0  0
 39 64  1  0  0  0
 39 67  2  0  0  0
 40 52  1  0  0  0
 40 53  2  0  0  0
 40 58  1  0  0  0
 41116  1  0  0  0
 41117  1  0  0  0
 41118  1  0  0  0
 41 48  1  0  0  0
 42 43  1  0  0  0
 42 66  1  0  0  0
 42119  1  0  0  0
 42120  1  0  0  0
 43 44  1  0  0  0
 44121  1  0  0  0
 45 46  2  0  0  0
 45122  1  0  0  0
 46123  1  0  0  0
 47124  1  0  0  0
 47125  1  0  0  0
 48 56  1  0  0  0
 48 65  1  0  0  0
 48126  1  0  0  0
 49 50  1  0  0  0
 49 53  1  0  0  0
 49 64  1  0  0  0
 49127  1  0  0  0
 50 51  1  0  0  0
 50128  1  0  0  0
 50129  1  0  0  0
 51 52  1  0  0  0
 51130  1  0  0  0
 51131  1  0  0  0
 52132  1  0  0  0
 52133  1  0  0  0
 53 54  1  0  0  0
 54 55  2  0  0  0
 54134  1  0  0  0
 55 57  1  0  0  0
 55135  1  0  0  0
 56 69  2  0  0  0
 57 58  2  0  0  0
 57136  1  0  0  0
 58137  1  0  0  0
 59 60  1  0  0  0
 59 61  1  0  0  0
 59 62  1  0  0  0
 60138  1  0  0  0
 60139  1  0  0  0
 60140  1  0  0  0
 61141  1  0  0  0
 61142  1  0  0  0
 61143  1  0  0  0
 62144  1  0  0  0
 62145  1  0  0  0
 62146  1  0  0  0
 63 65  1  0  0  0
 63147  1  0  0  0
 63148  1  0  0  0
 63149  1  0  0  0
 64150  1  0  0  0
 65151  1  0  0  0
 68 89  1  0  0  0
 71 73  2  0  0  0
 71 76  1  0  0  0
 71152  1  0  0  0
 72 74  1  0  0  0
 72 76  2  0  0  0
 72153  1  0  0  0
 73 75  1  0  0  0
 73 83  1  0  0  0
 74 75  2  0  0  0
 74 91  1  0  0  0
 75 90  1  0  0  0
 76 92  1  0  0  0
 77 84  1  0  0  0
 77154  1  0  0  0
 77155  1  0  0  0
 77156  1  0  0  0
 78 85  1  0  0  0
 78157  1  0  0  0
 78158  1  0  0  0
 78159  1  0  0  0
 79160  1  0  0  0
 79161  1  0  0  0
 79162  1  0  0  0
 79 87  1  0  0  0
 80163  1  0  0  0
 80164  1  0  0  0
 80165  1  0  0  0
 80 88  1  0  0  0
 81166  1  0  0  0
 81167  1  0  0  0
 81168  1  0  0  0
 81 89  1  0  0  0
 82 89  1  0  0  0
 82169  1  0  0  0
 82170  1  0  0  0
 82171  1  0  0  0
 83 87  1  0  0  0
 83172  1  0  0  0
 83173  1  0  0  0
 84 87  1  0  0  0
 84174  1  0  0  0
 84175  1  0  0  0
 85 88  1  0  0  0
 85176  1  0  0  0
 85177  1  0  0  0
 86 88  1  0  0  0
 86 89  1  0  0  0
 86178  1  0  0  0
 86179  1  0  0  0
 87 88  1  0  0  0
 90180  1  0  0  0
 90181  1  0  0  0
 91182  1  0  0  0
M  ISO  4   1 100  68 101  89 101  91 100
M  END
> <chiral flag>
0

> <version>
0

> <s_m_source_file>
/data/baiqing/PycharmProjects/Reinvent-master-3.2/result/LINK_invent/BTK/process_docking_weight1_custom_product_contain_oxygen_bond_distance_aromatic_linkinvent_7_9_3/rearranged_h_0141.sdf

> <i_m_source_file_index>
10

> <r_mmod_Potential_Energy-OPLS-2005>
161.8291015625

> <r_mmod_Stretch_Energy-OPLS-2005>
119.47834777832

> <r_mmod_Bend_Energy-OPLS-2005>
186.956039428711

> <r_mmod_Torsional_Energy-OPLS-2005>
311.426605224609

> <r_mmod_Improper_Torsional_Energy-OPLS-2005>
9.7647705078125

> <r_mmod_Van_der_Waal_Energy-OPLS-2005>
213.150817871094

> <r_mmod_Electrostatic_Energy-OPLS-2005>
-544.342102050781

> <r_mmod_Solvation_Energy-OPLS-2005>
-183.791091918945

> <b_mmod_Minimization_Converged-OPLS-2005>
0

> <r_mmod_RMS_Derivative-OPLS-2005>
2.58561277389526

$$$$
10
                    3D
 Structure written by MMmdl.
169177  0  0  1  0            999 V2000
  -30.6805  -14.5245   20.5331 C   0  0  0  0  0  0
  -30.4312  -12.3295   19.4315 C   0  0  0  0  0  0
  -29.4986  -12.5076   18.2126 C   0  0  0  0  0  0
  -28.0241  -12.3415   18.6301 C   0  0  0  0  0  0
  -27.6581  -13.1929   19.8739 C   0  0  2  0  0  0
  -28.7074  -13.0172   20.9975 C   0  0  0  0  0  0
  -25.2596  -13.8117   20.5696 C   0  0  0  0  0  0
  -24.1821  -13.0429   20.9194 C   0  0  0  0  0  0
  -24.6362  -11.6887   20.8767 C   0  0  0  0  0  0
  -23.9024  -10.4286   21.0433 C   0  0  0  0  0  0
  -24.3589   -9.4201   21.9204 C   0  0  0  0  0  0
  -23.6267   -8.2239   22.0766 C   0  0  0  0  0  0
  -22.4251   -8.0288   21.3561 C   0  0  0  0  0  0
  -21.9883   -9.0255   20.4661 C   0  0  0  0  0  0
  -22.7209  -10.2134   20.3071 C   0  0  0  0  0  0
  -21.6844   -6.0741   22.5292 C   0  0  0  0  0  0
  -21.4008   -6.5638   23.8226 C   0  0  0  0  0  0
  -21.3656   -5.6794   24.9182 C   0  0  0  0  0  0
  -21.6039   -4.3055   24.7233 C   0  0  0  0  0  0
  -21.8810   -3.8149   23.4351 C   0  0  0  0  0  0
  -21.9184   -4.6968   22.3412 C   0  0  0  0  0  0
  -22.7854  -13.5256   21.1841 C   0  0  0  0  0  0
  -22.1657   -4.2154   21.0988 F   0  0  0  0  0  0
  -21.5625   -3.4539   25.7744 F   0  0  0  0  0  0
  -30.0329  -13.3283   20.4344 N   0  0  0  0  0  0
  -26.3008  -12.9249   20.3381 N   0  0  0  0  0  0
  -25.9282  -11.6433   20.5775 N   0  0  0  0  0  0
  -22.0452  -12.8289   22.0396 N   0  0  0  0  0  0
  -25.4329  -15.1835   20.4108 N   0  0  0  0  0  0
  -31.8352  -14.6953   20.1326 O   0  0  0  0  0  0
  -21.6624   -6.8887   21.4256 O   0  0  0  0  0  0
  -22.3568  -14.5583   20.6692 O   0  0  0  0  0  0
  -24.6170  -31.8654   23.2091 C   0  0  0  0  0  0
  -25.9061  -32.4806   23.8386 C   0  0  1  0  0  0
  -27.2447  -27.4196   20.0875 C   0  0  0  0  0  0
  -25.5910  -33.8602   24.2321 N   0  0  0  0  0  0
  -23.4049  -30.4884   21.5506 C   0  0  2  0  0  0
  -24.8509  -28.9502   20.1172 C   0  0  0  0  0  0
  -22.7421  -29.4642   22.4991 C   0  0  0  0  0  0
  -18.0268  -28.1371   22.8484 C   0  0  0  0  0  0
  -24.1476  -36.7294   23.2643 C   0  0  0  0  0  0
  -25.9359  -30.8244   21.3642 C   0  0  0  0  0  0
  -26.0122  -29.4572   20.7118 C   0  0  0  0  0  0
  -27.2072  -28.6984   20.6956 C   0  0  0  0  0  0
  -26.0539  -26.9256   19.5019 C   0  0  0  0  0  0
  -24.8667  -27.6827   19.5127 C   0  0  0  0  0  0
  -23.6129  -29.8176   20.1666 C   0  0  0  0  0  0
  -25.4097  -36.3093   24.0344 C   0  0  1  0  0  0
  -20.5861  -28.3656   23.1318 C   0  0  2  0  0  0
  -20.6760  -26.9392   22.5411 C   0  0  0  0  0  0
  -19.5740  -26.6382   21.5207 C   0  0  0  0  0  0
  -18.1920  -26.7919   22.1617 C   0  0  0  0  0  0
  -19.1521  -28.8828   23.2899 C   0  0  0  0  0  0
  -18.9453  -30.1438   23.8902 C   0  0  0  0  0  0
  -17.6453  -30.6579   24.0568 C   0  0  0  0  0  0
  -25.9030  -34.9464   23.5128 C   0  0  0  0  0  0
  -16.5342  -29.9080   23.6323 C   0  0  0  0  0  0
  -16.7261  -28.6498   23.0348 C   0  0  0  0  0  0
  -26.4494  -31.6595   25.0716 C   0  0  0  0  0  0
  -25.3774  -31.3700   26.1475 C   0  0  0  0  0  0
  -27.0337  -30.3041   24.6097 C   0  0  0  0  0  0
  -27.6072  -32.4323   25.7473 C   0  0  0  0  0  0
  -27.5567  -37.1795   24.8470 C   0  0  0  0  0  0
  -21.4147  -29.3020   22.3732 N   0  0  0  0  0  0
  -26.4280  -37.3778   23.9417 N   0  0  0  0  0  0
  -24.6713  -31.0737   22.0997 N   0  0  0  0  0  0
  -23.4178  -28.8186   23.3053 O   0  0  0  0  0  0
  -28.4364  -26.7079   20.0944 O   0  0  0  0  0  0
  -26.5592  -34.8918   22.4683 O   0  0  0  0  0  0
  -23.5361  -32.1418   23.7477 O   0  0  0  0  0  0
  -31.0315  -17.5868   21.7407 C   0  0  0  0  0  0
  -29.6045  -19.1903   19.9386 C   0  0  0  0  0  0
  -31.1724  -18.9968   21.7804 C   0  0  0  0  0  0
  -29.4602  -17.7830   19.8925 C   0  0  0  0  0  0
  -30.4388  -19.8185   20.8876 C   0  0  0  0  0  0
  -30.1636  -16.9617   20.8168 C   0  0  0  0  0  0
  -30.1858  -23.6572   20.4156 C   0  0  0  0  0  0
  -32.1077  -19.6200   22.8062 C   0  0  0  0  0  0
  -29.1418  -17.3651   17.4130 C   0  0  0  0  0  0
  -30.1554  -24.2448   17.9359 C   0  0  0  0  0  0
  -30.9955  -25.9102   19.5734 C   0  0  0  0  0  0
  -28.5468  -17.2116   18.8187 C   0  0  0  0  0  0
  -29.8677  -22.1726   20.0779 C   0  0  0  0  0  0
  -28.4966  -25.4121   19.4607 C   0  0  0  0  0  0
  -29.9381  -24.7936   19.3667 C   0  0  0  0  0  0
  -29.9016  -15.5559   20.9227 N   0  0  0  0  0  0
  -30.5484  -21.2220   20.9753 N   0  0  0  0  0  0
  -30.6610  -23.9218   21.5274 O   0  0  0  0  0  0
  -31.4755  -12.4353   19.1320 H   0  0  0  0  0  0
  -30.3375  -11.3244   19.8473 H   0  0  0  0  0  0
  -29.7509  -11.7899   17.4315 H   0  0  0  0  0  0
  -29.6455  -13.4969   17.7748 H   0  0  0  0  0  0
  -27.8613  -11.2847   18.8491 H   0  0  0  0  0  0
  -27.3646  -12.5873   17.7969 H   0  0  0  0  0  0
  -27.6810  -14.2269   19.5506 H   0  0  0  0  0  0
  -28.6982  -11.9915   21.3690 H   0  0  0  0  0  0
  -28.4673  -13.6418   21.8597 H   0  0  0  0  0  0
  -25.2722   -9.5673   22.4780 H   0  0  0  0  0  0
  -23.9978   -7.4622   22.7472 H   0  0  0  0  0  0
  -21.0818   -8.8774   19.8961 H   0  0  0  0  0  0
  -22.3674  -10.9681   19.6182 H   0  0  0  0  0  0
  -21.2007   -7.6145   23.9729 H   0  0  0  0  0  0
  -21.1486   -6.0525   25.9088 H   0  0  0  0  0  0
  -22.0589   -2.7610   23.2850 H   0  0  0  0  0  0
  -22.4024  -11.9949   22.4813 H   0  0  0  0  0  0
  -21.1092  -13.1384   22.2595 H   0  0  0  0  0  0
  -24.6647  -15.8368   20.5197 H   0  0  0  0  0  0
  -26.2833  -15.6245   20.0886 H   0  0  0  0  0  0
  -26.7126  -32.5512   23.1146 H   0  0  0  0  0  0
  -25.0075  -33.9759   25.0478 H   0  0  0  0  0  0
  -22.6937  -31.3055   21.4087 H   0  0  0  0  0  0
  -23.3733  -35.9632   23.3326 H   0  0  0  0  0  0
  -24.3561  -36.8881   22.2051 H   0  0  0  0  0  0
  -23.7234  -37.6507   23.6641 H   0  0  0  0  0  0
  -26.0494  -31.5896   20.5953 H   0  0  0  0  0  0
  -26.8242  -30.8783   21.9827 H   0  0  0  0  0  0
  -28.1042  -29.0912   21.1527 H   0  0  0  0  0  0
  -26.0120  -25.9529   19.0354 H   0  0  0  0  0  0
  -23.9718  -27.2820   19.0582 H   0  0  0  0  0  0
  -23.7191  -30.5895   19.4031 H   0  0  0  0  0  0
  -22.7377  -29.2343   19.8744 H   0  0  0  0  0  0
  -25.1270  -36.1959   25.0837 H   0  0  0  0  0  0
  -20.9943  -28.3215   24.1449 H   0  0  0  0  0  0
  -20.5651  -26.2263   23.3597 H   0  0  0  0  0  0
  -21.6635  -26.7418   22.1221 H   0  0  0  0  0  0
  -19.6902  -25.6299   21.1231 H   0  0  0  0  0  0
  -19.6689  -27.3202   20.6749 H   0  0  0  0  0  0
  -17.4189  -26.6665   21.4025 H   0  0  0  0  0  0
  -18.0317  -26.0060   22.9008 H   0  0  0  0  0  0
  -19.7934  -30.7260   24.2268 H   0  0  0  0  0  0
  -17.5010  -31.6266   24.5164 H   0  0  0  0  0  0
  -15.5345  -30.2990   23.7640 H   0  0  0  0  0  0
  -15.8666  -28.0827   22.7051 H   0  0  0  0  0  0
  -24.5942  -30.7049   25.7823 H   0  0  0  0  0  0
  -24.8984  -32.2858   26.4948 H   0  0  0  0  0  0
  -25.8151  -30.8858   27.0215 H   0  0  0  0  0  0
  -26.2882  -29.6780   24.1188 H   0  0  0  0  0  0
  -27.4152  -29.7297   25.4549 H   0  0  0  0  0  0
  -27.8690  -30.4360   23.9217 H   0  0  0  0  0  0
  -27.2689  -33.3613   26.2071 H   0  0  0  0  0  0
  -28.3866  -32.6899   25.0292 H   0  0  0  0  0  0
  -28.0759  -31.8441   26.5372 H   0  0  0  0  0  0
  -28.2611  -38.0066   24.7491 H   0  0  0  0  0  0
  -28.1035  -36.2603   24.6325 H   0  0  0  0  0  0
  -27.2287  -37.1475   25.8874 H   0  0  0  0  0  0
  -20.9313  -29.8738   21.6949 H   0  0  0  0  0  0
  -26.0173  -38.2854   24.1421 H   0  0  0  0  0  0
  -31.5697  -16.9764   22.4511 H   0  0  0  0  0  0
  -29.0474  -19.7876   19.2320 H   0  0  0  0  0  0
  -32.6338  -18.8633   23.3884 H   0  0  0  0  0  0
  -31.5506  -20.2528   23.4978 H   0  0  0  0  0  0
  -32.8595  -20.2356   22.3110 H   0  0  0  0  0  0
  -28.4806  -16.9336   16.6617 H   0  0  0  0  0  0
  -30.1057  -16.8599   17.3383 H   0  0  0  0  0  0
  -29.2905  -18.4142   17.1539 H   0  0  0  0  0  0
  -31.1339  -23.7739   17.8269 H   0  0  0  0  0  0
  -30.1010  -25.0424   17.1934 H   0  0  0  0  0  0
  -29.3957  -23.5125   17.6597 H   0  0  0  0  0  0
  -32.0111  -25.5280   19.4604 H   0  0  0  0  0  0
  -30.9288  -26.3568   20.5669 H   0  0  0  0  0  0
  -30.8715  -26.7175   18.8508 H   0  0  0  0  0  0
  -27.5830  -17.7206   18.8707 H   0  0  0  0  0  0
  -28.3402  -16.1624   18.9960 H   0  0  0  0  0  0
  -30.1720  -21.9508   19.0549 H   0  0  0  0  0  0
  -28.7879  -22.0317   20.1344 H   0  0  0  0  0  0
  -27.8237  -24.7273   19.9786 H   0  0  0  0  0  0
  -28.1039  -25.5253   18.4489 H   0  0  0  0  0  0
  -28.9483  -15.3016   21.1299 H   0  0  0  0  0  0
  -31.1217  -21.6453   21.7021 H   0  0  0  0  0  0
  1 25  1  0  0  0
  1 30  2  0  0  0
  1 86  1  0  0  0
  2  3  1  0  0  0
  2 25  1  0  0  0
  2 89  1  0  0  0
  2 90  1  0  0  0
  3  4  1  0  0  0
  3 91  1  0  0  0
  3 92  1  0  0  0
  4  5  1  0  0  0
  4 93  1  0  0  0
  4 94  1  0  0  0
  5  6  1  0  0  0
  5 26  1  0  0  0
  5 95  1  0  0  0
  6 25  1  0  0  0
  6 96  1  0  0  0
  6 97  1  0  0  0
  7  8  2  0  0  0
  7 26  1  0  0  0
  7 29  1  0  0  0
  8  9  1  0  0  0
  8 22  1  0  0  0
  9 10  1  0  0  0
  9 27  2  0  0  0
 10 11  2  0  0  0
 10 15  1  0  0  0
 11 12  1  0  0  0
 11 98  1  0  0  0
 12 13  2  0  0  0
 12 99  1  0  0  0
 13 14  1  0  0  0
 13 31  1  0  0  0
 14 15  2  0  0  0
 14100  1  0  0  0
 15101  1  0  0  0
 16 17  2  0  0  0
 16 21  1  0  0  0
 16 31  1  0  0  0
 17 18  1  0  0  0
 17102  1  0  0  0
 18 19  2  0  0  0
 18103  1  0  0  0
 19 20  1  0  0  0
 19 24  1  0  0  0
 20 21  2  0  0  0
 20104  1  0  0  0
 21 23  1  0  0  0
 22 28  1  0  0  0
 22 32  2  0  0  0
 26 27  1  0  0  0
 28105  1  0  0  0
 28106  1  0  0  0
 29107  1  0  0  0
 29108  1  0  0  0
 33 34  1  0  0  0
 33 66  1  0  0  0
 33 70  2  0  0  0
 34 36  1  0  0  0
 34 59  1  0  0  0
 34109  1  0  0  0
 35 44  2  0  0  0
 35 45  1  0  0  0
 35 68  1  0  0  0
 36 56  1  0  0  0
 36110  1  0  0  0
 37 39  1  0  0  0
 37 47  1  0  0  0
 37 66  1  0  0  0
 37111  1  0  0  0
 38 43  2  0  0  0
 38 46  1  0  0  0
 38 47  1  0  0  0
 39 64  1  0  0  0
 39 67  2  0  0  0
 40 52  1  0  0  0
 40 53  2  0  0  0
 40 58  1  0  0  0
 41112  1  0  0  0
 41113  1  0  0  0
 41114  1  0  0  0
 41 48  1  0  0  0
 42 43  1  0  0  0
 42 66  1  0  0  0
 42115  1  0  0  0
 42116  1  0  0  0
 43 44  1  0  0  0
 44117  1  0  0  0
 45 46  2  0  0  0
 45118  1  0  0  0
 46119  1  0  0  0
 47120  1  0  0  0
 47121  1  0  0  0
 48 56  1  0  0  0
 48 65  1  0  0  0
 48122  1  0  0  0
 49 50  1  0  0  0
 49 53  1  0  0  0
 49 64  1  0  0  0
 49123  1  0  0  0
 50 51  1  0  0  0
 50124  1  0  0  0
 50125  1  0  0  0
 51 52  1  0  0  0
 51126  1  0  0  0
 51127  1  0  0  0
 52128  1  0  0  0
 52129  1  0  0  0
 53 54  1  0  0  0
 54 55  2  0  0  0
 54130  1  0  0  0
 55 57  1  0  0  0
 55131  1  0  0  0
 56 69  2  0  0  0
 57 58  2  0  0  0
 57132  1  0  0  0
 58133  1  0  0  0
 59 60  1  0  0  0
 59 61  1  0  0  0
 59 62  1  0  0  0
 60134  1  0  0  0
 60135  1  0  0  0
 60136  1  0  0  0
 61137  1  0  0  0
 61138  1  0  0  0
 61139  1  0  0  0
 62140  1  0  0  0
 62141  1  0  0  0
 62142  1  0  0  0
 63 65  1  0  0  0
 63143  1  0  0  0
 63144  1  0  0  0
 63145  1  0  0  0
 64146  1  0  0  0
 65147  1  0  0  0
 68 84  1  0  0  0
 71 73  2  0  0  0
 71 76  1  0  0  0
 71148  1  0  0  0
 72 74  1  0  0  0
 72 75  2  0  0  0
 72149  1  0  0  0
 73 75  1  0  0  0
 73 78  1  0  0  0
 74 76  2  0  0  0
 74 82  1  0  0  0
 75 87  1  0  0  0
 76 86  1  0  0  0
 77 83  1  0  0  0
 77 85  1  0  0  0
 77 88  2  0  0  0
 78150  1  0  0  0
 78151  1  0  0  0
 78152  1  0  0  0
 79 82  1  0  0  0
 79153  1  0  0  0
 79154  1  0  0  0
 79155  1  0  0  0
 80156  1  0  0  0
 80157  1  0  0  0
 80158  1  0  0  0
 80 85  1  0  0  0
 81 85  1  0  0  0
 81159  1  0  0  0
 81160  1  0  0  0
 81161  1  0  0  0
 82162  1  0  0  0
 82163  1  0  0  0
 83 87  1  0  0  0
 83164  1  0  0  0
 83165  1  0  0  0
 84 85  1  0  0  0
 84166  1  0  0  0
 84167  1  0  0  0
 86168  1  0  0  0
 87169  1  0  0  0
M  ISO  4   1 100  68 101  84 101  86 100
M  END
> <chiral flag>
0

> <version>
0

> <s_m_source_file>
/data/baiqing/PycharmProjects/Reinvent-master-3.2/result/LINK_invent/BTK/process_docking_weight1_custom_product_contain_oxygen_bond_distance_aromatic_linkinvent_7_9_3/rearranged_h_0141.sdf

> <i_m_source_file_index>
11

> <r_mmod_Potential_Energy-OPLS-2005>
-23.0327320098877

> <r_mmod_Stretch_Energy-OPLS-2005>
47.1430778503418

> <r_mmod_Bend_Energy-OPLS-2005>
121.23429107666

> <r_mmod_Torsional_Energy-OPLS-2005>
240.195861816406

> <r_mmod_Improper_Torsional_Energy-OPLS-2005>
5.18901491165161

> <r_mmod_Van_der_Waal_Energy-OPLS-2005>
160.755493164062

> <r_mmod_Electrostatic_Energy-OPLS-2005>
-391.560852050781

> <r_mmod_Solvation_Energy-OPLS-2005>
-224.232452392578

> <b_mmod_Minimization_Converged-OPLS-2005>
0

> <r_mmod_RMS_Derivative-OPLS-2005>
2.27720236778259

$$$$
11
                    3D
 Structure written by MMmdl.
160168  0  0  1  0            999 V2000
  -30.6129  -14.6553   20.5030 C   0  0  0  0  0  0
  -30.4370  -12.4013   19.4601 C   0  0  0  0  0  0
  -29.5029  -12.5034   18.2328 C   0  0  0  0  0  0
  -28.0311  -12.3301   18.6527 C   0  0  0  0  0  0
  -27.6533  -13.2158   19.8690 C   0  0  2  0  0  0
  -28.6959  -13.0761   21.0008 C   0  0  0  0  0  0
  -25.2556  -13.8167   20.5729 C   0  0  0  0  0  0
  -24.1820  -13.0431   20.9193 C   0  0  0  0  0  0
  -24.6385  -11.6907   20.8761 C   0  0  0  0  0  0
  -23.9083  -10.4288   21.0423 C   0  0  0  0  0  0
  -24.3622   -9.4200   21.9196 C   0  0  0  0  0  0
  -23.6294   -8.2237   22.0764 C   0  0  0  0  0  0
  -22.4272   -8.0281   21.3545 C   0  0  0  0  0  0
  -21.9920   -9.0264   20.4656 C   0  0  0  0  0  0
  -22.7249  -10.2137   20.3061 C   0  0  0  0  0  0
  -21.6851   -6.0740   22.5288 C   0  0  0  0  0  0
  -21.4002   -6.5644   23.8227 C   0  0  0  0  0  0
  -21.3652   -5.6783   24.9178 C   0  0  0  0  0  0
  -21.6048   -4.3059   24.7227 C   0  0  0  0  0  0
  -21.8813   -3.8149   23.4347 C   0  0  0  0  0  0
  -21.9187   -4.6974   22.3403 C   0  0  0  0  0  0
  -22.7846  -13.5233   21.1870 C   0  0  0  0  0  0
  -22.1661   -4.2159   21.0982 F   0  0  0  0  0  0
  -21.5630   -3.4536   25.7739 F   0  0  0  0  0  0
  -30.0121  -13.4233   20.4417 N   0  0  0  0  0  0
  -26.2991  -12.9353   20.3375 N   0  0  0  0  0  0
  -25.9317  -11.6510   20.5807 N   0  0  0  0  0  0
  -22.0490  -12.8210   22.0419 N   0  0  0  0  0  0
  -25.4267  -15.1889   20.4162 N   0  0  0  0  0  0
  -31.7630  -14.8231   20.0891 O   0  0  0  0  0  0
  -21.6633   -6.8883   21.4252 O   0  0  0  0  0  0
  -22.3531  -14.5551   20.6730 O   0  0  0  0  0  0
  -24.6192  -31.8577   23.2009 C   0  0  0  0  0  0
  -25.9062  -32.4760   23.8306 C   0  0  1  0  0  0
  -27.2387  -27.3432   20.1238 C   0  0  0  0  0  0
  -25.5912  -33.8560   24.2249 N   0  0  0  0  0  0
  -23.4108  -30.4792   21.5406 C   0  0  2  0  0  0
  -24.8661  -28.9301   20.1125 C   0  0  0  0  0  0
  -22.7412  -29.4602   22.4910 C   0  0  0  0  0  0
  -18.0276  -28.1343   22.8451 C   0  0  0  0  0  0
  -24.1498  -36.7280   23.2642 C   0  0  0  0  0  0
  -25.9483  -30.7987   21.3663 C   0  0  0  0  0  0
  -26.0280  -29.4227   20.7201 C   0  0  0  0  0  0
  -27.2178  -28.6397   20.7191 C   0  0  0  0  0  0
  -26.0603  -26.8952   19.4918 C   0  0  0  0  0  0
  -24.8829  -27.6707   19.4905 C   0  0  0  0  0  0
  -23.6289  -29.8039   20.1593 C   0  0  0  0  0  0
  -25.4108  -36.3050   24.0328 C   0  0  1  0  0  0
  -20.5871  -28.3634   23.1276 C   0  0  2  0  0  0
  -20.6761  -26.9363   22.5387 C   0  0  0  0  0  0
  -19.5760  -26.6342   21.5175 C   0  0  0  0  0  0
  -18.1932  -26.7884   22.1576 C   0  0  0  0  0  0
  -19.1533  -28.8795   23.2866 C   0  0  0  0  0  0
  -18.9476  -30.1405   23.8871 C   0  0  0  0  0  0
  -17.6491  -30.6552   24.0552 C   0  0  0  0  0  0
  -25.9030  -34.9442   23.5076 C   0  0  0  0  0  0
  -16.5377  -29.9047   23.6347 C   0  0  0  0  0  0
  -16.7269  -28.6472   23.0336 C   0  0  0  0  0  0
  -26.4518  -31.6554   25.0643 C   0  0  0  0  0  0
  -25.3801  -31.3704   26.1424 C   0  0  0  0  0  0
  -27.0321  -30.2965   24.5999 C   0  0  0  0  0  0
  -27.6049  -32.4292   25.7461 C   0  0  0  0  0  0
  -27.5565  -37.1796   24.8462 C   0  0  0  0  0  0
  -21.4129  -29.3027   22.3690 N   0  0  0  0  0  0
  -26.4279  -37.3734   23.9410 N   0  0  0  0  0  0
  -24.6786  -31.0614   22.0936 N   0  0  0  0  0  0
  -23.4177  -28.8118   23.2940 O   0  0  0  0  0  0
  -28.3776  -26.5317   20.1189 O   0  0  0  0  0  0
  -26.5578  -34.8921   22.4624 O   0  0  0  0  0  0
  -23.5369  -32.1371   23.7355 O   0  0  0  0  0  0
  -29.2568  -19.4478   21.4744 C   0  0  0  0  0  0
  -30.1368  -19.1246   19.2649 C   0  0  0  0  0  0
  -29.3506  -18.0392   21.7117 C   0  0  0  0  0  0
  -29.6314  -20.0328   20.2355 C   0  0  0  0  0  0
  -29.8621  -17.1343   20.7291 C   0  0  0  0  0  0
  -30.2477  -17.7213   19.4919 C   0  0  0  0  0  0
  -28.9934  -22.5494   20.5289 C   0  0  0  0  0  0
  -28.8589  -17.5022   23.0463 C   0  0  0  0  0  0
  -28.3316  -23.8363   18.4246 C   0  0  0  0  0  0
  -30.4847  -24.3931   19.6030 C   0  0  0  0  0  0
  -28.2549  -25.1389   20.6006 C   0  0  0  0  0  0
  -29.0118  -23.9727   19.8052 C   0  0  0  0  0  0
  -29.5238  -21.4564   19.8869 N   0  0  0  0  0  0
  -29.8365  -15.6854   20.9693 N   0  0  0  0  0  0
  -28.5107  -22.4628   21.6590 O   0  0  0  0  0  0
  -30.6678  -16.9351   18.4718 F   0  0  0  0  0  0
  -31.4770  -12.5304   19.1547 H   0  0  0  0  0  0
  -30.3787  -11.4077   19.9060 H   0  0  0  0  0  0
  -29.7697  -11.7457   17.4945 H   0  0  0  0  0  0
  -29.6336  -13.4701   17.7450 H   0  0  0  0  0  0
  -27.8864  -11.2792   18.9080 H   0  0  0  0  0  0
  -27.3651  -12.5312   17.8131 H   0  0  0  0  0  0
  -27.6705  -14.2491   19.5213 H   0  0  0  0  0  0
  -28.7079  -12.0549   21.3847 H   0  0  0  0  0  0
  -28.4336  -13.7056   21.8519 H   0  0  0  0  0  0
  -25.2762   -9.5664   22.4782 H   0  0  0  0  0  0
  -24.0001   -7.4616   22.7463 H   0  0  0  0  0  0
  -21.0853   -8.8777   19.8948 H   0  0  0  0  0  0
  -22.3718  -10.9676   19.6175 H   0  0  0  0  0  0
  -21.1987   -7.6146   23.9728 H   0  0  0  0  0  0
  -21.1483   -6.0520   25.9085 H   0  0  0  0  0  0
  -22.0596   -2.7617   23.2842 H   0  0  0  0  0  0
  -22.4090  -11.9851   22.4769 H   0  0  0  0  0  0
  -21.1122  -13.1250   22.2663 H   0  0  0  0  0  0
  -24.6577  -15.8418   20.5205 H   0  0  0  0  0  0
  -26.2850  -15.6348   20.1165 H   0  0  0  0  0  0
  -26.7100  -32.5463   23.1030 H   0  0  0  0  0  0
  -25.0177  -33.9721   25.0479 H   0  0  0  0  0  0
  -22.7034  -31.2964   21.3904 H   0  0  0  0  0  0
  -23.3762  -35.9612   23.3271 H   0  0  0  0  0  0
  -24.3601  -36.8916   22.2061 H   0  0  0  0  0  0
  -23.7263  -37.6477   23.6688 H   0  0  0  0  0  0
  -26.0581  -31.5566   20.5898 H   0  0  0  0  0  0
  -26.8356  -30.8619   21.9826 H   0  0  0  0  0  0
  -28.1089  -29.0150   21.2037 H   0  0  0  0  0  0
  -26.0493  -25.9390   18.9896 H   0  0  0  0  0  0
  -23.9970  -27.2899   19.0038 H   0  0  0  0  0  0
  -23.7397  -30.5781   19.3986 H   0  0  0  0  0  0
  -22.7535  -29.2237   19.8603 H   0  0  0  0  0  0
  -25.1300  -36.1890   25.0818 H   0  0  0  0  0  0
  -20.9967  -28.3196   24.1391 H   0  0  0  0  0  0
  -20.5605  -26.2228   23.3562 H   0  0  0  0  0  0
  -21.6627  -26.7329   22.1223 H   0  0  0  0  0  0
  -19.6933  -25.6255   21.1184 H   0  0  0  0  0  0
  -19.6753  -27.3160   20.6729 H   0  0  0  0  0  0
  -17.4196  -26.6621   21.3991 H   0  0  0  0  0  0
  -18.0362  -26.0025   22.8967 H   0  0  0  0  0  0
  -19.7987  -30.7214   24.2193 H   0  0  0  0  0  0
  -17.5081  -31.6250   24.5127 H   0  0  0  0  0  0
  -15.5383  -30.2960   23.7689 H   0  0  0  0  0  0
  -15.8666  -28.0816   22.7028 H   0  0  0  0  0  0
  -24.5985  -30.6992   25.7813 H   0  0  0  0  0  0
  -24.9024  -32.2908   26.4798 H   0  0  0  0  0  0
  -25.8218  -30.8962   27.0202 H   0  0  0  0  0  0
  -26.2815  -29.6721   24.1106 H   0  0  0  0  0  0
  -27.4165  -29.7172   25.4411 H   0  0  0  0  0  0
  -27.8639  -30.4246   23.9061 H   0  0  0  0  0  0
  -27.2605  -33.3620   26.1942 H   0  0  0  0  0  0
  -28.3965  -32.6774   25.0375 H   0  0  0  0  0  0
  -28.0583  -31.8459   26.5489 H   0  0  0  0  0  0
  -28.2545  -38.0118   24.7470 H   0  0  0  0  0  0
  -28.1100  -36.2639   24.6334 H   0  0  0  0  0  0
  -27.2293  -37.1470   25.8867 H   0  0  0  0  0  0
  -20.9239  -29.8827   21.7024 H   0  0  0  0  0  0
  -26.0162  -38.2790   24.1445 H   0  0  0  0  0  0
  -28.8705  -20.0811   22.2607 H   0  0  0  0  0  0
  -30.4259  -19.5002   18.2944 H   0  0  0  0  0  0
  -28.5958  -18.3080   23.7329 H   0  0  0  0  0  0
  -29.6205  -16.8885   23.5288 H   0  0  0  0  0  0
  -27.9664  -16.8941   22.8974 H   0  0  0  0  0  0
  -28.3220  -24.7931   17.8966 H   0  0  0  0  0  0
  -27.2967  -23.5090   18.5228 H   0  0  0  0  0  0
  -28.8432  -23.1239   17.7747 H   0  0  0  0  0  0
  -31.0647  -23.6395   19.0684 H   0  0  0  0  0  0
  -30.9790  -24.5802   20.5583 H   0  0  0  0  0  0
  -30.5510  -25.3122   19.0203 H   0  0  0  0  0  0
  -28.6377  -25.1583   21.6210 H   0  0  0  0  0  0
  -27.2069  -24.8576   20.7111 H   0  0  0  0  0  0
  -29.8858  -21.6891   18.9738 H   0  0  0  0  0  0
  -29.0236  -15.3687   21.4730 H   0  0  0  0  0  0
  1 25  1  0  0  0
  1 30  2  0  0  0
  1 84  1  0  0  0
  2  3  1  0  0  0
  2 25  1  0  0  0
  2 87  1  0  0  0
  2 88  1  0  0  0
  3  4  1  0  0  0
  3 89  1  0  0  0
  3 90  1  0  0  0
  4  5  1  0  0  0
  4 91  1  0  0  0
  4 92  1  0  0  0
  5  6  1  0  0  0
  5 26  1  0  0  0
  5 93  1  0  0  0
  6 25  1  0  0  0
  6 94  1  0  0  0
  6 95  1  0  0  0
  7  8  2  0  0  0
  7 26  1  0  0  0
  7 29  1  0  0  0
  8  9  1  0  0  0
  8 22  1  0  0  0
  9 10  1  0  0  0
  9 27  2  0  0  0
 10 11  2  0  0  0
 10 15  1  0  0  0
 11 12  1  0  0  0
 11 96  1  0  0  0
 12 13  2  0  0  0
 12 97  1  0  0  0
 13 14  1  0  0  0
 13 31  1  0  0  0
 14 15  2  0  0  0
 14 98  1  0  0  0
 15 99  1  0  0  0
 16 17  2  0  0  0
 16 21  1  0  0  0
 16 31  1  0  0  0
 17 18  1  0  0  0
 17100  1  0  0  0
 18 19  2  0  0  0
 18101  1  0  0  0
 19 20  1  0  0  0
 19 24  1  0  0  0
 20 21  2  0  0  0
 20102  1  0  0  0
 21 23  1  0  0  0
 22 28  1  0  0  0
 22 32  2  0  0  0
 26 27  1  0  0  0
 28103  1  0  0  0
 28104  1  0  0  0
 29105  1  0  0  0
 29106  1  0  0  0
 33 34  1  0  0  0
 33 66  1  0  0  0
 33 70  2  0  0  0
 34 36  1  0  0  0
 34 59  1  0  0  0
 34107  1  0  0  0
 35 44  2  0  0  0
 35 45  1  0  0  0
 35 68  1  0  0  0
 36 56  1  0  0  0
 36108  1  0  0  0
 37 39  1  0  0  0
 37 47  1  0  0  0
 37 66  1  0  0  0
 37109  1  0  0  0
 38 43  2  0  0  0
 38 46  1  0  0  0
 38 47  1  0  0  0
 39 64  1  0  0  0
 39 67  2  0  0  0
 40 52  1  0  0  0
 40 53  2  0  0  0
 40 58  1  0  0  0
 41110  1  0  0  0
 41111  1  0  0  0
 41112  1  0  0  0
 41 48  1  0  0  0
 42 43  1  0  0  0
 42 66  1  0  0  0
 42113  1  0  0  0
 42114  1  0  0  0
 43 44  1  0  0  0
 44115  1  0  0  0
 45 46  2  0  0  0
 45116  1  0  0  0
 46117  1  0  0  0
 47118  1  0  0  0
 47119  1  0  0  0
 48 56  1  0  0  0
 48 65  1  0  0  0
 48120  1  0  0  0
 49 50  1  0  0  0
 49 53  1  0  0  0
 49 64  1  0  0  0
 49121  1  0  0  0
 50 51  1  0  0  0
 50122  1  0  0  0
 50123  1  0  0  0
 51 52  1  0  0  0
 51124  1  0  0  0
 51125  1  0  0  0
 52126  1  0  0  0
 52127  1  0  0  0
 53 54  1  0  0  0
 54 55  2  0  0  0
 54128  1  0  0  0
 55 57  1  0  0  0
 55129  1  0  0  0
 56 69  2  0  0  0
 57 58  2  0  0  0
 57130  1  0  0  0
 58131  1  0  0  0
 59 60  1  0  0  0
 59 61  1  0  0  0
 59 62  1  0  0  0
 60132  1  0  0  0
 60133  1  0  0  0
 60134  1  0  0  0
 61135  1  0  0  0
 61136  1  0  0  0
 61137  1  0  0  0
 62138  1  0  0  0
 62139  1  0  0  0
 62140  1  0  0  0
 63 65  1  0  0  0
 63141  1  0  0  0
 63142  1  0  0  0
 63143  1  0  0  0
 64144  1  0  0  0
 65145  1  0  0  0
 68 81  1  0  0  0
 71 73  2  0  0  0
 71 74  1  0  0  0
 71146  1  0  0  0
 72 74  2  0  0  0
 72 76  1  0  0  0
 72147  1  0  0  0
 73 75  1  0  0  0
 73 78  1  0  0  0
 74 83  1  0  0  0
 75 76  2  0  0  0
 75 84  1  0  0  0
 76 86  1  0  0  0
 77 82  1  0  0  0
 77 83  1  0  0  0
 77 85  2  0  0  0
 78148  1  0  0  0
 78149  1  0  0  0
 78150  1  0  0  0
 79151  1  0  0  0
 79152  1  0  0  0
 79153  1  0  0  0
 79 82  1  0  0  0
 80 82  1  0  0  0
 80154  1  0  0  0
 80155  1  0  0  0
 80156  1  0  0  0
 81 82  1  0  0  0
 81157  1  0  0  0
 81158  1  0  0  0
 83159  1  0  0  0
 84160  1  0  0  0
M  ISO  4   1 100  68 101  81 101  84 100
M  END
> <chiral flag>
0

> <version>
0

> <s_m_source_file>
/data/baiqing/PycharmProjects/Reinvent-master-3.2/result/LINK_invent/BTK/process_docking_weight1_custom_product_contain_oxygen_bond_distance_aromatic_linkinvent_7_9_3/rearranged_h_0141.sdf

> <i_m_source_file_index>
12

> <r_mmod_Potential_Energy-OPLS-2005>
16.6740493774414

> <r_mmod_Stretch_Energy-OPLS-2005>
83.2309341430664

> <r_mmod_Bend_Energy-OPLS-2005>
139.787704467773

> <r_mmod_Torsional_Energy-OPLS-2005>
268.896728515625

> <r_mmod_Improper_Torsional_Energy-OPLS-2005>
3.25900650024414

> <r_mmod_Van_der_Waal_Energy-OPLS-2005>
141.803497314453

> <r_mmod_Electrostatic_Energy-OPLS-2005>
-441.432312011719

> <r_mmod_Solvation_Energy-OPLS-2005>
-223.117065429688

> <b_mmod_Minimization_Converged-OPLS-2005>
0

> <r_mmod_RMS_Derivative-OPLS-2005>
3.1735143661499

$$$$
12
                    3D
 Structure written by MMmdl.
163172  0  0  1  0            999 V2000
  -30.6415  -14.8179   20.4809 C   0  0  0  0  0  0
  -30.4308  -12.5042   19.5296 C   0  0  0  0  0  0
  -29.5227  -12.4883   18.2801 C   0  0  0  0  0  0
  -28.0464  -12.3152   18.6792 C   0  0  0  0  0  0
  -27.6327  -13.2507   19.8425 C   0  0  2  0  0  0
  -28.6707  -13.2533   20.9872 C   0  0  0  0  0  0
  -25.2467  -13.8285   20.5743 C   0  0  0  0  0  0
  -24.1729  -13.0455   20.9234 C   0  0  0  0  0  0
  -24.6369  -11.6979   20.8792 C   0  0  0  0  0  0
  -23.9082  -10.4300   21.0424 C   0  0  0  0  0  0
  -24.3648   -9.4218   21.9192 C   0  0  0  0  0  0
  -23.6291   -8.2267   22.0781 C   0  0  0  0  0  0
  -22.4289   -8.0289   21.3546 C   0  0  0  0  0  0
  -21.9898   -9.0283   20.4679 C   0  0  0  0  0  0
  -22.7263  -10.2136   20.3082 C   0  0  0  0  0  0
  -21.6846   -6.0755   22.5292 C   0  0  0  0  0  0
  -21.4023   -6.5670   23.8213 C   0  0  0  0  0  0
  -21.3653   -5.6810   24.9188 C   0  0  0  0  0  0
  -21.6052   -4.3070   24.7217 C   0  0  0  0  0  0
  -21.8808   -3.8172   23.4356 C   0  0  0  0  0  0
  -21.9188   -4.6979   22.3406 C   0  0  0  0  0  0
  -22.7753  -13.5231   21.1833 C   0  0  0  0  0  0
  -22.1660   -4.2179   21.0981 F   0  0  0  0  0  0
  -21.5606   -3.4552   25.7738 F   0  0  0  0  0  0
  -29.9740  -13.6067   20.4118 N   0  0  0  0  0  0
  -26.2873  -12.9489   20.3245 N   0  0  0  0  0  0
  -25.9291  -11.6633   20.5781 N   0  0  0  0  0  0
  -22.0399  -12.8194   22.0426 N   0  0  0  0  0  0
  -25.4108  -15.1996   20.4275 N   0  0  0  0  0  0
  -31.8477  -14.8199   20.2173 O   0  0  0  0  0  0
  -21.6639   -6.8877   21.4229 O   0  0  0  0  0  0
  -22.3428  -14.5488   20.6635 O   0  0  0  0  0  0
  -24.6251  -31.8645   23.1863 C   0  0  0  0  0  0
  -25.9065  -32.4810   23.8320 C   0  0  1  0  0  0
  -27.2934  -27.2694   20.1786 C   0  0  0  0  0  0
  -25.5866  -33.8594   24.2206 N   0  0  0  0  0  0
  -23.4267  -30.4739   21.5247 C   0  0  2  0  0  0
  -24.8955  -28.9016   20.1408 C   0  0  0  0  0  0
  -22.7444  -29.4714   22.4855 C   0  0  0  0  0  0
  -18.0301  -28.1477   22.8495 C   0  0  0  0  0  0
  -24.1498  -36.7155   23.2638 C   0  0  0  0  0  0
  -25.9742  -30.7850   21.3648 C   0  0  0  0  0  0
  -26.0678  -29.3998   20.7229 C   0  0  0  0  0  0
  -27.2585  -28.6002   20.7273 C   0  0  0  0  0  0
  -26.0812  -26.8404   19.5750 C   0  0  0  0  0  0
  -24.9040  -27.6186   19.5790 C   0  0  0  0  0  0
  -23.6555  -29.7739   20.1582 C   0  0  0  0  0  0
  -25.4157  -36.3082   24.0334 C   0  0  1  0  0  0
  -20.5912  -28.3747   23.1195 C   0  0  2  0  0  0
  -20.6746  -26.9462   22.5356 C   0  0  0  0  0  0
  -19.5729  -26.6463   21.5154 C   0  0  0  0  0  0
  -18.1933  -26.8014   22.1616 C   0  0  0  0  0  0
  -19.1579  -28.8925   23.2854 C   0  0  0  0  0  0
  -18.9534  -30.1524   23.8880 C   0  0  0  0  0  0
  -17.6547  -30.6673   24.0623 C   0  0  0  0  0  0
  -25.9112  -34.9473   23.5085 C   0  0  0  0  0  0
  -16.5410  -29.9207   23.6399 C   0  0  0  0  0  0
  -16.7300  -28.6630   23.0390 C   0  0  0  0  0  0
  -26.4440  -31.6613   25.0705 C   0  0  0  0  0  0
  -25.3589  -31.3744   26.1328 C   0  0  0  0  0  0
  -27.0208  -30.3009   24.6159 C   0  0  0  0  0  0
  -27.5999  -32.4286   25.7562 C   0  0  0  0  0  0
  -27.5589  -37.1748   24.8531 C   0  0  0  0  0  0
  -21.4180  -29.3072   22.3533 N   0  0  0  0  0  0
  -26.4331  -37.3787   23.9444 N   0  0  0  0  0  0
  -24.6921  -31.0635   22.0802 N   0  0  0  0  0  0
  -23.4130  -28.8368   23.3058 O   0  0  0  0  0  0
  -28.4510  -26.4318   20.2906 O   0  0  0  0  0  0
  -26.5750  -34.8953   22.4697 O   0  0  0  0  0  0
  -23.5392  -32.1445   23.7122 O   0  0  0  0  0  0
  -31.1382  -20.1045   19.4810 C   0  0  0  0  0  0
  -31.3456  -17.6551   19.3808 C   0  0  0  0  0  0
  -29.6786  -18.6795   20.8131 C   0  0  0  0  0  0
  -31.7446  -18.9429   18.9738 C   0  0  0  0  0  0
  -30.0478  -20.0338   20.3733 C   0  0  0  0  0  0
  -30.3235  -17.4453   20.3375 C   0  0  0  0  0  0
  -29.9378  -23.4455   22.1486 C   0  0  0  0  0  0
  -29.8220  -24.1997   20.8193 C   0  0  2  0  0  0
  -32.7860  -19.0860   17.8858 C   0  0  0  0  0  0
  -28.4248  -24.6020   18.7043 C   0  0  0  0  0  0
  -27.3569  -24.3637   21.1255 C   0  0  0  0  0  0
  -29.2989  -21.4317   20.6763 C   0  0  0  0  0  0
  -28.4899  -24.9053   20.2324 C   0  0  0  0  0  0
  -29.9432  -16.0234   20.6666 N   0  0  0  0  0  0
  -30.1517  -22.6943   20.9105 N   0  3  1  0  0  0
  -31.4684  -12.6211   19.2219 H   0  0  0  0  0  0
  -30.3914  -11.5575   20.0719 H   0  0  0  0  0  0
  -29.8297  -11.6830   17.6123 H   0  0  0  0  0  0
  -29.6463  -13.4192   17.7268 H   0  0  0  0  0  0
  -27.9027  -11.2730   18.9750 H   0  0  0  0  0  0
  -27.3964  -12.4847   17.8178 H   0  0  0  0  0  0
  -27.6023  -14.2566   19.4205 H   0  0  0  0  0  0
  -28.7110  -12.2855   21.4853 H   0  0  0  0  0  0
  -28.3764  -13.9765   21.7477 H   0  0  0  0  0  0
  -25.2783   -9.5690   22.4783 H   0  0  0  0  0  0
  -23.9999   -7.4663   22.7530 H   0  0  0  0  0  0
  -21.0816   -8.8815   19.8999 H   0  0  0  0  0  0
  -22.3732  -10.9675   19.6207 H   0  0  0  0  0  0
  -21.2029   -7.6181   23.9714 H   0  0  0  0  0  0
  -21.1472   -6.0553   25.9065 H   0  0  0  0  0  0
  -22.0585   -2.7637   23.2834 H   0  0  0  0  0  0
  -22.4026  -11.9856   22.4776 H   0  0  0  0  0  0
  -21.1071  -13.1244   22.2744 H   0  0  0  0  0  0
  -24.6409  -15.8460   20.5642 H   0  0  0  0  0  0
  -26.2479  -15.6475   20.0755 H   0  0  0  0  0  0
  -26.7154  -32.5591   23.1108 H   0  0  0  0  0  0
  -24.9868  -33.9759   25.0245 H   0  0  0  0  0  0
  -22.7221  -31.2881   21.3475 H   0  0  0  0  0  0
  -23.3894  -35.9366   23.3375 H   0  0  0  0  0  0
  -24.3558  -36.8664   22.2038 H   0  0  0  0  0  0
  -23.7093  -37.6296   23.6612 H   0  0  0  0  0  0
  -26.1053  -31.5492   20.5970 H   0  0  0  0  0  0
  -26.8420  -30.8497   22.0067 H   0  0  0  0  0  0
  -28.1475  -28.9991   21.2004 H   0  0  0  0  0  0
  -25.9811  -25.8556   19.1514 H   0  0  0  0  0  0
  -23.9875  -27.1972   19.1886 H   0  0  0  0  0  0
  -23.7764  -30.5178   19.3703 H   0  0  0  0  0  0
  -22.7854  -29.1734   19.8774 H   0  0  0  0  0  0
  -25.1335  -36.1943   25.0821 H   0  0  0  0  0  0
  -21.0049  -28.3390   24.1285 H   0  0  0  0  0  0
  -20.5594  -26.2397   23.3589 H   0  0  0  0  0  0
  -21.6633  -26.7469   22.1187 H   0  0  0  0  0  0
  -19.6908  -25.6375   21.1197 H   0  0  0  0  0  0
  -19.6695  -27.3277   20.6692 H   0  0  0  0  0  0
  -17.4154  -26.6754   21.4072 H   0  0  0  0  0  0
  -18.0418  -26.0188   22.9056 H   0  0  0  0  0  0
  -19.8024  -30.7361   24.2198 H   0  0  0  0  0  0
  -17.5143  -31.6362   24.5238 H   0  0  0  0  0  0
  -15.5434  -30.3144   23.7750 H   0  0  0  0  0  0
  -15.8674  -28.0964   22.7118 H   0  0  0  0  0  0
  -24.5881  -30.6994   25.7599 H   0  0  0  0  0  0
  -24.8665  -32.2895   26.4643 H   0  0  0  0  0  0
  -25.7872  -30.9010   27.0162 H   0  0  0  0  0  0
  -26.2798  -29.6905   24.0979 H   0  0  0  0  0  0
  -27.3633  -29.7138   25.4690 H   0  0  0  0  0  0
  -27.8810  -30.4263   23.9564 H   0  0  0  0  0  0
  -27.2639  -33.3631   26.2067 H   0  0  0  0  0  0
  -28.3955  -32.6698   25.0499 H   0  0  0  0  0  0
  -28.0487  -31.8379   26.5558 H   0  0  0  0  0  0
  -28.2714  -37.9946   24.7585 H   0  0  0  0  0  0
  -28.0982  -36.2505   24.6439 H   0  0  0  0  0  0
  -27.2282  -37.1441   25.8920 H   0  0  0  0  0  0
  -20.9382  -29.8619   21.6583 H   0  0  0  0  0  0
  -26.0238  -38.2875   24.1454 H   0  0  0  0  0  0
  -31.4936  -21.0640   19.1244 H   0  0  0  0  0  0
  -31.8253  -16.8173   18.8944 H   0  0  0  0  0  0
  -28.8666  -18.5989   21.5209 H   0  0  0  0  0  0
  -29.0620  -23.1229   22.7091 H   0  0  0  0  0  0
  -30.8722  -23.4956   22.7112 H   0  0  0  0  0  0
  -30.7333  -24.7196   20.5299 H   0  0  0  0  0  0
  -33.7664  -18.7638   18.2299 H   0  0  0  0  0  0
  -32.8463  -20.1107   17.5199 H   0  0  0  0  0  0
  -32.5141  -18.4651   17.0343 H   0  0  0  0  0  0
  -29.2646  -25.0611   18.1720 H   0  0  0  0  0  0
  -28.4651  -23.5436   18.4600 H   0  0  0  0  0  0
  -27.5371  -24.9838   18.2070 H   0  0  0  0  0  0
  -27.3577  -23.2748   21.1432 H   0  0  0  0  0  0
  -26.3477  -24.7017   20.9227 H   0  0  0  0  0  0
  -27.5646  -24.6949   22.1432 H   0  0  0  0  0  0
  -28.5586  -21.2699   21.4617 H   0  0  0  0  0  0
  -28.7242  -21.6775   19.7840 H   0  0  0  0  0  0
  -28.9792  -15.8983   20.9403 H   0  0  0  0  0  0
  -31.1378  -22.5269   20.8012 H   0  0  0  0  0  0
  1 25  1  0  0  0
  1 30  2  0  0  0
  1 84  1  0  0  0
  2  3  1  0  0  0
  2 25  1  0  0  0
  2 86  1  0  0  0
  2 87  1  0  0  0
  3  4  1  0  0  0
  3 88  1  0  0  0
  3 89  1  0  0  0
  4  5  1  0  0  0
  4 90  1  0  0  0
  4 91  1  0  0  0
  5  6  1  0  0  0
  5 26  1  0  0  0
  5 92  1  0  0  0
  6 25  1  0  0  0
  6 93  1  0  0  0
  6 94  1  0  0  0
  7  8  2  0  0  0
  7 26  1  0  0  0
  7 29  1  0  0  0
  8  9  1  0  0  0
  8 22  1  0  0  0
  9 10  1  0  0  0
  9 27  2  0  0  0
 10 11  2  0  0  0
 10 15  1  0  0  0
 11 12  1  0  0  0
 11 95  1  0  0  0
 12 13  2  0  0  0
 12 96  1  0  0  0
 13 14  1  0  0  0
 13 31  1  0  0  0
 14 15  2  0  0  0
 14 97  1  0  0  0
 15 98  1  0  0  0
 16 17  2  0  0  0
 16 21  1  0  0  0
 16 31  1  0  0  0
 17 18  1  0  0  0
 17 99  1  0  0  0
 18 19  2  0  0  0
 18100  1  0  0  0
 19 20  1  0  0  0
 19 24  1  0  0  0
 20 21  2  0  0  0
 20101  1  0  0  0
 21 23  1  0  0  0
 22 28  1  0  0  0
 22 32  2  0  0  0
 26 27  1  0  0  0
 28102  1  0  0  0
 28103  1  0  0  0
 29104  1  0  0  0
 29105  1  0  0  0
 33 34  1  0  0  0
 33 66  1  0  0  0
 33 70  2  0  0  0
 34 36  1  0  0  0
 34 59  1  0  0  0
 34106  1  0  0  0
 35 44  2  0  0  0
 35 45  1  0  0  0
 35 68  1  0  0  0
 36 56  1  0  0  0
 36107  1  0  0  0
 37 39  1  0  0  0
 37 47  1  0  0  0
 37 66  1  0  0  0
 37108  1  0  0  0
 38 43  2  0  0  0
 38 46  1  0  0  0
 38 47  1  0  0  0
 39 64  1  0  0  0
 39 67  2  0  0  0
 40 52  1  0  0  0
 40 53  2  0  0  0
 40 58  1  0  0  0
 41109  1  0  0  0
 41110  1  0  0  0
 41111  1  0  0  0
 41 48  1  0  0  0
 42 43  1  0  0  0
 42 66  1  0  0  0
 42112  1  0  0  0
 42113  1  0  0  0
 43 44  1  0  0  0
 44114  1  0  0  0
 45 46  2  0  0  0
 45115  1  0  0  0
 46116  1  0  0  0
 47117  1  0  0  0
 47118  1  0  0  0
 48 56  1  0  0  0
 48 65  1  0  0  0
 48119  1  0  0  0
 49 50  1  0  0  0
 49 53  1  0  0  0
 49 64  1  0  0  0
 49120  1  0  0  0
 50 51  1  0  0  0
 50121  1  0  0  0
 50122  1  0  0  0
 51 52  1  0  0  0
 51123  1  0  0  0
 51124  1  0  0  0
 52125  1  0  0  0
 52126  1  0  0  0
 53 54  1  0  0  0
 54 55  2  0  0  0
 54127  1  0  0  0
 55 57  1  0  0  0
 55128  1  0  0  0
 56 69  2  0  0  0
 57 58  2  0  0  0
 57129  1  0  0  0
 58130  1  0  0  0
 59 60  1  0  0  0
 59 61  1  0  0  0
 59 62  1  0  0  0
 60131  1  0  0  0
 60132  1  0  0  0
 60133  1  0  0  0
 61134  1  0  0  0
 61135  1  0  0  0
 61136  1  0  0  0
 62137  1  0  0  0
 62138  1  0  0  0
 62139  1  0  0  0
 63 65  1  0  0  0
 63140  1  0  0  0
 63141  1  0  0  0
 63142  1  0  0  0
 64143  1  0  0  0
 65144  1  0  0  0
 68 83  1  0  0  0
 71 74  2  0  0  0
 71 75  1  0  0  0
 71145  1  0  0  0
 72 74  1  0  0  0
 72 76  2  0  0  0
 72146  1  0  0  0
 73 75  2  0  0  0
 73 76  1  0  0  0
 73147  1  0  0  0
 74 79  1  0  0  0
 75 82  1  0  0  0
 76 84  1  0  0  0
 77 85  1  0  0  0
 77148  1  0  0  0
 77149  1  0  0  0
 77 78  1  0  0  0
 78 83  1  0  0  0
 78 85  1  0  0  0
 78150  1  0  0  0
 79151  1  0  0  0
 79152  1  0  0  0
 79153  1  0  0  0
 80154  1  0  0  0
 80155  1  0  0  0
 80156  1  0  0  0
 80 83  1  0  0  0
 81 83  1  0  0  0
 81157  1  0  0  0
 81158  1  0  0  0
 81159  1  0  0  0
 82160  1  0  0  0
 82161  1  0  0  0
 82 85  1  0  0  0
 84162  1  0  0  0
 85163  1  0  0  0
M  CHG  1  85   1
M  ISO  4   1 100  68 101  83 101  84 100
M  END
> <chiral flag>
0

> <version>
0

> <s_m_source_file>
/data/baiqing/PycharmProjects/Reinvent-master-3.2/result/LINK_invent/BTK/process_docking_weight1_custom_product_contain_oxygen_bond_distance_aromatic_linkinvent_7_9_3/rearranged_h_0141.sdf

> <i_m_source_file_index>
13

> <r_mmod_Potential_Energy-OPLS-2005>
173.857299804688

> <r_mmod_Stretch_Energy-OPLS-2005>
166.985626220703

> <r_mmod_Bend_Energy-OPLS-2005>
258.487854003906

> <r_mmod_Torsional_Energy-OPLS-2005>
274.5146484375

> <r_mmod_Improper_Torsional_Energy-OPLS-2005>
4.81563377380371

> <r_mmod_Van_der_Waal_Energy-OPLS-2005>
153.117782592773

> <r_mmod_Electrostatic_Energy-OPLS-2005>
-329.10107421875

> <r_mmod_Solvation_Energy-OPLS-2005>
-463.975494384766

> <b_mmod_Minimization_Converged-OPLS-2005>
0

> <r_mmod_RMS_Derivative-OPLS-2005>
11.1185455322266

$$$$
13
                    3D
 Structure written by MMmdl.
171179  0  0  1  0            999 V2000
  -30.7167  -14.4843   20.5113 C   0  0  0  0  0  0
  -30.4114  -12.2989   19.4359 C   0  0  0  0  0  0
  -29.4945  -12.4928   18.2112 C   0  0  0  0  0  0
  -28.0140  -12.3644   18.6203 C   0  0  0  0  0  0
  -27.6566  -13.2169   19.8684 C   0  0  2  0  0  0
  -28.7008  -13.0404   20.9949 C   0  0  0  0  0  0
  -25.2559  -13.8190   20.5693 C   0  0  0  0  0  0
  -24.1824  -13.0457   20.9194 C   0  0  0  0  0  0
  -24.6390  -11.6924   20.8752 C   0  0  0  0  0  0
  -23.9057  -10.4307   21.0406 C   0  0  0  0  0  0
  -24.3614   -9.4223   21.9182 C   0  0  0  0  0  0
  -23.6298   -8.2257   22.0752 C   0  0  0  0  0  0
  -22.4279   -8.0292   21.3544 C   0  0  0  0  0  0
  -21.9914   -9.0262   20.4641 C   0  0  0  0  0  0
  -22.7234  -10.2144   20.3053 C   0  0  0  0  0  0
  -21.6853   -6.0741   22.5285 C   0  0  0  0  0  0
  -21.4009   -6.5640   23.8218 C   0  0  0  0  0  0
  -21.3661   -5.6792   24.9181 C   0  0  0  0  0  0
  -21.6047   -4.3057   24.7229 C   0  0  0  0  0  0
  -21.8819   -3.8148   23.4350 C   0  0  0  0  0  0
  -21.9192   -4.6968   22.3405 C   0  0  0  0  0  0
  -22.7845  -13.5242   21.1864 C   0  0  0  0  0  0
  -22.1661   -4.2150   21.0985 F   0  0  0  0  0  0
  -21.5633   -3.4543   25.7741 F   0  0  0  0  0  0
  -30.0295  -13.3141   20.4299 N   0  0  0  0  0  0
  -26.3001  -12.9382   20.3352 N   0  0  0  0  0  0
  -25.9318  -11.6530   20.5768 N   0  0  0  0  0  0
  -22.0472  -12.8237   22.0408 N   0  0  0  0  0  0
  -25.4281  -15.1919   20.4098 N   0  0  0  0  0  0
  -31.8941  -14.5680   20.1543 O   0  0  0  0  0  0
  -21.6651   -6.8888   21.4242 O   0  0  0  0  0  0
  -22.3534  -14.5557   20.6717 O   0  0  0  0  0  0
  -24.6178  -31.8649   23.2084 C   0  0  0  0  0  0
  -25.9065  -32.4788   23.8376 C   0  0  1  0  0  0
  -27.2201  -27.3999   20.1087 C   0  0  0  0  0  0
  -25.5931  -33.8592   24.2302 N   0  0  0  0  0  0
  -23.4048  -30.4879   21.5514 C   0  0  2  0  0  0
  -24.8458  -28.9498   20.1154 C   0  0  0  0  0  0
  -22.7427  -29.4648   22.5017 C   0  0  0  0  0  0
  -18.0273  -28.1375   22.8474 C   0  0  0  0  0  0
  -24.1501  -36.7309   23.2632 C   0  0  0  0  0  0
  -25.9366  -30.8187   21.3687 C   0  0  0  0  0  0
  -26.0070  -29.4520   20.7135 C   0  0  0  0  0  0
  -27.1945  -28.6840   20.7064 C   0  0  0  0  0  0
  -26.0397  -26.9224   19.4974 C   0  0  0  0  0  0
  -24.8572  -27.6840   19.5061 C   0  0  0  0  0  0
  -23.6112  -29.8188   20.1663 C   0  0  0  0  0  0
  -25.4113  -36.3074   24.0322 C   0  0  1  0  0  0
  -20.5860  -28.3660   23.1325 C   0  0  2  0  0  0
  -20.6775  -26.9406   22.5414 C   0  0  0  0  0  0
  -19.5759  -26.6375   21.5216 C   0  0  0  0  0  0
  -18.1927  -26.7923   22.1609 C   0  0  0  0  0  0
  -19.1521  -28.8841   23.2874 C   0  0  0  0  0  0
  -18.9458  -30.1451   23.8882 C   0  0  0  0  0  0
  -17.6463  -30.6578   24.0570 C   0  0  0  0  0  0
  -25.9036  -34.9449   23.5098 C   0  0  0  0  0  0
  -16.5348  -29.9071   23.6349 C   0  0  0  0  0  0
  -16.7263  -28.6492   23.0350 C   0  0  0  0  0  0
  -26.4500  -31.6586   25.0724 C   0  0  0  0  0  0
  -25.3764  -31.3724   26.1482 C   0  0  0  0  0  0
  -27.0368  -30.3022   24.6137 C   0  0  0  0  0  0
  -27.6039  -32.4358   25.7503 C   0  0  0  0  0  0
  -27.5589  -37.1794   24.8453 C   0  0  0  0  0  0
  -21.4158  -29.3027   22.3754 N   0  0  0  0  0  0
  -26.4293  -37.3762   23.9402 N   0  0  0  0  0  0
  -24.6710  -31.0726   22.1003 N   0  0  0  0  0  0
  -23.4187  -28.8205   23.3083 O   0  0  0  0  0  0
  -28.3966  -26.6742   20.1614 O   0  0  0  0  0  0
  -26.5596  -34.8919   22.4661 O   0  0  0  0  0  0
  -23.5373  -32.1438   23.7468 O   0  0  0  0  0  0
  -31.5909  -18.6430   19.2838 C   0  0  0  0  0  0
  -31.0673  -19.6563   20.0992 C   0  0  0  0  0  0
  -31.2231  -17.3071   19.4988 C   0  0  0  0  0  0
  -29.7493  -18.0074   21.3064 C   0  0  0  0  0  0
  -30.1175  -19.3723   21.1023 C   0  0  0  0  0  0
  -30.3330  -16.9573   20.5454 C   0  0  0  0  0  0
  -29.0842  -20.0023   23.3562 C   0  0  0  0  0  0
  -29.2157  -22.4793   19.1062 C   0  0  0  0  0  0
  -30.5476  -23.2827   21.0997 C   0  0  0  0  0  0
  -28.2086  -24.7304   22.1863 C   0  0  0  0  0  0
  -26.6698  -23.7037   20.5212 C   0  0  0  0  0  0
  -28.6429  -21.5859   21.3989 C   0  0  0  0  0  0
  -28.4768  -25.2998   19.7188 C   0  0  0  0  0  0
  -29.6431  -20.5276   22.0164 C   0  0  2  0  0  0
  -29.1315  -22.8747   20.6037 C   0  0  0  0  0  0
  -28.1428  -24.1397   20.7528 C   0  0  0  0  0  0
  -29.9965  -15.5859   20.8290 N   0  0  0  0  0  0
  -31.4584  -12.3704   19.1372 H   0  0  0  0  0  0
  -30.2906  -11.2985   19.8544 H   0  0  0  0  0  0
  -29.7333  -11.7591   17.4400 H   0  0  0  0  0  0
  -29.6714  -13.4731   17.7665 H   0  0  0  0  0  0
  -27.8177  -11.3109   18.8211 H   0  0  0  0  0  0
  -27.3696  -12.6383   17.7835 H   0  0  0  0  0  0
  -27.6878  -14.2587   19.5488 H   0  0  0  0  0  0
  -28.6724  -12.0235   21.3891 H   0  0  0  0  0  0
  -28.4777  -13.6945   21.8390 H   0  0  0  0  0  0
  -25.2752   -9.5712   22.4761 H   0  0  0  0  0  0
  -24.0012   -7.4648   22.7467 H   0  0  0  0  0  0
  -21.0852   -8.8771   19.8943 H   0  0  0  0  0  0
  -22.3686  -10.9682   19.6168 H   0  0  0  0  0  0
  -21.1995   -7.6148   23.9720 H   0  0  0  0  0  0
  -21.1483   -6.0525   25.9084 H   0  0  0  0  0  0
  -22.0593   -2.7610   23.2852 H   0  0  0  0  0  0
  -22.4071  -11.9892   22.4801 H   0  0  0  0  0  0
  -21.1084  -13.1258   22.2592 H   0  0  0  0  0  0
  -24.6612  -15.8478   20.5112 H   0  0  0  0  0  0
  -26.2828  -15.6292   20.0883 H   0  0  0  0  0  0
  -26.7133  -32.5481   23.1133 H   0  0  0  0  0  0
  -25.0138  -33.9740   25.0492 H   0  0  0  0  0  0
  -22.6933  -31.3040   21.4097 H   0  0  0  0  0  0
  -23.3743  -35.9663   23.3289 H   0  0  0  0  0  0
  -24.3589  -36.8949   22.2049 H   0  0  0  0  0  0
  -23.7292  -37.6522   23.6675 H   0  0  0  0  0  0
  -26.0587  -31.5840   20.6013 H   0  0  0  0  0  0
  -26.8216  -30.8639   21.9921 H   0  0  0  0  0  0
  -28.0909  -29.0637   21.1769 H   0  0  0  0  0  0
  -26.0004  -25.9554   19.0224 H   0  0  0  0  0  0
  -23.9627  -27.2877   19.0447 H   0  0  0  0  0  0
  -23.7155  -30.5906   19.4024 H   0  0  0  0  0  0
  -22.7359  -29.2341   19.8776 H   0  0  0  0  0  0
  -25.1292  -36.1929   25.0812 H   0  0  0  0  0  0
  -20.9913  -28.3235   24.1457 H   0  0  0  0  0  0
  -20.5738  -26.2266   23.3595 H   0  0  0  0  0  0
  -21.6651  -26.7490   22.1196 H   0  0  0  0  0  0
  -19.6943  -25.6288   21.1252 H   0  0  0  0  0  0
  -19.6727  -27.3192   20.6764 H   0  0  0  0  0  0
  -17.4224  -26.6691   21.3979 H   0  0  0  0  0  0
  -18.0292  -26.0047   22.8991 H   0  0  0  0  0  0
  -19.7944  -30.7257   24.2240 H   0  0  0  0  0  0
  -17.5029  -31.6260   24.5182 H   0  0  0  0  0  0
  -15.5352  -30.2974   23.7690 H   0  0  0  0  0  0
  -15.8655  -28.0817   22.7069 H   0  0  0  0  0  0
  -24.5915  -30.7076   25.7867 H   0  0  0  0  0  0
  -24.8977  -32.2899   26.4914 H   0  0  0  0  0  0
  -25.8119  -30.8933   27.0256 H   0  0  0  0  0  0
  -26.2946  -29.6713   24.1228 H   0  0  0  0  0  0
  -27.4193  -29.7308   25.4604 H   0  0  0  0  0  0
  -27.8741  -30.4330   23.9273 H   0  0  0  0  0  0
  -27.2599  -33.3655   26.2051 H   0  0  0  0  0  0
  -28.3858  -32.6933   25.0345 H   0  0  0  0  0  0
  -28.0692  -31.8513   26.5454 H   0  0  0  0  0  0
  -28.2570  -38.0123   24.7513 H   0  0  0  0  0  0
  -28.1119  -36.2647   24.6260 H   0  0  0  0  0  0
  -27.2297  -37.1427   25.8850 H   0  0  0  0  0  0
  -20.9344  -29.8734   21.6942 H   0  0  0  0  0  0
  -26.0173  -38.2834   24.1418 H   0  0  0  0  0  0
  -32.3002  -18.8895   18.5056 H   0  0  0  0  0  0
  -31.4202  -20.6611   19.9406 H   0  0  0  0  0  0
  -31.6614  -16.5643   18.8488 H   0  0  0  0  0  0
  -29.0530  -17.7433   22.0892 H   0  0  0  0  0  0
  -29.7831  -19.3197   23.8406 H   0  0  0  0  0  0
  -28.1347  -19.4819   23.2260 H   0  0  0  0  0  0
  -28.9079  -20.8178   24.0590 H   0  0  0  0  0  0
  -29.7555  -21.5531   18.9446 H   0  0  0  0  0  0
  -29.7226  -23.2304   18.5032 H   0  0  0  0  0  0
  -28.2329  -22.3178   18.6688 H   0  0  0  0  0  0
  -31.3184  -22.5863   20.7818 H   0  0  0  0  0  0
  -30.5894  -23.3269   22.1895 H   0  0  0  0  0  0
  -30.8681  -24.2570   20.7380 H   0  0  0  0  0  0
  -27.4870  -25.5378   22.3094 H   0  0  0  0  0  0
  -29.1838  -25.1604   22.4113 H   0  0  0  0  0  0
  -27.9797  -24.0008   22.9598 H   0  0  0  0  0  0
  -25.9722  -24.4969   20.7832 H   0  0  0  0  0  0
  -26.3724  -22.8511   21.1281 H   0  0  0  0  0  0
  -26.4741  -23.4396   19.4821 H   0  0  0  0  0  0
  -28.1015  -21.9713   22.2590 H   0  0  0  0  0  0
  -27.8741  -21.0578   20.8321 H   0  0  0  0  0  0
  -27.9642  -25.1501   18.7688 H   0  0  0  0  0  0
  -29.5210  -25.2299   19.4277 H   0  0  0  0  0  0
  -30.5596  -21.0355   22.3099 H   0  0  0  0  0  0
  -29.0842  -15.4169   21.2246 H   0  0  0  0  0  0
  1 25  1  0  0  0
  1 30  2  0  0  0
  1 87  1  0  0  0
  2  3  1  0  0  0
  2 25  1  0  0  0
  2 88  1  0  0  0
  2 89  1  0  0  0
  3  4  1  0  0  0
  3 90  1  0  0  0
  3 91  1  0  0  0
  4  5  1  0  0  0
  4 92  1  0  0  0
  4 93  1  0  0  0
  5  6  1  0  0  0
  5 26  1  0  0  0
  5 94  1  0  0  0
  6 25  1  0  0  0
  6 95  1  0  0  0
  6 96  1  0  0  0
  7  8  2  0  0  0
  7 26  1  0  0  0
  7 29  1  0  0  0
  8  9  1  0  0  0
  8 22  1  0  0  0
  9 10  1  0  0  0
  9 27  2  0  0  0
 10 11  2  0  0  0
 10 15  1  0  0  0
 11 12  1  0  0  0
 11 97  1  0  0  0
 12 13  2  0  0  0
 12 98  1  0  0  0
 13 14  1  0  0  0
 13 31  1  0  0  0
 14 15  2  0  0  0
 14 99  1  0  0  0
 15100  1  0  0  0
 16 17  2  0  0  0
 16 21  1  0  0  0
 16 31  1  0  0  0
 17 18  1  0  0  0
 17101  1  0  0  0
 18 19  2  0  0  0
 18102  1  0  0  0
 19 20  1  0  0  0
 19 24  1  0  0  0
 20 21  2  0  0  0
 20103  1  0  0  0
 21 23  1  0  0  0
 22 28  1  0  0  0
 22 32  2  0  0  0
 26 27  1  0  0  0
 28104  1  0  0  0
 28105  1  0  0  0
 29106  1  0  0  0
 29107  1  0  0  0
 33 34  1  0  0  0
 33 66  1  0  0  0
 33 70  2  0  0  0
 34 36  1  0  0  0
 34 59  1  0  0  0
 34108  1  0  0  0
 35 44  2  0  0  0
 35 45  1  0  0  0
 35 68  1  0  0  0
 36 56  1  0  0  0
 36109  1  0  0  0
 37 39  1  0  0  0
 37 47  1  0  0  0
 37 66  1  0  0  0
 37110  1  0  0  0
 38 43  2  0  0  0
 38 46  1  0  0  0
 38 47  1  0  0  0
 39 64  1  0  0  0
 39 67  2  0  0  0
 40 52  1  0  0  0
 40 53  2  0  0  0
 40 58  1  0  0  0
 41111  1  0  0  0
 41112  1  0  0  0
 41113  1  0  0  0
 41 48  1  0  0  0
 42 43  1  0  0  0
 42 66  1  0  0  0
 42114  1  0  0  0
 42115  1  0  0  0
 43 44  1  0  0  0
 44116  1  0  0  0
 45 46  2  0  0  0
 45117  1  0  0  0
 46118  1  0  0  0
 47119  1  0  0  0
 47120  1  0  0  0
 48 56  1  0  0  0
 48 65  1  0  0  0
 48121  1  0  0  0
 49 50  1  0  0  0
 49 53  1  0  0  0
 49 64  1  0  0  0
 49122  1  0  0  0
 50 51  1  0  0  0
 50123  1  0  0  0
 50124  1  0  0  0
 51 52  1  0  0  0
 51125  1  0  0  0
 51126  1  0  0  0
 52127  1  0  0  0
 52128  1  0  0  0
 53 54  1  0  0  0
 54 55  2  0  0  0
 54129  1  0  0  0
 55 57  1  0  0  0
 55130  1  0  0  0
 56 69  2  0  0  0
 57 58  2  0  0  0
 57131  1  0  0  0
 58132  1  0  0  0
 59 60  1  0  0  0
 59 61  1  0  0  0
 59 62  1  0  0  0
 60133  1  0  0  0
 60134  1  0  0  0
 60135  1  0  0  0
 61136  1  0  0  0
 61137  1  0  0  0
 61138  1  0  0  0
 62139  1  0  0  0
 62140  1  0  0  0
 62141  1  0  0  0
 63 65  1  0  0  0
 63142  1  0  0  0
 63143  1  0  0  0
 63144  1  0  0  0
 64145  1  0  0  0
 65146  1  0  0  0
 68 83  1  0  0  0
 71 72  2  0  0  0
 71 73  1  0  0  0
 71147  1  0  0  0
 72 75  1  0  0  0
 72148  1  0  0  0
 73 76  2  0  0  0
 73149  1  0  0  0
 74 75  2  0  0  0
 74 76  1  0  0  0
 74150  1  0  0  0
 75 84  1  0  0  0
 76 87  1  0  0  0
 77151  1  0  0  0
 77152  1  0  0  0
 77153  1  0  0  0
 77 84  1  0  0  0
 78154  1  0  0  0
 78155  1  0  0  0
 78156  1  0  0  0
 78 85  1  0  0  0
 79 85  1  0  0  0
 79157  1  0  0  0
 79158  1  0  0  0
 79159  1  0  0  0
 80160  1  0  0  0
 80161  1  0  0  0
 80162  1  0  0  0
 80 86  1  0  0  0
 81 86  1  0  0  0
 81163  1  0  0  0
 81164  1  0  0  0
 81165  1  0  0  0
 82 84  1  0  0  0
 82 85  1  0  0  0
 82166  1  0  0  0
 82167  1  0  0  0
 83 86  1  0  0  0
 83168  1  0  0  0
 83169  1  0  0  0
 84170  1  0  0  0
 85 86  1  0  0  0
 87171  1  0  0  0
M  ISO  4   1 100  68 101  83 101  87 100
M  END
> <chiral flag>
0

> <version>
0

> <s_m_source_file>
/data/baiqing/PycharmProjects/Reinvent-master-3.2/result/LINK_invent/BTK/process_docking_weight1_custom_product_contain_oxygen_bond_distance_aromatic_linkinvent_7_9_3/rearranged_h_0141.sdf

> <i_m_source_file_index>
14

> <r_mmod_Potential_Energy-OPLS-2005>
97.9717559814453

> <r_mmod_Stretch_Energy-OPLS-2005>
61.8461074829102

> <r_mmod_Bend_Energy-OPLS-2005>
144.839813232422

> <r_mmod_Torsional_Energy-OPLS-2005>
264.408874511719

> <r_mmod_Improper_Torsional_Energy-OPLS-2005>
4.5315375328064

> <r_mmod_Van_der_Waal_Energy-OPLS-2005>
184.080230712891

> <r_mmod_Electrostatic_Energy-OPLS-2005>
-398.177581787109

> <r_mmod_Solvation_Energy-OPLS-2005>
-185.237976074219

> <b_mmod_Minimization_Converged-OPLS-2005>
0

> <r_mmod_RMS_Derivative-OPLS-2005>
2.27797269821167

$$$$
14
                    3D
 Structure written by MMmdl.
165173  0  0  1  0            999 V2000
  -30.5859  -14.7459   20.4853 C   0  0  0  0  0  0
  -30.4516  -12.4635   19.4529 C   0  0  0  0  0  0
  -29.5121  -12.5004   18.2256 C   0  0  0  0  0  0
  -28.0391  -12.3173   18.6483 C   0  0  0  0  0  0
  -27.6456  -13.2176   19.8493 C   0  0  2  0  0  0
  -28.6957  -13.1302   20.9765 C   0  0  0  0  0  0
  -25.2557  -13.8160   20.5712 C   0  0  0  0  0  0
  -24.1829  -13.0428   20.9233 C   0  0  0  0  0  0
  -24.6403  -11.6906   20.8780 C   0  0  0  0  0  0
  -23.9074  -10.4291   21.0435 C   0  0  0  0  0  0
  -24.3624   -9.4198   21.9202 C   0  0  0  0  0  0
  -23.6296   -8.2236   22.0760 C   0  0  0  0  0  0
  -22.4280   -8.0291   21.3549 C   0  0  0  0  0  0
  -21.9921   -9.0264   20.4653 C   0  0  0  0  0  0
  -22.7254  -10.2143   20.3069 C   0  0  0  0  0  0
  -21.6849   -6.0745   22.5279 C   0  0  0  0  0  0
  -21.4006   -6.5644   23.8214 C   0  0  0  0  0  0
  -21.3656   -5.6798   24.9178 C   0  0  0  0  0  0
  -21.6039   -4.3060   24.7228 C   0  0  0  0  0  0
  -21.8815   -3.8153   23.4349 C   0  0  0  0  0  0
  -21.9190   -4.6971   22.3405 C   0  0  0  0  0  0
  -22.7855  -13.5235   21.1878 C   0  0  0  0  0  0
  -22.1664   -4.2159   21.0981 F   0  0  0  0  0  0
  -21.5632   -3.4540   25.7737 F   0  0  0  0  0  0
  -29.9909  -13.5084   20.3914 N   0  0  0  0  0  0
  -26.2962  -12.9337   20.3279 N   0  0  0  0  0  0
  -25.9324  -11.6498   20.5776 N   0  0  0  0  0  0
  -22.0482  -12.8229   22.0432 N   0  0  0  0  0  0
  -25.4213  -15.1887   20.4119 N   0  0  0  0  0  0
  -31.7841  -14.8866   20.2200 O   0  0  0  0  0  0
  -21.6634   -6.8898   21.4248 O   0  0  0  0  0  0
  -22.3543  -14.5536   20.6727 O   0  0  0  0  0  0
  -24.6312  -31.8553   23.1993 C   0  0  0  0  0  0
  -25.9138  -32.4753   23.8328 C   0  0  1  0  0  0
  -27.2176  -27.2491   20.1301 C   0  0  0  0  0  0
  -25.5946  -33.8549   24.2245 N   0  0  0  0  0  0
  -23.4286  -30.4789   21.5425 C   0  0  2  0  0  0
  -24.8754  -28.9268   20.1145 C   0  0  0  0  0  0
  -22.7515  -29.4585   22.4894 C   0  0  0  0  0  0
  -18.0306  -28.1369   22.8485 C   0  0  0  0  0  0
  -24.1488  -36.7277   23.2644 C   0  0  0  0  0  0
  -25.9765  -30.7645   21.3826 C   0  0  0  0  0  0
  -26.0501  -29.3866   20.7231 C   0  0  0  0  0  0
  -27.2239  -28.5627   20.7160 C   0  0  0  0  0  0
  -26.0135  -26.8626   19.4956 C   0  0  0  0  0  0
  -24.8647  -27.6729   19.4884 C   0  0  0  0  0  0
  -23.6484  -29.8159   20.1589 C   0  0  0  0  0  0
  -25.4118  -36.3060   24.0324 C   0  0  1  0  0  0
  -20.5899  -28.3684   23.1255 C   0  0  2  0  0  0
  -20.6781  -26.9397   22.5399 C   0  0  0  0  0  0
  -19.5761  -26.6377   21.5195 C   0  0  0  0  0  0
  -18.1947  -26.7909   22.1623 C   0  0  0  0  0  0
  -19.1555  -28.8847   23.2864 C   0  0  0  0  0  0
  -18.9491  -30.1454   23.8873 C   0  0  0  0  0  0
  -17.6487  -30.6581   24.0557 C   0  0  0  0  0  0
  -25.9076  -34.9430   23.5080 C   0  0  0  0  0  0
  -16.5374  -29.9071   23.6331 C   0  0  0  0  0  0
  -16.7291  -28.6488   23.0346 C   0  0  0  0  0  0
  -26.4500  -31.6592   25.0715 C   0  0  0  0  0  0
  -25.3710  -31.3759   26.1428 C   0  0  0  0  0  0
  -27.0374  -30.3022   24.6210 C   0  0  0  0  0  0
  -27.6053  -32.4345   25.7489 C   0  0  0  0  0  0
  -27.5583  -37.1788   24.8475 C   0  0  0  0  0  0
  -21.4220  -29.3030   22.3648 N   0  0  0  0  0  0
  -26.4287  -37.3759   23.9433 N   0  0  0  0  0  0
  -24.6981  -31.0510   22.0979 N   0  0  0  0  0  0
  -23.4214  -28.8117   23.2986 O   0  0  0  0  0  0
  -28.3100  -26.3448   20.1750 O   0  0  0  0  0  0
  -26.5640  -34.8900   22.4642 O   0  0  0  0  0  0
  -23.5469  -32.1370   23.7300 O   0  0  0  0  0  0
  -29.1869  -19.6644   22.5082 C   0  0  0  0  0  0
  -29.6940  -18.4361   20.4842 C   0  0  0  0  0  0
  -29.2653  -18.4694   23.2616 C   0  0  0  0  0  0
  -29.5777  -17.2284   22.6211 C   0  0  0  0  0  0
  -29.4099  -19.7193   21.1167 C   0  0  0  0  0  0
  -29.7645  -17.1699   21.2082 C   0  0  0  0  0  0
  -28.8810  -18.5584   24.7103 C   0  0  0  0  0  0
  -28.7466  -22.2408   20.8255 C   0  0  0  0  0  0
  -29.6711  -15.9396   23.4450 C   0  0  0  0  0  0
  -29.4070  -19.7317   25.5361 C   0  0  0  0  0  0
  -29.9036  -23.5893   18.9660 C   0  0  0  0  0  0
  -30.1977  -24.2425   21.3702 C   0  0  0  0  0  0
  -28.0291  -24.8572   20.2131 C   0  0  0  0  0  0
  -29.1916  -23.7170   20.3273 C   0  0  0  0  0  0
  -29.3926  -21.0596   20.4545 N   0  0  0  0  0  0
  -29.7193  -15.8277   20.5695 N   0  0  0  0  0  0
  -28.1677  -17.7266   25.2784 O   0  0  0  0  0  0
  -27.7674  -22.1859   21.5726 O   0  0  0  0  0  0
  -31.4851  -12.6241   19.1414 H   0  0  0  0  0  0
  -30.4309  -11.4834   19.9319 H   0  0  0  0  0  0
  -29.7955  -11.7246   17.5125 H   0  0  0  0  0  0
  -29.6244  -13.4511   17.7031 H   0  0  0  0  0  0
  -27.9065  -11.2692   18.9203 H   0  0  0  0  0  0
  -27.3725  -12.4988   17.8037 H   0  0  0  0  0  0
  -27.6440  -14.2404   19.4729 H   0  0  0  0  0  0
  -28.7384  -12.1197   21.3857 H   0  0  0  0  0  0
  -28.4275  -13.7825   21.8079 H   0  0  0  0  0  0
  -25.2775   -9.5667   22.4783 H   0  0  0  0  0  0
  -24.0004   -7.4618   22.7473 H   0  0  0  0  0  0
  -21.0854   -8.8793   19.8954 H   0  0  0  0  0  0
  -22.3726  -10.9690   19.6183 H   0  0  0  0  0  0
  -21.1990   -7.6150   23.9725 H   0  0  0  0  0  0
  -21.1484   -6.0525   25.9082 H   0  0  0  0  0  0
  -22.0599   -2.7617   23.2841 H   0  0  0  0  0  0
  -22.4101  -11.9886   22.4807 H   0  0  0  0  0  0
  -21.1098  -13.1260   22.2640 H   0  0  0  0  0  0
  -24.6445  -15.8323   20.5228 H   0  0  0  0  0  0
  -26.2531  -15.6375   20.0506 H   0  0  0  0  0  0
  -26.7184  -32.5375   23.1055 H   0  0  0  0  0  0
  -25.0067  -33.9681   25.0376 H   0  0  0  0  0  0
  -22.7259  -31.3024   21.3968 H   0  0  0  0  0  0
  -23.3755  -35.9609   23.3317 H   0  0  0  0  0  0
  -24.3571  -36.8891   22.2062 H   0  0  0  0  0  0
  -23.7229  -37.6475   23.6666 H   0  0  0  0  0  0
  -26.1146  -31.5259   20.6130 H   0  0  0  0  0  0
  -26.8540  -30.8122   22.0153 H   0  0  0  0  0  0
  -28.1239  -28.9121   21.2032 H   0  0  0  0  0  0
  -25.9227  -25.9118   18.9952 H   0  0  0  0  0  0
  -23.9677  -27.3159   19.0006 H   0  0  0  0  0  0
  -23.7805  -30.5960   19.4081 H   0  0  0  0  0  0
  -22.7658  -29.2538   19.8506 H   0  0  0  0  0  0
  -25.1287  -36.1908   25.0816 H   0  0  0  0  0  0
  -20.9994  -28.3262   24.1376 H   0  0  0  0  0  0
  -20.5670  -26.2299   23.3607 H   0  0  0  0  0  0
  -21.6644  -26.7408   22.1196 H   0  0  0  0  0  0
  -19.6926  -25.6282   21.1249 H   0  0  0  0  0  0
  -19.6696  -27.3164   20.6701 H   0  0  0  0  0  0
  -17.4204  -26.6664   21.4042 H   0  0  0  0  0  0
  -18.0370  -26.0016   22.8992 H   0  0  0  0  0  0
  -19.7969  -30.7280   24.2224 H   0  0  0  0  0  0
  -17.5048  -31.6259   24.5166 H   0  0  0  0  0  0
  -15.5375  -30.2979   23.7666 H   0  0  0  0  0  0
  -15.8690  -28.0828   22.7042 H   0  0  0  0  0  0
  -24.5885  -30.7108   25.7759 H   0  0  0  0  0  0
  -24.8903  -32.2942   26.4816 H   0  0  0  0  0  0
  -25.7987  -30.8965   27.0238 H   0  0  0  0  0  0
  -26.2978  -29.6741   24.1227 H   0  0  0  0  0  0
  -27.4072  -29.7289   25.4726 H   0  0  0  0  0  0
  -27.8841  -30.4321   23.9458 H   0  0  0  0  0  0
  -27.2675  -33.3671   26.2025 H   0  0  0  0  0  0
  -28.3884  -32.6872   25.0327 H   0  0  0  0  0  0
  -28.0697  -31.8504   26.5442 H   0  0  0  0  0  0
  -28.2582  -38.0098   24.7508 H   0  0  0  0  0  0
  -28.1078  -36.2613   24.6307 H   0  0  0  0  0  0
  -27.2293  -37.1447   25.8872 H   0  0  0  0  0  0
  -20.9400  -29.8787   21.6881 H   0  0  0  0  0  0
  -26.0170  -38.2833   24.1433 H   0  0  0  0  0  0
  -28.9297  -20.5779   23.0189 H   0  0  0  0  0  0
  -29.8220  -18.4159   19.4107 H   0  0  0  0  0  0
  -29.9623  -16.1163   24.4781 H   0  0  0  0  0  0
  -30.4373  -15.2642   23.0735 H   0  0  0  0  0  0
  -28.7141  -15.4190   23.4466 H   0  0  0  0  0  0
  -30.3363  -19.4497   26.0282 H   0  0  0  0  0  0
  -28.6844  -19.9884   26.3108 H   0  0  0  0  0  0
  -29.5950  -20.6241   24.9435 H   0  0  0  0  0  0
  -30.8187  -23.0006   19.0377 H   0  0  0  0  0  0
  -30.1772  -24.5690   18.5736 H   0  0  0  0  0  0
  -29.2574  -23.1089   18.2312 H   0  0  0  0  0  0
  -30.9722  -23.5084   21.5994 H   0  0  0  0  0  0
  -29.6985  -24.4965   22.3068 H   0  0  0  0  0  0
  -30.6966  -25.1482   21.0189 H   0  0  0  0  0  0
  -27.3315  -24.7065   21.0362 H   0  0  0  0  0  0
  -27.4714  -24.5918   19.3173 H   0  0  0  0  0  0
  -30.0350  -21.1643   19.6809 H   0  0  0  0  0  0
  -28.7730  -15.4973   20.4725 H   0  0  0  0  0  0
  1 25  1  0  0  0
  1 30  2  0  0  0
  1 86  1  0  0  0
  2  3  1  0  0  0
  2 25  1  0  0  0
  2 89  1  0  0  0
  2 90  1  0  0  0
  3  4  1  0  0  0
  3 91  1  0  0  0
  3 92  1  0  0  0
  4  5  1  0  0  0
  4 93  1  0  0  0
  4 94  1  0  0  0
  5  6  1  0  0  0
  5 26  1  0  0  0
  5 95  1  0  0  0
  6 25  1  0  0  0
  6 96  1  0  0  0
  6 97  1  0  0  0
  7  8  2  0  0  0
  7 26  1  0  0  0
  7 29  1  0  0  0
  8  9  1  0  0  0
  8 22  1  0  0  0
  9 10  1  0  0  0
  9 27  2  0  0  0
 10 11  2  0  0  0
 10 15  1  0  0  0
 11 12  1  0  0  0
 11 98  1  0  0  0
 12 13  2  0  0  0
 12 99  1  0  0  0
 13 14  1  0  0  0
 13 31  1  0  0  0
 14 15  2  0  0  0
 14100  1  0  0  0
 15101  1  0  0  0
 16 17  2  0  0  0
 16 21  1  0  0  0
 16 31  1  0  0  0
 17 18  1  0  0  0
 17102  1  0  0  0
 18 19  2  0  0  0
 18103  1  0  0  0
 19 20  1  0  0  0
 19 24  1  0  0  0
 20 21  2  0  0  0
 20104  1  0  0  0
 21 23  1  0  0  0
 22 28  1  0  0  0
 22 32  2  0  0  0
 26 27  1  0  0  0
 28105  1  0  0  0
 28106  1  0  0  0
 29107  1  0  0  0
 29108  1  0  0  0
 33 34  1  0  0  0
 33 66  1  0  0  0
 33 70  2  0  0  0
 34 36  1  0  0  0
 34 59  1  0  0  0
 34109  1  0  0  0
 35 44  2  0  0  0
 35 45  1  0  0  0
 35 68  1  0  0  0
 36 56  1  0  0  0
 36110  1  0  0  0
 37 39  1  0  0  0
 37 47  1  0  0  0
 37 66  1  0  0  0
 37111  1  0  0  0
 38 43  2  0  0  0
 38 46  1  0  0  0
 38 47  1  0  0  0
 39 64  1  0  0  0
 39 67  2  0  0  0
 40 52  1  0  0  0
 40 53  2  0  0  0
 40 58  1  0  0  0
 41112  1  0  0  0
 41113  1  0  0  0
 41114  1  0  0  0
 41 48  1  0  0  0
 42 43  1  0  0  0
 42 66  1  0  0  0
 42115  1  0  0  0
 42116  1  0  0  0
 43 44  1  0  0  0
 44117  1  0  0  0
 45 46  2  0  0  0
 45118  1  0  0  0
 46119  1  0  0  0
 47120  1  0  0  0
 47121  1  0  0  0
 48 56  1  0  0  0
 48 65  1  0  0  0
 48122  1  0  0  0
 49 50  1  0  0  0
 49 53  1  0  0  0
 49 64  1  0  0  0
 49123  1  0  0  0
 50 51  1  0  0  0
 50124  1  0  0  0
 50125  1  0  0  0
 51 52  1  0  0  0
 51126  1  0  0  0
 51127  1  0  0  0
 52128  1  0  0  0
 52129  1  0  0  0
 53 54  1  0  0  0
 54 55  2  0  0  0
 54130  1  0  0  0
 55 57  1  0  0  0
 55131  1  0  0  0
 56 69  2  0  0  0
 57 58  2  0  0  0
 57132  1  0  0  0
 58133  1  0  0  0
 59 60  1  0  0  0
 59 61  1  0  0  0
 59 62  1  0  0  0
 60134  1  0  0  0
 60135  1  0  0  0
 60136  1  0  0  0
 61137  1  0  0  0
 61138  1  0  0  0
 61139  1  0  0  0
 62140  1  0  0  0
 62141  1  0  0  0
 62142  1  0  0  0
 63 65  1  0  0  0
 63143  1  0  0  0
 63144  1  0  0  0
 63145  1  0  0  0
 64146  1  0  0  0
 65147  1  0  0  0
 68 83  1  0  0  0
 71 73  2  0  0  0
 71 75  1  0  0  0
 71148  1  0  0  0
 72 75  2  0  0  0
 72 76  1  0  0  0
 72149  1  0  0  0
 73 74  1  0  0  0
 73 77  1  0  0  0
 74 76  2  0  0  0
 74 79  1  0  0  0
 75 85  1  0  0  0
 76 86  1  0  0  0
 77 80  1  0  0  0
 77 87  2  0  0  0
 78 84  1  0  0  0
 78 85  1  0  0  0
 78 88  2  0  0  0
 79150  1  0  0  0
 79151  1  0  0  0
 79152  1  0  0  0
 80153  1  0  0  0
 80154  1  0  0  0
 80155  1  0  0  0
 81156  1  0  0  0
 81157  1  0  0  0
 81158  1  0  0  0
 81 84  1  0  0  0
 82 84  1  0  0  0
 82159  1  0  0  0
 82160  1  0  0  0
 82161  1  0  0  0
 83 84  1  0  0  0
 83162  1  0  0  0
 83163  1  0  0  0
 85164  1  0  0  0
 86165  1  0  0  0
M  ISO  4   1 100  68 101  83 101  86 100
M  END
> <chiral flag>
0

> <version>
0

> <s_m_source_file>
/data/baiqing/PycharmProjects/Reinvent-master-3.2/result/LINK_invent/BTK/process_docking_weight1_custom_product_contain_oxygen_bond_distance_aromatic_linkinvent_7_9_3/rearranged_h_0141.sdf

> <i_m_source_file_index>
15

> <r_mmod_Potential_Energy-OPLS-2005>
234.901412963867

> <r_mmod_Stretch_Energy-OPLS-2005>
139.794692993164

> <r_mmod_Bend_Energy-OPLS-2005>
174.401092529297

> <r_mmod_Torsional_Energy-OPLS-2005>
334.891784667969

> <r_mmod_Improper_Torsional_Energy-OPLS-2005>
11.9996480941772

> <r_mmod_Van_der_Waal_Energy-OPLS-2005>
156.089813232422

> <r_mmod_Electrostatic_Energy-OPLS-2005>
-442.286437988281

> <r_mmod_Solvation_Energy-OPLS-2005>
-230.402145385742

> <b_mmod_Minimization_Converged-OPLS-2005>
0

> <r_mmod_RMS_Derivative-OPLS-2005>
2.5018265247345

$$$$
15
                    3D
 Structure written by MMmdl.
171179  0  0  1  0            999 V2000
  -30.7051  -14.5640   20.4337 C   0  0  0  0  0  0
  -30.4098  -12.3322   19.4515 C   0  0  0  0  0  0
  -29.5040  -12.4822   18.2137 C   0  0  0  0  0  0
  -28.0208  -12.3584   18.6168 C   0  0  0  0  0  0
  -27.6480  -13.2318   19.8481 C   0  0  2  0  0  0
  -28.6946  -13.1192   20.9790 C   0  0  0  0  0  0
  -25.2522  -13.8211   20.5674 C   0  0  0  0  0  0
  -24.1810  -13.0448   20.9182 C   0  0  0  0  0  0
  -24.6410  -11.6929   20.8747 C   0  0  0  0  0  0
  -23.9098  -10.4299   21.0411 C   0  0  0  0  0  0
  -24.3641   -9.4203   21.9181 C   0  0  0  0  0  0
  -23.6301   -8.2251   22.0758 C   0  0  0  0  0  0
  -22.4273   -8.0305   21.3560 C   0  0  0  0  0  0
  -21.9920   -9.0281   20.4657 C   0  0  0  0  0  0
  -22.7271  -10.2148   20.3056 C   0  0  0  0  0  0
  -21.6852   -6.0744   22.5272 C   0  0  0  0  0  0
  -21.4036   -6.5645   23.8212 C   0  0  0  0  0  0
  -21.3656   -5.6793   24.9172 C   0  0  0  0  0  0
  -21.6032   -4.3053   24.7218 C   0  0  0  0  0  0
  -21.8819   -3.8148   23.4340 C   0  0  0  0  0  0
  -21.9192   -4.6971   22.3399 C   0  0  0  0  0  0
  -22.7824  -13.5233   21.1823 C   0  0  0  0  0  0
  -22.1651   -4.2160   21.0978 F   0  0  0  0  0  0
  -21.5611   -3.4534   25.7730 F   0  0  0  0  0  0
  -30.0134  -13.3900   20.3949 N   0  0  0  0  0  0
  -26.2973  -12.9436   20.3264 N   0  0  0  0  0  0
  -25.9340  -11.6569   20.5726 N   0  0  0  0  0  0
  -22.0458  -12.8262   22.0400 N   0  0  0  0  0  0
  -25.4156  -15.1941   20.4091 N   0  0  0  0  0  0
  -31.9272  -14.5690   20.3028 O   0  0  0  0  0  0
  -21.6640   -6.8896   21.4241 O   0  0  0  0  0  0
  -22.3503  -14.5531   20.6659 O   0  0  0  0  0  0
  -24.6178  -31.8641   23.2068 C   0  0  0  0  0  0
  -25.9053  -32.4800   23.8380 C   0  0  1  0  0  0
  -27.2298  -27.3919   20.1260 C   0  0  0  0  0  0
  -25.5890  -33.8601   24.2300 N   0  0  0  0  0  0
  -23.4076  -30.4858   21.5480 C   0  0  2  0  0  0
  -24.8552  -28.9403   20.1189 C   0  0  0  0  0  0
  -22.7423  -29.4644   22.4988 C   0  0  0  0  0  0
  -18.0272  -28.1374   22.8478 C   0  0  0  0  0  0
  -24.1466  -36.7317   23.2647 C   0  0  0  0  0  0
  -25.9384  -30.8182   21.3644 C   0  0  0  0  0  0
  -26.0160  -29.4474   20.7169 C   0  0  0  0  0  0
  -27.2097  -28.6853   20.7086 C   0  0  0  0  0  0
  -26.0587  -26.9107   19.5099 C   0  0  0  0  0  0
  -24.8743  -27.6738   19.5068 C   0  0  0  0  0  0
  -23.6181  -29.8111   20.1652 C   0  0  0  0  0  0
  -25.4091  -36.3103   24.0333 C   0  0  1  0  0  0
  -20.5857  -28.3673   23.1306 C   0  0  2  0  0  0
  -20.6764  -26.9407   22.5411 C   0  0  0  0  0  0
  -19.5748  -26.6385   21.5204 C   0  0  0  0  0  0
  -18.1925  -26.7921   22.1615 C   0  0  0  0  0  0
  -19.1520  -28.8841   23.2889 C   0  0  0  0  0  0
  -18.9452  -30.1444   23.8901 C   0  0  0  0  0  0
  -17.6457  -30.6581   24.0557 C   0  0  0  0  0  0
  -25.9028  -34.9468   23.5120 C   0  0  0  0  0  0
  -16.5344  -29.9081   23.6319 C   0  0  0  0  0  0
  -16.7264  -28.6496   23.0343 C   0  0  0  0  0  0
  -26.4477  -31.6592   25.0720 C   0  0  0  0  0  0
  -25.3741  -31.3692   26.1470 C   0  0  0  0  0  0
  -27.0332  -30.3033   24.6115 C   0  0  0  0  0  0
  -27.6031  -32.4352   25.7470 C   0  0  0  0  0  0
  -27.5561  -37.1816   24.8461 C   0  0  0  0  0  0
  -21.4146  -29.3034   22.3717 N   0  0  0  0  0  0
  -26.4268  -37.3795   23.9417 N   0  0  0  0  0  0
  -24.6734  -31.0711   22.0983 N   0  0  0  0  0  0
  -23.4173  -28.8199   23.3056 O   0  0  0  0  0  0
  -28.3724  -26.6108   20.0694 O   0  0  0  0  0  0
  -26.5604  -34.8933   22.4689 O   0  0  0  0  0  0
  -23.5362  -32.1405   23.7443 O   0  0  0  0  0  0
  -30.9566  -19.6870   18.9420 C   0  0  0  0  0  0
  -31.7208  -18.5934   18.5278 C   0  0  0  0  0  0
  -29.5504  -18.1919   20.2472 C   0  0  0  0  0  0
  -29.8239  -19.5184   19.7634 C   0  0  0  0  0  0
  -31.3971  -17.2895   18.9366 C   0  0  0  0  0  0
  -30.3416  -17.0498   19.8728 C   0  0  0  0  0  0
  -29.4884  -21.9916   20.0278 C   0  0  0  0  0  0
  -28.9522  -20.7394   19.9279 C   0  0  0  0  0  0
  -27.0376  -20.3204   18.3228 C   0  0  0  0  0  0
  -29.6296  -24.0867   18.6994 C   0  0  0  0  0  0
  -30.3096  -26.1569   21.3285 C   0  0  0  0  0  0
  -28.1616  -26.2676   22.5362 C   0  0  0  0  0  0
  -27.4539  -20.5122   19.7870 C   0  0  0  0  0  0
  -28.6005  -24.2403   21.1056 C   0  0  0  0  0  0
  -28.8315  -23.3816   19.8084 C   0  0  2  0  0  0
  -28.8131  -25.8133   21.2065 C   0  0  0  0  0  0
  -32.1394  -16.2859   18.3245 N   0  0  0  0  0  0
  -29.9750  -15.7170   20.3664 N   0  0  0  0  0  0
  -31.4617  -12.3934   19.1645 H   0  0  0  0  0  0
  -30.2779  -11.3502   19.9090 H   0  0  0  0  0  0
  -29.7560  -11.7247   17.4705 H   0  0  0  0  0  0
  -29.6814  -13.4484   17.7382 H   0  0  0  0  0  0
  -27.8309  -11.3083   18.8372 H   0  0  0  0  0  0
  -27.3794  -12.6085   17.7702 H   0  0  0  0  0  0
  -27.6577  -14.2648   19.4975 H   0  0  0  0  0  0
  -28.6769  -12.1250   21.4282 H   0  0  0  0  0  0
  -28.4737  -13.8245   21.7819 H   0  0  0  0  0  0
  -25.2792   -9.5665   22.4750 H   0  0  0  0  0  0
  -23.9989   -7.4650   22.7493 H   0  0  0  0  0  0
  -21.0829   -8.8832   19.8986 H   0  0  0  0  0  0
  -22.3740  -10.9694   19.6160 H   0  0  0  0  0  0
  -21.2064   -7.6157   23.9729 H   0  0  0  0  0  0
  -21.1459   -6.0517   25.9076 H   0  0  0  0  0  0
  -22.0601   -2.7613   23.2833 H   0  0  0  0  0  0
  -22.4051  -11.9953   22.4855 H   0  0  0  0  0  0
  -21.1075  -13.1311   22.2573 H   0  0  0  0  0  0
  -24.6400  -15.8389   20.5188 H   0  0  0  0  0  0
  -26.2540  -15.6423   20.0644 H   0  0  0  0  0  0
  -26.7114  -32.5506   23.1138 H   0  0  0  0  0  0
  -25.0023  -33.9749   25.0431 H   0  0  0  0  0  0
  -22.6977  -31.3027   21.4037 H   0  0  0  0  0  0
  -23.3723  -35.9657   23.3324 H   0  0  0  0  0  0
  -24.3541  -36.8934   22.2059 H   0  0  0  0  0  0
  -23.7227  -37.6524   23.6668 H   0  0  0  0  0  0
  -26.0541  -31.5783   20.5908 H   0  0  0  0  0  0
  -26.8256  -30.8748   21.9840 H   0  0  0  0  0  0
  -28.1117  -29.0749   21.1577 H   0  0  0  0  0  0
  -26.0638  -25.9371   19.0385 H   0  0  0  0  0  0
  -23.9843  -27.2808   19.0332 H   0  0  0  0  0  0
  -23.7265  -30.5797   19.3993 H   0  0  0  0  0  0
  -22.7420  -29.2298   19.8725 H   0  0  0  0  0  0
  -25.1264  -36.1972   25.0824 H   0  0  0  0  0  0
  -20.9945  -28.3257   24.1429 H   0  0  0  0  0  0
  -20.5665  -26.2288   23.3609 H   0  0  0  0  0  0
  -21.6642  -26.7453   22.1209 H   0  0  0  0  0  0
  -19.6921  -25.6303   21.1228 H   0  0  0  0  0  0
  -19.6689  -27.3201   20.6742 H   0  0  0  0  0  0
  -17.4198  -26.6667   21.4016 H   0  0  0  0  0  0
  -18.0323  -26.0055   22.9008 H   0  0  0  0  0  0
  -19.7935  -30.7246   24.2277 H   0  0  0  0  0  0
  -17.5022  -31.6259   24.5171 H   0  0  0  0  0  0
  -15.5354  -30.2994   23.7637 H   0  0  0  0  0  0
  -15.8659  -28.0822   22.7060 H   0  0  0  0  0  0
  -24.5885  -30.7075   25.7809 H   0  0  0  0  0  0
  -24.8957  -32.2840   26.4976 H   0  0  0  0  0  0
  -25.8089  -30.8810   27.0199 H   0  0  0  0  0  0
  -26.2872  -29.6760   24.1214 H   0  0  0  0  0  0
  -27.4155  -29.7311   25.4581 H   0  0  0  0  0  0
  -27.8687  -30.4366   23.9235 H   0  0  0  0  0  0
  -27.2616  -33.3663   26.2013 H   0  0  0  0  0  0
  -28.3830  -32.6908   25.0283 H   0  0  0  0  0  0
  -28.0705  -31.8509   26.5405 H   0  0  0  0  0  0
  -28.2579  -38.0111   24.7495 H   0  0  0  0  0  0
  -28.1048  -36.2640   24.6287 H   0  0  0  0  0  0
  -27.2281  -37.1477   25.8864 H   0  0  0  0  0  0
  -20.9335  -29.8747   21.6910 H   0  0  0  0  0  0
  -26.0158  -38.2872   24.1431 H   0  0  0  0  0  0
  -31.2089  -20.6582   18.5375 H   0  0  0  0  0  0
  -32.5372  -18.7670   17.8408 H   0  0  0  0  0  0
  -28.6961  -18.0406   20.8908 H   0  0  0  0  0  0
  -30.5537  -22.0559   20.1930 H   0  0  0  0  0  0
  -27.2571  -21.2089   17.7288 H   0  0  0  0  0  0
  -25.9688  -20.1239   18.2417 H   0  0  0  0  0  0
  -27.5652  -19.4803   17.8703 H   0  0  0  0  0  0
  -29.6877  -23.4542   17.8123 H   0  0  0  0  0  0
  -30.6550  -24.2889   19.0045 H   0  0  0  0  0  0
  -29.1690  -25.0218   18.3845 H   0  0  0  0  0  0
  -30.7797  -25.6163   22.1519 H   0  0  0  0  0  0
  -30.4514  -27.2209   21.5232 H   0  0  0  0  0  0
  -30.8653  -25.9304   20.4216 H   0  0  0  0  0  0
  -28.5323  -25.6721   23.3718 H   0  0  0  0  0  0
  -27.0771  -26.1538   22.5207 H   0  0  0  0  0  0
  -28.3866  -27.3060   22.7740 H   0  0  0  0  0  0
  -26.9121  -21.3625   20.2012 H   0  0  0  0  0  0
  -27.1509  -19.6552   20.3888 H   0  0  0  0  0  0
  -29.2029  -23.7930   21.8976 H   0  0  0  0  0  0
  -27.5762  -24.0288   21.4161 H   0  0  0  0  0  0
  -27.8458  -23.2110   19.3754 H   0  0  0  0  0  0
  -33.0354  -16.5661   17.9438 H   0  0  0  0  0  0
  -32.2492  -15.4726   18.9420 H   0  0  0  0  0  0
  -29.0034  -15.5990   20.6019 H   0  0  0  0  0  0
  1 25  1  0  0  0
  1 30  2  0  0  0
  1 88  1  0  0  0
  2  3  1  0  0  0
  2 25  1  0  0  0
  2 89  1  0  0  0
  2 90  1  0  0  0
  3  4  1  0  0  0
  3 91  1  0  0  0
  3 92  1  0  0  0
  4  5  1  0  0  0
  4 93  1  0  0  0
  4 94  1  0  0  0
  5  6  1  0  0  0
  5 26  1  0  0  0
  5 95  1  0  0  0
  6 25  1  0  0  0
  6 96  1  0  0  0
  6 97  1  0  0  0
  7  8  2  0  0  0
  7 26  1  0  0  0
  7 29  1  0  0  0
  8  9  1  0  0  0
  8 22  1  0  0  0
  9 10  1  0  0  0
  9 27  2  0  0  0
 10 11  2  0  0  0
 10 15  1  0  0  0
 11 12  1  0  0  0
 11 98  1  0  0  0
 12 13  2  0  0  0
 12 99  1  0  0  0
 13 14  1  0  0  0
 13 31  1  0  0  0
 14 15  2  0  0  0
 14100  1  0  0  0
 15101  1  0  0  0
 16 17  2  0  0  0
 16 21  1  0  0  0
 16 31  1  0  0  0
 17 18  1  0  0  0
 17102  1  0  0  0
 18 19  2  0  0  0
 18103  1  0  0  0
 19 20  1  0  0  0
 19 24  1  0  0  0
 20 21  2  0  0  0
 20104  1  0  0  0
 21 23  1  0  0  0
 22 28  1  0  0  0
 22 32  2  0  0  0
 26 27  1  0  0  0
 28105  1  0  0  0
 28106  1  0  0  0
 29107  1  0  0  0
 29108  1  0  0  0
 33 34  1  0  0  0
 33 66  1  0  0  0
 33 70  2  0  0  0
 34 36  1  0  0  0
 34 59  1  0  0  0
 34109  1  0  0  0
 35 44  2  0  0  0
 35 45  1  0  0  0
 35 68  1  0  0  0
 36 56  1  0  0  0
 36110  1  0  0  0
 37 39  1  0  0  0
 37 47  1  0  0  0
 37 66  1  0  0  0
 37111  1  0  0  0
 38 43  2  0  0  0
 38 46  1  0  0  0
 38 47  1  0  0  0
 39 64  1  0  0  0
 39 67  2  0  0  0
 40 52  1  0  0  0
 40 53  2  0  0  0
 40 58  1  0  0  0
 41112  1  0  0  0
 41113  1  0  0  0
 41114  1  0  0  0
 41 48  1  0  0  0
 42 43  1  0  0  0
 42 66  1  0  0  0
 42115  1  0  0  0
 42116  1  0  0  0
 43 44  1  0  0  0
 44117  1  0  0  0
 45 46  2  0  0  0
 45118  1  0  0  0
 46119  1  0  0  0
 47120  1  0  0  0
 47121  1  0  0  0
 48 56  1  0  0  0
 48 65  1  0  0  0
 48122  1  0  0  0
 49 50  1  0  0  0
 49 53  1  0  0  0
 49 64  1  0  0  0
 49123  1  0  0  0
 50 51  1  0  0  0
 50124  1  0  0  0
 50125  1  0  0  0
 51 52  1  0  0  0
 51126  1  0  0  0
 51127  1  0  0  0
 52128  1  0  0  0
 52129  1  0  0  0
 53 54  1  0  0  0
 54 55  2  0  0  0
 54130  1  0  0  0
 55 57  1  0  0  0
 55131  1  0  0  0
 56 69  2  0  0  0
 57 58  2  0  0  0
 57132  1  0  0  0
 58133  1  0  0  0
 59 60  1  0  0  0
 59 61  1  0  0  0
 59 62  1  0  0  0
 60134  1  0  0  0
 60135  1  0  0  0
 60136  1  0  0  0
 61137  1  0  0  0
 61138  1  0  0  0
 61139  1  0  0  0
 62140  1  0  0  0
 62141  1  0  0  0
 62142  1  0  0  0
 63 65  1  0  0  0
 63143  1  0  0  0
 63144  1  0  0  0
 63145  1  0  0  0
 64146  1  0  0  0
 65147  1  0  0  0
 68 86  1  0  0  0
 71 72  2  0  0  0
 71 74  1  0  0  0
 71148  1  0  0  0
 72 75  1  0  0  0
 72149  1  0  0  0
 73 74  2  0  0  0
 73 76  1  0  0  0
 73150  1  0  0  0
 74 78  1  0  0  0
 75 76  2  0  0  0
 75 87  1  0  0  0
 76 88  1  0  0  0
 77 78  2  0  0  0
 77 85  1  0  0  0
 77151  1  0  0  0
 78 83  1  0  0  0
 79 83  1  0  0  0
 79152  1  0  0  0
 79153  1  0  0  0
 79154  1  0  0  0
 80155  1  0  0  0
 80156  1  0  0  0
 80157  1  0  0  0
 80 85  1  0  0  0
 81158  1  0  0  0
 81159  1  0  0  0
 81160  1  0  0  0
 81 86  1  0  0  0
 82 86  1  0  0  0
 82161  1  0  0  0
 82162  1  0  0  0
 82163  1  0  0  0
 83164  1  0  0  0
 83165  1  0  0  0
 84 85  1  0  0  0
 84 86  1  0  0  0
 84166  1  0  0  0
 84167  1  0  0  0
 85168  1  0  0  0
 87169  1  0  0  0
 87170  1  0  0  0
 88171  1  0  0  0
M  ISO  4   1 100  68 101  86 101  88 100
M  END
> <chiral flag>
0

> <version>
0

> <s_m_source_file>
/data/baiqing/PycharmProjects/Reinvent-master-3.2/result/LINK_invent/BTK/process_docking_weight1_custom_product_contain_oxygen_bond_distance_aromatic_linkinvent_7_9_3/rearranged_h_0141.sdf

> <i_m_source_file_index>
16

> <r_mmod_Potential_Energy-OPLS-2005>
31.8591918945312

> <r_mmod_Stretch_Energy-OPLS-2005>
65.0401229858398

> <r_mmod_Bend_Energy-OPLS-2005>
156.169219970703

> <r_mmod_Torsional_Energy-OPLS-2005>
297.188018798828

> <r_mmod_Improper_Torsional_Energy-OPLS-2005>
15.7699537277222

> <r_mmod_Van_der_Waal_Energy-OPLS-2005>
165.429443359375

> <r_mmod_Electrostatic_Energy-OPLS-2005>
-519.354614257812

> <r_mmod_Solvation_Energy-OPLS-2005>
-186.823425292969

> <b_mmod_Minimization_Converged-OPLS-2005>
0

> <r_mmod_RMS_Derivative-OPLS-2005>
2.27221655845642

$$$$
16
                    3D
 Structure written by MMmdl.
160168  0  0  1  0            999 V2000
  -30.6156  -14.5832   20.5471 C   0  0  0  0  0  0
  -30.4426  -12.3695   19.4255 C   0  0  0  0  0  0
  -29.5044  -12.5019   18.2047 C   0  0  0  0  0  0
  -28.0264  -12.3402   18.6206 C   0  0  0  0  0  0
  -27.6549  -13.2020   19.8565 C   0  0  2  0  0  0
  -28.6998  -13.0182   20.9812 C   0  0  0  0  0  0
  -25.2603  -13.8154   20.5683 C   0  0  0  0  0  0
  -24.1843  -13.0432   20.9202 C   0  0  0  0  0  0
  -24.6394  -11.6900   20.8755 C   0  0  0  0  0  0
  -23.9048  -10.4290   21.0423 C   0  0  0  0  0  0
  -24.3604   -9.4210   21.9199 C   0  0  0  0  0  0
  -23.6285   -8.2247   22.0759 C   0  0  0  0  0  0
  -22.4269   -8.0291   21.3550 C   0  0  0  0  0  0
  -21.9898   -9.0262   20.4652 C   0  0  0  0  0  0
  -22.7220  -10.2144   20.3062 C   0  0  0  0  0  0
  -21.6849   -6.0745   22.5291 C   0  0  0  0  0  0
  -21.4009   -6.5645   23.8225 C   0  0  0  0  0  0
  -21.3646   -5.6790   24.9181 C   0  0  0  0  0  0
  -21.6046   -4.3056   24.7226 C   0  0  0  0  0  0
  -21.8815   -3.8155   23.4345 C   0  0  0  0  0  0
  -21.9185   -4.6975   22.3408 C   0  0  0  0  0  0
  -22.7864  -13.5264   21.1807 C   0  0  0  0  0  0
  -22.1667   -4.2168   21.0989 F   0  0  0  0  0  0
  -21.5616   -3.4539   25.7733 F   0  0  0  0  0  0
  -30.0165  -13.3640   20.4227 N   0  0  0  0  0  0
  -26.2998  -12.9299   20.3275 N   0  0  0  0  0  0
  -25.9311  -11.6469   20.5746 N   0  0  0  0  0  0
  -22.0459  -12.8324   22.0380 N   0  0  0  0  0  0
  -25.4359  -15.1862   20.4118 N   0  0  0  0  0  0
  -31.7785  -14.7919   20.1845 O   0  0  0  0  0  0
  -21.6636   -6.8884   21.4251 O   0  0  0  0  0  0
  -22.3575  -14.5552   20.6607 O   0  0  0  0  0  0
  -24.6226  -31.8628   23.2025 C   0  0  0  0  0  0
  -25.9081  -32.4804   23.8361 C   0  0  1  0  0  0
  -27.2472  -27.3852   20.1112 C   0  0  0  0  0  0
  -25.5903  -33.8607   24.2277 N   0  0  0  0  0  0
  -23.4125  -30.4862   21.5422 C   0  0  2  0  0  0
  -24.8588  -28.9328   20.1180 C   0  0  0  0  0  0
  -22.7434  -29.4678   22.4940 C   0  0  0  0  0  0
  -18.0270  -28.1430   22.8484 C   0  0  0  0  0  0
  -24.1474  -36.7299   23.2649 C   0  0  0  0  0  0
  -25.9468  -30.8153   21.3574 C   0  0  0  0  0  0
  -26.0224  -29.4451   20.7057 C   0  0  0  0  0  0
  -27.2208  -28.6858   20.6801 C   0  0  0  0  0  0
  -26.0625  -26.8928   19.5205 C   0  0  0  0  0  0
  -24.8780  -27.6600   19.5173 C   0  0  0  0  0  0
  -23.6224  -29.8060   20.1620 C   0  0  0  0  0  0
  -25.4105  -36.3105   24.0334 C   0  0  1  0  0  0
  -20.5876  -28.3726   23.1285 C   0  0  2  0  0  0
  -20.6756  -26.9444   22.5426 C   0  0  0  0  0  0
  -19.5742  -26.6412   21.5227 C   0  0  0  0  0  0
  -18.1911  -26.7971   22.1623 C   0  0  0  0  0  0
  -19.1528  -28.8890   23.2883 C   0  0  0  0  0  0
  -18.9462  -30.1478   23.8919 C   0  0  0  0  0  0
  -17.6469  -30.6620   24.0592 C   0  0  0  0  0  0
  -25.9037  -34.9473   23.5106 C   0  0  0  0  0  0
  -16.5355  -29.9133   23.6346 C   0  0  0  0  0  0
  -16.7265  -28.6561   23.0350 C   0  0  0  0  0  0
  -26.4458  -31.6634   25.0742 C   0  0  0  0  0  0
  -25.3725  -31.3756   26.1505 C   0  0  0  0  0  0
  -27.0292  -30.3081   24.6154 C   0  0  0  0  0  0
  -27.6019  -32.4383   25.7497 C   0  0  0  0  0  0
  -27.5560  -37.1807   24.8460 C   0  0  0  0  0  0
  -21.4155  -29.3088   22.3678 N   0  0  0  0  0  0
  -26.4272  -37.3807   23.9408 N   0  0  0  0  0  0
  -24.6798  -31.0711   22.0914 N   0  0  0  0  0  0
  -23.4171  -28.8221   23.3009 O   0  0  0  0  0  0
  -28.4255  -26.6498   20.0867 O   0  0  0  0  0  0
  -26.5612  -34.8940   22.4671 O   0  0  0  0  0  0
  -23.5403  -32.1359   23.7409 O   0  0  0  0  0  0
  -30.0151  -18.2535   23.4249 C   0  0  0  0  0  0
  -29.8061  -19.4311   22.6811 C   0  0  0  0  0  0
  -30.0967  -16.9998   22.7875 C   0  0  0  0  0  0
  -29.7386  -18.1028   20.6368 C   0  0  0  0  0  0
  -29.6867  -19.3873   21.2713 C   0  0  0  0  0  0
  -29.9381  -16.8997   21.3894 C   0  0  0  0  0  0
  -29.2858  -21.8765   20.8763 C   0  0  0  0  0  0
  -30.2799  -25.1203   18.7730 C   0  0  0  0  0  0
  -28.2080  -23.7554   18.4272 C   0  0  0  0  0  0
  -29.9726  -23.0566   20.1276 C   0  0  0  0  0  0
  -28.4333  -25.2434   20.4844 C   0  0  0  0  0  0
  -29.1917  -24.2813   19.4891 C   0  0  0  0  0  0
  -29.6292  -20.6112   20.4968 N   0  0  0  0  0  0
  -29.7440  -15.5889   20.8300 N   0  0  0  0  0  0
  -28.4889  -22.1183   21.7867 O   0  0  0  0  0  0
  -31.4801  -12.5165   19.1227 H   0  0  0  0  0  0
  -30.3867  -11.3637   19.8473 H   0  0  0  0  0  0
  -29.7624  -11.7604   17.4465 H   0  0  0  0  0  0
  -29.6470  -13.4764   17.7339 H   0  0  0  0  0  0
  -27.8602  -11.2863   18.8482 H   0  0  0  0  0  0
  -27.3706  -12.5811   17.7810 H   0  0  0  0  0  0
  -27.6797  -14.2408   19.5253 H   0  0  0  0  0  0
  -28.7066  -11.9849   21.3331 H   0  0  0  0  0  0
  -28.4503  -13.6273   21.8518 H   0  0  0  0  0  0
  -25.2746   -9.5705   22.4775 H   0  0  0  0  0  0
  -24.0004   -7.4639   22.7474 H   0  0  0  0  0  0
  -21.0831   -8.8778   19.8962 H   0  0  0  0  0  0
  -22.3678  -10.9692   19.6168 H   0  0  0  0  0  0
  -21.2014   -7.6154   23.9735 H   0  0  0  0  0  0
  -21.1462   -6.0523   25.9083 H   0  0  0  0  0  0
  -22.0599   -2.7621   23.2843 H   0  0  0  0  0  0
  -22.4031  -12.0032   22.4899 H   0  0  0  0  0  0
  -21.1045  -13.1374   22.2430 H   0  0  0  0  0  0
  -24.6711  -15.8429   20.5327 H   0  0  0  0  0  0
  -26.2872  -15.6288   20.0885 H   0  0  0  0  0  0
  -26.7162  -32.5461   23.1125 H   0  0  0  0  0  0
  -25.0066  -33.9742   25.0434 H   0  0  0  0  0  0
  -22.7082  -31.3085   21.3961 H   0  0  0  0  0  0
  -23.3739  -35.9632   23.3329 H   0  0  0  0  0  0
  -24.3539  -36.8890   22.2056 H   0  0  0  0  0  0
  -23.7224  -37.6504   23.6651 H   0  0  0  0  0  0
  -26.0725  -31.5797   20.5896 H   0  0  0  0  0  0
  -26.8296  -30.8650   21.9811 H   0  0  0  0  0  0
  -28.1257  -29.0921   21.1080 H   0  0  0  0  0  0
  -26.0565  -25.9219   19.0479 H   0  0  0  0  0  0
  -23.9860  -27.2649   19.0506 H   0  0  0  0  0  0
  -23.7284  -30.5757   19.3976 H   0  0  0  0  0  0
  -22.7455  -29.2248   19.8694 H   0  0  0  0  0  0
  -25.1289  -36.1956   25.0830 H   0  0  0  0  0  0
  -20.9977  -28.3329   24.1408 H   0  0  0  0  0  0
  -20.5657  -26.2354   23.3636 H   0  0  0  0  0  0
  -21.6622  -26.7477   22.1225 H   0  0  0  0  0  0
  -19.6897  -25.6320   21.1260 H   0  0  0  0  0  0
  -19.6682  -27.3230   20.6763 H   0  0  0  0  0  0
  -17.4179  -26.6737   21.4016 H   0  0  0  0  0  0
  -18.0286  -26.0115   22.9026 H   0  0  0  0  0  0
  -19.7945  -30.7283   24.2301 H   0  0  0  0  0  0
  -17.5041  -31.6307   24.5200 H   0  0  0  0  0  0
  -15.5361  -30.3064   23.7685 H   0  0  0  0  0  0
  -15.8647  -28.0914   22.7052 H   0  0  0  0  0  0
  -24.5916  -30.7058   25.7868 H   0  0  0  0  0  0
  -24.8896  -32.2913   26.4948 H   0  0  0  0  0  0
  -25.8115  -30.8969   27.0274 H   0  0  0  0  0  0
  -26.2850  -29.6864   24.1173 H   0  0  0  0  0  0
  -27.3997  -29.7313   25.4630 H   0  0  0  0  0  0
  -27.8705  -30.4384   23.9348 H   0  0  0  0  0  0
  -27.2629  -33.3694   26.2054 H   0  0  0  0  0  0
  -28.3835  -32.6939   25.0331 H   0  0  0  0  0  0
  -28.0684  -31.8540   26.5430 H   0  0  0  0  0  0
  -28.2612  -38.0075   24.7504 H   0  0  0  0  0  0
  -28.1021  -36.2613   24.6297 H   0  0  0  0  0  0
  -27.2267  -37.1471   25.8860 H   0  0  0  0  0  0
  -20.9337  -29.8795   21.6871 H   0  0  0  0  0  0
  -26.0151  -38.2874   24.1442 H   0  0  0  0  0  0
  -30.1039  -18.3150   24.4996 H   0  0  0  0  0  0
  -29.7634  -20.3678   23.2159 H   0  0  0  0  0  0
  -30.2319  -16.1118   23.3924 H   0  0  0  0  0  0
  -29.6031  -18.0358   19.5659 H   0  0  0  0  0  0
  -30.9213  -24.5135   18.1305 H   0  0  0  0  0  0
  -30.9280  -25.6130   19.5010 H   0  0  0  0  0  0
  -29.8522  -25.9022   18.1438 H   0  0  0  0  0  0
  -28.7115  -23.1101   17.7071 H   0  0  0  0  0  0
  -27.7482  -24.5730   17.8701 H   0  0  0  0  0  0
  -27.4072  -23.1703   18.8808 H   0  0  0  0  0  0
  -30.5621  -22.5910   19.3358 H   0  0  0  0  0  0
  -30.7163  -23.4538   20.8198 H   0  0  0  0  0  0
  -28.9488  -25.2220   21.4449 H   0  0  0  0  0  0
  -27.4325  -24.8666   20.6954 H   0  0  0  0  0  0
  -30.0735  -20.5510   19.5888 H   0  0  0  0  0  0
  -28.8004  -15.2482   20.9279 H   0  0  0  0  0  0
  1 25  1  0  0  0
  1 30  2  0  0  0
  1 84  1  0  0  0
  2  3  1  0  0  0
  2 25  1  0  0  0
  2 86  1  0  0  0
  2 87  1  0  0  0
  3  4  1  0  0  0
  3 88  1  0  0  0
  3 89  1  0  0  0
  4  5  1  0  0  0
  4 90  1  0  0  0
  4 91  1  0  0  0
  5  6  1  0  0  0
  5 26  1  0  0  0
  5 92  1  0  0  0
  6 25  1  0  0  0
  6 93  1  0  0  0
  6 94  1  0  0  0
  7  8  2  0  0  0
  7 26  1  0  0  0
  7 29  1  0  0  0
  8  9  1  0  0  0
  8 22  1  0  0  0
  9 10  1  0  0  0
  9 27  2  0  0  0
 10 11  2  0  0  0
 10 15  1  0  0  0
 11 12  1  0  0  0
 11 95  1  0  0  0
 12 13  2  0  0  0
 12 96  1  0  0  0
 13 14  1  0  0  0
 13 31  1  0  0  0
 14 15  2  0  0  0
 14 97  1  0  0  0
 15 98  1  0  0  0
 16 17  2  0  0  0
 16 21  1  0  0  0
 16 31  1  0  0  0
 17 18  1  0  0  0
 17 99  1  0  0  0
 18 19  2  0  0  0
 18100  1  0  0  0
 19 20  1  0  0  0
 19 24  1  0  0  0
 20 21  2  0  0  0
 20101  1  0  0  0
 21 23  1  0  0  0
 22 28  1  0  0  0
 22 32  2  0  0  0
 26 27  1  0  0  0
 28102  1  0  0  0
 28103  1  0  0  0
 29104  1  0  0  0
 29105  1  0  0  0
 33 34  1  0  0  0
 33 66  1  0  0  0
 33 70  2  0  0  0
 34 36  1  0  0  0
 34 59  1  0  0  0
 34106  1  0  0  0
 35 44  2  0  0  0
 35 45  1  0  0  0
 35 68  1  0  0  0
 36 56  1  0  0  0
 36107  1  0  0  0
 37 39  1  0  0  0
 37 47  1  0  0  0
 37 66  1  0  0  0
 37108  1  0  0  0
 38 43  2  0  0  0
 38 46  1  0  0  0
 38 47  1  0  0  0
 39 64  1  0  0  0
 39 67  2  0  0  0
 40 52  1  0  0  0
 40 53  2  0  0  0
 40 58  1  0  0  0
 41109  1  0  0  0
 41110  1  0  0  0
 41111  1  0  0  0
 41 48  1  0  0  0
 42 43  1  0  0  0
 42 66  1  0  0  0
 42112  1  0  0  0
 42113  1  0  0  0
 43 44  1  0  0  0
 44114  1  0  0  0
 45 46  2  0  0  0
 45115  1  0  0  0
 46116  1  0  0  0
 47117  1  0  0  0
 47118  1  0  0  0
 48 56  1  0  0  0
 48 65  1  0  0  0
 48119  1  0  0  0
 49 50  1  0  0  0
 49 53  1  0  0  0
 49 64  1  0  0  0
 49120  1  0  0  0
 50 51  1  0  0  0
 50121  1  0  0  0
 50122  1  0  0  0
 51 52  1  0  0  0
 51123  1  0  0  0
 51124  1  0  0  0
 52125  1  0  0  0
 52126  1  0  0  0
 53 54  1  0  0  0
 54 55  2  0  0  0
 54127  1  0  0  0
 55 57  1  0  0  0
 55128  1  0  0  0
 56 69  2  0  0  0
 57 58  2  0  0  0
 57129  1  0  0  0
 58130  1  0  0  0
 59 60  1  0  0  0
 59 61  1  0  0  0
 59 62  1  0  0  0
 60131  1  0  0  0
 60132  1  0  0  0
 60133  1  0  0  0
 61134  1  0  0  0
 61135  1  0  0  0
 61136  1  0  0  0
 62137  1  0  0  0
 62138  1  0  0  0
 62139  1  0  0  0
 63 65  1  0  0  0
 63140  1  0  0  0
 63141  1  0  0  0
 63142  1  0  0  0
 64143  1  0  0  0
 65144  1  0  0  0
 68 81  1  0  0  0
 71 72  2  0  0  0
 71 73  1  0  0  0
 71145  1  0  0  0
 72 75  1  0  0  0
 72146  1  0  0  0
 73 76  2  0  0  0
 73147  1  0  0  0
 74 75  2  0  0  0
 74 76  1  0  0  0
 74148  1  0  0  0
 75 83  1  0  0  0
 76 84  1  0  0  0
 77 80  1  0  0  0
 77 83  1  0  0  0
 77 85  2  0  0  0
 78149  1  0  0  0
 78150  1  0  0  0
 78151  1  0  0  0
 78 82  1  0  0  0
 79 82  1  0  0  0
 79152  1  0  0  0
 79153  1  0  0  0
 79154  1  0  0  0
 80 82  1  0  0  0
 80155  1  0  0  0
 80156  1  0  0  0
 81 82  1  0  0  0
 81157  1  0  0  0
 81158  1  0  0  0
 83159  1  0  0  0
 84160  1  0  0  0
M  ISO  4   1 100  68 101  81 101  84 100
M  END
> <chiral flag>
0

> <version>
0

> <s_m_source_file>
/data/baiqing/PycharmProjects/Reinvent-master-3.2/result/LINK_invent/BTK/process_docking_weight1_custom_product_contain_oxygen_bond_distance_aromatic_linkinvent_7_9_3/rearranged_h_0141.sdf

> <i_m_source_file_index>
17

> <r_mmod_Potential_Energy-OPLS-2005>
54.8092727661133

> <r_mmod_Stretch_Energy-OPLS-2005>
58.4364967346191

> <r_mmod_Bend_Energy-OPLS-2005>
138.953018188477

> <r_mmod_Torsional_Energy-OPLS-2005>
281.475921630859

> <r_mmod_Improper_Torsional_Energy-OPLS-2005>
9.8552303314209

> <r_mmod_Van_der_Waal_Energy-OPLS-2005>
142.234817504883

> <r_mmod_Electrostatic_Energy-OPLS-2005>
-378.791107177734

> <r_mmod_Solvation_Energy-OPLS-2005>
-225.989212036133

> <b_mmod_Minimization_Converged-OPLS-2005>
0

> <r_mmod_RMS_Derivative-OPLS-2005>
3.83093762397766

$$$$
17
                    3D
 Structure written by MMmdl.
162171  0  0  1  0            999 V2000
  -30.6766  -14.5298   20.4975 C   0  0  0  0  0  0
  -30.4371  -12.3140   19.4475 C   0  0  0  0  0  0
  -29.5024  -12.4093   18.2220 C   0  0  0  0  0  0
  -28.0165  -12.3307   18.6241 C   0  0  0  0  0  0
  -27.6611  -13.1977   19.8648 C   0  0  2  0  0  0
  -28.7031  -13.0305   20.9909 C   0  0  0  0  0  0
  -25.2625  -13.8143   20.5620 C   0  0  0  0  0  0
  -24.1854  -13.0444   20.9124 C   0  0  0  0  0  0
  -24.6393  -11.6909   20.8724 C   0  0  0  0  0  0
  -23.9072  -10.4297   21.0395 C   0  0  0  0  0  0
  -24.3622   -9.4205   21.9168 C   0  0  0  0  0  0
  -23.6280   -8.2257   22.0742 C   0  0  0  0  0  0
  -22.4268   -8.0297   21.3555 C   0  0  0  0  0  0
  -21.9901   -9.0276   20.4634 C   0  0  0  0  0  0
  -22.7248  -10.2139   20.3043 C   0  0  0  0  0  0
  -21.6844   -6.0721   22.5268 C   0  0  0  0  0  0
  -21.4002   -6.5617   23.8206 C   0  0  0  0  0  0
  -21.3656   -5.6761   24.9174 C   0  0  0  0  0  0
  -21.6045   -4.3040   24.7224 C   0  0  0  0  0  0
  -21.8825   -3.8132   23.4347 C   0  0  0  0  0  0
  -21.9195   -4.6948   22.3400 C   0  0  0  0  0  0
  -22.7874  -13.5245   21.1787 C   0  0  0  0  0  0
  -22.1656   -4.2133   21.0975 F   0  0  0  0  0  0
  -21.5647   -3.4519   25.7739 F   0  0  0  0  0  0
  -30.0287  -13.3336   20.4272 N   0  0  0  0  0  0
  -26.3034  -12.9273   20.3346 N   0  0  0  0  0  0
  -25.9315  -11.6446   20.5791 N   0  0  0  0  0  0
  -22.0489  -12.8276   22.0353 N   0  0  0  0  0  0
  -25.4500  -15.1840   20.3952 N   0  0  0  0  0  0
  -31.8266  -14.6909   20.0828 O   0  0  0  0  0  0
  -21.6637   -6.8886   21.4246 O   0  0  0  0  0  0
  -22.3556  -14.5543   20.6630 O   0  0  0  0  0  0
  -24.6124  -31.8708   23.2116 C   0  0  0  0  0  0
  -25.9028  -32.4829   23.8416 C   0  0  1  0  0  0
  -27.2414  -27.4499   20.1190 C   0  0  0  0  0  0
  -25.5884  -33.8622   24.2349 N   0  0  0  0  0  0
  -23.3998  -30.4927   21.5499 C   0  0  2  0  0  0
  -24.8532  -28.9616   20.1135 C   0  0  0  0  0  0
  -22.7407  -29.4657   22.4984 C   0  0  0  0  0  0
  -18.0287  -28.1391   22.8499 C   0  0  0  0  0  0
  -24.1467  -36.7321   23.2624 C   0  0  0  0  0  0
  -25.9240  -30.8460   21.3580 C   0  0  0  0  0  0
  -26.0083  -29.4761   20.7195 C   0  0  0  0  0  0
  -27.2041  -28.7250   20.7295 C   0  0  0  0  0  0
  -26.0809  -26.9535   19.4928 C   0  0  0  0  0  0
  -24.8846  -27.6983   19.4969 C   0  0  0  0  0  0
  -23.6099  -29.8243   20.1641 C   0  0  0  0  0  0
  -25.4071  -36.3100   24.0333 C   0  0  1  0  0  0
  -20.5873  -28.3675   23.1328 C   0  0  2  0  0  0
  -20.6773  -26.9403   22.5429 C   0  0  0  0  0  0
  -19.5738  -26.6394   21.5222 C   0  0  0  0  0  0
  -18.1909  -26.7946   22.1612 C   0  0  0  0  0  0
  -19.1531  -28.8852   23.2909 C   0  0  0  0  0  0
  -18.9456  -30.1454   23.8917 C   0  0  0  0  0  0
  -17.6451  -30.6583   24.0589 C   0  0  0  0  0  0
  -25.9020  -34.9475   23.5129 C   0  0  0  0  0  0
  -16.5355  -29.9096   23.6312 C   0  0  0  0  0  0
  -16.7272  -28.6520   23.0334 C   0  0  0  0  0  0
  -26.4457  -31.6587   25.0736 C   0  0  0  0  0  0
  -25.3730  -31.3717   26.1507 C   0  0  0  0  0  0
  -27.0250  -30.3020   24.6065 C   0  0  0  0  0  0
  -27.6041  -32.4284   25.7522 C   0  0  0  0  0  0
  -27.5573  -37.1798   24.8418 C   0  0  0  0  0  0
  -21.4137  -29.3036   22.3731 N   0  0  0  0  0  0
  -26.4243  -37.3800   23.9427 N   0  0  0  0  0  0
  -24.6629  -31.0842   22.0988 N   0  0  0  0  0  0
  -23.4196  -28.8196   23.3013 O   0  0  0  0  0  0
  -28.3754  -26.6755   20.1244 O   0  0  0  0  0  0
  -26.5578  -34.8924   22.4687 O   0  0  0  0  0  0
  -23.5326  -32.1459   23.7522 O   0  0  0  0  0  0
  -30.0203  -18.5937   18.6048 C   0  0  0  0  0  0
  -30.2373  -19.6262   19.5302 C   0  0  0  0  0  0
  -30.1927  -18.0025   21.3379 C   0  0  0  0  0  0
  -29.8854  -17.2565   19.0243 C   0  0  0  0  0  0
  -30.2861  -19.3629   20.9208 C   0  0  0  0  0  0
  -30.0292  -16.9362   20.4084 C   0  0  0  0  0  0
  -29.9339  -22.6606   22.5659 C   0  0  0  0  0  0
  -29.4896  -23.9435   22.5333 C   0  0  0  0  0  0
  -29.4479  -24.8027   21.3188 C   0  0  0  0  0  0
  -29.9308  -21.7617   23.7840 C   0  0  0  0  0  0
  -30.4167  -21.8304   21.3981 C   0  0  0  0  0  0
  -29.9199  -20.3305   23.2118 C   0  0  0  0  0  0
  -29.5513  -16.2264   17.9536 C   0  0  0  0  0  0
  -28.6925  -26.1446   21.4221 C   0  0  0  0  0  0
  -30.4314  -20.4331   21.8453 N   0  0  0  0  0  0
  -29.9220  -15.5826   20.8889 N   0  0  0  0  0  0
  -29.9936  -24.5038   20.2513 O   0  0  0  0  0  0
  -31.4732  -12.4287   19.1268 H   0  0  0  0  0  0
  -30.3808  -11.3309   19.9135 H   0  0  0  0  0  0
  -29.7325  -11.5915   17.5339 H   0  0  0  0  0  0
  -29.6889  -13.3232   17.6655 H   0  0  0  0  0  0
  -27.7894  -11.2842   18.8301 H   0  0  0  0  0  0
  -27.3891  -12.6116   17.7762 H   0  0  0  0  0  0
  -27.6965  -14.2352   19.5422 H   0  0  0  0  0  0
  -28.6918  -12.0139   21.3759 H   0  0  0  0  0  0
  -28.4594  -13.6704   21.8406 H   0  0  0  0  0  0
  -25.2776   -9.5657   22.4743 H   0  0  0  0  0  0
  -23.9992   -7.4619   22.7435 H   0  0  0  0  0  0
  -21.0851   -8.8776   19.8920 H   0  0  0  0  0  0
  -22.3715  -10.9674   19.6138 H   0  0  0  0  0  0
  -21.1986   -7.6113   23.9694 H   0  0  0  0  0  0
  -21.1460   -6.0506   25.9070 H   0  0  0  0  0  0
  -22.0617   -2.7592   23.2861 H   0  0  0  0  0  0
  -22.4031  -11.9930   22.4785 H   0  0  0  0  0  0
  -21.1086  -13.1289   22.2446 H   0  0  0  0  0  0
  -24.7059  -15.8658   20.4856 H   0  0  0  0  0  0
  -26.3242  -15.5950   20.0900 H   0  0  0  0  0  0
  -26.7115  -32.5577   23.1208 H   0  0  0  0  0  0
  -25.0026  -33.9791   25.0484 H   0  0  0  0  0  0
  -22.6829  -31.3056   21.4127 H   0  0  0  0  0  0
  -23.3731  -35.9641   23.3202 H   0  0  0  0  0  0
  -24.3612  -36.9033   22.2061 H   0  0  0  0  0  0
  -23.7208  -37.6487   23.6713 H   0  0  0  0  0  0
  -26.0189  -31.6024   20.5776 H   0  0  0  0  0  0
  -26.8187  -30.9203   21.9635 H   0  0  0  0  0  0
  -28.0933  -29.1173   21.2031 H   0  0  0  0  0  0
  -26.1010  -25.9817   19.0198 H   0  0  0  0  0  0
  -23.9996  -27.2968   19.0221 H   0  0  0  0  0  0
  -23.7081  -30.5988   19.4020 H   0  0  0  0  0  0
  -22.7344  -29.2405   19.8743 H   0  0  0  0  0  0
  -25.1205  -36.1954   25.0817 H   0  0  0  0  0  0
  -20.9970  -28.3272   24.1446 H   0  0  0  0  0  0
  -20.5674  -26.2264   23.3612 H   0  0  0  0  0  0
  -21.6650  -26.7454   22.1237 H   0  0  0  0  0  0
  -19.6880  -25.6309   21.1229 H   0  0  0  0  0  0
  -19.6659  -27.3220   20.6765 H   0  0  0  0  0  0
  -17.4181  -26.6745   21.4006 H   0  0  0  0  0  0
  -18.0249  -26.0091   22.8990 H   0  0  0  0  0  0
  -19.7930  -30.7283   24.2276 H   0  0  0  0  0  0
  -17.5006  -31.6258   24.5201 H   0  0  0  0  0  0
  -15.5350  -30.3004   23.7613 H   0  0  0  0  0  0
  -15.8685  -28.0849   22.7013 H   0  0  0  0  0  0
  -24.5846  -30.7108   25.7885 H   0  0  0  0  0  0
  -24.8983  -32.2884   26.5011 H   0  0  0  0  0  0
  -25.8083  -30.8856   27.0245 H   0  0  0  0  0  0
  -26.2786  -29.6857   24.1032 H   0  0  0  0  0  0
  -27.3932  -29.7180   25.4514 H   0  0  0  0  0  0
  -27.8664  -30.4334   23.9255 H   0  0  0  0  0  0
  -27.2667  -33.3601   26.2084 H   0  0  0  0  0  0
  -28.3889  -32.6806   25.0374 H   0  0  0  0  0  0
  -28.0646  -31.8394   26.5469 H   0  0  0  0  0  0
  -28.2488  -38.0194   24.7588 H   0  0  0  0  0  0
  -28.1161  -36.2734   24.6030 H   0  0  0  0  0  0
  -27.2340  -37.1230   25.8830 H   0  0  0  0  0  0
  -20.9265  -29.8759   21.6976 H   0  0  0  0  0  0
  -26.0101  -38.2847   24.1506 H   0  0  0  0  0  0
  -29.9417  -18.8519   17.5555 H   0  0  0  0  0  0
  -30.3371  -20.6250   19.1307 H   0  0  0  0  0  0
  -30.2671  -17.7685   22.3901 H   0  0  0  0  0  0
  -29.1274  -24.3872   23.4495 H   0  0  0  0  0  0
  -29.0938  -21.9566   24.4571 H   0  0  0  0  0  0
  -30.8531  -21.9348   24.3435 H   0  0  0  0  0  0
  -31.4257  -22.1455   21.1239 H   0  0  0  0  0  0
  -29.7455  -21.9927   20.5545 H   0  0  0  0  0  0
  -28.8969  -19.9448   23.1907 H   0  0  0  0  0  0
  -30.5217  -19.6607   23.8306 H   0  0  0  0  0  0
  -29.5105  -16.6889   16.9650 H   0  0  0  0  0  0
  -28.5718  -15.7787   18.1317 H   0  0  0  0  0  0
  -30.3139  -15.4504   17.8967 H   0  0  0  0  0  0
  -29.3026  -26.8608   21.9725 H   0  0  0  0  0  0
  -27.7824  -25.9779   21.9993 H   0  0  0  0  0  0
  -29.0844  -15.3523   21.3985 H   0  0  0  0  0  0
  1 25  1  0  0  0
  1 30  2  0  0  0
  1 86  1  0  0  0
  2  3  1  0  0  0
  2 25  1  0  0  0
  2 88  1  0  0  0
  2 89  1  0  0  0
  3  4  1  0  0  0
  3 90  1  0  0  0
  3 91  1  0  0  0
  4  5  1  0  0  0
  4 92  1  0  0  0
  4 93  1  0  0  0
  5  6  1  0  0  0
  5 26  1  0  0  0
  5 94  1  0  0  0
  6 25  1  0  0  0
  6 95  1  0  0  0
  6 96  1  0  0  0
  7  8  2  0  0  0
  7 26  1  0  0  0
  7 29  1  0  0  0
  8  9  1  0  0  0
  8 22  1  0  0  0
  9 10  1  0  0  0
  9 27  2  0  0  0
 10 11  2  0  0  0
 10 15  1  0  0  0
 11 12  1  0  0  0
 11 97  1  0  0  0
 12 13  2  0  0  0
 12 98  1  0  0  0
 13 14  1  0  0  0
 13 31  1  0  0  0
 14 15  2  0  0  0
 14 99  1  0  0  0
 15100  1  0  0  0
 16 17  2  0  0  0
 16 21  1  0  0  0
 16 31  1  0  0  0
 17 18  1  0  0  0
 17101  1  0  0  0
 18 19  2  0  0  0
 18102  1  0  0  0
 19 20  1  0  0  0
 19 24  1  0  0  0
 20 21  2  0  0  0
 20103  1  0  0  0
 21 23  1  0  0  0
 22 28  1  0  0  0
 22 32  2  0  0  0
 26 27  1  0  0  0
 28104  1  0  0  0
 28105  1  0  0  0
 29106  1  0  0  0
 29107  1  0  0  0
 33 34  1  0  0  0
 33 66  1  0  0  0
 33 70  2  0  0  0
 34 36  1  0  0  0
 34 59  1  0  0  0
 34108  1  0  0  0
 35 44  2  0  0  0
 35 45  1  0  0  0
 35 68  1  0  0  0
 36 56  1  0  0  0
 36109  1  0  0  0
 37 39  1  0  0  0
 37 47  1  0  0  0
 37 66  1  0  0  0
 37110  1  0  0  0
 38 43  2  0  0  0
 38 46  1  0  0  0
 38 47  1  0  0  0
 39 64  1  0  0  0
 39 67  2  0  0  0
 40 52  1  0  0  0
 40 53  2  0  0  0
 40 58  1  0  0  0
 41111  1  0  0  0
 41112  1  0  0  0
 41113  1  0  0  0
 41 48  1  0  0  0
 42 43  1  0  0  0
 42 66  1  0  0  0
 42114  1  0  0  0
 42115  1  0  0  0
 43 44  1  0  0  0
 44116  1  0  0  0
 45 46  2  0  0  0
 45117  1  0  0  0
 46118  1  0  0  0
 47119  1  0  0  0
 47120  1  0  0  0
 48 56  1  0  0  0
 48 65  1  0  0  0
 48121  1  0  0  0
 49 50  1  0  0  0
 49 53  1  0  0  0
 49 64  1  0  0  0
 49122  1  0  0  0
 50 51  1  0  0  0
 50123  1  0  0  0
 50124  1  0  0  0
 51 52  1  0  0  0
 51125  1  0  0  0
 51126  1  0  0  0
 52127  1  0  0  0
 52128  1  0  0  0
 53 54  1  0  0  0
 54 55  2  0  0  0
 54129  1  0  0  0
 55 57  1  0  0  0
 55130  1  0  0  0
 56 69  2  0  0  0
 57 58  2  0  0  0
 57131  1  0  0  0
 58132  1  0  0  0
 59 60  1  0  0  0
 59 61  1  0  0  0
 59 62  1  0  0  0
 60133  1  0  0  0
 60134  1  0  0  0
 60135  1  0  0  0
 61136  1  0  0  0
 61137  1  0  0  0
 61138  1  0  0  0
 62139  1  0  0  0
 62140  1  0  0  0
 62141  1  0  0  0
 63 65  1  0  0  0
 63142  1  0  0  0
 63143  1  0  0  0
 63144  1  0  0  0
 64145  1  0  0  0
 65146  1  0  0  0
 68 84  1  0  0  0
 71 72  2  0  0  0
 71 74  1  0  0  0
 71147  1  0  0  0
 72 75  1  0  0  0
 72148  1  0  0  0
 73 75  2  0  0  0
 73 76  1  0  0  0
 73149  1  0  0  0
 74 76  2  0  0  0
 74 83  1  0  0  0
 75 85  1  0  0  0
 76 86  1  0  0  0
 77 78  2  0  0  0
 77 80  1  0  0  0
 77 81  1  0  0  0
 78 79  1  0  0  0
 78150  1  0  0  0
 79 84  1  0  0  0
 79 87  2  0  0  0
 80 82  1  0  0  0
 80151  1  0  0  0
 80152  1  0  0  0
 81 85  1  0  0  0
 81153  1  0  0  0
 81154  1  0  0  0
 82 85  1  0  0  0
 82155  1  0  0  0
 82156  1  0  0  0
 83157  1  0  0  0
 83158  1  0  0  0
 83159  1  0  0  0
 84160  1  0  0  0
 84161  1  0  0  0
 86162  1  0  0  0
M  ISO  4   1 100  68 101  84 101  86 100
M  END
> <chiral flag>
0

> <version>
0

> <s_m_source_file>
/data/baiqing/PycharmProjects/Reinvent-master-3.2/result/LINK_invent/BTK/process_docking_weight1_custom_product_contain_oxygen_bond_distance_aromatic_linkinvent_7_9_3/rearranged_h_0141.sdf

> <i_m_source_file_index>
18

> <r_mmod_Potential_Energy-OPLS-2005>
20.403959274292

> <r_mmod_Stretch_Energy-OPLS-2005>
43.182689666748

> <r_mmod_Bend_Energy-OPLS-2005>
131.745162963867

> <r_mmod_Torsional_Energy-OPLS-2005>
281.793670654297

> <r_mmod_Improper_Torsional_Energy-OPLS-2005>
7.00509405136108

> <r_mmod_Van_der_Waal_Energy-OPLS-2005>
151.238296508789

> <r_mmod_Electrostatic_Energy-OPLS-2005>
-359.282531738281

> <r_mmod_Solvation_Energy-OPLS-2005>
-255.256561279297

> <b_mmod_Minimization_Converged-OPLS-2005>
0

> <r_mmod_RMS_Derivative-OPLS-2005>
4.63913631439209

$$$$
18
                    3D
 Structure written by MMmdl.
160168  0  0  1  0            999 V2000
  -30.6824  -14.4923   20.5109 C   0  0  0  0  0  0
  -30.4157  -12.2920   19.4440 C   0  0  0  0  0  0
  -29.5052  -12.4961   18.2143 C   0  0  0  0  0  0
  -28.0184  -12.3832   18.6100 C   0  0  0  0  0  0
  -27.6607  -13.2151   19.8718 C   0  0  2  0  0  0
  -28.6985  -13.0108   20.9993 C   0  0  0  0  0  0
  -25.2585  -13.8173   20.5654 C   0  0  0  0  0  0
  -24.1838  -13.0446   20.9142 C   0  0  0  0  0  0
  -24.6406  -11.6916   20.8708 C   0  0  0  0  0  0
  -23.9071  -10.4303   21.0398 C   0  0  0  0  0  0
  -24.3622   -9.4216   21.9173 C   0  0  0  0  0  0
  -23.6289   -8.2247   22.0748 C   0  0  0  0  0  0
  -22.4261   -8.0301   21.3545 C   0  0  0  0  0  0
  -21.9903   -9.0271   20.4647 C   0  0  0  0  0  0
  -22.7243  -10.2143   20.3054 C   0  0  0  0  0  0
  -21.6853   -6.0745   22.5267 C   0  0  0  0  0  0
  -21.4031   -6.5638   23.8212 C   0  0  0  0  0  0
  -21.3656   -5.6787   24.9163 C   0  0  0  0  0  0
  -21.6034   -4.3048   24.7214 C   0  0  0  0  0  0
  -21.8820   -3.8147   23.4330 C   0  0  0  0  0  0
  -21.9194   -4.6967   22.3393 C   0  0  0  0  0  0
  -22.7858  -13.5245   21.1795 C   0  0  0  0  0  0
  -22.1660   -4.2155   21.0967 F   0  0  0  0  0  0
  -21.5621   -3.4535   25.7725 F   0  0  0  0  0  0
  -30.0296  -13.2997   20.4458 N   0  0  0  0  0  0
  -26.3019  -12.9353   20.3317 N   0  0  0  0  0  0
  -25.9334  -11.6502   20.5724 N   0  0  0  0  0  0
  -22.0493  -12.8262   22.0358 N   0  0  0  0  0  0
  -25.4310  -15.1896   20.4079 N   0  0  0  0  0  0
  -31.8449  -14.6313   20.1178 O   0  0  0  0  0  0
  -21.6634   -6.8890   21.4236 O   0  0  0  0  0  0
  -22.3540  -14.5544   20.6637 O   0  0  0  0  0  0
  -24.6154  -31.8688   23.2097 C   0  0  0  0  0  0
  -25.9039  -32.4831   23.8393 C   0  0  1  0  0  0
  -27.2216  -27.4278   20.1083 C   0  0  0  0  0  0
  -25.5885  -33.8629   24.2317 N   0  0  0  0  0  0
  -23.4036  -30.4940   21.5519 C   0  0  2  0  0  0
  -24.8490  -28.9645   20.1108 C   0  0  0  0  0  0
  -22.7422  -29.4661   22.4982 C   0  0  0  0  0  0
  -18.0265  -28.1392   22.8487 C   0  0  0  0  0  0
  -24.1485  -36.7322   23.2632 C   0  0  0  0  0  0
  -25.9350  -30.8332   21.3669 C   0  0  0  0  0  0
  -26.0113  -29.4708   20.7079 C   0  0  0  0  0  0
  -27.2053  -28.7122   20.6982 C   0  0  0  0  0  0
  -26.0492  -26.9478   19.4843 C   0  0  0  0  0  0
  -24.8629  -27.7036   19.4928 C   0  0  0  0  0  0
  -23.6131  -29.8339   20.1637 C   0  0  0  0  0  0
  -25.4107  -36.3125   24.0331 C   0  0  1  0  0  0
  -20.5860  -28.3677   23.1318 C   0  0  2  0  0  0
  -20.6761  -26.9413   22.5417 C   0  0  0  0  0  0
  -19.5737  -26.6402   21.5212 C   0  0  0  0  0  0
  -18.1914  -26.7932   22.1627 C   0  0  0  0  0  0
  -19.1518  -28.8850   23.2899 C   0  0  0  0  0  0
  -18.9451  -30.1453   23.8912 C   0  0  0  0  0  0
  -17.6456  -30.6594   24.0577 C   0  0  0  0  0  0
  -25.9038  -34.9485   23.5131 C   0  0  0  0  0  0
  -16.5343  -29.9107   23.6330 C   0  0  0  0  0  0
  -16.7258  -28.6530   23.0338 C   0  0  0  0  0  0
  -26.4460  -31.6606   25.0727 C   0  0  0  0  0  0
  -25.3717  -31.3723   26.1473 C   0  0  0  0  0  0
  -27.0275  -30.3031   24.6124 C   0  0  0  0  0  0
  -27.6038  -32.4327   25.7487 C   0  0  0  0  0  0
  -27.5587  -37.1810   24.8457 C   0  0  0  0  0  0
  -21.4146  -29.3041   22.3723 N   0  0  0  0  0  0
  -26.4295  -37.3813   23.9409 N   0  0  0  0  0  0
  -24.6693  -31.0792   22.1010 N   0  0  0  0  0  0
  -23.4193  -28.8198   23.3018 O   0  0  0  0  0  0
  -28.3468  -26.6328   20.1552 O   0  0  0  0  0  0
  -26.5621  -34.8936   22.4705 O   0  0  0  0  0  0
  -23.5346  -32.1445   23.7496 O   0  0  0  0  0  0
  -30.6515  -18.4368   18.5265 C   0  0  0  0  0  0
  -30.1801  -19.5317   19.2727 C   0  0  0  0  0  0
  -30.5770  -17.1342   19.0493 C   0  0  0  0  0  0
  -29.5432  -18.0131   21.0688 C   0  0  0  0  0  0
  -29.6151  -19.3459   20.5553 C   0  0  0  0  0  0
  -30.0401  -16.8991   20.3377 C   0  0  0  0  0  0
  -29.0992  -20.5304   21.3237 C   0  0  0  0  0  0
  -28.8526  -24.0019   18.8768 C   0  0  0  0  0  0
  -30.5218  -24.5705   20.6829 C   0  0  0  0  0  0
  -28.1428  -25.3868   20.8607 C   0  0  0  0  0  0
  -28.6646  -22.9139   21.1663 C   0  0  0  0  0  0
  -29.0524  -24.2159   20.3896 C   0  0  0  0  0  0
  -28.5103  -20.4588   22.4429 N   0  0  0  0  0  0
  -29.9313  -15.5626   20.8659 N   0  0  0  0  0  0
  -29.3442  -21.7375   20.6823 O   0  0  0  0  0  0
  -31.4674  -12.3623   19.1606 H   0  0  0  0  0  0
  -30.2868  -11.2887   19.8536 H   0  0  0  0  0  0
  -29.7429  -11.7649   17.4408 H   0  0  0  0  0  0
  -29.6952  -13.4747   17.7704 H   0  0  0  0  0  0
  -27.7973  -11.3288   18.7820 H   0  0  0  0  0  0
  -27.3879  -12.6918   17.7745 H   0  0  0  0  0  0
  -27.7024  -14.2630   19.5721 H   0  0  0  0  0  0
  -28.6665  -11.9830   21.3648 H   0  0  0  0  0  0
  -28.4705  -13.6362   21.8631 H   0  0  0  0  0  0
  -25.2781   -9.5679   22.4724 H   0  0  0  0  0  0
  -24.0010   -7.4631   22.7466 H   0  0  0  0  0  0
  -21.0834   -8.8796   19.8953 H   0  0  0  0  0  0
  -22.3718  -10.9677   19.6149 H   0  0  0  0  0  0
  -21.2052   -7.6152   23.9716 H   0  0  0  0  0  0
  -21.1467   -6.0513   25.9063 H   0  0  0  0  0  0
  -22.0608   -2.7611   23.2816 H   0  0  0  0  0  0
  -22.4104  -11.9961   22.4814 H   0  0  0  0  0  0
  -21.1100  -13.1288   22.2524 H   0  0  0  0  0  0
  -24.6675  -15.8480   20.5193 H   0  0  0  0  0  0
  -26.2857  -15.6256   20.0848 H   0  0  0  0  0  0
  -26.7107  -32.5536   23.1155 H   0  0  0  0  0  0
  -24.9977  -33.9788   25.0420 H   0  0  0  0  0  0
  -22.6921  -31.3111   21.4156 H   0  0  0  0  0  0
  -23.3757  -35.9646   23.3300 H   0  0  0  0  0  0
  -24.3574  -36.8938   22.2045 H   0  0  0  0  0  0
  -23.7221  -37.6518   23.6649 H   0  0  0  0  0  0
  -26.0554  -31.6050   20.6056 H   0  0  0  0  0  0
  -26.8190  -30.8778   21.9911 H   0  0  0  0  0  0
  -28.1009  -29.0953   21.1678 H   0  0  0  0  0  0
  -26.0472  -25.9791   19.0056 H   0  0  0  0  0  0
  -23.9713  -27.3081   19.0268 H   0  0  0  0  0  0
  -23.7287  -30.6150   19.4110 H   0  0  0  0  0  0
  -22.7356  -29.2612   19.8595 H   0  0  0  0  0  0
  -25.1280  -36.1995   25.0823 H   0  0  0  0  0  0
  -20.9939  -28.3241   24.1445 H   0  0  0  0  0  0
  -20.5675  -26.2280   23.3601 H   0  0  0  0  0  0
  -21.6632  -26.7466   22.1203 H   0  0  0  0  0  0
  -19.6900  -25.6320   21.1225 H   0  0  0  0  0  0
  -19.6671  -27.3233   20.6755 H   0  0  0  0  0  0
  -17.4178  -26.6676   21.4034 H   0  0  0  0  0  0
  -18.0322  -26.0079   22.9032 H   0  0  0  0  0  0
  -19.7929  -30.7263   24.2291 H   0  0  0  0  0  0
  -17.5017  -31.6271   24.5191 H   0  0  0  0  0  0
  -15.5350  -30.3025   23.7641 H   0  0  0  0  0  0
  -15.8654  -28.0869   22.7033 H   0  0  0  0  0  0
  -24.5874  -30.7095   25.7800 H   0  0  0  0  0  0
  -24.8931  -32.2888   26.4934 H   0  0  0  0  0  0
  -25.8059  -30.8867   27.0221 H   0  0  0  0  0  0
  -26.2823  -29.6820   24.1146 H   0  0  0  0  0  0
  -27.3972  -29.7247   25.4600 H   0  0  0  0  0  0
  -27.8697  -30.4313   23.9324 H   0  0  0  0  0  0
  -27.2645  -33.3605   26.2106 H   0  0  0  0  0  0
  -28.3821  -32.6927   25.0299 H   0  0  0  0  0  0
  -28.0740  -31.8431   26.5368 H   0  0  0  0  0  0
  -28.2606  -38.0110   24.7538 H   0  0  0  0  0  0
  -28.1085  -36.2647   24.6246 H   0  0  0  0  0  0
  -27.2311  -37.1421   25.8860 H   0  0  0  0  0  0
  -20.9305  -29.8776   21.6956 H   0  0  0  0  0  0
  -26.0192  -38.2892   24.1427 H   0  0  0  0  0  0
  -31.0652  -18.5955   17.5413 H   0  0  0  0  0  0
  -30.2482  -20.5196   18.8361 H   0  0  0  0  0  0
  -30.9271  -16.3193   18.4310 H   0  0  0  0  0  0
  -29.1097  -17.8430   22.0432 H   0  0  0  0  0  0
  -29.0715  -24.9110   18.3155 H   0  0  0  0  0  0
  -27.8269  -23.7139   18.6448 H   0  0  0  0  0  0
  -29.5077  -23.2201   18.4924 H   0  0  0  0  0  0
  -30.8341  -25.4636   20.1397 H   0  0  0  0  0  0
  -31.1909  -23.7582   20.3982 H   0  0  0  0  0  0
  -30.6760  -24.7675   21.7443 H   0  0  0  0  0  0
  -28.3092  -25.5775   21.9225 H   0  0  0  0  0  0
  -27.1084  -25.0480   20.7970 H   0  0  0  0  0  0
  -27.5875  -22.7480   21.0878 H   0  0  0  0  0  0
  -28.8747  -23.0641   22.2269 H   0  0  0  0  0  0
  -28.4265  -19.5021   22.7666 H   0  0  0  0  0  0
  -29.0829  -15.3506   21.3687 H   0  0  0  0  0  0
  1 25  1  0  0  0
  1 30  2  0  0  0
  1 84  1  0  0  0
  2  3  1  0  0  0
  2 25  1  0  0  0
  2 86  1  0  0  0
  2 87  1  0  0  0
  3  4  1  0  0  0
  3 88  1  0  0  0
  3 89  1  0  0  0
  4  5  1  0  0  0
  4 90  1  0  0  0
  4 91  1  0  0  0
  5  6  1  0  0  0
  5 26  1  0  0  0
  5 92  1  0  0  0
  6 25  1  0  0  0
  6 93  1  0  0  0
  6 94  1  0  0  0
  7  8  2  0  0  0
  7 26  1  0  0  0
  7 29  1  0  0  0
  8  9  1  0  0  0
  8 22  1  0  0  0
  9 10  1  0  0  0
  9 27  2  0  0  0
 10 11  2  0  0  0
 10 15  1  0  0  0
 11 12  1  0  0  0
 11 95  1  0  0  0
 12 13  2  0  0  0
 12 96  1  0  0  0
 13 14  1  0  0  0
 13 31  1  0  0  0
 14 15  2  0  0  0
 14 97  1  0  0  0
 15 98  1  0  0  0
 16 17  2  0  0  0
 16 21  1  0  0  0
 16 31  1  0  0  0
 17 18  1  0  0  0
 17 99  1  0  0  0
 18 19  2  0  0  0
 18100  1  0  0  0
 19 20  1  0  0  0
 19 24  1  0  0  0
 20 21  2  0  0  0
 20101  1  0  0  0
 21 23  1  0  0  0
 22 28  1  0  0  0
 22 32  2  0  0  0
 26 27  1  0  0  0
 28102  1  0  0  0
 28103  1  0  0  0
 29104  1  0  0  0
 29105  1  0  0  0
 33 34  1  0  0  0
 33 66  1  0  0  0
 33 70  2  0  0  0
 34 36  1  0  0  0
 34 59  1  0  0  0
 34106  1  0  0  0
 35 44  2  0  0  0
 35 45  1  0  0  0
 35 68  1  0  0  0
 36 56  1  0  0  0
 36107  1  0  0  0
 37 39  1  0  0  0
 37 47  1  0  0  0
 37 66  1  0  0  0
 37108  1  0  0  0
 38 43  2  0  0  0
 38 46  1  0  0  0
 38 47  1  0  0  0
 39 64  1  0  0  0
 39 67  2  0  0  0
 40 52  1  0  0  0
 40 53  2  0  0  0
 40 58  1  0  0  0
 41109  1  0  0  0
 41110  1  0  0  0
 41111  1  0  0  0
 41 48  1  0  0  0
 42 43  1  0  0  0
 42 66  1  0  0  0
 42112  1  0  0  0
 42113  1  0  0  0
 43 44  1  0  0  0
 44114  1  0  0  0
 45 46  2  0  0  0
 45115  1  0  0  0
 46116  1  0  0  0
 47117  1  0  0  0
 47118  1  0  0  0
 48 56  1  0  0  0
 48 65  1  0  0  0
 48119  1  0  0  0
 49 50  1  0  0  0
 49 53  1  0  0  0
 49 64  1  0  0  0
 49120  1  0  0  0
 50 51  1  0  0  0
 50121  1  0  0  0
 50122  1  0  0  0
 51 52  1  0  0  0
 51123  1  0  0  0
 51124  1  0  0  0
 52125  1  0  0  0
 52126  1  0  0  0
 53 54  1  0  0  0
 54 55  2  0  0  0
 54127  1  0  0  0
 55 57  1  0  0  0
 55128  1  0  0  0
 56 69  2  0  0  0
 57 58  2  0  0  0
 57129  1  0  0  0
 58130  1  0  0  0
 59 60  1  0  0  0
 59 61  1  0  0  0
 59 62  1  0  0  0
 60131  1  0  0  0
 60132  1  0  0  0
 60133  1  0  0  0
 61134  1  0  0  0
 61135  1  0  0  0
 61136  1  0  0  0
 62137  1  0  0  0
 62138  1  0  0  0
 62139  1  0  0  0
 63 65  1  0  0  0
 63140  1  0  0  0
 63141  1  0  0  0
 63142  1  0  0  0
 64143  1  0  0  0
 65144  1  0  0  0
 68 80  1  0  0  0
 71 72  2  0  0  0
 71 73  1  0  0  0
 71145  1  0  0  0
 72 75  1  0  0  0
 72146  1  0  0  0
 73 76  2  0  0  0
 73147  1  0  0  0
 74 75  2  0  0  0
 74 76  1  0  0  0
 74148  1  0  0  0
 75 77  1  0  0  0
 76 84  1  0  0  0
 77 83  2  0  0  0
 77 85  1  0  0  0
 78149  1  0  0  0
 78150  1  0  0  0
 78151  1  0  0  0
 78 82  1  0  0  0
 79 82  1  0  0  0
 79152  1  0  0  0
 79153  1  0  0  0
 79154  1  0  0  0
 80 82  1  0  0  0
 80155  1  0  0  0
 80156  1  0  0  0
 81 82  1  0  0  0
 81 85  1  0  0  0
 81157  1  0  0  0
 81158  1  0  0  0
 83159  1  0  0  0
 84160  1  0  0  0
M  ISO  4   1 100  68 101  80 101  84 100
M  END
> <chiral flag>
0

> <version>
0

> <s_m_source_file>
/data/baiqing/PycharmProjects/Reinvent-master-3.2/result/LINK_invent/BTK/process_docking_weight1_custom_product_contain_oxygen_bond_distance_aromatic_linkinvent_7_9_3/rearranged_h_0141.sdf

> <i_m_source_file_index>
19

> <r_mmod_Potential_Energy-OPLS-2005>
-34.408618927002

> <r_mmod_Stretch_Energy-OPLS-2005>
45.2999229431152

> <r_mmod_Bend_Energy-OPLS-2005>
97.2830581665039

> <r_mmod_Torsional_Energy-OPLS-2005>
254.54753112793

> <r_mmod_Improper_Torsional_Energy-OPLS-2005>
4.78452110290527

> <r_mmod_Van_der_Waal_Energy-OPLS-2005>
164.277587890625

> <r_mmod_Electrostatic_Energy-OPLS-2005>
-410.047149658203

> <r_mmod_Solvation_Energy-OPLS-2005>
-209.162857055664

> <b_mmod_Minimization_Converged-OPLS-2005>
0

> <r_mmod_RMS_Derivative-OPLS-2005>
2.18242502212524

$$$$
19
                    3D
 Structure written by MMmdl.
177185  0  0  1  0            999 V2000
  -30.6249  -14.6636   20.4177 C   0  0  0  0  0  0
  -30.4130  -12.3650   19.4666 C   0  0  0  0  0  0
  -29.5072  -12.4733   18.2224 C   0  0  0  0  0  0
  -28.0321  -12.3220   18.6315 C   0  0  0  0  0  0
  -27.6427  -13.2215   19.8413 C   0  0  2  0  0  0
  -28.6836  -13.1294   20.9790 C   0  0  0  0  0  0
  -25.2493  -13.8145   20.5524 C   0  0  0  0  0  0
  -24.1818  -13.0351   20.9156 C   0  0  0  0  0  0
  -24.6444  -11.6888   20.8743 C   0  0  0  0  0  0
  -23.9142  -10.4269   21.0455 C   0  0  0  0  0  0
  -24.3655   -9.4200   21.9220 C   0  0  0  0  0  0
  -23.6298   -8.2267   22.0770 C   0  0  0  0  0  0
  -22.4282   -8.0297   21.3554 C   0  0  0  0  0  0
  -21.9952   -9.0285   20.4657 C   0  0  0  0  0  0
  -22.7339  -10.2158   20.3093 C   0  0  0  0  0  0
  -21.6864   -6.0781   22.5297 C   0  0  0  0  0  0
  -21.4069   -6.5668   23.8239 C   0  0  0  0  0  0
  -21.3645   -5.6798   24.9165 C   0  0  0  0  0  0
  -21.6011   -4.3057   24.7211 C   0  0  0  0  0  0
  -21.8813   -3.8187   23.4320 C   0  0  0  0  0  0
  -21.9189   -4.7018   22.3396 C   0  0  0  0  0  0
  -22.7839  -13.5174   21.1779 C   0  0  0  0  0  0
  -22.1648   -4.2199   21.0971 F   0  0  0  0  0  0
  -21.5586   -3.4522   25.7712 F   0  0  0  0  0  0
  -29.9896  -13.4471   20.3916 N   0  0  0  0  0  0
  -26.2928  -12.9352   20.3168 N   0  0  0  0  0  0
  -25.9357  -11.6489   20.5689 N   0  0  0  0  0  0
  -22.0517  -12.8191   22.0399 N   0  0  0  0  0  0
  -25.3983  -15.1842   20.3751 N   0  0  0  0  0  0
  -31.8230  -14.7124   20.1372 O   0  0  0  0  0  0
  -21.6649   -6.8916   21.4245 O   0  0  0  0  0  0
  -22.3569  -14.5467   20.6650 O   0  0  0  0  0  0
  -24.6259  -31.8592   23.1998 C   0  0  0  0  0  0
  -25.9114  -32.4774   23.8304 C   0  0  1  0  0  0
  -27.2081  -27.3206   20.1611 C   0  0  0  0  0  0
  -25.5936  -33.8559   24.2253 N   0  0  0  0  0  0
  -23.4166  -30.4846   21.5410 C   0  0  2  0  0  0
  -24.8614  -28.9253   20.1073 C   0  0  0  0  0  0
  -22.7451  -29.4615   22.4880 C   0  0  0  0  0  0
  -18.0314  -28.1339   22.8455 C   0  0  0  0  0  0
  -24.1480  -36.7318   23.2640 C   0  0  0  0  0  0
  -25.9480  -30.7928   21.3623 C   0  0  0  0  0  0
  -26.0208  -29.4150   20.7209 C   0  0  0  0  0  0
  -27.1990  -28.6219   20.7408 C   0  0  0  0  0  0
  -26.0443  -26.8770   19.4998 C   0  0  0  0  0  0
  -24.8732  -27.6603   19.4855 C   0  0  0  0  0  0
  -23.6271  -29.8061   20.1569 C   0  0  0  0  0  0
  -25.4112  -36.3075   24.0335 C   0  0  1  0  0  0
  -20.5907  -28.3591   23.1258 C   0  0  2  0  0  0
  -20.6754  -26.9371   22.5227 C   0  0  0  0  0  0
  -19.5748  -26.6511   21.5006 C   0  0  0  0  0  0
  -18.1935  -26.7973   22.1432 C   0  0  0  0  0  0
  -19.1548  -28.8775   23.2911 C   0  0  0  0  0  0
  -18.9492  -30.1353   23.8981 C   0  0  0  0  0  0
  -17.6505  -30.6518   24.0646 C   0  0  0  0  0  0
  -25.9061  -34.9460   23.5111 C   0  0  0  0  0  0
  -16.5405  -29.9065   23.6365 C   0  0  0  0  0  0
  -16.7323  -28.6496   23.0343 C   0  0  0  0  0  0
  -26.4490  -31.6586   25.0665 C   0  0  0  0  0  0
  -25.3696  -31.3695   26.1359 C   0  0  0  0  0  0
  -27.0306  -30.3019   24.6067 C   0  0  0  0  0  0
  -27.6043  -32.4304   25.7485 C   0  0  0  0  0  0
  -27.5575  -37.1815   24.8472 C   0  0  0  0  0  0
  -21.4146  -29.3035   22.3652 N   0  0  0  0  0  0
  -26.4279  -37.3776   23.9419 N   0  0  0  0  0  0
  -24.6826  -31.0613   22.0936 N   0  0  0  0  0  0
  -23.4205  -28.8121   23.2926 O   0  0  0  0  0  0
  -28.3177  -26.4742   20.2106 O   0  0  0  0  0  0
  -26.5618  -34.8958   22.4666 O   0  0  0  0  0  0
  -23.5440  -32.1391   23.7360 O   0  0  0  0  0  0
  -30.6215  -19.9137   19.3758 C   0  0  0  0  0  0
  -31.3856  -17.6618   19.8491 C   0  0  0  0  0  0
  -31.6559  -18.9791   19.4442 C   0  0  0  0  0  0
  -29.3352  -19.6998   19.9227 C   0  0  0  0  0  0
  -29.0799  -18.3033   20.3549 C   0  0  0  0  0  0
  -30.0932  -17.2478   20.2555 C   0  0  0  0  0  0
  -33.0697  -19.4542   19.1288 C   0  0  0  0  0  0
  -27.7402  -17.8731   20.9523 C   0  0  0  0  0  0
  -26.8927  -20.6729   20.1347 C   0  0  0  0  0  0
  -28.3582  -21.5161   18.4076 C   0  0  0  0  0  0
  -28.2477  -22.1278   22.2186 C   0  0  0  0  0  0
  -30.3251  -22.4541   20.9343 C   0  0  0  0  0  0
  -29.6607  -25.4835   21.8160 C   0  0  0  0  0  0
  -27.2255  -25.3420   22.1696 C   0  0  0  0  0  0
  -28.2783  -23.8410   20.2628 C   0  0  0  0  0  0
  -28.3777  -21.0271   19.8868 C   0  0  0  0  0  0
  -28.7912  -22.3658   20.7949 C   0  0  0  0  0  0
  -28.3296  -25.2593   21.0749 C   0  0  0  0  0  0
  -29.8428  -15.8034   20.5514 N   0  0  0  0  0  0
  -31.4659  -12.4086   19.1814 H   0  0  0  0  0  0
  -30.2770  -11.3836   19.9322 H   0  0  0  0  0  0
  -29.7710  -11.7123   17.4869 H   0  0  0  0  0  0
  -29.6542  -13.4331   17.7291 H   0  0  0  0  0  0
  -27.8751  -11.2713   18.8760 H   0  0  0  0  0  0
  -27.3861  -12.5163   17.7771 H   0  0  0  0  0  0
  -27.6507  -14.2484   19.4695 H   0  0  0  0  0  0
  -28.6833  -12.1260   21.4121 H   0  0  0  0  0  0
  -28.4357  -13.8227   21.7873 H   0  0  0  0  0  0
  -25.2850   -9.5572   22.4749 H   0  0  0  0  0  0
  -23.9989   -7.4652   22.7447 H   0  0  0  0  0  0
  -21.0923   -8.8834   19.8929 H   0  0  0  0  0  0
  -22.3886  -10.9662   19.6146 H   0  0  0  0  0  0
  -21.2140   -7.6184   23.9768 H   0  0  0  0  0  0
  -21.1434   -6.0506   25.9058 H   0  0  0  0  0  0
  -22.0618   -2.7652   23.2795 H   0  0  0  0  0  0
  -22.4209  -11.9876   22.4741 H   0  0  0  0  0  0
  -21.1126  -13.1212   22.2542 H   0  0  0  0  0  0
  -24.5673  -15.7633   20.3987 H   0  0  0  0  0  0
  -26.1152  -15.5797   19.7809 H   0  0  0  0  0  0
  -26.7134  -32.5463   23.1016 H   0  0  0  0  0  0
  -25.0017  -33.9655   25.0356 H   0  0  0  0  0  0
  -22.7167  -31.3119   21.3954 H   0  0  0  0  0  0
  -23.3726  -35.9663   23.3302 H   0  0  0  0  0  0
  -24.3535  -36.8930   22.2039 H   0  0  0  0  0  0
  -23.7259  -37.6541   23.6662 H   0  0  0  0  0  0
  -26.0647  -31.5398   20.5760 H   0  0  0  0  0  0
  -26.8351  -30.8534   21.9802 H   0  0  0  0  0  0
  -28.0895  -28.9845   21.2358 H   0  0  0  0  0  0
  -26.0474  -25.9136   19.0090 H   0  0  0  0  0  0
  -23.9828  -27.2787   19.0057 H   0  0  0  0  0  0
  -23.7441  -30.5722   19.3897 H   0  0  0  0  0  0
  -22.7421  -29.2363   19.8655 H   0  0  0  0  0  0
  -25.1276  -36.1891   25.0814 H   0  0  0  0  0  0
  -21.0026  -28.2999   24.1389 H   0  0  0  0  0  0
  -20.5659  -26.2079   23.3293 H   0  0  0  0  0  0
  -21.6586  -26.7452   22.0947 H   0  0  0  0  0  0
  -19.6954  -25.6534   21.0803 H   0  0  0  0  0  0
  -19.6609  -27.3491   20.6680 H   0  0  0  0  0  0
  -17.4201  -26.6836   21.3799 H   0  0  0  0  0  0
  -18.0427  -26.0000   22.8735 H   0  0  0  0  0  0
  -19.8006  -30.7068   24.2426 H   0  0  0  0  0  0
  -17.5084  -31.6229   24.5208 H   0  0  0  0  0  0
  -15.5392  -30.2958   23.7677 H   0  0  0  0  0  0
  -15.8743  -28.0836   22.7045 H   0  0  0  0  0  0
  -24.5920  -30.7011   25.7640 H   0  0  0  0  0  0
  -24.8842  -32.2839   26.4764 H   0  0  0  0  0  0
  -25.7989  -30.8856   27.0129 H   0  0  0  0  0  0
  -26.2819  -29.6817   24.1103 H   0  0  0  0  0  0
  -27.4019  -29.7235   25.4536 H   0  0  0  0  0  0
  -27.8695  -30.4343   23.9236 H   0  0  0  0  0  0
  -27.2645  -33.3617   26.2049 H   0  0  0  0  0  0
  -28.3896  -32.6828   25.0344 H   0  0  0  0  0  0
  -28.0653  -31.8400   26.5417 H   0  0  0  0  0  0
  -28.2591  -38.0104   24.7480 H   0  0  0  0  0  0
  -28.1059  -36.2636   24.6324 H   0  0  0  0  0  0
  -27.2288  -37.1492   25.8868 H   0  0  0  0  0  0
  -20.9275  -29.8967   21.7078 H   0  0  0  0  0  0
  -26.0163  -38.2857   24.1363 H   0  0  0  0  0  0
  -30.8831  -20.8721   18.9501 H   0  0  0  0  0  0
  -32.2141  -16.9739   19.8518 H   0  0  0  0  0  0
  -33.8357  -18.8866   19.6609 H   0  0  0  0  0  0
  -33.1748  -20.5038   19.4192 H   0  0  0  0  0  0
  -33.2949  -19.3949   18.0631 H   0  0  0  0  0  0
  -27.6163  -18.3045   21.9531 H   0  0  0  0  0  0
  -27.6473  -16.7937   21.0512 H   0  0  0  0  0  0
  -26.8926  -18.1275   20.3279 H   0  0  0  0  0  0
  -26.5445  -19.9753   19.3672 H   0  0  0  0  0  0
  -26.2646  -21.5624   20.0860 H   0  0  0  0  0  0
  -26.6970  -20.2417   21.1169 H   0  0  0  0  0  0
  -28.1127  -20.7222   17.7045 H   0  0  0  0  0  0
  -29.2968  -21.9741   18.0928 H   0  0  0  0  0  0
  -27.5966  -22.2743   18.2400 H   0  0  0  0  0  0
  -28.4901  -21.1191   22.5537 H   0  0  0  0  0  0
  -27.1662  -22.2684   22.2527 H   0  0  0  0  0  0
  -28.6732  -22.8043   22.9553 H   0  0  0  0  0  0
  -30.6658  -23.1916   21.6413 H   0  0  0  0  0  0
  -30.8059  -22.7037   19.9877 H   0  0  0  0  0  0
  -30.7611  -21.5398   21.3200 H   0  0  0  0  0  0
  -30.5196  -25.3934   21.1511 H   0  0  0  0  0  0
  -29.7792  -24.7740   22.6321 H   0  0  0  0  0  0
  -29.7172  -26.4662   22.2921 H   0  0  0  0  0  0
  -26.2218  -25.2257   21.7641 H   0  0  0  0  0  0
  -27.2605  -26.3005   22.6929 H   0  0  0  0  0  0
  -27.3399  -24.5808   22.9389 H   0  0  0  0  0  0
  -28.8195  -24.0394   19.3360 H   0  0  0  0  0  0
  -27.2433  -23.7219   19.9431 H   0  0  0  0  0  0
  -28.8827  -15.5621   20.7362 H   0  0  0  0  0  0
  1 25  1  0  0  0
  1 30  2  0  0  0
  1 89  1  0  0  0
  2  3  1  0  0  0
  2 25  1  0  0  0
  2 90  1  0  0  0
  2 91  1  0  0  0
  3  4  1  0  0  0
  3 92  1  0  0  0
  3 93  1  0  0  0
  4  5  1  0  0  0
  4 94  1  0  0  0
  4 95  1  0  0  0
  5  6  1  0  0  0
  5 26  1  0  0  0
  5 96  1  0  0  0
  6 25  1  0  0  0
  6 97  1  0  0  0
  6 98  1  0  0  0
  7  8  2  0  0  0
  7 26  1  0  0  0
  7 29  1  0  0  0
  8  9  1  0  0  0
  8 22  1  0  0  0
  9 10  1  0  0  0
  9 27  2  0  0  0
 10 11  2  0  0  0
 10 15  1  0  0  0
 11 12  1  0  0  0
 11 99  1  0  0  0
 12 13  2  0  0  0
 12100  1  0  0  0
 13 14  1  0  0  0
 13 31  1  0  0  0
 14 15  2  0  0  0
 14101  1  0  0  0
 15102  1  0  0  0
 16 17  2  0  0  0
 16 21  1  0  0  0
 16 31  1  0  0  0
 17 18  1  0  0  0
 17103  1  0  0  0
 18 19  2  0  0  0
 18104  1  0  0  0
 19 20  1  0  0  0
 19 24  1  0  0  0
 20 21  2  0  0  0
 20105  1  0  0  0
 21 23  1  0  0  0
 22 28  1  0  0  0
 22 32  2  0  0  0
 26 27  1  0  0  0
 28106  1  0  0  0
 28107  1  0  0  0
 29108  1  0  0  0
 29109  1  0  0  0
 33 34  1  0  0  0
 33 66  1  0  0  0
 33 70  2  0  0  0
 34 36  1  0  0  0
 34 59  1  0  0  0
 34110  1  0  0  0
 35 44  2  0  0  0
 35 45  1  0  0  0
 35 68  1  0  0  0
 36 56  1  0  0  0
 36111  1  0  0  0
 37 39  1  0  0  0
 37 47  1  0  0  0
 37 66  1  0  0  0
 37112  1  0  0  0
 38 43  2  0  0  0
 38 46  1  0  0  0
 38 47  1  0  0  0
 39 64  1  0  0  0
 39 67  2  0  0  0
 40 52  1  0  0  0
 40 53  2  0  0  0
 40 58  1  0  0  0
 41113  1  0  0  0
 41114  1  0  0  0
 41115  1  0  0  0
 41 48  1  0  0  0
 42 43  1  0  0  0
 42 66  1  0  0  0
 42116  1  0  0  0
 42117  1  0  0  0
 43 44  1  0  0  0
 44118  1  0  0  0
 45 46  2  0  0  0
 45119  1  0  0  0
 46120  1  0  0  0
 47121  1  0  0  0
 47122  1  0  0  0
 48 56  1  0  0  0
 48 65  1  0  0  0
 48123  1  0  0  0
 49 50  1  0  0  0
 49 53  1  0  0  0
 49 64  1  0  0  0
 49124  1  0  0  0
 50 51  1  0  0  0
 50125  1  0  0  0
 50126  1  0  0  0
 51 52  1  0  0  0
 51127  1  0  0  0
 51128  1  0  0  0
 52129  1  0  0  0
 52130  1  0  0  0
 53 54  1  0  0  0
 54 55  2  0  0  0
 54131  1  0  0  0
 55 57  1  0  0  0
 55132  1  0  0  0
 56 69  2  0  0  0
 57 58  2  0  0  0
 57133  1  0  0  0
 58134  1  0  0  0
 59 60  1  0  0  0
 59 61  1  0  0  0
 59 62  1  0  0  0
 60135  1  0  0  0
 60136  1  0  0  0
 60137  1  0  0  0
 61138  1  0  0  0
 61139  1  0  0  0
 61140  1  0  0  0
 62141  1  0  0  0
 62142  1  0  0  0
 62143  1  0  0  0
 63 65  1  0  0  0
 63144  1  0  0  0
 63145  1  0  0  0
 63146  1  0  0  0
 64147  1  0  0  0
 65148  1  0  0  0
 68 88  1  0  0  0
 71 73  2  0  0  0
 71 74  1  0  0  0
 71149  1  0  0  0
 72 73  1  0  0  0
 72 76  2  0  0  0
 72150  1  0  0  0
 73 77  1  0  0  0
 74 75  2  0  0  0
 74 86  1  0  0  0
 75 76  1  0  0  0
 75 78  1  0  0  0
 76 89  1  0  0  0
 77151  1  0  0  0
 77152  1  0  0  0
 77153  1  0  0  0
 78154  1  0  0  0
 78155  1  0  0  0
 78156  1  0  0  0
 79157  1  0  0  0
 79158  1  0  0  0
 79159  1  0  0  0
 79 86  1  0  0  0
 80 86  1  0  0  0
 80160  1  0  0  0
 80161  1  0  0  0
 80162  1  0  0  0
 81163  1  0  0  0
 81164  1  0  0  0
 81165  1  0  0  0
 81 87  1  0  0  0
 82 87  1  0  0  0
 82166  1  0  0  0
 82167  1  0  0  0
 82168  1  0  0  0
 83169  1  0  0  0
 83170  1  0  0  0
 83171  1  0  0  0
 83 88  1  0  0  0
 84 88  1  0  0  0
 84172  1  0  0  0
 84173  1  0  0  0
 84174  1  0  0  0
 85 87  1  0  0  0
 85 88  1  0  0  0
 85175  1  0  0  0
 85176  1  0  0  0
 86 87  1  0  0  0
 89177  1  0  0  0
M  ISO  4   1 100  68 101  88 101  89 100
M  END
> <chiral flag>
0

> <version>
0

> <s_m_source_file>
/data/baiqing/PycharmProjects/Reinvent-master-3.2/result/LINK_invent/BTK/process_docking_weight1_custom_product_contain_oxygen_bond_distance_aromatic_linkinvent_7_9_3/rearranged_h_0141.sdf

> <i_m_source_file_index>
20

> <r_mmod_Potential_Energy-OPLS-2005>
270.459777832031

> <r_mmod_Stretch_Energy-OPLS-2005>
162.901031494141

> <r_mmod_Bend_Energy-OPLS-2005>
210.182907104492

> <r_mmod_Torsional_Energy-OPLS-2005>
281.967132568359

> <r_mmod_Improper_Torsional_Energy-OPLS-2005>
7.88453388214111

> <r_mmod_Van_der_Waal_Energy-OPLS-2005>
185.999282836914

> <r_mmod_Electrostatic_Energy-OPLS-2005>
-457.98974609375

> <r_mmod_Solvation_Energy-OPLS-2005>
-178.782150268555

> <b_mmod_Minimization_Converged-OPLS-2005>
0

> <r_mmod_RMS_Derivative-OPLS-2005>
10.1716079711914

$$$$
20
                    3D
 Structure written by MMmdl.
165174  0  0  1  0            999 V2000
  -30.6832  -14.4655   20.4917 C   0  0  0  0  0  0
  -30.4271  -12.2616   19.4520 C   0  0  0  0  0  0
  -29.5019  -12.3918   18.2218 C   0  0  0  0  0  0
  -28.0142  -12.3298   18.6246 C   0  0  0  0  0  0
  -27.6605  -13.1954   19.8646 C   0  0  2  0  0  0
  -28.6986  -13.0050   20.9954 C   0  0  0  0  0  0
  -25.2603  -13.8153   20.5656 C   0  0  0  0  0  0
  -24.1840  -13.0447   20.9163 C   0  0  0  0  0  0
  -24.6368  -11.6904   20.8749 C   0  0  0  0  0  0
  -23.9031  -10.4295   21.0422 C   0  0  0  0  0  0
  -24.3594   -9.4210   21.9195 C   0  0  0  0  0  0
  -23.6272   -8.2242   22.0755 C   0  0  0  0  0  0
  -22.4260   -8.0286   21.3542 C   0  0  0  0  0  0
  -21.9881   -9.0257   20.4648 C   0  0  0  0  0  0
  -22.7208  -10.2137   20.3064 C   0  0  0  0  0  0
  -21.6847   -6.0725   22.5273 C   0  0  0  0  0  0
  -21.4013   -6.5624   23.8210 C   0  0  0  0  0  0
  -21.3659   -5.6779   24.9170 C   0  0  0  0  0  0
  -21.6046   -4.3042   24.7217 C   0  0  0  0  0  0
  -21.8826   -3.8136   23.4338 C   0  0  0  0  0  0
  -21.9181   -4.6952   22.3394 C   0  0  0  0  0  0
  -22.7864  -13.5273   21.1826 C   0  0  0  0  0  0
  -22.1663   -4.2144   21.0967 F   0  0  0  0  0  0
  -21.5622   -3.4525   25.7725 F   0  0  0  0  0  0
  -30.0318  -13.2764   20.4378 N   0  0  0  0  0  0
  -26.3018  -12.9291   20.3330 N   0  0  0  0  0  0
  -25.9294  -11.6468   20.5774 N   0  0  0  0  0  0
  -22.0492  -12.8286   22.0378 N   0  0  0  0  0  0
  -25.4383  -15.1869   20.4096 N   0  0  0  0  0  0
  -31.8499  -14.6223   20.1191 O   0  0  0  0  0  0
  -21.6633   -6.8880   21.4238 O   0  0  0  0  0  0
  -22.3567  -14.5574   20.6664 O   0  0  0  0  0  0
  -24.6091  -31.8699   23.2132 C   0  0  0  0  0  0
  -25.9003  -32.4838   23.8415 C   0  0  1  0  0  0
  -27.2497  -27.4834   20.0912 C   0  0  0  0  0  0
  -25.5866  -33.8631   24.2347 N   0  0  0  0  0  0
  -23.3976  -30.4921   21.5497 C   0  0  2  0  0  0
  -24.8498  -28.9604   20.1153 C   0  0  0  0  0  0
  -22.7376  -29.4669   22.4989 C   0  0  0  0  0  0
  -18.0261  -28.1376   22.8494 C   0  0  0  0  0  0
  -24.1475  -36.7319   23.2636 C   0  0  0  0  0  0
  -25.9200  -30.8488   21.3622 C   0  0  0  0  0  0
  -26.0016  -29.4831   20.7169 C   0  0  0  0  0  0
  -27.2009  -28.7437   20.7172 C   0  0  0  0  0  0
  -26.0871  -26.9583   19.4894 C   0  0  0  0  0  0
  -24.8841  -27.6930   19.5027 C   0  0  0  0  0  0
  -23.6080  -29.8220   20.1632 C   0  0  0  0  0  0
  -25.4094  -36.3120   24.0339 C   0  0  1  0  0  0
  -20.5846  -28.3659   23.1319 C   0  0  2  0  0  0
  -20.6752  -26.9395   22.5422 C   0  0  0  0  0  0
  -19.5740  -26.6389   21.5206 C   0  0  0  0  0  0
  -18.1915  -26.7924   22.1615 C   0  0  0  0  0  0
  -19.1511  -28.8826   23.2909 C   0  0  0  0  0  0
  -18.9445  -30.1431   23.8934 C   0  0  0  0  0  0
  -17.6449  -30.6586   24.0570 C   0  0  0  0  0  0
  -25.9017  -34.9484   23.5145 C   0  0  0  0  0  0
  -16.5339  -29.9097   23.6315 C   0  0  0  0  0  0
  -16.7255  -28.6506   23.0351 C   0  0  0  0  0  0
  -26.4459  -31.6604   25.0724 C   0  0  0  0  0  0
  -25.3750  -31.3690   26.1493 C   0  0  0  0  0  0
  -27.0278  -30.3051   24.6072 C   0  0  0  0  0  0
  -27.6066  -32.4298   25.7466 C   0  0  0  0  0  0
  -27.5575  -37.1811   24.8458 C   0  0  0  0  0  0
  -21.4106  -29.3030   22.3722 N   0  0  0  0  0  0
  -26.4284  -37.3802   23.9412 N   0  0  0  0  0  0
  -24.6599  -31.0830   22.1017 N   0  0  0  0  0  0
  -23.4153  -28.8210   23.3026 O   0  0  0  0  0  0
  -28.4228  -26.7758   20.0961 O   0  0  0  0  0  0
  -26.5588  -34.8928   22.4711 O   0  0  0  0  0  0
  -23.5294  -32.1438   23.7546 O   0  0  0  0  0  0
  -29.5539  -17.3298   17.4468 C   0  0  0  0  0  0
  -29.7194  -16.3102   18.3911 C   0  0  0  0  0  0
  -29.5781  -17.9341   20.1926 C   0  0  0  0  0  0
  -29.4141  -18.6661   17.8576 C   0  0  0  0  0  0
  -29.4046  -18.9790   19.2464 C   0  0  0  0  0  0
  -29.7510  -16.5944   19.7739 C   0  0  0  0  0  0
  -29.7604  -23.0311   18.9409 C   0  0  0  0  0  0
  -30.0069  -24.3568   18.8271 C   0  0  0  0  0  0
  -29.0688  -25.3493   18.2680 C   0  0  0  0  0  0
  -30.8702  -22.0830   19.3923 C   0  0  0  0  0  0
  -28.4291  -22.3664   18.5651 C   0  0  0  0  0  0
  -30.3694  -20.9751   20.3279 C   0  0  0  0  0  0
  -28.0714  -21.0911   19.3626 C   0  0  0  0  0  0
  -29.3164  -19.7134   16.7654 C   0  0  0  0  0  0
  -29.1090  -26.7601   18.8510 C   0  0  0  0  0  0
  -29.2377  -20.2940   19.7202 N   0  0  0  0  0  0
  -29.8941  -15.5307   20.7177 N   0  0  0  0  0  0
  -28.2920  -25.1099   17.3373 O   0  0  0  0  0  0
  -31.4735  -12.3542   19.1537 H   0  0  0  0  0  0
  -30.3330  -11.2697   19.8958 H   0  0  0  0  0  0
  -29.7193  -11.5842   17.5232 H   0  0  0  0  0  0
  -29.7131  -13.3013   17.6691 H   0  0  0  0  0  0
  -27.7894  -11.2833   18.8353 H   0  0  0  0  0  0
  -27.3835  -12.6061   17.7784 H   0  0  0  0  0  0
  -27.6968  -14.2354   19.5398 H   0  0  0  0  0  0
  -28.6630  -11.9844   21.3799 H   0  0  0  0  0  0
  -28.4732  -13.6485   21.8483 H   0  0  0  0  0  0
  -25.2746   -9.5670   22.4766 H   0  0  0  0  0  0
  -23.9977   -7.4612   22.7463 H   0  0  0  0  0  0
  -21.0815   -8.8773   19.8940 H   0  0  0  0  0  0
  -22.3682  -10.9672   19.6166 H   0  0  0  0  0  0
  -21.2025   -7.6133   23.9719 H   0  0  0  0  0  0
  -21.1481   -6.0506   25.9073 H   0  0  0  0  0  0
  -22.0607   -2.7596   23.2847 H   0  0  0  0  0  0
  -22.4081  -11.9952   22.4794 H   0  0  0  0  0  0
  -21.1110  -13.1344   22.2562 H   0  0  0  0  0  0
  -24.6787  -15.8502   20.5227 H   0  0  0  0  0  0
  -26.2954  -15.6200   20.0912 H   0  0  0  0  0  0
  -26.7083  -32.5580   23.1196 H   0  0  0  0  0  0
  -25.0001  -33.9796   25.0480 H   0  0  0  0  0  0
  -22.6868  -31.3088   21.4087 H   0  0  0  0  0  0
  -23.3730  -35.9657   23.3312 H   0  0  0  0  0  0
  -24.3572  -36.8922   22.2049 H   0  0  0  0  0  0
  -23.7233  -37.6529   23.6644 H   0  0  0  0  0  0
  -26.0219  -31.6159   20.5929 H   0  0  0  0  0  0
  -26.8106  -30.9090   21.9755 H   0  0  0  0  0  0
  -28.0898  -29.1396   21.1889 H   0  0  0  0  0  0
  -26.1108  -25.9879   19.0133 H   0  0  0  0  0  0
  -23.9988  -27.2842   19.0366 H   0  0  0  0  0  0
  -23.7123  -30.5962   19.4019 H   0  0  0  0  0  0
  -22.7346  -29.2381   19.8678 H   0  0  0  0  0  0
  -25.1266  -36.2002   25.0832 H   0  0  0  0  0  0
  -20.9948  -28.3229   24.1435 H   0  0  0  0  0  0
  -20.5626  -26.2269   23.3605 H   0  0  0  0  0  0
  -21.6633  -26.7428   22.1238 H   0  0  0  0  0  0
  -19.6907  -25.6308   21.1216 H   0  0  0  0  0  0
  -19.6678  -27.3209   20.6742 H   0  0  0  0  0  0
  -17.4183  -26.6664   21.4020 H   0  0  0  0  0  0
  -18.0319  -26.0061   22.9004 H   0  0  0  0  0  0
  -19.7918  -30.7230   24.2335 H   0  0  0  0  0  0
  -17.5010  -31.6274   24.5156 H   0  0  0  0  0  0
  -15.5346  -30.3022   23.7620 H   0  0  0  0  0  0
  -15.8645  -28.0839   22.7067 H   0  0  0  0  0  0
  -24.5914  -30.7044   25.7833 H   0  0  0  0  0  0
  -24.8951  -32.2841   26.4975 H   0  0  0  0  0  0
  -25.8126  -30.8836   27.0227 H   0  0  0  0  0  0
  -26.2806  -29.6820   24.1146 H   0  0  0  0  0  0
  -27.4082  -29.7276   25.4510 H   0  0  0  0  0  0
  -27.8623  -30.4371   23.9181 H   0  0  0  0  0  0
  -27.2719  -33.3584   26.2095 H   0  0  0  0  0  0
  -28.3841  -32.6876   25.0263 H   0  0  0  0  0  0
  -28.0772  -31.8388   26.5336 H   0  0  0  0  0  0
  -28.2607  -38.0097   24.7512 H   0  0  0  0  0  0
  -28.1061  -36.2640   24.6271 H   0  0  0  0  0  0
  -27.2302  -37.1444   25.8863 H   0  0  0  0  0  0
  -20.9255  -29.8761   21.6958 H   0  0  0  0  0  0
  -26.0178  -38.2876   24.1443 H   0  0  0  0  0  0
  -29.5487  -17.0745   16.3975 H   0  0  0  0  0  0
  -29.8294  -15.3076   18.0222 H   0  0  0  0  0  0
  -29.5800  -18.1698   21.2487 H   0  0  0  0  0  0
  -30.9774  -24.7387   19.1098 H   0  0  0  0  0  0
  -31.6757  -22.6354   19.8768 H   0  0  0  0  0  0
  -31.3104  -21.6299   18.5032 H   0  0  0  0  0  0
  -28.4709  -22.1563   17.4989 H   0  0  0  0  0  0
  -27.5989  -23.0614   18.6884 H   0  0  0  0  0  0
  -30.0499  -21.4105   21.2760 H   0  0  0  0  0  0
  -31.1756  -20.2765   20.5586 H   0  0  0  0  0  0
  -27.3423  -20.4951   18.8112 H   0  0  0  0  0  0
  -27.5771  -21.3778   20.2923 H   0  0  0  0  0  0
  -29.5806  -19.2996   15.7918 H   0  0  0  0  0  0
  -30.0020  -20.5368   16.9555 H   0  0  0  0  0  0
  -28.2976  -20.0878   16.6863 H   0  0  0  0  0  0
  -28.6786  -27.4693   18.1427 H   0  0  0  0  0  0
  -30.1462  -27.0565   19.0110 H   0  0  0  0  0  0
  -29.0620  -15.3264   21.2520 H   0  0  0  0  0  0
  1 25  1  0  0  0
  1 30  2  0  0  0
  1 87  1  0  0  0
  2  3  1  0  0  0
  2 25  1  0  0  0
  2 89  1  0  0  0
  2 90  1  0  0  0
  3  4  1  0  0  0
  3 91  1  0  0  0
  3 92  1  0  0  0
  4  5  1  0  0  0
  4 93  1  0  0  0
  4 94  1  0  0  0
  5  6  1  0  0  0
  5 26  1  0  0  0
  5 95  1  0  0  0
  6 25  1  0  0  0
  6 96  1  0  0  0
  6 97  1  0  0  0
  7  8  2  0  0  0
  7 26  1  0  0  0
  7 29  1  0  0  0
  8  9  1  0  0  0
  8 22  1  0  0  0
  9 10  1  0  0  0
  9 27  2  0  0  0
 10 11  2  0  0  0
 10 15  1  0  0  0
 11 12  1  0  0  0
 11 98  1  0  0  0
 12 13  2  0  0  0
 12 99  1  0  0  0
 13 14  1  0  0  0
 13 31  1  0  0  0
 14 15  2  0  0  0
 14100  1  0  0  0
 15101  1  0  0  0
 16 17  2  0  0  0
 16 21  1  0  0  0
 16 31  1  0  0  0
 17 18  1  0  0  0
 17102  1  0  0  0
 18 19  2  0  0  0
 18103  1  0  0  0
 19 20  1  0  0  0
 19 24  1  0  0  0
 20 21  2  0  0  0
 20104  1  0  0  0
 21 23  1  0  0  0
 22 28  1  0  0  0
 22 32  2  0  0  0
 26 27  1  0  0  0
 28105  1  0  0  0
 28106  1  0  0  0
 29107  1  0  0  0
 29108  1  0  0  0
 33 34  1  0  0  0
 33 66  1  0  0  0
 33 70  2  0  0  0
 34 36  1  0  0  0
 34 59  1  0  0  0
 34109  1  0  0  0
 35 44  2  0  0  0
 35 45  1  0  0  0
 35 68  1  0  0  0
 36 56  1  0  0  0
 36110  1  0  0  0
 37 39  1  0  0  0
 37 47  1  0  0  0
 37 66  1  0  0  0
 37111  1  0  0  0
 38 43  2  0  0  0
 38 46  1  0  0  0
 38 47  1  0  0  0
 39 64  1  0  0  0
 39 67  2  0  0  0
 40 52  1  0  0  0
 40 53  2  0  0  0
 40 58  1  0  0  0
 41112  1  0  0  0
 41113  1  0  0  0
 41114  1  0  0  0
 41 48  1  0  0  0
 42 43  1  0  0  0
 42 66  1  0  0  0
 42115  1  0  0  0
 42116  1  0  0  0
 43 44  1  0  0  0
 44117  1  0  0  0
 45 46  2  0  0  0
 45118  1  0  0  0
 46119  1  0  0  0
 47120  1  0  0  0
 47121  1  0  0  0
 48 56  1  0  0  0
 48 65  1  0  0  0
 48122  1  0  0  0
 49 50  1  0  0  0
 49 53  1  0  0  0
 49 64  1  0  0  0
 49123  1  0  0  0
 50 51  1  0  0  0
 50124  1  0  0  0
 50125  1  0  0  0
 51 52  1  0  0  0
 51126  1  0  0  0
 51127  1  0  0  0
 52128  1  0  0  0
 52129  1  0  0  0
 53 54  1  0  0  0
 54 55  2  0  0  0
 54130  1  0  0  0
 55 57  1  0  0  0
 55131  1  0  0  0
 56 69  2  0  0  0
 57 58  2  0  0  0
 57132  1  0  0  0
 58133  1  0  0  0
 59 60  1  0  0  0
 59 61  1  0  0  0
 59 62  1  0  0  0
 60134  1  0  0  0
 60135  1  0  0  0
 60136  1  0  0  0
 61137  1  0  0  0
 61138  1  0  0  0
 61139  1  0  0  0
 62140  1  0  0  0
 62141  1  0  0  0
 62142  1  0  0  0
 63 65  1  0  0  0
 63143  1  0  0  0
 63144  1  0  0  0
 63145  1  0  0  0
 64146  1  0  0  0
 65147  1  0  0  0
 68 85  1  0  0  0
 71 72  2  0  0  0
 71 74  1  0  0  0
 71148  1  0  0  0
 72 76  1  0  0  0
 72149  1  0  0  0
 73 75  1  0  0  0
 73 76  2  0  0  0
 73150  1  0  0  0
 74 75  2  0  0  0
 74 84  1  0  0  0
 75 86  1  0  0  0
 76 87  1  0  0  0
 77 78  2  0  0  0
 77 80  1  0  0  0
 77 81  1  0  0  0
 78 79  1  0  0  0
 78151  1  0  0  0
 79 85  1  0  0  0
 79 88  2  0  0  0
 80 82  1  0  0  0
 80152  1  0  0  0
 80153  1  0  0  0
 81 83  1  0  0  0
 81154  1  0  0  0
 81155  1  0  0  0
 82 86  1  0  0  0
 82156  1  0  0  0
 82157  1  0  0  0
 83 86  1  0  0  0
 83158  1  0  0  0
 83159  1  0  0  0
 84160  1  0  0  0
 84161  1  0  0  0
 84162  1  0  0  0
 85163  1  0  0  0
 85164  1  0  0  0
 87165  1  0  0  0
M  ISO  4   1 100  68 101  85 101  87 100
M  END
> <chiral flag>
0

> <version>
0

> <s_m_source_file>
/data/baiqing/PycharmProjects/Reinvent-master-3.2/result/LINK_invent/BTK/process_docking_weight1_custom_product_contain_oxygen_bond_distance_aromatic_linkinvent_7_9_3/rearranged_h_0141.sdf

> <i_m_source_file_index>
21

> <r_mmod_Potential_Energy-OPLS-2005>
77.5246505737305

> <r_mmod_Stretch_Energy-OPLS-2005>
35.2204437255859

> <r_mmod_Bend_Energy-OPLS-2005>
108.314331054688

> <r_mmod_Torsional_Energy-OPLS-2005>
331.261749267578

> <r_mmod_Improper_Torsional_Energy-OPLS-2005>
9.75210475921631

> <r_mmod_Van_der_Waal_Energy-OPLS-2005>
160.755584716797

> <r_mmod_Electrostatic_Energy-OPLS-2005>
-353.795227050781

> <r_mmod_Solvation_Energy-OPLS-2005>
-230.117050170898

> <b_mmod_Minimization_Converged-OPLS-2005>
0

> <r_mmod_RMS_Derivative-OPLS-2005>
2.62008261680603

$$$$
21
                    3D
 Structure written by MMmdl.
164172  0  0  1  0            999 V2000
  -30.7156  -14.4510   20.5841 C   0  0  0  0  0  0
  -30.4192  -12.2951   19.4213 C   0  0  0  0  0  0
  -29.4915  -12.5345   18.2122 C   0  0  0  0  0  0
  -28.0122  -12.3951   18.6197 C   0  0  0  0  0  0
  -27.6673  -13.2125   19.8929 C   0  0  2  0  0  0
  -28.7089  -12.9676   21.0083 C   0  0  0  0  0  0
  -25.2601  -13.8161   20.5736 C   0  0  0  0  0  0
  -24.1835  -13.0422   20.9183 C   0  0  0  0  0  0
  -24.6410  -11.6901   20.8755 C   0  0  0  0  0  0
  -23.9065  -10.4275   21.0416 C   0  0  0  0  0  0
  -24.3612   -9.4183   21.9200 C   0  0  0  0  0  0
  -23.6287   -8.2230   22.0770 C   0  0  0  0  0  0
  -22.4279   -8.0282   21.3554 C   0  0  0  0  0  0
  -21.9919   -9.0242   20.4638 C   0  0  0  0  0  0
  -22.7251  -10.2120   20.3055 C   0  0  0  0  0  0
  -21.6853   -6.0726   22.5293 C   0  0  0  0  0  0
  -21.4014   -6.5630   23.8228 C   0  0  0  0  0  0
  -21.3668   -5.6793   24.9198 C   0  0  0  0  0  0
  -21.6034   -4.3055   24.7238 C   0  0  0  0  0  0
  -21.8818   -3.8141   23.4360 C   0  0  0  0  0  0
  -21.9193   -4.6951   22.3409 C   0  0  0  0  0  0
  -22.7857  -13.5203   21.1838 C   0  0  0  0  0  0
  -22.1662   -4.2136   21.0993 F   0  0  0  0  0  0
  -21.5635   -3.4542   25.7756 F   0  0  0  0  0  0
  -30.0483  -13.2674   20.4615 N   0  0  0  0  0  0
  -26.3063  -12.9362   20.3475 N   0  0  0  0  0  0
  -25.9347  -11.6504   20.5816 N   0  0  0  0  0  0
  -22.0490  -12.8182   22.0378 N   0  0  0  0  0  0
  -25.4278  -15.1885   20.4201 N   0  0  0  0  0  0
  -31.8127  -14.6601   20.0576 O   0  0  0  0  0  0
  -21.6644   -6.8886   21.4257 O   0  0  0  0  0  0
  -22.3526  -14.5524   20.6738 O   0  0  0  0  0  0
  -24.6145  -31.8674   23.2129 C   0  0  0  0  0  0
  -25.9025  -32.4842   23.8421 C   0  0  1  0  0  0
  -27.2346  -27.4595   20.0883 C   0  0  0  0  0  0
  -25.5875  -33.8635   24.2343 N   0  0  0  0  0  0
  -23.3991  -30.4895   21.5570 C   0  0  2  0  0  0
  -24.8452  -28.9584   20.1165 C   0  0  0  0  0  0
  -22.7398  -29.4627   22.5055 C   0  0  0  0  0  0
  -18.0250  -28.1368   22.8514 C   0  0  0  0  0  0
  -24.1467  -36.7314   23.2637 C   0  0  0  0  0  0
  -25.9250  -30.8438   21.3569 C   0  0  0  0  0  0
  -26.0061  -29.4806   20.7021 C   0  0  0  0  0  0
  -27.2087  -28.7410   20.6785 C   0  0  0  0  0  0
  -26.0593  -26.9428   19.5010 C   0  0  0  0  0  0
  -24.8645  -27.6885   19.5128 C   0  0  0  0  0  0
  -23.6030  -29.8194   20.1725 C   0  0  0  0  0  0
  -25.4097  -36.3124   24.0332 C   0  0  1  0  0  0
  -20.5839  -28.3645   23.1339 C   0  0  2  0  0  0
  -20.6739  -26.9394   22.5420 C   0  0  0  0  0  0
  -19.5710  -26.6386   21.5225 C   0  0  0  0  0  0
  -18.1885  -26.7925   22.1626 C   0  0  0  0  0  0
  -19.1497  -28.8828   23.2921 C   0  0  0  0  0  0
  -18.9435  -30.1445   23.8915 C   0  0  0  0  0  0
  -17.6439  -30.6589   24.0575 C   0  0  0  0  0  0
  -25.9028  -34.9488   23.5132 C   0  0  0  0  0  0
  -16.5330  -29.9091   23.6349 C   0  0  0  0  0  0
  -16.7244  -28.6500   23.0387 C   0  0  0  0  0  0
  -26.4463  -31.6619   25.0740 C   0  0  0  0  0  0
  -25.3738  -31.3656   26.1486 C   0  0  0  0  0  0
  -27.0343  -30.3100   24.6075 C   0  0  0  0  0  0
  -27.6021  -32.4366   25.7523 C   0  0  0  0  0  0
  -27.5582  -37.1801   24.8465 C   0  0  0  0  0  0
  -21.4126  -29.3022   22.3788 N   0  0  0  0  0  0
  -26.4283  -37.3818   23.9418 N   0  0  0  0  0  0
  -24.6650  -31.0789   22.1018 N   0  0  0  0  0  0
  -23.4178  -28.8172   23.3109 O   0  0  0  0  0  0
  -28.3896  -26.7148   20.0926 O   0  0  0  0  0  0
  -26.5609  -34.8933   22.4706 O   0  0  0  0  0  0
  -23.5345  -32.1402   23.7542 O   0  0  0  0  0  0
  -30.9274  -17.5731   20.3714 C   0  0  0  0  0  0
  -29.6839  -19.2041   21.4418 C   0  0  0  0  0  0
  -30.6557  -18.9823   20.4988 C   0  0  0  0  0  0
  -30.1450  -16.7570   21.1664 C   0  0  0  0  0  0
  -30.2039  -23.8643   20.2967 C   0  0  0  0  0  0
  -31.7357  -22.3275   21.5956 C   0  0  0  0  0  0
  -31.5463  -22.1234   18.2653 C   0  0  0  0  0  0
  -29.3202  -21.1389   18.7181 C   0  0  0  0  0  0
  -31.3997  -20.0507   19.7032 C   0  0  0  0  0  0
  -28.7385  -24.2505   20.0700 C   0  0  0  0  0  0
  -28.2927  -25.5042   20.8555 C   0  0  0  0  0  0
  -30.5402  -22.3817   20.6145 C   0  0  2  0  0  0
  -30.6969  -21.4251   19.3613 C   0  0  0  0  0  0
  -30.0612  -15.4005   21.2764 N   0  0  0  0  0  0
  -31.0921  -24.7212   20.2454 O   0  0  0  0  0  0
  -29.0771  -17.7314   22.1371 S   0  0  0  0  0  0
  -31.4648  -12.3792   19.1218 H   0  0  0  0  0  0
  -30.2989  -11.2771   19.7962 H   0  0  0  0  0  0
  -29.7246  -11.8376   17.4068 H   0  0  0  0  0  0
  -29.6713  -13.5348   17.8123 H   0  0  0  0  0  0
  -27.8138  -11.3376   18.7919 H   0  0  0  0  0  0
  -27.3690  -12.7000   17.7943 H   0  0  0  0  0  0
  -27.7176  -14.2680   19.6240 H   0  0  0  0  0  0
  -28.6697  -11.9283   21.3355 H   0  0  0  0  0  0
  -28.4678  -13.5531   21.8969 H   0  0  0  0  0  0
  -25.2743   -9.5662   22.4774 H   0  0  0  0  0  0
  -23.9986   -7.4626   22.7485 H   0  0  0  0  0  0
  -21.0873   -8.8755   19.8917 H   0  0  0  0  0  0
  -22.3719  -10.9665   19.6157 H   0  0  0  0  0  0
  -21.1999   -7.6137   23.9720 H   0  0  0  0  0  0
  -21.1503   -6.0534   25.9094 H   0  0  0  0  0  0
  -22.0581   -2.7600   23.2891 H   0  0  0  0  0  0
  -22.4121  -11.9804   22.4703 H   0  0  0  0  0  0
  -21.1091  -13.1190   22.2591 H   0  0  0  0  0  0
  -24.6619  -15.8441   20.5271 H   0  0  0  0  0  0
  -26.2940  -15.6363   20.1449 H   0  0  0  0  0  0
  -26.7103  -32.5559   23.1203 H   0  0  0  0  0  0
  -25.0058  -33.9819   25.0513 H   0  0  0  0  0  0
  -22.6870  -31.3050   21.4210 H   0  0  0  0  0  0
  -23.3752  -35.9621   23.3278 H   0  0  0  0  0  0
  -24.3566  -36.8976   22.2062 H   0  0  0  0  0  0
  -23.7198  -37.6486   23.6692 H   0  0  0  0  0  0
  -26.0220  -31.6108   20.5872 H   0  0  0  0  0  0
  -26.8193  -30.9045   21.9665 H   0  0  0  0  0  0
  -28.1091  -29.1374   21.1245 H   0  0  0  0  0  0
  -26.0694  -25.9641   19.0405 H   0  0  0  0  0  0
  -23.9725  -27.2785   19.0609 H   0  0  0  0  0  0
  -23.6957  -30.5913   19.4091 H   0  0  0  0  0  0
  -22.7287  -29.2321   19.8902 H   0  0  0  0  0  0
  -25.1273  -36.1995   25.0826 H   0  0  0  0  0  0
  -20.9915  -28.3206   24.1463 H   0  0  0  0  0  0
  -20.5672  -26.2252   23.3597 H   0  0  0  0  0  0
  -21.6610  -26.7443   22.1205 H   0  0  0  0  0  0
  -19.6873  -25.6303   21.1242 H   0  0  0  0  0  0
  -19.6650  -27.3212   20.6768 H   0  0  0  0  0  0
  -17.4165  -26.6710   21.4020 H   0  0  0  0  0  0
  -18.0246  -26.0046   22.8989 H   0  0  0  0  0  0
  -19.7912  -30.7269   24.2290 H   0  0  0  0  0  0
  -17.4991  -31.6278   24.5165 H   0  0  0  0  0  0
  -15.5332  -30.3007   23.7655 H   0  0  0  0  0  0
  -15.8632  -28.0828   22.7114 H   0  0  0  0  0  0
  -24.5924  -30.7008   25.7793 H   0  0  0  0  0  0
  -24.8909  -32.2782   26.4992 H   0  0  0  0  0  0
  -25.8106  -30.8775   27.0214 H   0  0  0  0  0  0
  -26.2895  -29.6832   24.1165 H   0  0  0  0  0  0
  -27.4215  -29.7361   25.4506 H   0  0  0  0  0  0
  -27.8669  -30.4501   23.9173 H   0  0  0  0  0  0
  -27.2641  -33.3693   26.2060 H   0  0  0  0  0  0
  -28.3856  -32.6890   25.0364 H   0  0  0  0  0  0
  -28.0654  -31.8515   26.5482 H   0  0  0  0  0  0
  -28.2548  -38.0140   24.7583 H   0  0  0  0  0  0
  -28.1118  -36.2673   24.6215 H   0  0  0  0  0  0
  -27.2291  -37.1384   25.8857 H   0  0  0  0  0  0
  -20.9290  -29.8766   21.7016 H   0  0  0  0  0  0
  -26.0163  -38.2882   24.1462 H   0  0  0  0  0  0
  -31.6818  -17.2136   19.6834 H   0  0  0  0  0  0
  -29.2610  -20.1405   21.7780 H   0  0  0  0  0  0
  -31.6588  -23.0920   22.3696 H   0  0  0  0  0  0
  -32.6859  -22.4749   21.0842 H   0  0  0  0  0  0
  -31.7798  -21.3709   22.1168 H   0  0  0  0  0  0
  -31.7838  -21.4542   17.4383 H   0  0  0  0  0  0
  -32.4886  -22.5065   18.6587 H   0  0  0  0  0  0
  -31.0167  -22.9677   17.8200 H   0  0  0  0  0  0
  -29.4217  -20.4835   17.8523 H   0  0  0  0  0  0
  -28.8357  -22.0484   18.3652 H   0  0  0  0  0  0
  -28.6313  -20.6561   19.4087 H   0  0  0  0  0  0
  -31.6665  -19.5905   18.7508 H   0  0  0  0  0  0
  -32.3717  -20.2319   20.1630 H   0  0  0  0  0  0
  -28.1227  -23.4037   20.3728 H   0  0  0  0  0  0
  -28.5670  -24.3854   19.0033 H   0  0  0  0  0  0
  -28.9009  -25.6295   21.7526 H   0  0  0  0  0  0
  -27.2815  -25.3348   21.2327 H   0  0  0  0  0  0
  -29.6801  -22.0418   21.1864 H   0  0  0  0  0  0
  -29.2627  -15.0644   21.7907 H   0  0  0  0  0  0
  1 25  1  0  0  0
  1 30  2  0  0  0
  1 84  1  0  0  0
  2  3  1  0  0  0
  2 25  1  0  0  0
  2 87  1  0  0  0
  2 88  1  0  0  0
  3  4  1  0  0  0
  3 89  1  0  0  0
  3 90  1  0  0  0
  4  5  1  0  0  0
  4 91  1  0  0  0
  4 92  1  0  0  0
  5  6  1  0  0  0
  5 26  1  0  0  0
  5 93  1  0  0  0
  6 25  1  0  0  0
  6 94  1  0  0  0
  6 95  1  0  0  0
  7  8  2  0  0  0
  7 26  1  0  0  0
  7 29  1  0  0  0
  8  9  1  0  0  0
  8 22  1  0  0  0
  9 10  1  0  0  0
  9 27  2  0  0  0
 10 11  2  0  0  0
 10 15  1  0  0  0
 11 12  1  0  0  0
 11 96  1  0  0  0
 12 13  2  0  0  0
 12 97  1  0  0  0
 13 14  1  0  0  0
 13 31  1  0  0  0
 14 15  2  0  0  0
 14 98  1  0  0  0
 15 99  1  0  0  0
 16 17  2  0  0  0
 16 21  1  0  0  0
 16 31  1  0  0  0
 17 18  1  0  0  0
 17100  1  0  0  0
 18 19  2  0  0  0
 18101  1  0  0  0
 19 20  1  0  0  0
 19 24  1  0  0  0
 20 21  2  0  0  0
 20102  1  0  0  0
 21 23  1  0  0  0
 22 28  1  0  0  0
 22 32  2  0  0  0
 26 27  1  0  0  0
 28103  1  0  0  0
 28104  1  0  0  0
 29105  1  0  0  0
 29106  1  0  0  0
 33 34  1  0  0  0
 33 66  1  0  0  0
 33 70  2  0  0  0
 34 36  1  0  0  0
 34 59  1  0  0  0
 34107  1  0  0  0
 35 44  2  0  0  0
 35 45  1  0  0  0
 35 68  1  0  0  0
 36 56  1  0  0  0
 36108  1  0  0  0
 37 39  1  0  0  0
 37 47  1  0  0  0
 37 66  1  0  0  0
 37109  1  0  0  0
 38 43  2  0  0  0
 38 46  1  0  0  0
 38 47  1  0  0  0
 39 64  1  0  0  0
 39 67  2  0  0  0
 40 52  1  0  0  0
 40 53  2  0  0  0
 40 58  1  0  0  0
 41110  1  0  0  0
 41111  1  0  0  0
 41112  1  0  0  0
 41 48  1  0  0  0
 42 43  1  0  0  0
 42 66  1  0  0  0
 42113  1  0  0  0
 42114  1  0  0  0
 43 44  1  0  0  0
 44115  1  0  0  0
 45 46  2  0  0  0
 45116  1  0  0  0
 46117  1  0  0  0
 47118  1  0  0  0
 47119  1  0  0  0
 48 56  1  0  0  0
 48 65  1  0  0  0
 48120  1  0  0  0
 49 50  1  0  0  0
 49 53  1  0  0  0
 49 64  1  0  0  0
 49121  1  0  0  0
 50 51  1  0  0  0
 50122  1  0  0  0
 50123  1  0  0  0
 51 52  1  0  0  0
 51124  1  0  0  0
 51125  1  0  0  0
 52126  1  0  0  0
 52127  1  0  0  0
 53 54  1  0  0  0
 54 55  2  0  0  0
 54128  1  0  0  0
 55 57  1  0  0  0
 55129  1  0  0  0
 56 69  2  0  0  0
 57 58  2  0  0  0
 57130  1  0  0  0
 58131  1  0  0  0
 59 60  1  0  0  0
 59 61  1  0  0  0
 59 62  1  0  0  0
 60132  1  0  0  0
 60133  1  0  0  0
 60134  1  0  0  0
 61135  1  0  0  0
 61136  1  0  0  0
 61137  1  0  0  0
 62138  1  0  0  0
 62139  1  0  0  0
 62140  1  0  0  0
 63 65  1  0  0  0
 63141  1  0  0  0
 63142  1  0  0  0
 63143  1  0  0  0
 64144  1  0  0  0
 65145  1  0  0  0
 68 81  1  0  0  0
 71 73  1  0  0  0
 71 74  2  0  0  0
 71146  1  0  0  0
 72 73  2  0  0  0
 72 86  1  0  0  0
 72147  1  0  0  0
 73 79  1  0  0  0
 74 84  1  0  0  0
 74 86  1  0  0  0
 75 80  1  0  0  0
 75 82  1  0  0  0
 75 85  2  0  0  0
 76148  1  0  0  0
 76149  1  0  0  0
 76150  1  0  0  0
 76 82  1  0  0  0
 77151  1  0  0  0
 77152  1  0  0  0
 77153  1  0  0  0
 77 83  1  0  0  0
 78 83  1  0  0  0
 78154  1  0  0  0
 78155  1  0  0  0
 78156  1  0  0  0
 79 83  1  0  0  0
 79157  1  0  0  0
 79158  1  0  0  0
 80 81  1  0  0  0
 80159  1  0  0  0
 80160  1  0  0  0
 81161  1  0  0  0
 81162  1  0  0  0
 82 83  1  0  0  0
 82163  1  0  0  0
 84164  1  0  0  0
M  ISO  4   1 100  68 101  81 101  84 100
M  END
> <chiral flag>
0

> <version>
0

> <s_m_source_file>
/data/baiqing/PycharmProjects/Reinvent-master-3.2/result/LINK_invent/BTK/process_docking_weight1_custom_product_contain_oxygen_bond_distance_aromatic_linkinvent_7_9_3/rearranged_h_0141.sdf

> <i_m_source_file_index>
22

> <r_mmod_Potential_Energy-OPLS-2005>
-21.11643409729

> <r_mmod_Stretch_Energy-OPLS-2005>
43.0558128356934

> <r_mmod_Bend_Energy-OPLS-2005>
119.804176330566

> <r_mmod_Torsional_Energy-OPLS-2005>
236.28190612793

> <r_mmod_Improper_Torsional_Energy-OPLS-2005>
2.83871102333069

> <r_mmod_Van_der_Waal_Energy-OPLS-2005>
141.130889892578

> <r_mmod_Electrostatic_Energy-OPLS-2005>
-358.750427246094

> <r_mmod_Solvation_Energy-OPLS-2005>
-214.964996337891

> <b_mmod_Minimization_Converged-OPLS-2005>
0

> <r_mmod_RMS_Derivative-OPLS-2005>
3.61488437652588

$$$$
22
                    3D
 Structure written by MMmdl.
166174  0  0  1  0            999 V2000
  -30.6912  -14.4144   20.7049 C   0  0  0  0  0  0
  -30.4392  -12.3189   19.3984 C   0  0  0  0  0  0
  -29.4970  -12.5390   18.1975 C   0  0  0  0  0  0
  -28.0169  -12.3877   18.6037 C   0  0  0  0  0  0
  -27.6676  -13.1949   19.8787 C   0  0  2  0  0  0
  -28.6982  -12.9042   20.9883 C   0  0  0  0  0  0
  -25.2606  -13.8131   20.5641 C   0  0  0  0  0  0
  -24.1832  -13.0428   20.9125 C   0  0  0  0  0  0
  -24.6374  -11.6895   20.8694 C   0  0  0  0  0  0
  -23.9030  -10.4289   21.0382 C   0  0  0  0  0  0
  -24.3590   -9.4212   21.9166 C   0  0  0  0  0  0
  -23.6270   -8.2247   22.0752 C   0  0  0  0  0  0
  -22.4255   -8.0277   21.3538 C   0  0  0  0  0  0
  -21.9874   -9.0248   20.4643 C   0  0  0  0  0  0
  -22.7202  -10.2126   20.3043 C   0  0  0  0  0  0
  -21.6851   -6.0724   22.5276 C   0  0  0  0  0  0
  -21.4021   -6.5628   23.8209 C   0  0  0  0  0  0
  -21.3659   -5.6781   24.9171 C   0  0  0  0  0  0
  -21.6046   -4.3046   24.7222 C   0  0  0  0  0  0
  -21.8818   -3.8135   23.4347 C   0  0  0  0  0  0
  -21.9195   -4.6949   22.3401 C   0  0  0  0  0  0
  -22.7863  -13.5245   21.1804 C   0  0  0  0  0  0
  -22.1661   -4.2132   21.0983 F   0  0  0  0  0  0
  -21.5625   -3.4539   25.7741 F   0  0  0  0  0  0
  -30.0464  -13.2376   20.4763 N   0  0  0  0  0  0
  -26.3034  -12.9281   20.3315 N   0  0  0  0  0  0
  -25.9282  -11.6449   20.5672 N   0  0  0  0  0  0
  -22.0511  -12.8257   22.0385 N   0  0  0  0  0  0
  -25.4368  -15.1858   20.4115 N   0  0  0  0  0  0
  -31.6905  -14.7829   20.0763 O   0  0  0  0  0  0
  -21.6633   -6.8866   21.4235 O   0  0  0  0  0  0
  -22.3546  -14.5556   20.6668 O   0  0  0  0  0  0
  -24.6131  -31.8687   23.2100 C   0  0  0  0  0  0
  -25.9033  -32.4827   23.8398 C   0  0  1  0  0  0
  -27.2365  -27.4563   20.0865 C   0  0  0  0  0  0
  -25.5891  -33.8625   24.2329 N   0  0  0  0  0  0
  -23.4006  -30.4913   21.5501 C   0  0  2  0  0  0
  -24.8490  -28.9585   20.1139 C   0  0  0  0  0  0
  -22.7405  -29.4663   22.5000 C   0  0  0  0  0  0
  -18.0275  -28.1377   22.8495 C   0  0  0  0  0  0
  -24.1489  -36.7321   23.2636 C   0  0  0  0  0  0
  -25.9268  -30.8397   21.3606 C   0  0  0  0  0  0
  -26.0074  -29.4750   20.7098 C   0  0  0  0  0  0
  -27.2073  -28.7288   20.6977 C   0  0  0  0  0  0
  -26.0671  -26.9472   19.4882 C   0  0  0  0  0  0
  -24.8719  -27.6918   19.5026 C   0  0  0  0  0  0
  -23.6078  -29.8210   20.1654 C   0  0  0  0  0  0
  -25.4105  -36.3115   24.0340 C   0  0  1  0  0  0
  -20.5862  -28.3665   23.1323 C   0  0  2  0  0  0
  -20.6765  -26.9403   22.5419 C   0  0  0  0  0  0
  -19.5745  -26.6395   21.5212 C   0  0  0  0  0  0
  -18.1922  -26.7926   22.1624 C   0  0  0  0  0  0
  -19.1521  -28.8838   23.2906 C   0  0  0  0  0  0
  -18.9452  -30.1441   23.8919 C   0  0  0  0  0  0
  -17.6454  -30.6583   24.0573 C   0  0  0  0  0  0
  -25.9030  -34.9481   23.5131 C   0  0  0  0  0  0
  -16.5347  -29.9090   23.6323 C   0  0  0  0  0  0
  -16.7263  -28.6507   23.0346 C   0  0  0  0  0  0
  -26.4475  -31.6595   25.0715 C   0  0  0  0  0  0
  -25.3746  -31.3695   26.1469 C   0  0  0  0  0  0
  -27.0298  -30.3041   24.6061 C   0  0  0  0  0  0
  -27.6056  -32.4310   25.7467 C   0  0  0  0  0  0
  -27.5584  -37.1807   24.8460 C   0  0  0  0  0  0
  -21.4134  -29.3036   22.3737 N   0  0  0  0  0  0
  -26.4291  -37.3800   23.9412 N   0  0  0  0  0  0
  -24.6647  -31.0803   22.0994 N   0  0  0  0  0  0
  -23.4183  -28.8206   23.3040 O   0  0  0  0  0  0
  -28.3786  -26.6933   20.0773 O   0  0  0  0  0  0
  -26.5596  -34.8933   22.4695 O   0  0  0  0  0  0
  -23.5327  -32.1437   23.7505 O   0  0  0  0  0  0
  -28.8063  -16.6422   22.8889 C   0  0  0  0  0  0
  -30.4356  -17.5523   21.3350 C   0  0  0  0  0  0
  -28.3894  -17.9380   23.2419 C   0  0  0  0  0  0
  -29.0161  -19.0725   22.6592 C   0  0  0  0  0  0
  -29.8376  -16.4290   21.9574 C   0  0  0  0  0  0
  -30.0368  -18.8744   21.6783 C   0  0  0  0  0  0
  -30.3545  -22.3615   20.6803 C   0  0  0  0  0  0
  -27.2824  -18.0665   24.2803 C   0  0  0  0  0  0
  -29.5879  -20.9931   24.2307 C   0  0  0  0  0  0
  -28.6227  -20.4679   23.1605 C   0  0  0  0  0  0
  -29.3591  -23.4809   20.3257 C   0  0  0  0  0  0
  -30.0330  -20.9102   20.2589 C   0  0  0  0  0  0
  -29.6105  -24.8013   21.1025 C   0  0  0  0  0  0
  -28.4122  -25.7696   21.1654 C   0  0  0  0  0  0
  -30.2078  -15.0639   21.7754 N   0  0  0  0  0  0
  -30.7519  -19.9401   21.0980 N   0  0  0  0  0  0
  -31.3774  -22.5969   21.3346 O   0  0  0  0  0  0
  -31.4794  -12.4624   19.0978 H   0  0  0  0  0  0
  -30.3724  -11.2897   19.7523 H   0  0  0  0  0  0
  -29.7388  -11.8392   17.3964 H   0  0  0  0  0  0
  -29.6602  -13.5372   17.7895 H   0  0  0  0  0  0
  -27.8183  -11.3283   18.7695 H   0  0  0  0  0  0
  -27.3717  -12.6933   17.7799 H   0  0  0  0  0  0
  -27.7334  -14.2528   19.6229 H   0  0  0  0  0  0
  -28.6683  -11.8474   21.2591 H   0  0  0  0  0  0
  -28.4098  -13.4281   21.9000 H   0  0  0  0  0  0
  -25.2741   -9.5699   22.4720 H   0  0  0  0  0  0
  -23.9988   -7.4648   22.7476 H   0  0  0  0  0  0
  -21.0804   -8.8764   19.8956 H   0  0  0  0  0  0
  -22.3660  -10.9658   19.6147 H   0  0  0  0  0  0
  -21.2024   -7.6138   23.9708 H   0  0  0  0  0  0
  -21.1474   -6.0513   25.9072 H   0  0  0  0  0  0
  -22.0599   -2.7593   23.2856 H   0  0  0  0  0  0
  -22.4130  -11.9932   22.4792 H   0  0  0  0  0  0
  -21.1138  -13.1302   22.2596 H   0  0  0  0  0  0
  -24.6789  -15.8479   20.5332 H   0  0  0  0  0  0
  -26.3052  -15.6238   20.1302 H   0  0  0  0  0  0
  -26.7104  -32.5551   23.1164 H   0  0  0  0  0  0
  -25.0049  -33.9788   25.0479 H   0  0  0  0  0  0
  -22.6888  -31.3076   21.4104 H   0  0  0  0  0  0
  -23.3748  -35.9654   23.3300 H   0  0  0  0  0  0
  -24.3591  -36.8934   22.2049 H   0  0  0  0  0  0
  -23.7241  -37.6529   23.6650 H   0  0  0  0  0  0
  -26.0341  -31.6044   20.5903 H   0  0  0  0  0  0
  -26.8169  -30.8967   21.9754 H   0  0  0  0  0  0
  -28.1025  -29.1207   21.1607 H   0  0  0  0  0  0
  -26.0828  -25.9733   19.0191 H   0  0  0  0  0  0
  -23.9809  -27.2868   19.0424 H   0  0  0  0  0  0
  -23.7112  -30.5941   19.4032 H   0  0  0  0  0  0
  -22.7337  -29.2360   19.8732 H   0  0  0  0  0  0
  -25.1276  -36.1984   25.0832 H   0  0  0  0  0  0
  -20.9951  -28.3230   24.1444 H   0  0  0  0  0  0
  -20.5672  -26.2270   23.3603 H   0  0  0  0  0  0
  -21.6636  -26.7454   22.1208 H   0  0  0  0  0  0
  -19.6908  -25.6313   21.1223 H   0  0  0  0  0  0
  -19.6680  -27.3223   20.6755 H   0  0  0  0  0  0
  -17.4192  -26.6678   21.4026 H   0  0  0  0  0  0
  -18.0323  -26.0062   22.9013 H   0  0  0  0  0  0
  -19.7928  -30.7251   24.2298 H   0  0  0  0  0  0
  -17.5013  -31.6264   24.5173 H   0  0  0  0  0  0
  -15.5347  -30.3002   23.7635 H   0  0  0  0  0  0
  -15.8665  -28.0838   22.7043 H   0  0  0  0  0  0
  -24.5921  -30.7035   25.7816 H   0  0  0  0  0  0
  -24.8932  -32.2845   26.4929 H   0  0  0  0  0  0
  -25.8110  -30.8866   27.0219 H   0  0  0  0  0  0
  -26.2824  -29.6803   24.1140 H   0  0  0  0  0  0
  -27.4115  -29.7278   25.4500 H   0  0  0  0  0  0
  -27.8643  -30.4383   23.9173 H   0  0  0  0  0  0
  -27.2689  -33.3612   26.2061 H   0  0  0  0  0  0
  -28.3851  -32.6864   25.0275 H   0  0  0  0  0  0
  -28.0738  -31.8419   26.5363 H   0  0  0  0  0  0
  -28.2593  -38.0116   24.7530 H   0  0  0  0  0  0
  -28.1091  -36.2647   24.6252 H   0  0  0  0  0  0
  -27.2310  -37.1421   25.8866 H   0  0  0  0  0  0
  -20.9294  -29.8760   21.6961 H   0  0  0  0  0  0
  -26.0184  -38.2879   24.1421 H   0  0  0  0  0  0
  -28.3328  -15.7932   23.3642 H   0  0  0  0  0  0
  -31.2352  -17.4061   20.6233 H   0  0  0  0  0  0
  -27.0116  -17.0998   24.7066 H   0  0  0  0  0  0
  -26.3817  -18.4842   23.8290 H   0  0  0  0  0  0
  -27.5871  -18.7069   25.1087 H   0  0  0  0  0  0
  -29.2812  -21.9781   24.5839 H   0  0  0  0  0  0
  -30.6006  -21.0837   23.8386 H   0  0  0  0  0  0
  -29.6219  -20.3247   25.0912 H   0  0  0  0  0  0
  -27.6117  -20.4700   23.5628 H   0  0  0  0  0  0
  -28.5496  -21.1778   22.3453 H   0  0  0  0  0  0
  -28.3608  -23.1083   20.5547 H   0  0  0  0  0  0
  -29.3881  -23.6627   19.2519 H   0  0  0  0  0  0
  -30.3517  -20.7846   19.2239 H   0  0  0  0  0  0
  -28.9555  -20.7410   20.2713 H   0  0  0  0  0  0
  -30.4855  -25.3168   20.7064 H   0  0  0  0  0  0
  -29.8610  -24.5507   22.1347 H   0  0  0  0  0  0
  -28.4799  -26.3516   22.0867 H   0  0  0  0  0  0
  -27.4811  -25.2038   21.2307 H   0  0  0  0  0  0
  -29.6469  -14.4363   22.3300 H   0  0  0  0  0  0
  -31.2722  -20.4847   21.7853 H   0  0  0  0  0  0
  1 25  1  0  0  0
  1 30  2  0  0  0
  1 85  1  0  0  0
  2  3  1  0  0  0
  2 25  1  0  0  0
  2 88  1  0  0  0
  2 89  1  0  0  0
  3  4  1  0  0  0
  3 90  1  0  0  0
  3 91  1  0  0  0
  4  5  1  0  0  0
  4 92  1  0  0  0
  4 93  1  0  0  0
  5  6  1  0  0  0
  5 26  1  0  0  0
  5 94  1  0  0  0
  6 25  1  0  0  0
  6 95  1  0  0  0
  6 96  1  0  0  0
  7  8  2  0  0  0
  7 26  1  0  0  0
  7 29  1  0  0  0
  8  9  1  0  0  0
  8 22  1  0  0  0
  9 10  1  0  0  0
  9 27  2  0  0  0
 10 11  2  0  0  0
 10 15  1  0  0  0
 11 12  1  0  0  0
 11 97  1  0  0  0
 12 13  2  0  0  0
 12 98  1  0  0  0
 13 14  1  0  0  0
 13 31  1  0  0  0
 14 15  2  0  0  0
 14 99  1  0  0  0
 15100  1  0  0  0
 16 17  2  0  0  0
 16 21  1  0  0  0
 16 31  1  0  0  0
 17 18  1  0  0  0
 17101  1  0  0  0
 18 19  2  0  0  0
 18102  1  0  0  0
 19 20  1  0  0  0
 19 24  1  0  0  0
 20 21  2  0  0  0
 20103  1  0  0  0
 21 23  1  0  0  0
 22 28  1  0  0  0
 22 32  2  0  0  0
 26 27  1  0  0  0
 28104  1  0  0  0
 28105  1  0  0  0
 29106  1  0  0  0
 29107  1  0  0  0
 33 34  1  0  0  0
 33 66  1  0  0  0
 33 70  2  0  0  0
 34 36  1  0  0  0
 34 59  1  0  0  0
 34108  1  0  0  0
 35 44  2  0  0  0
 35 45  1  0  0  0
 35 68  1  0  0  0
 36 56  1  0  0  0
 36109  1  0  0  0
 37 39  1  0  0  0
 37 47  1  0  0  0
 37 66  1  0  0  0
 37110  1  0  0  0
 38 43  2  0  0  0
 38 46  1  0  0  0
 38 47  1  0  0  0
 39 64  1  0  0  0
 39 67  2  0  0  0
 40 52  1  0  0  0
 40 53  2  0  0  0
 40 58  1  0  0  0
 41111  1  0  0  0
 41112  1  0  0  0
 41113  1  0  0  0
 41 48  1  0  0  0
 42 43  1  0  0  0
 42 66  1  0  0  0
 42114  1  0  0  0
 42115  1  0  0  0
 43 44  1  0  0  0
 44116  1  0  0  0
 45 46  2  0  0  0
 45117  1  0  0  0
 46118  1  0  0  0
 47119  1  0  0  0
 47120  1  0  0  0
 48 56  1  0  0  0
 48 65  1  0  0  0
 48121  1  0  0  0
 49 50  1  0  0  0
 49 53  1  0  0  0
 49 64  1  0  0  0
 49122  1  0  0  0
 50 51  1  0  0  0
 50123  1  0  0  0
 50124  1  0  0  0
 51 52  1  0  0  0
 51125  1  0  0  0
 51126  1  0  0  0
 52127  1  0  0  0
 52128  1  0  0  0
 53 54  1  0  0  0
 54 55  2  0  0  0
 54129  1  0  0  0
 55 57  1  0  0  0
 55130  1  0  0  0
 56 69  2  0  0  0
 57 58  2  0  0  0
 57131  1  0  0  0
 58132  1  0  0  0
 59 60  1  0  0  0
 59 61  1  0  0  0
 59 62  1  0  0  0
 60133  1  0  0  0
 60134  1  0  0  0
 60135  1  0  0  0
 61136  1  0  0  0
 61137  1  0  0  0
 61138  1  0  0  0
 62139  1  0  0  0
 62140  1  0  0  0
 62141  1  0  0  0
 63 65  1  0  0  0
 63142  1  0  0  0
 63143  1  0  0  0
 63144  1  0  0  0
 64145  1  0  0  0
 65146  1  0  0  0
 68 84  1  0  0  0
 71 73  2  0  0  0
 71 75  1  0  0  0
 71147  1  0  0  0
 72 75  2  0  0  0
 72 76  1  0  0  0
 72148  1  0  0  0
 73 74  1  0  0  0
 73 78  1  0  0  0
 74 76  2  0  0  0
 74 80  1  0  0  0
 75 85  1  0  0  0
 76 86  1  0  0  0
 77 81  1  0  0  0
 77 82  1  0  0  0
 77 87  2  0  0  0
 78149  1  0  0  0
 78150  1  0  0  0
 78151  1  0  0  0
 79 80  1  0  0  0
 79152  1  0  0  0
 79153  1  0  0  0
 79154  1  0  0  0
 80155  1  0  0  0
 80156  1  0  0  0
 81 83  1  0  0  0
 81157  1  0  0  0
 81158  1  0  0  0
 82 86  1  0  0  0
 82159  1  0  0  0
 82160  1  0  0  0
 83 84  1  0  0  0
 83161  1  0  0  0
 83162  1  0  0  0
 84163  1  0  0  0
 84164  1  0  0  0
 85165  1  0  0  0
 86166  1  0  0  0
M  ISO  4   1 100  68 101  84 101  85 100
M  END
> <chiral flag>
0

> <version>
0

> <s_m_source_file>
/data/baiqing/PycharmProjects/Reinvent-master-3.2/result/LINK_invent/BTK/process_docking_weight1_custom_product_contain_oxygen_bond_distance_aromatic_linkinvent_7_9_3/rearranged_h_0141.sdf

> <i_m_source_file_index>
23

> <r_mmod_Potential_Energy-OPLS-2005>
-8.00387477874756

> <r_mmod_Stretch_Energy-OPLS-2005>
39.4946365356445

> <r_mmod_Bend_Energy-OPLS-2005>
112.652458190918

> <r_mmod_Torsional_Energy-OPLS-2005>
274.50390625

> <r_mmod_Improper_Torsional_Energy-OPLS-2005>
11.4275493621826

> <r_mmod_Van_der_Waal_Energy-OPLS-2005>
151.700271606445

> <r_mmod_Electrostatic_Energy-OPLS-2005>
-383.909118652344

> <r_mmod_Solvation_Energy-OPLS-2005>
-225.084884643555

> <b_mmod_Minimization_Converged-OPLS-2005>
0

> <r_mmod_RMS_Derivative-OPLS-2005>
1.66441559791565

$$$$
23
                    3D
 Structure written by MMmdl.
169177  0  0  1  0            999 V2000
  -30.6653  -14.4906   20.5664 C   0  0  0  0  0  0
  -30.4314  -12.3136   19.4269 C   0  0  0  0  0  0
  -29.4996  -12.5153   18.2125 C   0  0  0  0  0  0
  -28.0176  -12.3754   18.6201 C   0  0  0  0  0  0
  -27.6647  -13.2061   19.8837 C   0  0  2  0  0  0
  -28.7060  -12.9631   20.9990 C   0  0  0  0  0  0
  -25.2591  -13.8166   20.5687 C   0  0  0  0  0  0
  -24.1840  -13.0447   20.9181 C   0  0  0  0  0  0
  -24.6401  -11.6914   20.8756 C   0  0  0  0  0  0
  -23.9061  -10.4304   21.0425 C   0  0  0  0  0  0
  -24.3615   -9.4213   21.9199 C   0  0  0  0  0  0
  -23.6290   -8.2247   22.0756 C   0  0  0  0  0  0
  -22.4272   -8.0287   21.3548 C   0  0  0  0  0  0
  -21.9911   -9.0255   20.4649 C   0  0  0  0  0  0
  -22.7238  -10.2140   20.3070 C   0  0  0  0  0  0
  -21.6849   -6.0742   22.5281 C   0  0  0  0  0  0
  -21.4015   -6.5641   23.8215 C   0  0  0  0  0  0
  -21.3664   -5.6796   24.9177 C   0  0  0  0  0  0
  -21.6042   -4.3053   24.7232 C   0  0  0  0  0  0
  -21.8816   -3.8154   23.4356 C   0  0  0  0  0  0
  -21.9197   -4.6974   22.3409 C   0  0  0  0  0  0
  -22.7868  -13.5247   21.1838 C   0  0  0  0  0  0
  -22.1658   -4.2162   21.0986 F   0  0  0  0  0  0
  -21.5630   -3.4530   25.7745 F   0  0  0  0  0  0
  -30.0381  -13.2870   20.4576 N   0  0  0  0  0  0
  -26.3042  -12.9338   20.3421 N   0  0  0  0  0  0
  -25.9329  -11.6499   20.5804 N   0  0  0  0  0  0
  -22.0519  -12.8221   22.0394 N   0  0  0  0  0  0
  -25.4295  -15.1883   20.4039 N   0  0  0  0  0  0
  -31.7842  -14.7006   20.0887 O   0  0  0  0  0  0
  -21.6638   -6.8884   21.4242 O   0  0  0  0  0  0
  -22.3540  -14.5552   20.6695 O   0  0  0  0  0  0
  -24.6156  -31.8669   23.2082 C   0  0  0  0  0  0
  -25.9044  -32.4822   23.8381 C   0  0  1  0  0  0
  -27.2354  -27.4244   20.1046 C   0  0  0  0  0  0
  -25.5896  -33.8621   24.2317 N   0  0  0  0  0  0
  -23.4041  -30.4893   21.5496 C   0  0  2  0  0  0
  -24.8513  -28.9497   20.1184 C   0  0  0  0  0  0
  -22.7414  -29.4652   22.4992 C   0  0  0  0  0  0
  -18.0270  -28.1381   22.8485 C   0  0  0  0  0  0
  -24.1486  -36.7312   23.2636 C   0  0  0  0  0  0
  -25.9328  -30.8319   21.3600 C   0  0  0  0  0  0
  -26.0125  -29.4640   20.7094 C   0  0  0  0  0  0
  -27.2104  -28.7112   20.6916 C   0  0  0  0  0  0
  -26.0584  -26.9258   19.5067 C   0  0  0  0  0  0
  -24.8694  -27.6813   19.5120 C   0  0  0  0  0  0
  -23.6136  -29.8178   20.1654 C   0  0  0  0  0  0
  -25.4110  -36.3113   24.0334 C   0  0  1  0  0  0
  -20.5859  -28.3664   23.1317 C   0  0  2  0  0  0
  -20.6762  -26.9401   22.5417 C   0  0  0  0  0  0
  -19.5745  -26.6388   21.5210 C   0  0  0  0  0  0
  -18.1919  -26.7928   22.1614 C   0  0  0  0  0  0
  -19.1519  -28.8839   23.2897 C   0  0  0  0  0  0
  -18.9448  -30.1445   23.8913 C   0  0  0  0  0  0
  -17.6449  -30.6581   24.0569 C   0  0  0  0  0  0
  -25.9035  -34.9479   23.5126 C   0  0  0  0  0  0
  -16.5341  -29.9090   23.6322 C   0  0  0  0  0  0
  -16.7260  -28.6509   23.0340 C   0  0  0  0  0  0
  -26.4471  -31.6598   25.0710 C   0  0  0  0  0  0
  -25.3736  -31.3700   26.1456 C   0  0  0  0  0  0
  -27.0300  -30.3042   24.6079 C   0  0  0  0  0  0
  -27.6049  -32.4315   25.7469 C   0  0  0  0  0  0
  -27.5587  -37.1803   24.8457 C   0  0  0  0  0  0
  -21.4136  -29.3034   22.3730 N   0  0  0  0  0  0
  -26.4293  -37.3797   23.9411 N   0  0  0  0  0  0
  -24.6693  -31.0769   22.0984 N   0  0  0  0  0  0
  -23.4179  -28.8199   23.3040 O   0  0  0  0  0  0
  -28.4039  -26.6927   20.0653 O   0  0  0  0  0  0
  -26.5602  -34.8931   22.4688 O   0  0  0  0  0  0
  -23.5345  -32.1424   23.7471 O   0  0  0  0  0  0
  -28.7682  -19.0660   21.3413 C   0  0  0  0  0  0
  -30.6112  -17.5155   19.9126 C   0  0  0  0  0  0
  -28.8967  -17.6812   21.6525 C   0  0  0  0  0  0
  -29.5300  -19.6772   20.3242 C   0  0  0  0  0  0
  -29.8335  -16.8784   20.9163 C   0  0  0  0  0  0
  -30.4586  -18.8864   19.6180 C   0  0  0  0  0  0
  -27.9986  -17.1080   22.7193 C   0  0  0  0  0  0
  -26.5957  -17.4123   24.8640 C   0  0  0  0  0  0
  -31.4323  -22.9494   19.9888 C   0  0  0  0  0  0
  -30.6075  -23.8634   22.1394 C   0  0  0  0  0  0
  -27.2819  -18.0878   23.6624 C   0  0  0  0  0  0
  -29.4208  -24.4517   19.9467 C   0  0  0  0  0  0
  -29.2815  -22.0453   21.0273 C   0  0  0  0  0  0
  -28.3749  -25.3718   20.6437 C   0  0  0  0  0  0
  -30.1471  -23.3255   20.7681 C   0  0  0  0  0  0
  -29.9327  -15.4578   21.1651 N   0  0  0  0  0  0
  -29.3727  -21.0339   19.9676 N   0  0  0  0  0  0
  -27.8217  -15.8959   22.8792 O   0  0  0  0  0  0
  -31.2053  -19.4521   18.6372 F   0  0  0  0  0  0
  -31.4737  -12.4264   19.1253 H   0  0  0  0  0  0
  -30.3417  -11.2977   19.8160 H   0  0  0  0  0  0
  -29.7406  -11.7974   17.4274 H   0  0  0  0  0  0
  -29.6687  -13.5051   17.7838 H   0  0  0  0  0  0
  -27.8184  -11.3182   18.8034 H   0  0  0  0  0  0
  -27.3727  -12.6639   17.7903 H   0  0  0  0  0  0
  -27.7138  -14.2594   19.6031 H   0  0  0  0  0  0
  -28.6840  -11.9190   21.3124 H   0  0  0  0  0  0
  -28.4631  -13.5307   21.8969 H   0  0  0  0  0  0
  -25.2776   -9.5672   22.4754 H   0  0  0  0  0  0
  -24.0003   -7.4637   22.7456 H   0  0  0  0  0  0
  -21.0852   -8.8772   19.8941 H   0  0  0  0  0  0
  -22.3716  -10.9671   19.6163 H   0  0  0  0  0  0
  -21.1987   -7.6149   23.9718 H   0  0  0  0  0  0
  -21.1487   -6.0529   25.9074 H   0  0  0  0  0  0
  -22.0591   -2.7618   23.2858 H   0  0  0  0  0  0
  -22.4132  -11.9878   22.4768 H   0  0  0  0  0  0
  -21.1140  -13.1235   22.2616 H   0  0  0  0  0  0
  -24.6651  -15.8473   20.5049 H   0  0  0  0  0  0
  -26.2931  -15.6223   20.1066 H   0  0  0  0  0  0
  -26.7118  -32.5535   23.1148 H   0  0  0  0  0  0
  -25.0051  -33.9787   25.0466 H   0  0  0  0  0  0
  -22.6931  -31.3056   21.4079 H   0  0  0  0  0  0
  -23.3753  -35.9636   23.3292 H   0  0  0  0  0  0
  -24.3586  -36.8936   22.2051 H   0  0  0  0  0  0
  -23.7228  -37.6510   23.6659 H   0  0  0  0  0  0
  -26.0427  -31.5977   20.5903 H   0  0  0  0  0  0
  -26.8219  -30.8893   21.9763 H   0  0  0  0  0  0
  -28.1128  -29.1113   21.1323 H   0  0  0  0  0  0
  -26.0630  -25.9592   19.0230 H   0  0  0  0  0  0
  -23.9791  -27.2819   19.0458 H   0  0  0  0  0  0
  -23.7217  -30.5921   19.4048 H   0  0  0  0  0  0
  -22.7375  -29.2378   19.8689 H   0  0  0  0  0  0
  -25.1287  -36.1973   25.0826 H   0  0  0  0  0  0
  -20.9947  -28.3233   24.1441 H   0  0  0  0  0  0
  -20.5665  -26.2273   23.3604 H   0  0  0  0  0  0
  -21.6635  -26.7449   22.1215 H   0  0  0  0  0  0
  -19.6912  -25.6303   21.1234 H   0  0  0  0  0  0
  -19.6696  -27.3204   20.6746 H   0  0  0  0  0  0
  -17.4195  -26.6679   21.4009 H   0  0  0  0  0  0
  -18.0315  -26.0065   22.9004 H   0  0  0  0  0  0
  -19.7925  -30.7257   24.2292 H   0  0  0  0  0  0
  -17.5005  -31.6265   24.5165 H   0  0  0  0  0  0
  -15.5346  -30.3000   23.7641 H   0  0  0  0  0  0
  -15.8658  -28.0843   22.7039 H   0  0  0  0  0  0
  -24.5915  -30.7045   25.7785 H   0  0  0  0  0  0
  -24.8923  -32.2853   26.4908 H   0  0  0  0  0  0
  -25.8086  -30.8864   27.0209 H   0  0  0  0  0  0
  -26.2839  -29.6800   24.1148 H   0  0  0  0  0  0
  -27.4090  -29.7281   25.4529 H   0  0  0  0  0  0
  -27.8659  -30.4363   23.9207 H   0  0  0  0  0  0
  -27.2673  -33.3604   26.2072 H   0  0  0  0  0  0
  -28.3840  -32.6891   25.0284 H   0  0  0  0  0  0
  -28.0733  -31.8422   26.5360 H   0  0  0  0  0  0
  -28.2590  -38.0115   24.7542 H   0  0  0  0  0  0
  -28.1105  -36.2655   24.6242 H   0  0  0  0  0  0
  -27.2315  -37.1399   25.8861 H   0  0  0  0  0  0
  -20.9299  -29.8757   21.6953 H   0  0  0  0  0  0
  -26.0185  -38.2871   24.1435 H   0  0  0  0  0  0
  -28.0489  -19.6833   21.8586 H   0  0  0  0  0  0
  -31.3273  -16.9653   19.3221 H   0  0  0  0  0  0
  -26.1484  -18.1583   25.5221 H   0  0  0  0  0  0
  -27.3043  -16.8320   25.4566 H   0  0  0  0  0  0
  -25.8003  -16.7408   24.5382 H   0  0  0  0  0  0
  -32.1427  -23.7773   19.9628 H   0  0  0  0  0  0
  -31.2187  -22.6941   18.9499 H   0  0  0  0  0  0
  -31.9448  -22.0986   20.4402 H   0  0  0  0  0  0
  -31.1438  -24.8086   22.0452 H   0  0  0  0  0  0
  -31.2797  -23.1594   22.6328 H   0  0  0  0  0  0
  -29.7721  -24.0187   22.8231 H   0  0  0  0  0  0
  -26.5334  -18.6334   23.0870 H   0  0  0  0  0  0
  -28.0077  -18.8169   24.0219 H   0  0  0  0  0  0
  -30.1953  -25.1149   19.5594 H   0  0  0  0  0  0
  -28.9628  -24.0141   19.0592 H   0  0  0  0  0  0
  -28.2374  -22.3224   21.1833 H   0  0  0  0  0  0
  -29.6108  -21.5835   21.9608 H   0  0  0  0  0  0
  -28.6042  -25.5108   21.6984 H   0  0  0  0  0  0
  -27.3903  -24.9031   20.6100 H   0  0  0  0  0  0
  -29.1585  -15.0924   21.7076 H   0  0  0  0  0  0
  -29.9979  -21.3025   19.2142 H   0  0  0  0  0  0
  1 25  1  0  0  0
  1 30  2  0  0  0
  1 86  1  0  0  0
  2  3  1  0  0  0
  2 25  1  0  0  0
  2 90  1  0  0  0
  2 91  1  0  0  0
  3  4  1  0  0  0
  3 92  1  0  0  0
  3 93  1  0  0  0
  4  5  1  0  0  0
  4 94  1  0  0  0
  4 95  1  0  0  0
  5  6  1  0  0  0
  5 26  1  0  0  0
  5 96  1  0  0  0
  6 25  1  0  0  0
  6 97  1  0  0  0
  6 98  1  0  0  0
  7  8  2  0  0  0
  7 26  1  0  0  0
  7 29  1  0  0  0
  8  9  1  0  0  0
  8 22  1  0  0  0
  9 10  1  0  0  0
  9 27  2  0  0  0
 10 11  2  0  0  0
 10 15  1  0  0  0
 11 12  1  0  0  0
 11 99  1  0  0  0
 12 13  2  0  0  0
 12100  1  0  0  0
 13 14  1  0  0  0
 13 31  1  0  0  0
 14 15  2  0  0  0
 14101  1  0  0  0
 15102  1  0  0  0
 16 17  2  0  0  0
 16 21  1  0  0  0
 16 31  1  0  0  0
 17 18  1  0  0  0
 17103  1  0  0  0
 18 19  2  0  0  0
 18104  1  0  0  0
 19 20  1  0  0  0
 19 24  1  0  0  0
 20 21  2  0  0  0
 20105  1  0  0  0
 21 23  1  0  0  0
 22 28  1  0  0  0
 22 32  2  0  0  0
 26 27  1  0  0  0
 28106  1  0  0  0
 28107  1  0  0  0
 29108  1  0  0  0
 29109  1  0  0  0
 33 34  1  0  0  0
 33 66  1  0  0  0
 33 70  2  0  0  0
 34 36  1  0  0  0
 34 59  1  0  0  0
 34110  1  0  0  0
 35 44  2  0  0  0
 35 45  1  0  0  0
 35 68  1  0  0  0
 36 56  1  0  0  0
 36111  1  0  0  0
 37 39  1  0  0  0
 37 47  1  0  0  0
 37 66  1  0  0  0
 37112  1  0  0  0
 38 43  2  0  0  0
 38 46  1  0  0  0
 38 47  1  0  0  0
 39 64  1  0  0  0
 39 67  2  0  0  0
 40 52  1  0  0  0
 40 53  2  0  0  0
 40 58  1  0  0  0
 41113  1  0  0  0
 41114  1  0  0  0
 41115  1  0  0  0
 41 48  1  0  0  0
 42 43  1  0  0  0
 42 66  1  0  0  0
 42116  1  0  0  0
 42117  1  0  0  0
 43 44  1  0  0  0
 44118  1  0  0  0
 45 46  2  0  0  0
 45119  1  0  0  0
 46120  1  0  0  0
 47121  1  0  0  0
 47122  1  0  0  0
 48 56  1  0  0  0
 48 65  1  0  0  0
 48123  1  0  0  0
 49 50  1  0  0  0
 49 53  1  0  0  0
 49 64  1  0  0  0
 49124  1  0  0  0
 50 51  1  0  0  0
 50125  1  0  0  0
 50126  1  0  0  0
 51 52  1  0  0  0
 51127  1  0  0  0
 51128  1  0  0  0
 52129  1  0  0  0
 52130  1  0  0  0
 53 54  1  0  0  0
 54 55  2  0  0  0
 54131  1  0  0  0
 55 57  1  0  0  0
 55132  1  0  0  0
 56 69  2  0  0  0
 57 58  2  0  0  0
 57133  1  0  0  0
 58134  1  0  0  0
 59 60  1  0  0  0
 59 61  1  0  0  0
 59 62  1  0  0  0
 60135  1  0  0  0
 60136  1  0  0  0
 60137  1  0  0  0
 61138  1  0  0  0
 61139  1  0  0  0
 61140  1  0  0  0
 62141  1  0  0  0
 62142  1  0  0  0
 62143  1  0  0  0
 63 65  1  0  0  0
 63144  1  0  0  0
 63145  1  0  0  0
 63146  1  0  0  0
 64147  1  0  0  0
 65148  1  0  0  0
 68 84  1  0  0  0
 71 73  2  0  0  0
 71 74  1  0  0  0
 71149  1  0  0  0
 72 75  2  0  0  0
 72 76  1  0  0  0
 72150  1  0  0  0
 73 75  1  0  0  0
 73 77  1  0  0  0
 74 76  2  0  0  0
 74 87  1  0  0  0
 75 86  1  0  0  0
 76 89  1  0  0  0
 77 81  1  0  0  0
 77 88  2  0  0  0
 78 81  1  0  0  0
 78151  1  0  0  0
 78152  1  0  0  0
 78153  1  0  0  0
 79154  1  0  0  0
 79155  1  0  0  0
 79156  1  0  0  0
 79 85  1  0  0  0
 80 85  1  0  0  0
 80157  1  0  0  0
 80158  1  0  0  0
 80159  1  0  0  0
 81160  1  0  0  0
 81161  1  0  0  0
 82 84  1  0  0  0
 82 85  1  0  0  0
 82162  1  0  0  0
 82163  1  0  0  0
 83 85  1  0  0  0
 83 87  1  0  0  0
 83164  1  0  0  0
 83165  1  0  0  0
 84166  1  0  0  0
 84167  1  0  0  0
 86168  1  0  0  0
 87169  1  0  0  0
M  ISO  4   1 100  68 101  84 101  86 100
M  END
> <chiral flag>
0

> <version>
0

> <s_m_source_file>
/data/baiqing/PycharmProjects/Reinvent-master-3.2/result/LINK_invent/BTK/process_docking_weight1_custom_product_contain_oxygen_bond_distance_aromatic_linkinvent_7_9_3/rearranged_h_0141.sdf

> <i_m_source_file_index>
24

> <r_mmod_Potential_Energy-OPLS-2005>
58.7536010742188

> <r_mmod_Stretch_Energy-OPLS-2005>
49.098819732666

> <r_mmod_Bend_Energy-OPLS-2005>
119.89616394043

> <r_mmod_Torsional_Energy-OPLS-2005>
292.286468505859

> <r_mmod_Improper_Torsional_Energy-OPLS-2005>
7.73466730117798

> <r_mmod_Van_der_Waal_Energy-OPLS-2005>
168.129806518555

> <r_mmod_Electrostatic_Energy-OPLS-2005>
-394.425720214844

> <r_mmod_Solvation_Energy-OPLS-2005>
-196.984848022461

> <b_mmod_Minimization_Converged-OPLS-2005>
0

> <r_mmod_RMS_Derivative-OPLS-2005>
1.65251779556274

$$$$
24
                    3D
 Structure written by MMmdl.
154162  0  0  1  0            999 V2000
  -30.5864  -14.7505   20.4741 C   0  0  0  0  0  0
  -30.4463  -12.4629   19.4637 C   0  0  0  0  0  0
  -29.5120  -12.5158   18.2323 C   0  0  0  0  0  0
  -28.0382  -12.3330   18.6503 C   0  0  0  0  0  0
  -27.6453  -13.2274   19.8552 C   0  0  2  0  0  0
  -28.6926  -13.1386   20.9870 C   0  0  0  0  0  0
  -25.2514  -13.8185   20.5700 C   0  0  0  0  0  0
  -24.1800  -13.0432   20.9210 C   0  0  0  0  0  0
  -24.6388  -11.6906   20.8760 C   0  0  0  0  0  0
  -23.9062  -10.4290   21.0405 C   0  0  0  0  0  0
  -24.3604   -9.4199   21.9183 C   0  0  0  0  0  0
  -23.6271   -8.2237   22.0762 C   0  0  0  0  0  0
  -22.4255   -8.0282   21.3546 C   0  0  0  0  0  0
  -21.9889   -9.0266   20.4659 C   0  0  0  0  0  0
  -22.7230  -10.2137   20.3064 C   0  0  0  0  0  0
  -21.6842   -6.0732   22.5280 C   0  0  0  0  0  0
  -21.4013   -6.5637   23.8214 C   0  0  0  0  0  0
  -21.3662   -5.6790   24.9179 C   0  0  0  0  0  0
  -21.6035   -4.3053   24.7226 C   0  0  0  0  0  0
  -21.8815   -3.8145   23.4352 C   0  0  0  0  0  0
  -21.9188   -4.6961   22.3404 C   0  0  0  0  0  0
  -22.7821  -13.5225   21.1858 C   0  0  0  0  0  0
  -22.1656   -4.2142   21.0983 F   0  0  0  0  0  0
  -21.5619   -3.4545   25.7742 F   0  0  0  0  0  0
  -29.9938  -13.5073   20.4106 N   0  0  0  0  0  0
  -26.2948  -12.9388   20.3299 N   0  0  0  0  0  0
  -25.9317  -11.6529   20.5769 N   0  0  0  0  0  0
  -22.0458  -12.8243   22.0436 N   0  0  0  0  0  0
  -25.4186  -15.1910   20.4101 N   0  0  0  0  0  0
  -31.7731  -14.8873   20.1587 O   0  0  0  0  0  0
  -21.6626   -6.8874   21.4237 O   0  0  0  0  0  0
  -22.3506  -14.5529   20.6699 O   0  0  0  0  0  0
  -24.6269  -31.8532   23.1982 C   0  0  0  0  0  0
  -25.9087  -32.4786   23.8276 C   0  0  1  0  0  0
  -27.2408  -27.2859   20.1438 C   0  0  0  0  0  0
  -25.5859  -33.8577   24.2190 N   0  0  0  0  0  0
  -23.4257  -30.4712   21.5393 C   0  0  2  0  0  0
  -24.8795  -28.9095   20.1227 C   0  0  0  0  0  0
  -22.7484  -29.4583   22.4924 C   0  0  0  0  0  0
  -18.0281  -28.1381   22.8492 C   0  0  0  0  0  0
  -24.1481  -36.7306   23.2648 C   0  0  0  0  0  0
  -25.9661  -30.7765   21.3708 C   0  0  0  0  0  0
  -26.0466  -29.3955   20.7259 C   0  0  0  0  0  0
  -27.2327  -28.5975   20.7209 C   0  0  0  0  0  0
  -26.0548  -26.8528   19.5197 C   0  0  0  0  0  0
  -24.8860  -27.6438   19.5107 C   0  0  0  0  0  0
  -23.6470  -29.7921   20.1605 C   0  0  0  0  0  0
  -25.4118  -36.3084   24.0308 C   0  0  1  0  0  0
  -20.5880  -28.3690   23.1273 C   0  0  2  0  0  0
  -20.6763  -26.9406   22.5412 C   0  0  0  0  0  0
  -19.5739  -26.6377   21.5216 C   0  0  0  0  0  0
  -18.1919  -26.7925   22.1626 C   0  0  0  0  0  0
  -19.1535  -28.8853   23.2879 C   0  0  0  0  0  0
  -18.9464  -30.1445   23.8904 C   0  0  0  0  0  0
  -17.6468  -30.6588   24.0564 C   0  0  0  0  0  0
  -25.9054  -34.9467   23.5070 C   0  0  0  0  0  0
  -16.5355  -29.9089   23.6329 C   0  0  0  0  0  0
  -16.7267  -28.6499   23.0364 C   0  0  0  0  0  0
  -26.4591  -31.6666   25.0647 C   0  0  0  0  0  0
  -25.3926  -31.3778   26.1453 C   0  0  0  0  0  0
  -27.0483  -30.3104   24.6123 C   0  0  0  0  0  0
  -27.6150  -32.4492   25.7316 C   0  0  0  0  0  0
  -27.5571  -37.1799   24.8460 C   0  0  0  0  0  0
  -21.4194  -29.3032   22.3662 N   0  0  0  0  0  0
  -26.4297  -37.3782   23.9400 N   0  0  0  0  0  0
  -24.6920  -31.0521   22.0939 N   0  0  0  0  0  0
  -23.4179  -28.8139   23.3036 O   0  0  0  0  0  0
  -28.3757  -26.4542   20.0836 O   0  0  0  0  0  0
  -26.5655  -34.8954   22.4654 O   0  0  0  0  0  0
  -23.5432  -32.1313   23.7327 O   0  0  0  0  0  0
  -30.7660  -19.4778   20.7297 C   0  0  0  0  0  0
  -31.0053  -18.0413   20.7968 C   0  0  0  0  0  0
  -29.4640  -19.8783   20.4796 C   0  0  0  0  0  0
  -29.8984  -17.2296   20.6268 C   0  0  0  0  0  0
  -29.3794  -22.4297   20.5756 C   0  0  0  0  0  0
  -29.8521  -25.5075   21.5837 C   0  0  0  0  0  0
  -27.4266  -25.0227   21.9148 C   0  0  0  0  0  0
  -28.6696  -23.7702   20.0173 C   0  0  0  0  0  0
  -28.5353  -25.1718   20.8536 C   0  0  0  0  0  0
  -28.9095  -21.1593   20.2806 N   0  0  0  0  0  0
  -29.7418  -15.8318   20.6832 N   0  0  0  0  0  0
  -30.4065  -22.5476   21.2474 O   0  0  0  0  0  0
  -28.5295  -18.3557   20.3583 S   0  0  0  0  0  0
  -31.4831  -12.6102   19.1536 H   0  0  0  0  0  0
  -30.4124  -11.4805   19.9378 H   0  0  0  0  0  0
  -29.7932  -11.7490   17.5098 H   0  0  0  0  0  0
  -29.6272  -13.4741   17.7224 H   0  0  0  0  0  0
  -27.8980  -11.2841   18.9116 H   0  0  0  0  0  0
  -27.3777  -12.5271   17.8039 H   0  0  0  0  0  0
  -27.6428  -14.2532   19.4831 H   0  0  0  0  0  0
  -28.7315  -12.1292   21.3979 H   0  0  0  0  0  0
  -28.4258  -13.7906   21.8206 H   0  0  0  0  0  0
  -25.2750   -9.5655   22.4761 H   0  0  0  0  0  0
  -23.9974   -7.4623   22.7481 H   0  0  0  0  0  0
  -21.0816   -8.8788   19.8973 H   0  0  0  0  0  0
  -22.3690  -10.9672   19.6179 H   0  0  0  0  0  0
  -21.2018   -7.6148   23.9710 H   0  0  0  0  0  0
  -21.1479   -6.0530   25.9076 H   0  0  0  0  0  0
  -22.0591   -2.7608   23.2852 H   0  0  0  0  0  0
  -22.4068  -11.9921   22.4851 H   0  0  0  0  0  0
  -21.1081  -13.1296   22.2636 H   0  0  0  0  0  0
  -24.6416  -15.8362   20.5119 H   0  0  0  0  0  0
  -26.2543  -15.6328   20.0511 H   0  0  0  0  0  0
  -26.7089  -32.5483   23.0965 H   0  0  0  0  0  0
  -24.9910  -33.9713   25.0267 H   0  0  0  0  0  0
  -22.7220  -31.2915   21.3845 H   0  0  0  0  0  0
  -23.3735  -35.9651   23.3345 H   0  0  0  0  0  0
  -24.3546  -36.8909   22.2056 H   0  0  0  0  0  0
  -23.7267  -37.6515   23.6676 H   0  0  0  0  0  0
  -26.0910  -31.5327   20.5956 H   0  0  0  0  0  0
  -26.8503  -30.8392   21.9942 H   0  0  0  0  0  0
  -28.1372  -28.9743   21.1777 H   0  0  0  0  0  0
  -26.0351  -25.8836   19.0409 H   0  0  0  0  0  0
  -23.9930  -27.2646   19.0329 H   0  0  0  0  0  0
  -23.7689  -30.5601   19.3955 H   0  0  0  0  0  0
  -22.7688  -29.2167   19.8606 H   0  0  0  0  0  0
  -25.1328  -36.1916   25.0803 H   0  0  0  0  0  0
  -20.9967  -28.3270   24.1395 H   0  0  0  0  0  0
  -20.5661  -26.2305   23.3619 H   0  0  0  0  0  0
  -21.6632  -26.7426   22.1210 H   0  0  0  0  0  0
  -19.6906  -25.6297   21.1233 H   0  0  0  0  0  0
  -19.6673  -27.3194   20.6747 H   0  0  0  0  0  0
  -17.4188  -26.6665   21.4027 H   0  0  0  0  0  0
  -18.0315  -26.0062   22.9010 H   0  0  0  0  0  0
  -19.7943  -30.7244   24.2278 H   0  0  0  0  0  0
  -17.5032  -31.6272   24.5167 H   0  0  0  0  0  0
  -15.5361  -30.3004   23.7658 H   0  0  0  0  0  0
  -15.8654  -28.0825   22.7094 H   0  0  0  0  0  0
  -24.6137  -30.7041   25.7856 H   0  0  0  0  0  0
  -24.9101  -32.2943   26.4871 H   0  0  0  0  0  0
  -25.8383  -30.9092   27.0242 H   0  0  0  0  0  0
  -26.3030  -29.6735   24.1348 H   0  0  0  0  0  0
  -27.4491  -29.7543   25.4603 H   0  0  0  0  0  0
  -27.8762  -30.4435   23.9163 H   0  0  0  0  0  0
  -27.2736  -33.3794   26.1866 H   0  0  0  0  0  0
  -28.3842  -32.7143   25.0056 H   0  0  0  0  0  0
  -28.0958  -31.8686   26.5198 H   0  0  0  0  0  0
  -28.2614  -38.0072   24.7488 H   0  0  0  0  0  0
  -28.1039  -36.2606   24.6320 H   0  0  0  0  0  0
  -27.2272  -37.1485   25.8856 H   0  0  0  0  0  0
  -20.9374  -29.8744   21.6866 H   0  0  0  0  0  0
  -26.0170  -38.2855   24.1403 H   0  0  0  0  0  0
  -31.5862  -20.1715   20.8511 H   0  0  0  0  0  0
  -32.0007  -17.6656   20.9884 H   0  0  0  0  0  0
  -29.8105  -26.4957   22.0446 H   0  0  0  0  0  0
  -30.7001  -25.5077   20.8973 H   0  0  0  0  0  0
  -30.0715  -24.8028   22.3842 H   0  0  0  0  0  0
  -26.4552  -24.8463   21.4537 H   0  0  0  0  0  0
  -27.3440  -25.9106   22.5434 H   0  0  0  0  0  0
  -27.6241  -24.1746   22.5733 H   0  0  0  0  0  0
  -27.6782  -23.4956   19.6591 H   0  0  0  0  0  0
  -29.2318  -24.0062   19.1134 H   0  0  0  0  0  0
  -28.0095  -21.1571   19.8181 H   0  0  0  0  0  0
  -28.7885  -15.5342   20.8229 H   0  0  0  0  0  0
  1 25  1  0  0  0
  1 30  2  0  0  0
  1 81  1  0  0  0
  2  3  1  0  0  0
  2 25  1  0  0  0
  2 84  1  0  0  0
  2 85  1  0  0  0
  3  4  1  0  0  0
  3 86  1  0  0  0
  3 87  1  0  0  0
  4  5  1  0  0  0
  4 88  1  0  0  0
  4 89  1  0  0  0
  5  6  1  0  0  0
  5 26  1  0  0  0
  5 90  1  0  0  0
  6 25  1  0  0  0
  6 91  1  0  0  0
  6 92  1  0  0  0
  7  8  2  0  0  0
  7 26  1  0  0  0
  7 29  1  0  0  0
  8  9  1  0  0  0
  8 22  1  0  0  0
  9 10  1  0  0  0
  9 27  2  0  0  0
 10 11  2  0  0  0
 10 15  1  0  0  0
 11 12  1  0  0  0
 11 93  1  0  0  0
 12 13  2  0  0  0
 12 94  1  0  0  0
 13 14  1  0  0  0
 13 31  1  0  0  0
 14 15  2  0  0  0
 14 95  1  0  0  0
 15 96  1  0  0  0
 16 17  2  0  0  0
 16 21  1  0  0  0
 16 31  1  0  0  0
 17 18  1  0  0  0
 17 97  1  0  0  0
 18 19  2  0  0  0
 18 98  1  0  0  0
 19 20  1  0  0  0
 19 24  1  0  0  0
 20 21  2  0  0  0
 20 99  1  0  0  0
 21 23  1  0  0  0
 22 28  1  0  0  0
 22 32  2  0  0  0
 26 27  1  0  0  0
 28100  1  0  0  0
 28101  1  0  0  0
 29102  1  0  0  0
 29103  1  0  0  0
 33 34  1  0  0  0
 33 66  1  0  0  0
 33 70  2  0  0  0
 34 36  1  0  0  0
 34 59  1  0  0  0
 34104  1  0  0  0
 35 44  2  0  0  0
 35 45  1  0  0  0
 35 68  1  0  0  0
 36 56  1  0  0  0
 36105  1  0  0  0
 37 39  1  0  0  0
 37 47  1  0  0  0
 37 66  1  0  0  0
 37106  1  0  0  0
 38 43  2  0  0  0
 38 46  1  0  0  0
 38 47  1  0  0  0
 39 64  1  0  0  0
 39 67  2  0  0  0
 40 52  1  0  0  0
 40 53  2  0  0  0
 40 58  1  0  0  0
 41107  1  0  0  0
 41108  1  0  0  0
 41109  1  0  0  0
 41 48  1  0  0  0
 42 43  1  0  0  0
 42 66  1  0  0  0
 42110  1  0  0  0
 42111  1  0  0  0
 43 44  1  0  0  0
 44112  1  0  0  0
 45 46  2  0  0  0
 45113  1  0  0  0
 46114  1  0  0  0
 47115  1  0  0  0
 47116  1  0  0  0
 48 56  1  0  0  0
 48 65  1  0  0  0
 48117  1  0  0  0
 49 50  1  0  0  0
 49 53  1  0  0  0
 49 64  1  0  0  0
 49118  1  0  0  0
 50 51  1  0  0  0
 50119  1  0  0  0
 50120  1  0  0  0
 51 52  1  0  0  0
 51121  1  0  0  0
 51122  1  0  0  0
 52123  1  0  0  0
 52124  1  0  0  0
 53 54  1  0  0  0
 54 55  2  0  0  0
 54125  1  0  0  0
 55 57  1  0  0  0
 55126  1  0  0  0
 56 69  2  0  0  0
 57 58  2  0  0  0
 57127  1  0  0  0
 58128  1  0  0  0
 59 60  1  0  0  0
 59 61  1  0  0  0
 59 62  1  0  0  0
 60129  1  0  0  0
 60130  1  0  0  0
 60131  1  0  0  0
 61132  1  0  0  0
 61133  1  0  0  0
 61134  1  0  0  0
 62135  1  0  0  0
 62136  1  0  0  0
 62137  1  0  0  0
 63 65  1  0  0  0
 63138  1  0  0  0
 63139  1  0  0  0
 63140  1  0  0  0
 64141  1  0  0  0
 65142  1  0  0  0
 68 79  1  0  0  0
 71 72  1  0  0  0
 71 73  2  0  0  0
 71143  1  0  0  0
 72 74  2  0  0  0
 72144  1  0  0  0
 73 80  1  0  0  0
 73 83  1  0  0  0
 74 81  1  0  0  0
 74 83  1  0  0  0
 75 78  1  0  0  0
 75 80  1  0  0  0
 75 82  2  0  0  0
 76145  1  0  0  0
 76146  1  0  0  0
 76147  1  0  0  0
 76 79  1  0  0  0
 77 79  1  0  0  0
 77148  1  0  0  0
 77149  1  0  0  0
 77150  1  0  0  0
 78 79  1  0  0  0
 78151  1  0  0  0
 78152  1  0  0  0
 80153  1  0  0  0
 81154  1  0  0  0
M  ISO  4   1 100  68 101  79 101  81 100
M  END
> <chiral flag>
0

> <version>
0

> <s_m_source_file>
/data/baiqing/PycharmProjects/Reinvent-master-3.2/result/LINK_invent/BTK/process_docking_weight1_custom_product_contain_oxygen_bond_distance_aromatic_linkinvent_7_9_3/rearranged_h_0141.sdf

> <i_m_source_file_index>
25

> <r_mmod_Potential_Energy-OPLS-2005>
126.916381835938

> <r_mmod_Stretch_Energy-OPLS-2005>
112.998802185059

> <r_mmod_Bend_Energy-OPLS-2005>
189.950012207031

> <r_mmod_Torsional_Energy-OPLS-2005>
236.57112121582

> <r_mmod_Improper_Torsional_Energy-OPLS-2005>
5.65878534317017

> <r_mmod_Van_der_Waal_Energy-OPLS-2005>
114.010032653809

> <r_mmod_Electrostatic_Energy-OPLS-2005>
-383.146179199219

> <r_mmod_Solvation_Energy-OPLS-2005>
-224.136383056641

> <b_mmod_Minimization_Converged-OPLS-2005>
0

> <r_mmod_RMS_Derivative-OPLS-2005>
2.43339800834656

$$$$
25
                    3D
 Structure written by MMmdl.
166174  0  0  1  0            999 V2000
  -30.6301  -14.6827   20.5243 C   0  0  0  0  0  0
  -30.4517  -12.4090   19.5461 C   0  0  0  0  0  0
  -29.5560  -12.4395   18.2905 C   0  0  0  0  0  0
  -28.0792  -12.2673   18.6845 C   0  0  0  0  0  0
  -27.6539  -13.2093   19.8438 C   0  0  2  0  0  0
  -28.6674  -13.1551   21.0093 C   0  0  0  0  0  0
  -25.2582  -13.8173   20.5563 C   0  0  0  0  0  0
  -24.1826  -13.0446   20.9102 C   0  0  0  0  0  0
  -24.6370  -11.6922   20.8654 C   0  0  0  0  0  0
  -23.9028  -10.4310   21.0326 C   0  0  0  0  0  0
  -24.3609   -9.4239   21.9100 C   0  0  0  0  0  0
  -23.6304   -8.2281   22.0696 C   0  0  0  0  0  0
  -22.4275   -8.0295   21.3530 C   0  0  0  0  0  0
  -21.9879   -9.0240   20.4634 C   0  0  0  0  0  0
  -22.7172  -10.2137   20.3025 C   0  0  0  0  0  0
  -21.6887   -6.0704   22.5237 C   0  0  0  0  0  0
  -21.4027   -6.5579   23.8164 C   0  0  0  0  0  0
  -21.3690   -5.6736   24.9138 C   0  0  0  0  0  0
  -21.6080   -4.3006   24.7188 C   0  0  0  0  0  0
  -21.8842   -3.8101   23.4305 C   0  0  0  0  0  0
  -21.9207   -4.6926   22.3368 C   0  0  0  0  0  0
  -22.7866  -13.5253   21.1793 C   0  0  0  0  0  0
  -22.1654   -4.2106   21.0940 F   0  0  0  0  0  0
  -21.5679   -3.4490   25.7717 F   0  0  0  0  0  0
  -29.9993  -13.4687   20.4730 N   0  0  0  0  0  0
  -26.2957  -12.9310   20.3123 N   0  0  0  0  0  0
  -25.9278  -11.6493   20.5642 N   0  0  0  0  0  0
  -22.0503  -12.8319   22.0430 N   0  0  0  0  0  0
  -25.4363  -15.1886   20.3998 N   0  0  0  0  0  0
  -31.7754  -14.8112   20.0813 O   0  0  0  0  0  0
  -21.6675   -6.8855   21.4209 O   0  0  0  0  0  0
  -22.3503  -14.5493   20.6561 O   0  0  0  0  0  0
  -24.6135  -31.8667   23.2051 C   0  0  0  0  0  0
  -25.9008  -32.4856   23.8331 C   0  0  1  0  0  0
  -27.2203  -27.3675   20.2101 C   0  0  0  0  0  0
  -25.5811  -33.8647   24.2258 N   0  0  0  0  0  0
  -23.4016  -30.4835   21.5523 C   0  0  2  0  0  0
  -24.8538  -28.9437   20.1111 C   0  0  0  0  0  0
  -22.7406  -29.4646   22.5076 C   0  0  0  0  0  0
  -18.0265  -28.1376   22.8506 C   0  0  0  0  0  0
  -24.1454  -36.7358   23.2648 C   0  0  0  0  0  0
  -25.9214  -30.8279   21.3490 C   0  0  0  0  0  0
  -26.0063  -29.4456   20.7291 C   0  0  0  0  0  0
  -27.1877  -28.6639   20.7856 C   0  0  0  0  0  0
  -26.0782  -26.9204   19.5104 C   0  0  0  0  0  0
  -24.8886  -27.6798   19.4908 C   0  0  0  0  0  0
  -23.6045  -29.8030   20.1689 C   0  0  0  0  0  0
  -25.4093  -36.3158   24.0331 C   0  0  1  0  0  0
  -20.5841  -28.3637   23.1359 C   0  0  2  0  0  0
  -20.6739  -26.9366   22.5490 C   0  0  0  0  0  0
  -19.5757  -26.6375   21.5242 C   0  0  0  0  0  0
  -18.1899  -26.7936   22.1589 C   0  0  0  0  0  0
  -19.1505  -28.8830   23.2926 C   0  0  0  0  0  0
  -18.9442  -30.1434   23.8933 C   0  0  0  0  0  0
  -17.6441  -30.6583   24.0558 C   0  0  0  0  0  0
  -25.9011  -34.9512   23.5118 C   0  0  0  0  0  0
  -16.5334  -29.9089   23.6325 C   0  0  0  0  0  0
  -16.7249  -28.6501   23.0367 C   0  0  0  0  0  0
  -26.4427  -31.6645   25.0661 C   0  0  0  0  0  0
  -25.3686  -31.3746   26.1413 C   0  0  0  0  0  0
  -27.0180  -30.3096   24.5941 C   0  0  0  0  0  0
  -27.6032  -32.4345   25.7400 C   0  0  0  0  0  0
  -27.5581  -37.1820   24.8460 C   0  0  0  0  0  0
  -21.4150  -29.2983   22.3770 N   0  0  0  0  0  0
  -26.4293  -37.3833   23.9398 N   0  0  0  0  0  0
  -24.6663  -31.0714   22.0976 N   0  0  0  0  0  0
  -23.4127  -28.8289   23.3235 O   0  0  0  0  0  0
  -28.3033  -26.5070   20.3683 O   0  0  0  0  0  0
  -26.5663  -34.8977   22.4733 O   0  0  0  0  0  0
  -23.5335  -32.1419   23.7450 O   0  0  0  0  0  0
  -29.7661  -18.3620   20.9187 C   0  0  0  0  0  0
  -29.6523  -17.0597   18.8696 C   0  0  0  0  0  0
  -29.5403  -19.5110   18.7626 C   0  0  0  0  0  0
  -29.8188  -17.0723   20.2726 C   0  0  0  0  0  0
  -29.6079  -19.5965   20.1849 C   0  0  0  0  0  0
  -29.5185  -18.2456   18.1325 C   0  0  0  0  0  0
  -28.7366  -21.9347   20.6890 C   0  0  0  0  0  0
  -29.5131  -20.7450   17.8592 C   0  0  0  0  0  0
  -29.7789  -26.3967   22.3702 C   0  0  0  0  0  0
  -26.6624  -24.1614   21.5883 C   0  0  0  0  0  0
  -28.3420  -23.9497   23.3960 C   0  0  0  0  0  0
  -29.1427  -23.4132   21.0582 C   0  0  0  0  0  0
  -28.4571  -25.9276   21.7184 C   0  0  2  0  0  0
  -28.1689  -24.3609   21.9002 C   0  0  0  0  0  0
  -29.6300  -20.9064   20.8355 N   0  0  0  0  0  0
  -29.9317  -15.7814   20.9617 N   0  0  0  0  0  0
  -27.6172  -21.7226   20.2193 O   0  0  0  0  0  0
  -29.3693  -18.1613   16.7858 F   0  0  0  0  0  0
  -31.4988  -12.5328   19.2627 H   0  0  0  0  0  0
  -30.3967  -11.4429   20.0487 H   0  0  0  0  0  0
  -29.8554  -11.6247   17.6295 H   0  0  0  0  0  0
  -29.7118  -13.3664   17.7420 H   0  0  0  0  0  0
  -27.9662  -11.2303   19.0093 H   0  0  0  0  0  0
  -27.4340  -12.3840   17.8133 H   0  0  0  0  0  0
  -27.6595  -14.2210   19.4384 H   0  0  0  0  0  0
  -28.6814  -12.1690   21.4734 H   0  0  0  0  0  0
  -28.3666  -13.8529   21.7896 H   0  0  0  0  0  0
  -25.2780   -9.5751   22.4625 H   0  0  0  0  0  0
  -24.0054   -7.4682   22.7403 H   0  0  0  0  0  0
  -21.0795   -8.8723   19.8945 H   0  0  0  0  0  0
  -22.3567  -10.9658   19.6162 H   0  0  0  0  0  0
  -21.1974   -7.6089   23.9654 H   0  0  0  0  0  0
  -21.1510   -6.0460   25.9036 H   0  0  0  0  0  0
  -22.0600   -2.7567   23.2807 H   0  0  0  0  0  0
  -22.4127  -12.0080   22.5023 H   0  0  0  0  0  0
  -21.1079  -13.1304   22.2480 H   0  0  0  0  0  0
  -24.6900  -15.8601   20.5429 H   0  0  0  0  0  0
  -26.3011  -15.6203   20.0943 H   0  0  0  0  0  0
  -26.7089  -32.5579   23.1099 H   0  0  0  0  0  0
  -24.9731  -33.9778   25.0250 H   0  0  0  0  0  0
  -22.6900  -31.3005   21.4172 H   0  0  0  0  0  0
  -23.3699  -35.9716   23.3373 H   0  0  0  0  0  0
  -24.3499  -36.8928   22.2049 H   0  0  0  0  0  0
  -23.7234  -37.6584   23.6637 H   0  0  0  0  0  0
  -25.9773  -31.5624   20.5446 H   0  0  0  0  0  0
  -26.8285  -30.9326   21.9292 H   0  0  0  0  0  0
  -28.0555  -29.0256   21.3167 H   0  0  0  0  0  0
  -26.0850  -25.9518   19.0279 H   0  0  0  0  0  0
  -24.0027  -27.2856   19.0110 H   0  0  0  0  0  0
  -23.6734  -30.5675   19.3962 H   0  0  0  0  0  0
  -22.7280  -29.2079   19.9051 H   0  0  0  0  0  0
  -25.1288  -36.2013   25.0829 H   0  0  0  0  0  0
  -20.9913  -28.3196   24.1491 H   0  0  0  0  0  0
  -20.5565  -26.2265   23.3698 H   0  0  0  0  0  0
  -21.6625  -26.7385   22.1339 H   0  0  0  0  0  0
  -19.6902  -25.6289   21.1280 H   0  0  0  0  0  0
  -19.6727  -27.3191   20.6790 H   0  0  0  0  0  0
  -17.4225  -26.6766   21.3925 H   0  0  0  0  0  0
  -18.0200  -26.0034   22.8921 H   0  0  0  0  0  0
  -19.7919  -30.7239   24.2303 H   0  0  0  0  0  0
  -17.5002  -31.6271   24.5160 H   0  0  0  0  0  0
  -15.5335  -30.3001   23.7641 H   0  0  0  0  0  0
  -15.8644  -28.0821   22.7083 H   0  0  0  0  0  0
  -24.5882  -30.7066   25.7737 H   0  0  0  0  0  0
  -24.8831  -32.2896   26.4830 H   0  0  0  0  0  0
  -25.8029  -30.8936   27.0185 H   0  0  0  0  0  0
  -26.2628  -29.6939   24.1036 H   0  0  0  0  0  0
  -27.4006  -29.7273   25.4323 H   0  0  0  0  0  0
  -27.8449  -30.4444   23.8965 H   0  0  0  0  0  0
  -27.2663  -33.3618   26.2047 H   0  0  0  0  0  0
  -28.3772  -32.6963   25.0176 H   0  0  0  0  0  0
  -28.0762  -31.8423   26.5236 H   0  0  0  0  0  0
  -28.2685  -38.0036   24.7452 H   0  0  0  0  0  0
  -28.0984  -36.2583   24.6338 H   0  0  0  0  0  0
  -27.2302  -37.1563   25.8865 H   0  0  0  0  0  0
  -20.9340  -29.8516   21.6823 H   0  0  0  0  0  0
  -26.0200  -38.2923   24.1387 H   0  0  0  0  0  0
  -29.8545  -18.4078   21.9950 H   0  0  0  0  0  0
  -29.6245  -16.1241   18.3325 H   0  0  0  0  0  0
  -30.2378  -21.4973   18.1752 H   0  0  0  0  0  0
  -28.5226  -21.1981   17.8425 H   0  0  0  0  0  0
  -29.7617  -20.4897   16.8325 H   0  0  0  0  0  0
  -29.7564  -26.2342   23.4498 H   0  0  0  0  0  0
  -29.9457  -27.4670   22.2398 H   0  0  0  0  0  0
  -30.6542  -25.8734   21.9925 H   0  0  0  0  0  0
  -26.2865  -23.2083   21.9641 H   0  0  0  0  0  0
  -26.4492  -24.1967   20.5216 H   0  0  0  0  0  0
  -26.0489  -24.9284   22.0669 H   0  0  0  0  0  0
  -27.7915  -23.0388   23.6347 H   0  0  0  0  0  0
  -27.9924  -24.7117   24.0972 H   0  0  0  0  0  0
  -29.3846  -23.7411   23.6604 H   0  0  0  0  0  0
  -29.3577  -23.9140   20.1110 H   0  0  0  0  0  0
  -30.1125  -23.3733   21.5551 H   0  0  0  0  0  0
  -27.7064  -26.4206   22.3453 H   0  0  0  0  0  0
  -30.4628  -21.1205   21.3703 H   0  0  0  0  0  0
  -29.2067  -15.5980   21.6432 H   0  0  0  0  0  0
  1 25  1  0  0  0
  1 30  2  0  0  0
  1 86  1  0  0  0
  2  3  1  0  0  0
  2 25  1  0  0  0
  2 89  1  0  0  0
  2 90  1  0  0  0
  3  4  1  0  0  0
  3 91  1  0  0  0
  3 92  1  0  0  0
  4  5  1  0  0  0
  4 93  1  0  0  0
  4 94  1  0  0  0
  5  6  1  0  0  0
  5 26  1  0  0  0
  5 95  1  0  0  0
  6 25  1  0  0  0
  6 96  1  0  0  0
  6 97  1  0  0  0
  7  8  2  0  0  0
  7 26  1  0  0  0
  7 29  1  0  0  0
  8  9  1  0  0  0
  8 22  1  0  0  0
  9 10  1  0  0  0
  9 27  2  0  0  0
 10 11  2  0  0  0
 10 15  1  0  0  0
 11 12  1  0  0  0
 11 98  1  0  0  0
 12 13  2  0  0  0
 12 99  1  0  0  0
 13 14  1  0  0  0
 13 31  1  0  0  0
 14 15  2  0  0  0
 14100  1  0  0  0
 15101  1  0  0  0
 16 17  2  0  0  0
 16 21  1  0  0  0
 16 31  1  0  0  0
 17 18  1  0  0  0
 17102  1  0  0  0
 18 19  2  0  0  0
 18103  1  0  0  0
 19 20  1  0  0  0
 19 24  1  0  0  0
 20 21  2  0  0  0
 20104  1  0  0  0
 21 23  1  0  0  0
 22 28  1  0  0  0
 22 32  2  0  0  0
 26 27  1  0  0  0
 28105  1  0  0  0
 28106  1  0  0  0
 29107  1  0  0  0
 29108  1  0  0  0
 33 34  1  0  0  0
 33 66  1  0  0  0
 33 70  2  0  0  0
 34 36  1  0  0  0
 34 59  1  0  0  0
 34109  1  0  0  0
 35 44  2  0  0  0
 35 45  1  0  0  0
 35 68  1  0  0  0
 36 56  1  0  0  0
 36110  1  0  0  0
 37 39  1  0  0  0
 37 47  1  0  0  0
 37 66  1  0  0  0
 37111  1  0  0  0
 38 43  2  0  0  0
 38 46  1  0  0  0
 38 47  1  0  0  0
 39 64  1  0  0  0
 39 67  2  0  0  0
 40 52  1  0  0  0
 40 53  2  0  0  0
 40 58  1  0  0  0
 41112  1  0  0  0
 41113  1  0  0  0
 41114  1  0  0  0
 41 48  1  0  0  0
 42 43  1  0  0  0
 42 66  1  0  0  0
 42115  1  0  0  0
 42116  1  0  0  0
 43 44  1  0  0  0
 44117  1  0  0  0
 45 46  2  0  0  0
 45118  1  0  0  0
 46119  1  0  0  0
 47120  1  0  0  0
 47121  1  0  0  0
 48 56  1  0  0  0
 48 65  1  0  0  0
 48122  1  0  0  0
 49 50  1  0  0  0
 49 53  1  0  0  0
 49 64  1  0  0  0
 49123  1  0  0  0
 50 51  1  0  0  0
 50124  1  0  0  0
 50125  1  0  0  0
 51 52  1  0  0  0
 51126  1  0  0  0
 51127  1  0  0  0
 52128  1  0  0  0
 52129  1  0  0  0
 53 54  1  0  0  0
 54 55  2  0  0  0
 54130  1  0  0  0
 55 57  1  0  0  0
 55131  1  0  0  0
 56 69  2  0  0  0
 57 58  2  0  0  0
 57132  1  0  0  0
 58133  1  0  0  0
 59 60  1  0  0  0
 59 61  1  0  0  0
 59 62  1  0  0  0
 60134  1  0  0  0
 60135  1  0  0  0
 60136  1  0  0  0
 61137  1  0  0  0
 61138  1  0  0  0
 61139  1  0  0  0
 62140  1  0  0  0
 62141  1  0  0  0
 62142  1  0  0  0
 63 65  1  0  0  0
 63143  1  0  0  0
 63144  1  0  0  0
 63145  1  0  0  0
 64146  1  0  0  0
 65147  1  0  0  0
 68 83  1  0  0  0
 71 74  2  0  0  0
 71 75  1  0  0  0
 71148  1  0  0  0
 72 74  1  0  0  0
 72 76  2  0  0  0
 72149  1  0  0  0
 73 75  2  0  0  0
 73 76  1  0  0  0
 73 78  1  0  0  0
 74 86  1  0  0  0
 75 85  1  0  0  0
 76 88  1  0  0  0
 77 82  1  0  0  0
 77 85  1  0  0  0
 77 87  2  0  0  0
 78150  1  0  0  0
 78151  1  0  0  0
 78152  1  0  0  0
 79153  1  0  0  0
 79154  1  0  0  0
 79155  1  0  0  0
 79 83  1  0  0  0
 80156  1  0  0  0
 80157  1  0  0  0
 80158  1  0  0  0
 80 84  1  0  0  0
 81 84  1  0  0  0
 81159  1  0  0  0
 81160  1  0  0  0
 81161  1  0  0  0
 82 84  1  0  0  0
 82162  1  0  0  0
 82163  1  0  0  0
 83 84  1  0  0  0
 83164  1  0  0  0
 85165  1  0  0  0
 86166  1  0  0  0
M  ISO  4   1 100  68 101  83 101  86 100
M  END
> <chiral flag>
0

> <version>
0

> <s_m_source_file>
/data/baiqing/PycharmProjects/Reinvent-master-3.2/result/LINK_invent/BTK/process_docking_weight1_custom_product_contain_oxygen_bond_distance_aromatic_linkinvent_7_9_3/rearranged_h_0141.sdf

> <i_m_source_file_index>
26

> <r_mmod_Potential_Energy-OPLS-2005>
135.708389282227

> <r_mmod_Stretch_Energy-OPLS-2005>
83.595817565918

> <r_mmod_Bend_Energy-OPLS-2005>
139.755905151367

> <r_mmod_Torsional_Energy-OPLS-2005>
308.307312011719

> <r_mmod_Improper_Torsional_Energy-OPLS-2005>
4.89894914627075

> <r_mmod_Van_der_Waal_Energy-OPLS-2005>
146.72834777832

> <r_mmod_Electrostatic_Energy-OPLS-2005>
-393.110412597656

> <r_mmod_Solvation_Energy-OPLS-2005>
-222.274291992188

> <b_mmod_Minimization_Converged-OPLS-2005>
0

> <r_mmod_RMS_Derivative-OPLS-2005>
8.34052658081055

$$$$
26
                    3D
 Structure written by MMmdl.
178186  0  0  1  0            999 V2000
  -30.7139  -14.4391   20.6038 C   0  0  0  0  0  0
  -30.4221  -12.2981   19.4118 C   0  0  0  0  0  0
  -29.4905  -12.5073   18.2008 C   0  0  0  0  0  0
  -28.0121  -12.3683   18.6155 C   0  0  0  0  0  0
  -27.6630  -13.2027   19.8766 C   0  0  2  0  0  0
  -28.7038  -12.9658   20.9939 C   0  0  0  0  0  0
  -25.2596  -13.8160   20.5676 C   0  0  0  0  0  0
  -24.1844  -13.0440   20.9178 C   0  0  0  0  0  0
  -24.6390  -11.6907   20.8737 C   0  0  0  0  0  0
  -23.9057  -10.4295   21.0410 C   0  0  0  0  0  0
  -24.3613   -9.4210   21.9188 C   0  0  0  0  0  0
  -23.6289   -8.2244   22.0756 C   0  0  0  0  0  0
  -22.4271   -8.0282   21.3545 C   0  0  0  0  0  0
  -21.9908   -9.0259   20.4648 C   0  0  0  0  0  0
  -22.7232  -10.2139   20.3058 C   0  0  0  0  0  0
  -21.6851   -6.0737   22.5278 C   0  0  0  0  0  0
  -21.4013   -6.5641   23.8214 C   0  0  0  0  0  0
  -21.3659   -5.6794   24.9178 C   0  0  0  0  0  0
  -21.6044   -4.3058   24.7228 C   0  0  0  0  0  0
  -21.8817   -3.8151   23.4346 C   0  0  0  0  0  0
  -21.9191   -4.6967   22.3402 C   0  0  0  0  0  0
  -22.7868  -13.5245   21.1840 C   0  0  0  0  0  0
  -22.1659   -4.2153   21.0979 F   0  0  0  0  0  0
  -21.5632   -3.4539   25.7741 F   0  0  0  0  0  0
  -30.0363  -13.2715   20.4439 N   0  0  0  0  0  0
  -26.3027  -12.9320   20.3368 N   0  0  0  0  0  0
  -25.9313  -11.6485   20.5767 N   0  0  0  0  0  0
  -22.0504  -12.8239   22.0396 N   0  0  0  0  0  0
  -25.4324  -15.1879   20.4075 N   0  0  0  0  0  0
  -31.8295  -14.6371   20.1116 O   0  0  0  0  0  0
  -21.6635   -6.8882   21.4242 O   0  0  0  0  0  0
  -22.3556  -14.5554   20.6693 O   0  0  0  0  0  0
  -24.6135  -31.8686   23.2117 C   0  0  0  0  0  0
  -25.9033  -32.4825   23.8404 C   0  0  1  0  0  0
  -27.2377  -27.4440   20.0750 C   0  0  0  0  0  0
  -25.5889  -33.8625   24.2328 N   0  0  0  0  0  0
  -23.4003  -30.4939   21.5524 C   0  0  2  0  0  0
  -24.8445  -28.9608   20.1158 C   0  0  0  0  0  0
  -22.7399  -29.4667   22.4998 C   0  0  0  0  0  0
  -18.0267  -28.1380   22.8508 C   0  0  0  0  0  0
  -24.1482  -36.7319   23.2637 C   0  0  0  0  0  0
  -25.9291  -30.8333   21.3658 C   0  0  0  0  0  0
  -26.0042  -29.4673   20.7146 C   0  0  0  0  0  0
  -27.1977  -28.7106   20.7029 C   0  0  0  0  0  0
  -26.0506  -26.9453   19.4885 C   0  0  0  0  0  0
  -24.8609  -27.6955   19.5069 C   0  0  0  0  0  0
  -23.6076  -29.8283   20.1660 C   0  0  0  0  0  0
  -25.4105  -36.3114   24.0334 C   0  0  1  0  0  0
  -20.5856  -28.3668   23.1328 C   0  0  2  0  0  0
  -20.6757  -26.9405   22.5424 C   0  0  0  0  0  0
  -19.5733  -26.6394   21.5221 C   0  0  0  0  0  0
  -18.1912  -26.7929   22.1639 C   0  0  0  0  0  0
  -19.1516  -28.8842   23.2914 C   0  0  0  0  0  0
  -18.9445  -30.1451   23.8921 C   0  0  0  0  0  0
  -17.6448  -30.6592   24.0575 C   0  0  0  0  0  0
  -25.9036  -34.9478   23.5131 C   0  0  0  0  0  0
  -16.5340  -29.9100   23.6322 C   0  0  0  0  0  0
  -16.7256  -28.6512   23.0352 C   0  0  0  0  0  0
  -26.4463  -31.6607   25.0733 C   0  0  0  0  0  0
  -25.3731  -31.3703   26.1482 C   0  0  0  0  0  0
  -27.0298  -30.3057   24.6104 C   0  0  0  0  0  0
  -27.6048  -32.4318   25.7484 C   0  0  0  0  0  0
  -27.5580  -37.1802   24.8457 C   0  0  0  0  0  0
  -21.4129  -29.3037   22.3736 N   0  0  0  0  0  0
  -26.4287  -37.3802   23.9413 N   0  0  0  0  0  0
  -24.6659  -31.0792   22.1018 N   0  0  0  0  0  0
  -23.4174  -28.8210   23.3039 O   0  0  0  0  0  0
  -28.4246  -26.7360   20.0816 O   0  0  0  0  0  0
  -26.5607  -34.8923   22.4698 O   0  0  0  0  0  0
  -23.5331  -32.1440   23.7514 O   0  0  0  0  0  0
  -31.1238  -19.4899   21.7430 C   0  0  0  0  0  0
  -31.6857  -17.1169   21.8959 C   0  0  0  0  0  0
  -29.4940  -17.8046   21.0792 C   0  0  0  0  0  0
  -32.0396  -18.4694   22.0743 C   0  0  0  0  0  0
  -29.8392  -19.1688   21.2416 C   0  0  0  0  0  0
  -30.4139  -16.7743   21.3872 C   0  0  0  0  0  0
  -28.8328  -21.4798   21.0484 C   0  0  0  0  0  0
  -29.3352  -23.5298   18.2123 C   0  0  0  0  0  0
  -35.9339  -18.2943   24.3689 C   0  0  0  0  0  0
  -34.6062  -18.9882   26.3695 C   0  0  0  0  0  0
  -35.0843  -20.6566   24.5711 C   0  0  0  0  0  0
  -33.4070  -18.8260   22.6286 C   0  0  0  0  0  0
  -27.6650  -22.2042   20.3590 C   0  0  0  0  0  0
  -33.4350  -18.7572   24.1684 C   0  0  0  0  0  0
  -27.7475  -23.7515   20.2235 C   0  0  0  0  0  0
  -28.7049  -25.8307   19.0067 C   0  0  0  0  0  0
  -28.9476  -24.3619   19.4502 C   0  0  2  0  0  0
  -34.7642  -19.1748   24.8487 C   0  0  0  0  0  0
  -28.8785  -20.1480   20.8406 N   0  0  0  0  0  0
  -30.0238  -15.4146   21.2234 N   0  0  0  0  0  0
  -29.6236  -22.1073   21.7557 O   0  0  0  0  0  0
  -31.4656  -12.3991   19.1080 H   0  0  0  0  0  0
  -30.3241  -11.2834   19.8009 H   0  0  0  0  0  0
  -29.7262  -11.7882   17.4152 H   0  0  0  0  0  0
  -29.6601  -13.4960   17.7710 H   0  0  0  0  0  0
  -27.8193  -11.3120   18.8068 H   0  0  0  0  0  0
  -27.3607  -12.6492   17.7872 H   0  0  0  0  0  0
  -27.7132  -14.2525   19.5875 H   0  0  0  0  0  0
  -28.6772  -11.9247   21.3189 H   0  0  0  0  0  0
  -28.4642  -13.5488   21.8841 H   0  0  0  0  0  0
  -25.2760   -9.5686   22.4759 H   0  0  0  0  0  0
  -24.0000   -7.4636   22.7475 H   0  0  0  0  0  0
  -21.0841   -8.8777   19.8952 H   0  0  0  0  0  0
  -22.3693  -10.9680   19.6169 H   0  0  0  0  0  0
  -21.2002   -7.6147   23.9720 H   0  0  0  0  0  0
  -21.1484   -6.0524   25.9082 H   0  0  0  0  0  0
  -22.0596   -2.7613   23.2845 H   0  0  0  0  0  0
  -22.4114  -11.9895   22.4780 H   0  0  0  0  0  0
  -21.1125  -13.1275   22.2603 H   0  0  0  0  0  0
  -24.6661  -15.8438   20.5154 H   0  0  0  0  0  0
  -26.2821  -15.6244   20.0727 H   0  0  0  0  0  0
  -26.7107  -32.5538   23.1172 H   0  0  0  0  0  0
  -25.0022  -33.9790   25.0461 H   0  0  0  0  0  0
  -22.6892  -31.3114   21.4155 H   0  0  0  0  0  0
  -23.3742  -35.9651   23.3298 H   0  0  0  0  0  0
  -24.3575  -36.8939   22.2050 H   0  0  0  0  0  0
  -23.7234  -37.6521   23.6660 H   0  0  0  0  0  0
  -26.0403  -31.5994   20.5971 H   0  0  0  0  0  0
  -26.8179  -30.8871   21.9826 H   0  0  0  0  0  0
  -28.0938  -29.1010   21.1647 H   0  0  0  0  0  0
  -26.0156  -25.9753   19.0185 H   0  0  0  0  0  0
  -23.9667  -27.2943   19.0500 H   0  0  0  0  0  0
  -23.7161  -30.6044   19.4072 H   0  0  0  0  0  0
  -22.7307  -29.2497   19.8696 H   0  0  0  0  0  0
  -25.1279  -36.1978   25.0826 H   0  0  0  0  0  0
  -20.9956  -28.3232   24.1445 H   0  0  0  0  0  0
  -20.5668  -26.2273   23.3606 H   0  0  0  0  0  0
  -21.6627  -26.7448   22.1215 H   0  0  0  0  0  0
  -19.6894  -25.6313   21.1231 H   0  0  0  0  0  0
  -19.6672  -27.3221   20.6765 H   0  0  0  0  0  0
  -17.4183  -26.6691   21.4036 H   0  0  0  0  0  0
  -18.0305  -26.0061   22.9025 H   0  0  0  0  0  0
  -19.7922  -30.7262   24.2298 H   0  0  0  0  0  0
  -17.5003  -31.6269   24.5189 H   0  0  0  0  0  0
  -15.5342  -30.3016   23.7627 H   0  0  0  0  0  0
  -15.8655  -28.0840   22.7053 H   0  0  0  0  0  0
  -24.5904  -30.7051   25.7815 H   0  0  0  0  0  0
  -24.8916  -32.2853   26.4941 H   0  0  0  0  0  0
  -25.8084  -30.8864   27.0235 H   0  0  0  0  0  0
  -26.2845  -29.6817   24.1160 H   0  0  0  0  0  0
  -27.4082  -29.7293   25.4558 H   0  0  0  0  0  0
  -27.8668  -30.4389   23.9246 H   0  0  0  0  0  0
  -27.2685  -33.3616   26.2083 H   0  0  0  0  0  0
  -28.3839  -32.6877   25.0292 H   0  0  0  0  0  0
  -28.0735  -31.8426   26.5376 H   0  0  0  0  0  0
  -28.2585  -38.0112   24.7535 H   0  0  0  0  0  0
  -28.1090  -36.2646   24.6252 H   0  0  0  0  0  0
  -27.2301  -37.1419   25.8858 H   0  0  0  0  0  0
  -20.9283  -29.8766   21.6969 H   0  0  0  0  0  0
  -26.0175  -38.2872   24.1446 H   0  0  0  0  0  0
  -31.4329  -20.5163   21.8733 H   0  0  0  0  0  0
  -32.3953  -16.3434   22.1565 H   0  0  0  0  0  0
  -28.5177  -17.5448   20.6946 H   0  0  0  0  0  0
  -29.6860  -22.5339   18.4814 H   0  0  0  0  0  0
  -30.1461  -24.0045   17.6592 H   0  0  0  0  0  0
  -28.4934  -23.4166   17.5279 H   0  0  0  0  0  0
  -36.8516  -18.5232   24.9125 H   0  0  0  0  0  0
  -36.1491  -18.4421   23.3104 H   0  0  0  0  0  0
  -35.7232  -17.2345   24.5177 H   0  0  0  0  0  0
  -35.5118  -19.2747   26.9064 H   0  0  0  0  0  0
  -34.3933  -17.9492   26.6250 H   0  0  0  0  0  0
  -33.7896  -19.5945   26.7640 H   0  0  0  0  0  0
  -35.9620  -20.9844   25.1297 H   0  0  0  0  0  0
  -34.2555  -21.3046   24.8592 H   0  0  0  0  0  0
  -35.2946  -20.8408   23.5176 H   0  0  0  0  0  0
  -33.6772  -19.8226   22.2805 H   0  0  0  0  0  0
  -34.1414  -18.1437   22.2002 H   0  0  0  0  0  0
  -26.7611  -21.9577   20.9173 H   0  0  0  0  0  0
  -27.5210  -21.7673   19.3703 H   0  0  0  0  0  0
  -33.1826  -17.7396   24.4711 H   0  0  0  0  0  0
  -32.6300  -19.3841   24.5557 H   0  0  0  0  0  0
  -27.7009  -24.2026   21.2157 H   0  0  0  0  0  0
  -26.8291  -24.0581   19.7269 H   0  0  0  0  0  0
  -27.9815  -25.8741   18.1934 H   0  0  0  0  0  0
  -29.6252  -26.2006   18.5537 H   0  0  0  0  0  0
  -29.8080  -24.3608   20.1213 H   0  0  0  0  0  0
  -28.0997  -19.7885   20.3062 H   0  0  0  0  0  0
  -29.0717  -15.1811   21.4604 H   0  0  0  0  0  0
  1 25  1  0  0  0
  1 30  2  0  0  0
  1 90  1  0  0  0
  2  3  1  0  0  0
  2 25  1  0  0  0
  2 92  1  0  0  0
  2 93  1  0  0  0
  3  4  1  0  0  0
  3 94  1  0  0  0
  3 95  1  0  0  0
  4  5  1  0  0  0
  4 96  1  0  0  0
  4 97  1  0  0  0
  5  6  1  0  0  0
  5 26  1  0  0  0
  5 98  1  0  0  0
  6 25  1  0  0  0
  6 99  1  0  0  0
  6100  1  0  0  0
  7  8  2  0  0  0
  7 26  1  0  0  0
  7 29  1  0  0  0
  8  9  1  0  0  0
  8 22  1  0  0  0
  9 10  1  0  0  0
  9 27  2  0  0  0
 10 11  2  0  0  0
 10 15  1  0  0  0
 11 12  1  0  0  0
 11101  1  0  0  0
 12 13  2  0  0  0
 12102  1  0  0  0
 13 14  1  0  0  0
 13 31  1  0  0  0
 14 15  2  0  0  0
 14103  1  0  0  0
 15104  1  0  0  0
 16 17  2  0  0  0
 16 21  1  0  0  0
 16 31  1  0  0  0
 17 18  1  0  0  0
 17105  1  0  0  0
 18 19  2  0  0  0
 18106  1  0  0  0
 19 20  1  0  0  0
 19 24  1  0  0  0
 20 21  2  0  0  0
 20107  1  0  0  0
 21 23  1  0  0  0
 22 28  1  0  0  0
 22 32  2  0  0  0
 26 27  1  0  0  0
 28108  1  0  0  0
 28109  1  0  0  0
 29110  1  0  0  0
 29111  1  0  0  0
 33 34  1  0  0  0
 33 66  1  0  0  0
 33 70  2  0  0  0
 34 36  1  0  0  0
 34 59  1  0  0  0
 34112  1  0  0  0
 35 44  2  0  0  0
 35 45  1  0  0  0
 35 68  1  0  0  0
 36 56  1  0  0  0
 36113  1  0  0  0
 37 39  1  0  0  0
 37 47  1  0  0  0
 37 66  1  0  0  0
 37114  1  0  0  0
 38 43  2  0  0  0
 38 46  1  0  0  0
 38 47  1  0  0  0
 39 64  1  0  0  0
 39 67  2  0  0  0
 40 52  1  0  0  0
 40 53  2  0  0  0
 40 58  1  0  0  0
 41115  1  0  0  0
 41116  1  0  0  0
 41117  1  0  0  0
 41 48  1  0  0  0
 42 43  1  0  0  0
 42 66  1  0  0  0
 42118  1  0  0  0
 42119  1  0  0  0
 43 44  1  0  0  0
 44120  1  0  0  0
 45 46  2  0  0  0
 45121  1  0  0  0
 46122  1  0  0  0
 47123  1  0  0  0
 47124  1  0  0  0
 48 56  1  0  0  0
 48 65  1  0  0  0
 48125  1  0  0  0
 49 50  1  0  0  0
 49 53  1  0  0  0
 49 64  1  0  0  0
 49126  1  0  0  0
 50 51  1  0  0  0
 50127  1  0  0  0
 50128  1  0  0  0
 51 52  1  0  0  0
 51129  1  0  0  0
 51130  1  0  0  0
 52131  1  0  0  0
 52132  1  0  0  0
 53 54  1  0  0  0
 54 55  2  0  0  0
 54133  1  0  0  0
 55 57  1  0  0  0
 55134  1  0  0  0
 56 69  2  0  0  0
 57 58  2  0  0  0
 57135  1  0  0  0
 58136  1  0  0  0
 59 60  1  0  0  0
 59 61  1  0  0  0
 59 62  1  0  0  0
 60137  1  0  0  0
 60138  1  0  0  0
 60139  1  0  0  0
 61140  1  0  0  0
 61141  1  0  0  0
 61142  1  0  0  0
 62143  1  0  0  0
 62144  1  0  0  0
 62145  1  0  0  0
 63 65  1  0  0  0
 63146  1  0  0  0
 63147  1  0  0  0
 63148  1  0  0  0
 64149  1  0  0  0
 65150  1  0  0  0
 68 86  1  0  0  0
 71 74  2  0  0  0
 71 75  1  0  0  0
 71151  1  0  0  0
 72 74  1  0  0  0
 72 76  2  0  0  0
 72152  1  0  0  0
 73 75  2  0  0  0
 73 76  1  0  0  0
 73153  1  0  0  0
 74 82  1  0  0  0
 75 89  1  0  0  0
 76 90  1  0  0  0
 77 83  1  0  0  0
 77 89  1  0  0  0
 77 91  2  0  0  0
 78154  1  0  0  0
 78155  1  0  0  0
 78156  1  0  0  0
 78 87  1  0  0  0
 79157  1  0  0  0
 79158  1  0  0  0
 79159  1  0  0  0
 79 88  1  0  0  0
 80 88  1  0  0  0
 80160  1  0  0  0
 80161  1  0  0  0
 80162  1  0  0  0
 81 88  1  0  0  0
 81163  1  0  0  0
 81164  1  0  0  0
 81165  1  0  0  0
 82 84  1  0  0  0
 82166  1  0  0  0
 82167  1  0  0  0
 83 85  1  0  0  0
 83168  1  0  0  0
 83169  1  0  0  0
 84 88  1  0  0  0
 84170  1  0  0  0
 84171  1  0  0  0
 85 87  1  0  0  0
 85172  1  0  0  0
 85173  1  0  0  0
 86 87  1  0  0  0
 86174  1  0  0  0
 86175  1  0  0  0
 87176  1  0  0  0
 89177  1  0  0  0
 90178  1  0  0  0
M  ISO  4   1 100  68 101  86 101  90 100
M  END
> <chiral flag>
0

> <version>
0

> <s_m_source_file>
/data/baiqing/PycharmProjects/Reinvent-master-3.2/result/LINK_invent/BTK/process_docking_weight1_custom_product_contain_oxygen_bond_distance_aromatic_linkinvent_7_9_3/rearranged_h_0141.sdf

> <i_m_source_file_index>
27

> <r_mmod_Potential_Energy-OPLS-2005>
-42.5404739379883

> <r_mmod_Stretch_Energy-OPLS-2005>
38.34619140625

> <r_mmod_Bend_Energy-OPLS-2005>
123.329513549805

> <r_mmod_Torsional_Energy-OPLS-2005>
236.329147338867

> <r_mmod_Improper_Torsional_Energy-OPLS-2005>
3.41829586029053

> <r_mmod_Van_der_Waal_Energy-OPLS-2005>
159.260101318359

> <r_mmod_Electrostatic_Energy-OPLS-2005>
-390.797210693359

> <r_mmod_Solvation_Energy-OPLS-2005>
-222.789260864258

> <b_mmod_Minimization_Converged-OPLS-2005>
0

> <r_mmod_RMS_Derivative-OPLS-2005>
0.520353972911835

$$$$
27
                    3D
 Structure written by MMmdl.
172180  0  0  1  0            999 V2000
  -30.7301  -14.4158   20.6226 C   0  0  0  0  0  0
  -30.4207  -12.2925   19.4069 C   0  0  0  0  0  0
  -29.4901  -12.5104   18.1974 C   0  0  0  0  0  0
  -28.0117  -12.3704   18.6120 C   0  0  0  0  0  0
  -27.6638  -13.2018   19.8761 C   0  0  2  0  0  0
  -28.7033  -12.9590   20.9933 C   0  0  0  0  0  0
  -25.2600  -13.8152   20.5669 C   0  0  0  0  0  0
  -24.1842  -13.0440   20.9173 C   0  0  0  0  0  0
  -24.6380  -11.6905   20.8723 C   0  0  0  0  0  0
  -23.9037  -10.4300   21.0395 C   0  0  0  0  0  0
  -24.3598   -9.4216   21.9170 C   0  0  0  0  0  0
  -23.6288   -8.2242   22.0748 C   0  0  0  0  0  0
  -22.4268   -8.0271   21.3541 C   0  0  0  0  0  0
  -21.9890   -9.0240   20.4642 C   0  0  0  0  0  0
  -22.7209  -10.2126   20.3048 C   0  0  0  0  0  0
  -21.6849   -6.0725   22.5280 C   0  0  0  0  0  0
  -21.4013   -6.5631   23.8212 C   0  0  0  0  0  0
  -21.3661   -5.6787   24.9176 C   0  0  0  0  0  0
  -21.6047   -4.3048   24.7225 C   0  0  0  0  0  0
  -21.8821   -3.8138   23.4346 C   0  0  0  0  0  0
  -21.9197   -4.6955   22.3405 C   0  0  0  0  0  0
  -22.7868  -13.5244   21.1839 C   0  0  0  0  0  0
  -22.1664   -4.2140   21.0982 F   0  0  0  0  0  0
  -21.5634   -3.4530   25.7739 F   0  0  0  0  0  0
  -30.0390  -13.2595   20.4462 N   0  0  0  0  0  0
  -26.3028  -12.9310   20.3355 N   0  0  0  0  0  0
  -25.9307  -11.6470   20.5749 N   0  0  0  0  0  0
  -22.0501  -12.8251   22.0397 N   0  0  0  0  0  0
  -25.4343  -15.1862   20.4082 N   0  0  0  0  0  0
  -31.8264  -14.6250   20.0930 O   0  0  0  0  0  0
  -21.6635   -6.8860   21.4237 O   0  0  0  0  0  0
  -22.3563  -14.5554   20.6688 O   0  0  0  0  0  0
  -24.6139  -31.8703   23.2127 C   0  0  0  0  0  0
  -25.9046  -32.4827   23.8405 C   0  0  1  0  0  0
  -27.2288  -27.4450   20.0779 C   0  0  0  0  0  0
  -25.5923  -33.8626   24.2340 N   0  0  0  0  0  0
  -23.3981  -30.4961   21.5550 C   0  0  2  0  0  0
  -24.8374  -28.9644   20.1154 C   0  0  0  0  0  0
  -22.7406  -29.4670   22.5017 C   0  0  0  0  0  0
  -18.0271  -28.1387   22.8497 C   0  0  0  0  0  0
  -24.1489  -36.7303   23.2637 C   0  0  0  0  0  0
  -25.9266  -30.8371   21.3642 C   0  0  0  0  0  0
  -25.9977  -29.4738   20.7080 C   0  0  0  0  0  0
  -27.1913  -28.7207   20.6863 C   0  0  0  0  0  0
  -26.0445  -26.9508   19.4823 C   0  0  0  0  0  0
  -24.8548  -27.7012   19.5029 C   0  0  0  0  0  0
  -23.6020  -29.8326   20.1674 C   0  0  0  0  0  0
  -25.4112  -36.3112   24.0341 C   0  0  1  0  0  0
  -20.5860  -28.3662   23.1341 C   0  0  2  0  0  0
  -20.6767  -26.9406   22.5426 C   0  0  0  0  0  0
  -19.5748  -26.6394   21.5225 C   0  0  0  0  0  0
  -18.1921  -26.7937   22.1624 C   0  0  0  0  0  0
  -19.1516  -28.8844   23.2916 C   0  0  0  0  0  0
  -18.9439  -30.1448   23.8926 C   0  0  0  0  0  0
  -17.6442  -30.6593   24.0566 C   0  0  0  0  0  0
  -25.9044  -34.9479   23.5136 C   0  0  0  0  0  0
  -16.5335  -29.9094   23.6327 C   0  0  0  0  0  0
  -16.7256  -28.6509   23.0354 C   0  0  0  0  0  0
  -26.4481  -31.6601   25.0727 C   0  0  0  0  0  0
  -25.3747  -31.3699   26.1474 C   0  0  0  0  0  0
  -27.0294  -30.3044   24.6087 C   0  0  0  0  0  0
  -27.6081  -32.4306   25.7469 C   0  0  0  0  0  0
  -27.5586  -37.1800   24.8466 C   0  0  0  0  0  0
  -21.4137  -29.3032   22.3754 N   0  0  0  0  0  0
  -26.4294  -37.3802   23.9420 N   0  0  0  0  0  0
  -24.6646  -31.0815   22.1021 N   0  0  0  0  0  0
  -23.4191  -28.8218   23.3055 O   0  0  0  0  0  0
  -28.4389  -26.7764   20.1021 O   0  0  0  0  0  0
  -26.5593  -34.8928   22.4687 O   0  0  0  0  0  0
  -23.5344  -32.1450   23.7540 O   0  0  0  0  0  0
  -31.8511  -16.9818   21.9530 C   0  0  0  0  0  0
  -31.3000  -19.3502   22.1246 C   0  0  0  0  0  0
  -29.5773  -17.7424   21.5157 C   0  0  0  0  0  0
  -32.2479  -18.3068   22.2263 C   0  0  0  0  0  0
  -30.5183  -16.6914   21.5867 C   0  0  0  0  0  0
  -29.9537  -19.0791   21.7745 C   0  0  0  0  0  0
  -33.6780  -18.5967   22.5752 C   0  0  0  0  0  0
  -27.9999  -22.9895   20.7674 C   0  0  0  0  0  0
  -26.7121  -21.5551   22.3981 C   0  0  0  0  0  0
  -28.2098  -23.3421   23.3129 C   0  0  0  0  0  0
  -28.5745  -25.1500   18.2779 C   0  0  0  0  0  0
  -30.0642  -25.1714   20.2860 C   0  0  0  0  0  0
  -27.6315  -24.4839   20.6325 C   0  0  0  0  0  0
  -29.2442  -21.3318   22.2452 C   0  0  0  0  0  0
  -28.0374  -22.3128   22.1686 C   0  0  0  0  0  0
  -28.6120  -25.3785   19.8061 C   0  0  0  0  0  0
  -33.8859  -19.5936   23.4253 N   0  0  0  0  0  0
  -30.0871  -15.3602   21.3308 N   0  0  0  0  0  0
  -34.6015  -17.9099   22.1422 O   0  0  0  0  0  0
  -28.1971  -22.3173   19.7512 O   0  0  0  0  0  0
  -28.9817  -20.0544   21.6575 O   0  0  0  0  0  0
  -31.4648  -12.3915   19.1050 H   0  0  0  0  0  0
  -30.3214  -11.2764   19.7914 H   0  0  0  0  0  0
  -29.7275  -11.7947   17.4089 H   0  0  0  0  0  0
  -29.6591  -13.5014   17.7728 H   0  0  0  0  0  0
  -27.8204  -11.3135   18.8010 H   0  0  0  0  0  0
  -27.3591  -12.6515   17.7844 H   0  0  0  0  0  0
  -27.7165  -14.2527   19.5909 H   0  0  0  0  0  0
  -28.6736  -11.9181   21.3182 H   0  0  0  0  0  0
  -28.4602  -13.5403   21.8833 H   0  0  0  0  0  0
  -25.2746   -9.5700   22.4733 H   0  0  0  0  0  0
  -24.0008   -7.4634   22.7466 H   0  0  0  0  0  0
  -21.0816   -8.8745   19.8950 H   0  0  0  0  0  0
  -22.3658  -10.9654   19.6149 H   0  0  0  0  0  0
  -21.1995   -7.6141   23.9714 H   0  0  0  0  0  0
  -21.1486   -6.0515   25.9082 H   0  0  0  0  0  0
  -22.0600   -2.7599   23.2846 H   0  0  0  0  0  0
  -22.4116  -11.9920   22.4797 H   0  0  0  0  0  0
  -21.1115  -13.1281   22.2591 H   0  0  0  0  0  0
  -24.6677  -15.8419   20.5131 H   0  0  0  0  0  0
  -26.2880  -15.6220   20.0827 H   0  0  0  0  0  0
  -26.7114  -32.5536   23.1164 H   0  0  0  0  0  0
  -25.0119  -33.9787   25.0518 H   0  0  0  0  0  0
  -22.6860  -31.3132   21.4224 H   0  0  0  0  0  0
  -23.3756  -35.9630   23.3304 H   0  0  0  0  0  0
  -24.3593  -36.8906   22.2052 H   0  0  0  0  0  0
  -23.7223  -37.6505   23.6641 H   0  0  0  0  0  0
  -26.0429  -31.6050   20.5984 H   0  0  0  0  0  0
  -26.8151  -30.8839   21.9823 H   0  0  0  0  0  0
  -28.0896  -29.1158   21.1405 H   0  0  0  0  0  0
  -26.0021  -25.9981   18.9852 H   0  0  0  0  0  0
  -23.9626  -27.3046   19.0387 H   0  0  0  0  0  0
  -23.7130  -30.6111   19.4116 H   0  0  0  0  0  0
  -22.7236  -29.2566   19.8694 H   0  0  0  0  0  0
  -25.1283  -36.1982   25.0834 H   0  0  0  0  0  0
  -20.9944  -28.3221   24.1467 H   0  0  0  0  0  0
  -20.5696  -26.2268   23.3605 H   0  0  0  0  0  0
  -21.6639  -26.7475   22.1208 H   0  0  0  0  0  0
  -19.6908  -25.6310   21.1248 H   0  0  0  0  0  0
  -19.6701  -27.3212   20.6765 H   0  0  0  0  0  0
  -17.4206  -26.6710   21.4008 H   0  0  0  0  0  0
  -18.0297  -26.0068   22.9006 H   0  0  0  0  0  0
  -19.7915  -30.7251   24.2325 H   0  0  0  0  0  0
  -17.4997  -31.6278   24.5157 H   0  0  0  0  0  0
  -15.5337  -30.3002   23.7639 H   0  0  0  0  0  0
  -15.8656  -28.0832   22.7064 H   0  0  0  0  0  0
  -24.5955  -30.7001   25.7812 H   0  0  0  0  0  0
  -24.8886  -32.2839   26.4894 H   0  0  0  0  0  0
  -25.8105  -30.8904   27.0245 H   0  0  0  0  0  0
  -26.2815  -29.6814   24.1163 H   0  0  0  0  0  0
  -27.4090  -29.7280   25.4533 H   0  0  0  0  0  0
  -27.8650  -30.4366   23.9208 H   0  0  0  0  0  0
  -27.2737  -33.3609   26.2068 H   0  0  0  0  0  0
  -28.3867  -32.6849   25.0266 H   0  0  0  0  0  0
  -28.0770  -31.8405   26.5353 H   0  0  0  0  0  0
  -28.2607  -38.0094   24.7528 H   0  0  0  0  0  0
  -28.1076  -36.2630   24.6270 H   0  0  0  0  0  0
  -27.2316  -37.1421   25.8870 H   0  0  0  0  0  0
  -20.9307  -29.8723   21.6947 H   0  0  0  0  0  0
  -26.0185  -38.2880   24.1425 H   0  0  0  0  0  0
  -32.5822  -16.1888   22.0321 H   0  0  0  0  0  0
  -31.6320  -20.3613   22.3057 H   0  0  0  0  0  0
  -28.5520  -17.5304   21.2468 H   0  0  0  0  0  0
  -25.8635  -22.2380   22.4502 H   0  0  0  0  0  0
  -26.7374  -20.9900   23.3295 H   0  0  0  0  0  0
  -26.5073  -20.8468   21.5937 H   0  0  0  0  0  0
  -27.3270  -23.9685   23.4417 H   0  0  0  0  0  0
  -29.0717  -23.9902   23.1505 H   0  0  0  0  0  0
  -28.3583  -22.8466   24.2731 H   0  0  0  0  0  0
  -27.5935  -25.2994   17.8360 H   0  0  0  0  0  0
  -28.8832  -24.1380   18.0165 H   0  0  0  0  0  0
  -29.2587  -25.8304   17.7695 H   0  0  0  0  0  0
  -30.4409  -24.1768   20.0462 H   0  0  0  0  0  0
  -30.1519  -25.3099   21.3644 H   0  0  0  0  0  0
  -30.7409  -25.8858   19.8150 H   0  0  0  0  0  0
  -27.5150  -24.9414   21.6090 H   0  0  0  0  0  0
  -26.6365  -24.4922   20.1968 H   0  0  0  0  0  0
  -29.5193  -21.1647   23.2877 H   0  0  0  0  0  0
  -30.1073  -21.7961   21.7642 H   0  0  0  0  0  0
  -33.1047  -20.1075   23.8025 H   0  0  0  0  0  0
  -34.8235  -19.8289   23.7135 H   0  0  0  0  0  0
  -29.1410  -15.1289   21.5937 H   0  0  0  0  0  0
  1 25  1  0  0  0
  1 30  2  0  0  0
  1 88  1  0  0  0
  2  3  1  0  0  0
  2 25  1  0  0  0
  2 92  1  0  0  0
  2 93  1  0  0  0
  3  4  1  0  0  0
  3 94  1  0  0  0
  3 95  1  0  0  0
  4  5  1  0  0  0
  4 96  1  0  0  0
  4 97  1  0  0  0
  5  6  1  0  0  0
  5 26  1  0  0  0
  5 98  1  0  0  0
  6 25  1  0  0  0
  6 99  1  0  0  0
  6100  1  0  0  0
  7  8  2  0  0  0
  7 26  1  0  0  0
  7 29  1  0  0  0
  8  9  1  0  0  0
  8 22  1  0  0  0
  9 10  1  0  0  0
  9 27  2  0  0  0
 10 11  2  0  0  0
 10 15  1  0  0  0
 11 12  1  0  0  0
 11101  1  0  0  0
 12 13  2  0  0  0
 12102  1  0  0  0
 13 14  1  0  0  0
 13 31  1  0  0  0
 14 15  2  0  0  0
 14103  1  0  0  0
 15104  1  0  0  0
 16 17  2  0  0  0
 16 21  1  0  0  0
 16 31  1  0  0  0
 17 18  1  0  0  0
 17105  1  0  0  0
 18 19  2  0  0  0
 18106  1  0  0  0
 19 20  1  0  0  0
 19 24  1  0  0  0
 20 21  2  0  0  0
 20107  1  0  0  0
 21 23  1  0  0  0
 22 28  1  0  0  0
 22 32  2  0  0  0
 26 27  1  0  0  0
 28108  1  0  0  0
 28109  1  0  0  0
 29110  1  0  0  0
 29111  1  0  0  0
 33 34  1  0  0  0
 33 66  1  0  0  0
 33 70  2  0  0  0
 34 36  1  0  0  0
 34 59  1  0  0  0
 34112  1  0  0  0
 35 44  2  0  0  0
 35 45  1  0  0  0
 35 68  1  0  0  0
 36 56  1  0  0  0
 36113  1  0  0  0
 37 39  1  0  0  0
 37 47  1  0  0  0
 37 66  1  0  0  0
 37114  1  0  0  0
 38 43  2  0  0  0
 38 46  1  0  0  0
 38 47  1  0  0  0
 39 64  1  0  0  0
 39 67  2  0  0  0
 40 52  1  0  0  0
 40 53  2  0  0  0
 40 58  1  0  0  0
 41115  1  0  0  0
 41116  1  0  0  0
 41117  1  0  0  0
 41 48  1  0  0  0
 42 43  1  0  0  0
 42 66  1  0  0  0
 42118  1  0  0  0
 42119  1  0  0  0
 43 44  1  0  0  0
 44120  1  0  0  0
 45 46  2  0  0  0
 45121  1  0  0  0
 46122  1  0  0  0
 47123  1  0  0  0
 47124  1  0  0  0
 48 56  1  0  0  0
 48 65  1  0  0  0
 48125  1  0  0  0
 49 50  1  0  0  0
 49 53  1  0  0  0
 49 64  1  0  0  0
 49126  1  0  0  0
 50 51  1  0  0  0
 50127  1  0  0  0
 50128  1  0  0  0
 51 52  1  0  0  0
 51129  1  0  0  0
 51130  1  0  0  0
 52131  1  0  0  0
 52132  1  0  0  0
 53 54  1  0  0  0
 54 55  2  0  0  0
 54133  1  0  0  0
 55 57  1  0  0  0
 55134  1  0  0  0
 56 69  2  0  0  0
 57 58  2  0  0  0
 57135  1  0  0  0
 58136  1  0  0  0
 59 60  1  0  0  0
 59 61  1  0  0  0
 59 62  1  0  0  0
 60137  1  0  0  0
 60138  1  0  0  0
 60139  1  0  0  0
 61140  1  0  0  0
 61141  1  0  0  0
 61142  1  0  0  0
 62143  1  0  0  0
 62144  1  0  0  0
 62145  1  0  0  0
 63 65  1  0  0  0
 63146  1  0  0  0
 63147  1  0  0  0
 63148  1  0  0  0
 64149  1  0  0  0
 65150  1  0  0  0
 68 86  1  0  0  0
 71 74  2  0  0  0
 71 75  1  0  0  0
 71151  1  0  0  0
 72 74  1  0  0  0
 72 76  2  0  0  0
 72152  1  0  0  0
 73 75  2  0  0  0
 73 76  1  0  0  0
 73153  1  0  0  0
 74 77  1  0  0  0
 75 88  1  0  0  0
 76 91  1  0  0  0
 77 87  1  0  0  0
 77 89  2  0  0  0
 78 83  1  0  0  0
 78 85  1  0  0  0
 78 90  2  0  0  0
 79154  1  0  0  0
 79155  1  0  0  0
 79156  1  0  0  0
 79 85  1  0  0  0
 80 85  1  0  0  0
 80157  1  0  0  0
 80158  1  0  0  0
 80159  1  0  0  0
 81160  1  0  0  0
 81161  1  0  0  0
 81162  1  0  0  0
 81 86  1  0  0  0
 82 86  1  0  0  0
 82163  1  0  0  0
 82164  1  0  0  0
 82165  1  0  0  0
 83 86  1  0  0  0
 83166  1  0  0  0
 83167  1  0  0  0
 84 85  1  0  0  0
 84 91  1  0  0  0
 84168  1  0  0  0
 84169  1  0  0  0
 87170  1  0  0  0
 87171  1  0  0  0
 88172  1  0  0  0
M  ISO  4   1 100  68 101  86 101  88 100
M  END
> <chiral flag>
0

> <version>
0

> <s_m_source_file>
/data/baiqing/PycharmProjects/Reinvent-master-3.2/result/LINK_invent/BTK/process_docking_weight1_custom_product_contain_oxygen_bond_distance_aromatic_linkinvent_7_9_3/rearranged_h_0141.sdf

> <i_m_source_file_index>
28

> <r_mmod_Potential_Energy-OPLS-2005>
-187.654937744141

> <r_mmod_Stretch_Energy-OPLS-2005>
40.6017761230469

> <r_mmod_Bend_Energy-OPLS-2005>
131.176162719727

> <r_mmod_Torsional_Energy-OPLS-2005>
219.387451171875

> <r_mmod_Improper_Torsional_Energy-OPLS-2005>
3.37514138221741

> <r_mmod_Van_der_Waal_Energy-OPLS-2005>
176.884963989258

> <r_mmod_Electrostatic_Energy-OPLS-2005>
-509.603485107422

> <r_mmod_Solvation_Energy-OPLS-2005>
-259.604583740234

> <b_mmod_Minimization_Converged-OPLS-2005>
0

> <r_mmod_RMS_Derivative-OPLS-2005>
1.35344612598419

$$$$
28
                    3D
 Structure written by MMmdl.
172180  0  0  1  0            999 V2000
  -30.6857  -14.4613   20.6433 C   0  0  0  0  0  0
  -30.4331  -12.3257   19.4193 C   0  0  0  0  0  0
  -29.4945  -12.5066   18.2064 C   0  0  0  0  0  0
  -28.0125  -12.3581   18.6146 C   0  0  0  0  0  0
  -27.6569  -13.1979   19.8719 C   0  0  2  0  0  0
  -28.6941  -12.9583   20.9907 C   0  0  0  0  0  0
  -25.2568  -13.8138   20.5655 C   0  0  0  0  0  0
  -24.1821  -13.0420   20.9171 C   0  0  0  0  0  0
  -24.6365  -11.6882   20.8751 C   0  0  0  0  0  0
  -23.9046  -10.4277   21.0423 C   0  0  0  0  0  0
  -24.3606   -9.4186   21.9184 C   0  0  0  0  0  0
  -23.6268   -8.2232   22.0764 C   0  0  0  0  0  0
  -22.4249   -8.0280   21.3556 C   0  0  0  0  0  0
  -21.9894   -9.0259   20.4659 C   0  0  0  0  0  0
  -22.7228  -10.2133   20.3069 C   0  0  0  0  0  0
  -21.6827   -6.0739   22.5296 C   0  0  0  0  0  0
  -21.3984   -6.5640   23.8231 C   0  0  0  0  0  0
  -21.3658   -5.6799   24.9192 C   0  0  0  0  0  0
  -21.6044   -4.3066   24.7237 C   0  0  0  0  0  0
  -21.8807   -3.8154   23.4358 C   0  0  0  0  0  0
  -21.9176   -4.6969   22.3413 C   0  0  0  0  0  0
  -22.7854  -13.5231   21.1854 C   0  0  0  0  0  0
  -22.1645   -4.2139   21.0998 F   0  0  0  0  0  0
  -21.5644   -3.4567   25.7759 F   0  0  0  0  0  0
  -30.0230  -13.2930   20.4486 N   0  0  0  0  0  0
  -26.2982  -12.9284   20.3344 N   0  0  0  0  0  0
  -25.9279  -11.6457   20.5773 N   0  0  0  0  0  0
  -22.0507  -12.8234   22.0438 N   0  0  0  0  0  0
  -25.4320  -15.1856   20.4033 N   0  0  0  0  0  0
  -31.8123  -14.6829   20.1782 O   0  0  0  0  0  0
  -21.6610   -6.8878   21.4256 O   0  0  0  0  0  0
  -22.3540  -14.5543   20.6703 O   0  0  0  0  0  0
  -24.6082  -31.8691   23.2087 C   0  0  0  0  0  0
  -25.8958  -32.4858   23.8374 C   0  0  1  0  0  0
  -27.2259  -27.4452   20.1171 C   0  0  0  0  0  0
  -25.5829  -33.8652   24.2337 N   0  0  0  0  0  0
  -23.3972  -30.4903   21.5511 C   0  0  2  0  0  0
  -24.8464  -28.9538   20.1188 C   0  0  0  0  0  0
  -22.7376  -29.4670   22.5027 C   0  0  0  0  0  0
  -18.0262  -28.1373   22.8517 C   0  0  0  0  0  0
  -24.1511  -36.7280   23.2645 C   0  0  0  0  0  0
  -25.9208  -30.8429   21.3544 C   0  0  0  0  0  0
  -26.0043  -29.4742   20.7122 C   0  0  0  0  0  0
  -27.2016  -28.7276   20.7101 C   0  0  0  0  0  0
  -26.0653  -26.9464   19.4937 C   0  0  0  0  0  0
  -24.8697  -27.6899   19.5036 C   0  0  0  0  0  0
  -23.6055  -29.8134   20.1693 C   0  0  0  0  0  0
  -25.4155  -36.3156   24.0364 C   0  0  1  0  0  0
  -20.5836  -28.3649   23.1347 C   0  0  2  0  0  0
  -20.6761  -26.9392   22.5432 C   0  0  0  0  0  0
  -19.5732  -26.6398   21.5238 C   0  0  0  0  0  0
  -18.1912  -26.7938   22.1647 C   0  0  0  0  0  0
  -19.1502  -28.8838   23.2929 C   0  0  0  0  0  0
  -18.9432  -30.1469   23.8905 C   0  0  0  0  0  0
  -17.6429  -30.6587   24.0584 C   0  0  0  0  0  0
  -25.9057  -34.9503   23.5164 C   0  0  0  0  0  0
  -16.5324  -29.9065   23.6364 C   0  0  0  0  0  0
  -16.7255  -28.6491   23.0367 C   0  0  0  0  0  0
  -26.4420  -31.6605   25.0662 C   0  0  0  0  0  0
  -25.3629  -31.3582   26.1343 C   0  0  0  0  0  0
  -27.0351  -30.3136   24.5911 C   0  0  0  0  0  0
  -27.5960  -32.4326   25.7451 C   0  0  0  0  0  0
  -27.5639  -37.1825   24.8485 C   0  0  0  0  0  0
  -21.4100  -29.3025   22.3745 N   0  0  0  0  0  0
  -26.4353  -37.3836   23.9417 N   0  0  0  0  0  0
  -24.6615  -31.0808   22.0983 N   0  0  0  0  0  0
  -23.4191  -28.8256   23.3084 O   0  0  0  0  0  0
  -28.3450  -26.6431   20.1568 O   0  0  0  0  0  0
  -26.5624  -34.8930   22.4726 O   0  0  0  0  0  0
  -23.5281  -32.1407   23.7505 O   0  0  0  0  0  0
  -29.7423  -17.8406   21.6689 C   0  0  0  0  0  0
  -30.3662  -18.8979   22.4182 C   0  0  0  0  0  0
  -30.3693  -16.6136   21.7553 C   0  0  0  0  0  0
  -31.4477  -18.4232   23.1312 C   0  0  0  0  0  0
  -30.2549  -23.7423   21.1536 C   0  0  0  0  0  0
  -29.3906  -23.0780   23.5010 C   0  0  0  0  0  0
  -31.7860  -23.5903   23.1299 C   0  0  0  0  0  0
  -27.3556  -25.7975   22.3274 C   0  0  0  0  0  0
  -29.7370  -26.5662   22.0601 C   0  0  0  0  0  0
  -33.6892  -19.0465   23.8483 C   0  0  0  0  0  0
  -29.8370  -20.3270   22.4627 C   0  0  0  0  0  0
  -28.8774  -24.3861   20.8560 C   0  0  0  0  0  0
  -30.9003  -21.4381   22.1870 C   0  0  0  0  0  0
  -30.5345  -22.9468   22.4720 C   0  0  0  0  0  0
  -28.5691  -25.8455   21.3535 C   0  0  0  0  0  0
  -29.9505  -15.4304   21.2286 N   0  0  0  0  0  0
  -32.2494  -19.0943   24.0537 N   0  0  0  0  0  0
  -31.1445  -23.8394   20.3018 O   0  0  0  0  0  0
  -31.7863  -16.7476   22.7680 S   0  0  0  0  0  0
  -31.4728  -12.4627   19.1113 H   0  0  0  0  0  0
  -30.3671  -11.3093   19.8147 H   0  0  0  0  0  0
  -29.7380  -11.7766   17.4325 H   0  0  0  0  0  0
  -29.6585  -13.4907   17.7642 H   0  0  0  0  0  0
  -27.8319  -11.3009   18.8199 H   0  0  0  0  0  0
  -27.3558  -12.6207   17.7812 H   0  0  0  0  0  0
  -27.7048  -14.2485   19.5815 H   0  0  0  0  0  0
  -28.6797  -11.9098   21.2941 H   0  0  0  0  0  0
  -28.4402  -13.5222   21.8894 H   0  0  0  0  0  0
  -25.2762   -9.5657   22.4741 H   0  0  0  0  0  0
  -23.9974   -7.4618   22.7484 H   0  0  0  0  0  0
  -21.0819   -8.8774   19.8969 H   0  0  0  0  0  0
  -22.3685  -10.9665   19.6176 H   0  0  0  0  0  0
  -21.1959   -7.6150   23.9729 H   0  0  0  0  0  0
  -21.1496   -6.0541   25.9095 H   0  0  0  0  0  0
  -22.0586   -2.7617   23.2880 H   0  0  0  0  0  0
  -22.4074  -11.9834   22.4766 H   0  0  0  0  0  0
  -21.1145  -13.1296   22.2690 H   0  0  0  0  0  0
  -24.6731  -15.8484   20.5133 H   0  0  0  0  0  0
  -26.2809  -15.6210   20.0652 H   0  0  0  0  0  0
  -26.7008  -32.5632   23.1128 H   0  0  0  0  0  0
  -24.9898  -33.9832   25.0441 H   0  0  0  0  0  0
  -22.6886  -31.3086   21.4097 H   0  0  0  0  0  0
  -23.3811  -35.9578   23.3350 H   0  0  0  0  0  0
  -24.3548  -36.8849   22.2047 H   0  0  0  0  0  0
  -23.7176  -37.6471   23.6598 H   0  0  0  0  0  0
  -26.0043  -31.5984   20.5717 H   0  0  0  0  0  0
  -26.8174  -30.9180   21.9571 H   0  0  0  0  0  0
  -28.0884  -29.1264   21.1782 H   0  0  0  0  0  0
  -26.0803  -25.9701   19.0309 H   0  0  0  0  0  0
  -23.9791  -27.2813   19.0482 H   0  0  0  0  0  0
  -23.7066  -30.5789   19.4003 H   0  0  0  0  0  0
  -22.7340  -29.2217   19.8798 H   0  0  0  0  0  0
  -25.1336  -36.2056   25.0866 H   0  0  0  0  0  0
  -20.9930  -28.3210   24.1472 H   0  0  0  0  0  0
  -20.5681  -26.2250   23.3603 H   0  0  0  0  0  0
  -21.6631  -26.7456   22.1205 H   0  0  0  0  0  0
  -19.6868  -25.6316   21.1243 H   0  0  0  0  0  0
  -19.6676  -27.3235   20.6788 H   0  0  0  0  0  0
  -17.4197  -26.6725   21.4028 H   0  0  0  0  0  0
  -18.0285  -26.0064   22.9018 H   0  0  0  0  0  0
  -19.7896  -30.7306   24.2266 H   0  0  0  0  0  0
  -17.4963  -31.6265   24.5178 H   0  0  0  0  0  0
  -15.5315  -30.2956   23.7688 H   0  0  0  0  0  0
  -15.8666  -28.0814   22.7057 H   0  0  0  0  0  0
  -24.5585  -30.7285   25.7492 H   0  0  0  0  0  0
  -24.9056  -32.2744   26.5073 H   0  0  0  0  0  0
  -25.7854  -30.8342   26.9927 H   0  0  0  0  0  0
  -26.2954  -29.6881   24.0943 H   0  0  0  0  0  0
  -27.4344  -29.7400   25.4277 H   0  0  0  0  0  0
  -27.8610  -30.4648   23.8949 H   0  0  0  0  0  0
  -28.0847  -31.8242   26.5075 H   0  0  0  0  0  0
  -27.2495  -33.3423   26.2417 H   0  0  0  0  0  0
  -28.3663  -32.7255   25.0285 H   0  0  0  0  0  0
  -28.2771  -38.0037   24.7618 H   0  0  0  0  0  0
  -28.1066  -36.2638   24.6289 H   0  0  0  0  0  0
  -27.2369  -37.1426   25.8883 H   0  0  0  0  0  0
  -20.9274  -29.8722   21.6923 H   0  0  0  0  0  0
  -26.0278  -38.2940   24.1357 H   0  0  0  0  0  0
  -28.8425  -18.0173   21.0969 H   0  0  0  0  0  0
  -29.2823  -24.1017   23.8476 H   0  0  0  0  0  0
  -29.5940  -22.4992   24.4011 H   0  0  0  0  0  0
  -28.4299  -22.7422   23.1103 H   0  0  0  0  0  0
  -31.6949  -24.6696   23.2417 H   0  0  0  0  0  0
  -32.6929  -23.4011   22.5527 H   0  0  0  0  0  0
  -31.9526  -23.1903   24.1326 H   0  0  0  0  0  0
  -27.5424  -25.1811   23.2037 H   0  0  0  0  0  0
  -26.4632  -25.3994   21.8461 H   0  0  0  0  0  0
  -27.0984  -26.7848   22.7109 H   0  0  0  0  0  0
  -29.4773  -27.5977   22.3027 H   0  0  0  0  0  0
  -30.6278  -26.5979   21.4324 H   0  0  0  0  0  0
  -29.9989  -26.0881   23.0020 H   0  0  0  0  0  0
  -33.9339  -19.2574   22.8040 H   0  0  0  0  0  0
  -34.0968  -18.0684   24.1049 H   0  0  0  0  0  0
  -34.1841  -19.7936   24.4702 H   0  0  0  0  0  0
  -29.3939  -20.4697   23.4484 H   0  0  0  0  0  0
  -29.0097  -20.4481   21.7615 H   0  0  0  0  0  0
  -28.0957  -23.7016   21.1810 H   0  0  0  0  0  0
  -28.7822  -24.3874   19.7706 H   0  0  0  0  0  0
  -31.2720  -21.3178   21.1669 H   0  0  0  0  0  0
  -31.7692  -21.2110   22.8017 H   0  0  0  0  0  0
  -28.9773  -15.1988   21.3601 H   0  0  0  0  0  0
  -31.9678  -19.0001   25.0293 H   0  0  0  0  0  0
  1 25  1  0  0  0
  1 30  2  0  0  0
  1 86  1  0  0  0
  2  3  1  0  0  0
  2 25  1  0  0  0
  2 90  1  0  0  0
  2 91  1  0  0  0
  3  4  1  0  0  0
  3 92  1  0  0  0
  3 93  1  0  0  0
  4  5  1  0  0  0
  4 94  1  0  0  0
  4 95  1  0  0  0
  5  6  1  0  0  0
  5 26  1  0  0  0
  5 96  1  0  0  0
  6 25  1  0  0  0
  6 97  1  0  0  0
  6 98  1  0  0  0
  7  8  2  0  0  0
  7 26  1  0  0  0
  7 29  1  0  0  0
  8  9  1  0  0  0
  8 22  1  0  0  0
  9 10  1  0  0  0
  9 27  2  0  0  0
 10 11  2  0  0  0
 10 15  1  0  0  0
 11 12  1  0  0  0
 11 99  1  0  0  0
 12 13  2  0  0  0
 12100  1  0  0  0
 13 14  1  0  0  0
 13 31  1  0  0  0
 14 15  2  0  0  0
 14101  1  0  0  0
 15102  1  0  0  0
 16 17  2  0  0  0
 16 21  1  0  0  0
 16 31  1  0  0  0
 17 18  1  0  0  0
 17103  1  0  0  0
 18 19  2  0  0  0
 18104  1  0  0  0
 19 20  1  0  0  0
 19 24  1  0  0  0
 20 21  2  0  0  0
 20105  1  0  0  0
 21 23  1  0  0  0
 22 28  1  0  0  0
 22 32  2  0  0  0
 26 27  1  0  0  0
 28106  1  0  0  0
 28107  1  0  0  0
 29108  1  0  0  0
 29109  1  0  0  0
 33 34  1  0  0  0
 33 66  1  0  0  0
 33 70  2  0  0  0
 34 36  1  0  0  0
 34 59  1  0  0  0
 34110  1  0  0  0
 35 44  2  0  0  0
 35 45  1  0  0  0
 35 68  1  0  0  0
 36 56  1  0  0  0
 36111  1  0  0  0
 37 39  1  0  0  0
 37 47  1  0  0  0
 37 66  1  0  0  0
 37112  1  0  0  0
 38 43  2  0  0  0
 38 46  1  0  0  0
 38 47  1  0  0  0
 39 64  1  0  0  0
 39 67  2  0  0  0
 40 52  1  0  0  0
 40 53  2  0  0  0
 40 58  1  0  0  0
 41113  1  0  0  0
 41114  1  0  0  0
 41115  1  0  0  0
 41 48  1  0  0  0
 42 43  1  0  0  0
 42 66  1  0  0  0
 42116  1  0  0  0
 42117  1  0  0  0
 43 44  1  0  0  0
 44118  1  0  0  0
 45 46  2  0  0  0
 45119  1  0  0  0
 46120  1  0  0  0
 47121  1  0  0  0
 47122  1  0  0  0
 48 56  1  0  0  0
 48 65  1  0  0  0
 48123  1  0  0  0
 49 50  1  0  0  0
 49 53  1  0  0  0
 49 64  1  0  0  0
 49124  1  0  0  0
 50 51  1  0  0  0
 50125  1  0  0  0
 50126  1  0  0  0
 51 52  1  0  0  0
 51127  1  0  0  0
 51128  1  0  0  0
 52129  1  0  0  0
 52130  1  0  0  0
 53 54  1  0  0  0
 54 55  2  0  0  0
 54131  1  0  0  0
 55 57  1  0  0  0
 55132  1  0  0  0
 56 69  2  0  0  0
 57 58  2  0  0  0
 57133  1  0  0  0
 58134  1  0  0  0
 59 60  1  0  0  0
 59 61  1  0  0  0
 59 62  1  0  0  0
 60135  1  0  0  0
 60136  1  0  0  0
 60137  1  0  0  0
 61138  1  0  0  0
 61139  1  0  0  0
 61140  1  0  0  0
 62141  1  0  0  0
 62142  1  0  0  0
 62143  1  0  0  0
 63 65  1  0  0  0
 63144  1  0  0  0
 63145  1  0  0  0
 63146  1  0  0  0
 64147  1  0  0  0
 65148  1  0  0  0
 68 85  1  0  0  0
 71 72  1  0  0  0
 71 73  2  0  0  0
 71149  1  0  0  0
 72 74  2  0  0  0
 72 81  1  0  0  0
 73 86  1  0  0  0
 73 89  1  0  0  0
 74 87  1  0  0  0
 74 89  1  0  0  0
 75 82  1  0  0  0
 75 84  1  0  0  0
 75 88  2  0  0  0
 76150  1  0  0  0
 76151  1  0  0  0
 76152  1  0  0  0
 76 84  1  0  0  0
 77 84  1  0  0  0
 77153  1  0  0  0
 77154  1  0  0  0
 77155  1  0  0  0
 78156  1  0  0  0
 78157  1  0  0  0
 78158  1  0  0  0
 78 85  1  0  0  0
 79 85  1  0  0  0
 79159  1  0  0  0
 79160  1  0  0  0
 79161  1  0  0  0
 80 87  1  0  0  0
 80162  1  0  0  0
 80163  1  0  0  0
 80164  1  0  0  0
 81 83  1  0  0  0
 81165  1  0  0  0
 81166  1  0  0  0
 82 85  1  0  0  0
 82167  1  0  0  0
 82168  1  0  0  0
 83 84  1  0  0  0
 83169  1  0  0  0
 83170  1  0  0  0
 86171  1  0  0  0
 87172  1  0  0  0
M  ISO  4   1 100  68 101  85 101  86 100
M  END
> <chiral flag>
0

> <version>
0

> <s_m_source_file>
/data/baiqing/PycharmProjects/Reinvent-master-3.2/result/LINK_invent/BTK/process_docking_weight1_custom_product_contain_oxygen_bond_distance_aromatic_linkinvent_7_9_3/rearranged_h_0141.sdf

> <i_m_source_file_index>
29

> <r_mmod_Potential_Energy-OPLS-2005>
62.1915283203125

> <r_mmod_Stretch_Energy-OPLS-2005>
46.5029411315918

> <r_mmod_Bend_Energy-OPLS-2005>
129.603393554688

> <r_mmod_Torsional_Energy-OPLS-2005>
286.267425537109

> <r_mmod_Improper_Torsional_Energy-OPLS-2005>
7.75770902633667

> <r_mmod_Van_der_Waal_Energy-OPLS-2005>
145.843078613281

> <r_mmod_Electrostatic_Energy-OPLS-2005>
-337.042205810547

> <r_mmod_Solvation_Energy-OPLS-2005>
-231.081680297852

> <b_mmod_Minimization_Converged-OPLS-2005>
0

> <r_mmod_RMS_Derivative-OPLS-2005>
5.0996994972229

$$$$
29
                    3D
 Structure written by MMmdl.
178186  0  0  1  0            999 V2000
  -30.7306  -14.5788   20.4886 C   0  0  0  0  0  0
  -30.3958  -12.3575   19.4393 C   0  0  0  0  0  0
  -29.4816  -12.4887   18.2094 C   0  0  0  0  0  0
  -28.0067  -12.3483   18.6255 C   0  0  0  0  0  0
  -27.6393  -13.2371   19.8460 C   0  0  2  0  0  0
  -28.6906  -13.1365   20.9728 C   0  0  0  0  0  0
  -25.2489  -13.8235   20.5703 C   0  0  0  0  0  0
  -24.1785  -13.0438   20.9213 C   0  0  0  0  0  0
  -24.6395  -11.6927   20.8741 C   0  0  0  0  0  0
  -23.9087  -10.4289   21.0398 C   0  0  0  0  0  0
  -24.3637   -9.4196   21.9168 C   0  0  0  0  0  0
  -23.6304   -8.2235   22.0734 C   0  0  0  0  0  0
  -22.4273   -8.0286   21.3543 C   0  0  0  0  0  0
  -21.9943   -9.0253   20.4652 C   0  0  0  0  0  0
  -22.7261  -10.2120   20.3054 C   0  0  0  0  0  0
  -21.6868   -6.0740   22.5280 C   0  0  0  0  0  0
  -21.4013   -6.5641   23.8203 C   0  0  0  0  0  0
  -21.3655   -5.6787   24.9175 C   0  0  0  0  0  0
  -21.6052   -4.3051   24.7218 C   0  0  0  0  0  0
  -21.8819   -3.8143   23.4338 C   0  0  0  0  0  0
  -21.9182   -4.6974   22.3386 C   0  0  0  0  0  0
  -22.7812  -13.5199   21.1859 C   0  0  0  0  0  0
  -22.1660   -4.2167   21.0972 F   0  0  0  0  0  0
  -21.5621   -3.4525   25.7721 F   0  0  0  0  0  0
  -30.0040  -13.4247   20.3809 N   0  0  0  0  0  0
  -26.2926  -12.9457   20.3297 N   0  0  0  0  0  0
  -25.9329  -11.6579   20.5775 N   0  0  0  0  0  0
  -22.0468  -12.8199   22.0433 N   0  0  0  0  0  0
  -25.4163  -15.1965   20.4086 N   0  0  0  0  0  0
  -31.9015  -14.6116   20.1040 O   0  0  0  0  0  0
  -21.6639   -6.8879   21.4231 O   0  0  0  0  0  0
  -22.3464  -14.5483   20.6683 O   0  0  0  0  0  0
  -24.6273  -31.8658   23.2019 C   0  0  0  0  0  0
  -25.9113  -32.4802   23.8372 C   0  0  1  0  0  0
  -27.1904  -27.3087   20.1252 C   0  0  0  0  0  0
  -25.5960  -33.8612   24.2308 N   0  0  0  0  0  0
  -23.4140  -30.4837   21.5498 C   0  0  2  0  0  0
  -24.8544  -28.9436   20.1089 C   0  0  0  0  0  0
  -22.7435  -29.4577   22.4965 C   0  0  0  0  0  0
  -18.0277  -28.1326   22.8495 C   0  0  0  0  0  0
  -24.1492  -36.7272   23.2633 C   0  0  0  0  0  0
  -25.9583  -30.7872   21.3763 C   0  0  0  0  0  0
  -26.0208  -29.4103   20.7286 C   0  0  0  0  0  0
  -27.1930  -28.6009   20.7359 C   0  0  0  0  0  0
  -26.0227  -26.9186   19.4446 C   0  0  0  0  0  0
  -24.8569  -27.7021   19.4577 C   0  0  0  0  0  0
  -23.6229  -29.8229   20.1636 C   0  0  0  0  0  0
  -25.4113  -36.3069   24.0333 C   0  0  1  0  0  0
  -20.5857  -28.3601   23.1324 C   0  0  2  0  0  0
  -20.6754  -26.9326   22.5425 C   0  0  0  0  0  0
  -19.5749  -26.6337   21.5199 C   0  0  0  0  0  0
  -18.1921  -26.7884   22.1603 C   0  0  0  0  0  0
  -19.1528  -28.8777   23.2899 C   0  0  0  0  0  0
  -18.9461  -30.1391   23.8894 C   0  0  0  0  0  0
  -17.6476  -30.6547   24.0527 C   0  0  0  0  0  0
  -25.9056  -34.9449   23.5106 C   0  0  0  0  0  0
  -16.5351  -29.9043   23.6333 C   0  0  0  0  0  0
  -16.7272  -28.6433   23.0392 C   0  0  0  0  0  0
  -26.4502  -31.6612   25.0741 C   0  0  0  0  0  0
  -25.3780  -31.3759   26.1505 C   0  0  0  0  0  0
  -27.0278  -30.3013   24.6172 C   0  0  0  0  0  0
  -27.6043  -32.4350   25.7537 C   0  0  0  0  0  0
  -27.5570  -37.1794   24.8469 C   0  0  0  0  0  0
  -21.4145  -29.2986   22.3733 N   0  0  0  0  0  0
  -26.4285  -37.3765   23.9415 N   0  0  0  0  0  0
  -24.6844  -31.0646   22.0970 N   0  0  0  0  0  0
  -23.4167  -28.8091   23.3011 O   0  0  0  0  0  0
  -28.2908  -26.4534   20.1150 O   0  0  0  0  0  0
  -26.5589  -34.8896   22.4654 O   0  0  0  0  0  0
  -23.5439  -32.1474   23.7322 O   0  0  0  0  0  0
  -32.6846  -17.9129   22.5174 C   0  0  0  0  0  0
  -31.9484  -16.8175   22.0409 C   0  0  0  0  0  0
  -31.0651  -19.3998   21.5428 C   0  0  0  0  0  0
  -32.2643  -19.2314   22.2671 C   0  0  0  0  0  0
  -30.7717  -16.9693   21.2566 C   0  0  0  0  0  0
  -30.3213  -18.3171   21.0011 C   0  0  0  0  0  0
  -27.1037  -20.3786   21.1119 C   0  0  0  0  0  0
  -34.5784  -20.2076   22.7605 C   0  0  0  0  0  0
  -32.6391  -20.6114   24.3086 C   0  0  0  0  0  0
  -32.7730  -21.7419   22.0691 C   0  0  0  0  0  0
  -28.1103  -23.9317   18.4821 C   0  0  0  0  0  0
  -26.2649  -23.5052   20.1968 C   0  0  0  0  0  0
  -28.5573  -22.4614   20.5136 C   0  0  0  0  0  0
  -29.0928  -19.9138   19.5695 C   0  0  0  0  0  0
  -28.1818  -25.1175   20.7564 C   0  0  0  0  0  0
  -28.0551  -21.0045   20.0739 C   0  0  1  0  0  0
  -33.0514  -20.4309   22.8377 C   0  0  0  0  0  0
  -27.7821  -23.7666   19.9833 C   0  0  0  0  0  0
  -30.1035  -15.7494   20.8145 N   0  0  0  0  0  0
  -29.1789  -18.6228   20.2646 O   0  0  0  0  0  0
  -31.4398  -12.4168   19.1294 H   0  0  0  0  0  0
  -30.2759  -11.3771   19.9045 H   0  0  0  0  0  0
  -29.7359  -11.7348   17.4635 H   0  0  0  0  0  0
  -29.6428  -13.4559   17.7320 H   0  0  0  0  0  0
  -27.8329  -11.2988   18.8677 H   0  0  0  0  0  0
  -27.3550  -12.5717   17.7810 H   0  0  0  0  0  0
  -27.6440  -14.2684   19.4867 H   0  0  0  0  0  0
  -28.6824  -12.1392   21.4168 H   0  0  0  0  0  0
  -28.4517  -13.8328   21.7788 H   0  0  0  0  0  0
  -25.2778   -9.5668   22.4747 H   0  0  0  0  0  0
  -24.0015   -7.4626   22.7455 H   0  0  0  0  0  0
  -21.0866   -8.8770   19.8968 H   0  0  0  0  0  0
  -22.3713  -10.9655   19.6174 H   0  0  0  0  0  0
  -21.2017   -7.6151   23.9726 H   0  0  0  0  0  0
  -21.1490   -6.0514   25.9081 H   0  0  0  0  0  0
  -22.0606   -2.7616   23.2822 H   0  0  0  0  0  0
  -22.4092  -11.9885   22.4864 H   0  0  0  0  0  0
  -21.1086  -13.1218   22.2610 H   0  0  0  0  0  0
  -24.6495  -15.8515   20.5232 H   0  0  0  0  0  0
  -26.2692  -15.6414   20.0949 H   0  0  0  0  0  0
  -26.7152  -32.5424   23.1081 H   0  0  0  0  0  0
  -25.0208  -33.9807   25.0514 H   0  0  0  0  0  0
  -22.7014  -31.2993   21.4072 H   0  0  0  0  0  0
  -23.3757  -35.9601   23.3320 H   0  0  0  0  0  0
  -24.3572  -36.8863   22.2035 H   0  0  0  0  0  0
  -23.7235  -37.6485   23.6638 H   0  0  0  0  0  0
  -26.1027  -31.5447   20.6025 H   0  0  0  0  0  0
  -26.8411  -30.8341   22.0061 H   0  0  0  0  0  0
  -28.0858  -28.9573   21.2315 H   0  0  0  0  0  0
  -26.0137  -26.0131   18.8642 H   0  0  0  0  0  0
  -23.9672  -27.3555   18.9467 H   0  0  0  0  0  0
  -23.7256  -30.6079   19.4154 H   0  0  0  0  0  0
  -22.7463  -29.2445   19.8653 H   0  0  0  0  0  0
  -25.1271  -36.1937   25.0824 H   0  0  0  0  0  0
  -20.9946  -28.3170   24.1446 H   0  0  0  0  0  0
  -20.5636  -26.2178   23.3585 H   0  0  0  0  0  0
  -21.6621  -26.7341   22.1211 H   0  0  0  0  0  0
  -19.6913  -25.6249   21.1221 H   0  0  0  0  0  0
  -19.6750  -27.3156   20.6729 H   0  0  0  0  0  0
  -17.4193  -26.6654   21.3998 H   0  0  0  0  0  0
  -18.0293  -26.0006   22.8971 H   0  0  0  0  0  0
  -19.7947  -30.7185   24.2262 H   0  0  0  0  0  0
  -17.5041  -31.6245   24.5086 H   0  0  0  0  0  0
  -15.5350  -30.2957   23.7643 H   0  0  0  0  0  0
  -15.8651  -28.0721   22.7192 H   0  0  0  0  0  0
  -24.6086  -30.6894   25.7961 H   0  0  0  0  0  0
  -24.8810  -32.2884   26.4814 H   0  0  0  0  0  0
  -25.8226  -30.9173   27.0354 H   0  0  0  0  0  0
  -26.2804  -29.6857   24.1162 H   0  0  0  0  0  0
  -27.3889  -29.7175   25.4654 H   0  0  0  0  0  0
  -27.8728  -30.4221   23.9386 H   0  0  0  0  0  0
  -27.2656  -33.3706   26.2002 H   0  0  0  0  0  0
  -28.3953  -32.6854   25.0452 H   0  0  0  0  0  0
  -28.0591  -31.8554   26.5584 H   0  0  0  0  0  0
  -28.2582  -38.0096   24.7485 H   0  0  0  0  0  0
  -28.1064  -36.2620   24.6314 H   0  0  0  0  0  0
  -27.2279  -37.1421   25.8871 H   0  0  0  0  0  0
  -20.9266  -29.8745   21.7010 H   0  0  0  0  0  0
  -26.0172  -38.2840   24.1454 H   0  0  0  0  0  0
  -33.5713  -17.7250   23.1008 H   0  0  0  0  0  0
  -32.3218  -15.8355   22.2947 H   0  0  0  0  0  0
  -30.6871  -20.3984   21.4134 H   0  0  0  0  0  0
  -26.2315  -20.9989   21.3039 H   0  0  0  0  0  0
  -27.6059  -20.2014   22.0645 H   0  0  0  0  0  0
  -26.7203  -19.4245   20.7524 H   0  0  0  0  0  0
  -34.9334  -19.3936   23.3913 H   0  0  0  0  0  0
  -35.1198  -21.1015   23.0749 H   0  0  0  0  0  0
  -34.8879  -19.9975   21.7367 H   0  0  0  0  0  0
  -32.8767  -19.7222   24.8970 H   0  0  0  0  0  0
  -31.5655  -20.7791   24.4023 H   0  0  0  0  0  0
  -33.1467  -21.4600   24.7706 H   0  0  0  0  0  0
  -33.0235  -21.6442   21.0107 H   0  0  0  0  0  0
  -33.3735  -22.5645   22.4581 H   0  0  0  0  0  0
  -31.7353  -22.0603   22.1522 H   0  0  0  0  0  0
  -27.7582  -23.0894   17.8878 H   0  0  0  0  0  0
  -29.1870  -24.0214   18.3205 H   0  0  0  0  0  0
  -27.6549  -24.8203   18.0498 H   0  0  0  0  0  0
  -25.8983  -22.6642   19.6093 H   0  0  0  0  0  0
  -25.6324  -24.3413   19.9366 H   0  0  0  0  0  0
  -26.0362  -23.2996   21.2450 H   0  0  0  0  0  0
  -29.6123  -22.5589   20.2585 H   0  0  0  0  0  0
  -28.5442  -22.4953   21.6052 H   0  0  0  0  0  0
  -30.0658  -20.3482   19.3326 H   0  0  0  0  0  0
  -28.7382  -19.5963   18.5868 H   0  0  0  0  0  0
  -27.5676  -25.2090   21.6562 H   0  0  0  0  0  0
  -29.1806  -24.9436   21.1581 H   0  0  0  0  0  0
  -27.4495  -21.1673   19.1828 H   0  0  0  0  0  0
  -29.0965  -15.7657   20.7887 H   0  0  0  0  0  0
  1 25  1  0  0  0
  1 30  2  0  0  0
  1 89  1  0  0  0
  2  3  1  0  0  0
  2 25  1  0  0  0
  2 91  1  0  0  0
  2 92  1  0  0  0
  3  4  1  0  0  0
  3 93  1  0  0  0
  3 94  1  0  0  0
  4  5  1  0  0  0
  4 95  1  0  0  0
  4 96  1  0  0  0
  5  6  1  0  0  0
  5 26  1  0  0  0
  5 97  1  0  0  0
  6 25  1  0  0  0
  6 98  1  0  0  0
  6 99  1  0  0  0
  7  8  2  0  0  0
  7 26  1  0  0  0
  7 29  1  0  0  0
  8  9  1  0  0  0
  8 22  1  0  0  0
  9 10  1  0  0  0
  9 27  2  0  0  0
 10 11  2  0  0  0
 10 15  1  0  0  0
 11 12  1  0  0  0
 11100  1  0  0  0
 12 13  2  0  0  0
 12101  1  0  0  0
 13 14  1  0  0  0
 13 31  1  0  0  0
 14 15  2  0  0  0
 14102  1  0  0  0
 15103  1  0  0  0
 16 17  2  0  0  0
 16 21  1  0  0  0
 16 31  1  0  0  0
 17 18  1  0  0  0
 17104  1  0  0  0
 18 19  2  0  0  0
 18105  1  0  0  0
 19 20  1  0  0  0
 19 24  1  0  0  0
 20 21  2  0  0  0
 20106  1  0  0  0
 21 23  1  0  0  0
 22 28  1  0  0  0
 22 32  2  0  0  0
 26 27  1  0  0  0
 28107  1  0  0  0
 28108  1  0  0  0
 29109  1  0  0  0
 29110  1  0  0  0
 33 34  1  0  0  0
 33 66  1  0  0  0
 33 70  2  0  0  0
 34 36  1  0  0  0
 34 59  1  0  0  0
 34111  1  0  0  0
 35 44  2  0  0  0
 35 45  1  0  0  0
 35 68  1  0  0  0
 36 56  1  0  0  0
 36112  1  0  0  0
 37 39  1  0  0  0
 37 47  1  0  0  0
 37 66  1  0  0  0
 37113  1  0  0  0
 38 43  2  0  0  0
 38 46  1  0  0  0
 38 47  1  0  0  0
 39 64  1  0  0  0
 39 67  2  0  0  0
 40 52  1  0  0  0
 40 53  2  0  0  0
 40 58  1  0  0  0
 41114  1  0  0  0
 41115  1  0  0  0
 41116  1  0  0  0
 41 48  1  0  0  0
 42 43  1  0  0  0
 42 66  1  0  0  0
 42117  1  0  0  0
 42118  1  0  0  0
 43 44  1  0  0  0
 44119  1  0  0  0
 45 46  2  0  0  0
 45120  1  0  0  0
 46121  1  0  0  0
 47122  1  0  0  0
 47123  1  0  0  0
 48 56  1  0  0  0
 48 65  1  0  0  0
 48124  1  0  0  0
 49 50  1  0  0  0
 49 53  1  0  0  0
 49 64  1  0  0  0
 49125  1  0  0  0
 50 51  1  0  0  0
 50126  1  0  0  0
 50127  1  0  0  0
 51 52  1  0  0  0
 51128  1  0  0  0
 51129  1  0  0  0
 52130  1  0  0  0
 52131  1  0  0  0
 53 54  1  0  0  0
 54 55  2  0  0  0
 54132  1  0  0  0
 55 57  1  0  0  0
 55133  1  0  0  0
 56 69  2  0  0  0
 57 58  2  0  0  0
 57134  1  0  0  0
 58135  1  0  0  0
 59 60  1  0  0  0
 59 61  1  0  0  0
 59 62  1  0  0  0
 60136  1  0  0  0
 60137  1  0  0  0
 60138  1  0  0  0
 61139  1  0  0  0
 61140  1  0  0  0
 61141  1  0  0  0
 62142  1  0  0  0
 62143  1  0  0  0
 62144  1  0  0  0
 63 65  1  0  0  0
 63145  1  0  0  0
 63146  1  0  0  0
 63147  1  0  0  0
 64148  1  0  0  0
 65149  1  0  0  0
 68 85  1  0  0  0
 71 72  2  0  0  0
 71 74  1  0  0  0
 71150  1  0  0  0
 72 75  1  0  0  0
 72151  1  0  0  0
 73 74  2  0  0  0
 73 76  1  0  0  0
 73152  1  0  0  0
 74 87  1  0  0  0
 75 76  2  0  0  0
 75 89  1  0  0  0
 76 90  1  0  0  0
 77153  1  0  0  0
 77154  1  0  0  0
 77155  1  0  0  0
 77 86  1  0  0  0
 78156  1  0  0  0
 78157  1  0  0  0
 78158  1  0  0  0
 78 87  1  0  0  0
 79 87  1  0  0  0
 79159  1  0  0  0
 79160  1  0  0  0
 79161  1  0  0  0
 80 87  1  0  0  0
 80162  1  0  0  0
 80163  1  0  0  0
 80164  1  0  0  0
 81165  1  0  0  0
 81166  1  0  0  0
 81167  1  0  0  0
 81 88  1  0  0  0
 82 88  1  0  0  0
 82168  1  0  0  0
 82169  1  0  0  0
 82170  1  0  0  0
 83 86  1  0  0  0
 83 88  1  0  0  0
 83171  1  0  0  0
 83172  1  0  0  0
 84 86  1  0  0  0
 84 90  1  0  0  0
 84173  1  0  0  0
 84174  1  0  0  0
 85 88  1  0  0  0
 85175  1  0  0  0
 85176  1  0  0  0
 86177  1  0  0  0
 89178  1  0  0  0
M  ISO  4   1 100  68 101  85 101  89 100
M  END
> <chiral flag>
0

> <version>
0

> <s_m_source_file>
/data/baiqing/PycharmProjects/Reinvent-master-3.2/result/LINK_invent/BTK/process_docking_weight1_custom_product_contain_oxygen_bond_distance_aromatic_linkinvent_7_9_3/rearranged_h_0141.sdf

> <i_m_source_file_index>
30

> <r_mmod_Potential_Energy-OPLS-2005>
143.969528198242

> <r_mmod_Stretch_Energy-OPLS-2005>
88.804931640625

> <r_mmod_Bend_Energy-OPLS-2005>
178.955780029297

> <r_mmod_Torsional_Energy-OPLS-2005>
294.804840087891

> <r_mmod_Improper_Torsional_Energy-OPLS-2005>
4.73441600799561

> <r_mmod_Van_der_Waal_Energy-OPLS-2005>
166.603332519531

> <r_mmod_Electrostatic_Energy-OPLS-2005>
-450.549499511719

> <r_mmod_Solvation_Energy-OPLS-2005>
-187.780502319336

> <b_mmod_Minimization_Converged-OPLS-2005>
0

> <r_mmod_RMS_Derivative-OPLS-2005>
5.35330772399902

$$$$
30
                    3D
 Structure written by MMmdl.
171179  0  0  1  0            999 V2000
  -30.7099  -14.4514   20.5690 C   0  0  0  0  0  0
  -30.4101  -12.2954   19.4086 C   0  0  0  0  0  0
  -29.4814  -12.4894   18.1947 C   0  0  0  0  0  0
  -28.0039  -12.3540   18.6129 C   0  0  0  0  0  0
  -27.6540  -13.1999   19.8671 C   0  0  2  0  0  0
  -28.6982  -12.9924   20.9855 C   0  0  0  0  0  0
  -25.2565  -13.8143   20.5663 C   0  0  0  0  0  0
  -24.1811  -13.0426   20.9182 C   0  0  0  0  0  0
  -24.6353  -11.6900   20.8721 C   0  0  0  0  0  0
  -23.9020  -10.4286   21.0394 C   0  0  0  0  0  0
  -24.3591   -9.4213   21.9175 C   0  0  0  0  0  0
  -23.6283   -8.2237   22.0747 C   0  0  0  0  0  0
  -22.4266   -8.0256   21.3545 C   0  0  0  0  0  0
  -21.9895   -9.0217   20.4641 C   0  0  0  0  0  0
  -22.7193  -10.2114   20.3048 C   0  0  0  0  0  0
  -21.6847   -6.0717   22.5274 C   0  0  0  0  0  0
  -21.4020   -6.5633   23.8207 C   0  0  0  0  0  0
  -21.3670   -5.6795   24.9173 C   0  0  0  0  0  0
  -21.6039   -4.3054   24.7232 C   0  0  0  0  0  0
  -21.8824   -3.8138   23.4356 C   0  0  0  0  0  0
  -21.9200   -4.6947   22.3405 C   0  0  0  0  0  0
  -22.7843  -13.5228   21.1843 C   0  0  0  0  0  0
  -22.1660   -4.2125   21.0987 F   0  0  0  0  0  0
  -21.5631   -3.4546   25.7754 F   0  0  0  0  0  0
  -30.0219  -13.2901   20.4180 N   0  0  0  0  0  0
  -26.2974  -12.9277   20.3342 N   0  0  0  0  0  0
  -25.9276  -11.6455   20.5765 N   0  0  0  0  0  0
  -22.0511  -12.8201   22.0411 N   0  0  0  0  0  0
  -25.4331  -15.1856   20.4046 N   0  0  0  0  0  0
  -31.8527  -14.6128   20.1282 O   0  0  0  0  0  0
  -21.6639   -6.8847   21.4229 O   0  0  0  0  0  0
  -22.3526  -14.5542   20.6707 O   0  0  0  0  0  0
  -24.6162  -31.8648   23.2115 C   0  0  0  0  0  0
  -25.9053  -32.4800   23.8387 C   0  0  1  0  0  0
  -27.2246  -27.4334   20.0975 C   0  0  0  0  0  0
  -25.5891  -33.8610   24.2303 N   0  0  0  0  0  0
  -23.4045  -30.4838   21.5528 C   0  0  2  0  0  0
  -24.8500  -28.9573   20.1045 C   0  0  0  0  0  0
  -22.7438  -29.4600   22.5057 C   0  0  0  0  0  0
  -18.0256  -28.1345   22.8471 C   0  0  0  0  0  0
  -24.1529  -36.7317   23.2637 C   0  0  0  0  0  0
  -25.9334  -30.8349   21.3606 C   0  0  0  0  0  0
  -26.0120  -29.4766   20.6899 C   0  0  0  0  0  0
  -27.2095  -28.7247   20.6715 C   0  0  0  0  0  0
  -26.0530  -26.9313   19.4969 C   0  0  0  0  0  0
  -24.8664  -27.6878   19.4982 C   0  0  0  0  0  0
  -23.6063  -29.8107   20.1683 C   0  0  0  0  0  0
  -25.4129  -36.3100   24.0338 C   0  0  1  0  0  0
  -20.5849  -28.3605   23.1352 C   0  0  2  0  0  0
  -20.6740  -26.9347   22.5416 C   0  0  0  0  0  0
  -19.5715  -26.6339   21.5219 C   0  0  0  0  0  0
  -18.1886  -26.7893   22.1622 C   0  0  0  0  0  0
  -19.1512  -28.8799   23.2887 C   0  0  0  0  0  0
  -18.9449  -30.1410   23.8873 C   0  0  0  0  0  0
  -17.6451  -30.6540   24.0537 C   0  0  0  0  0  0
  -25.9051  -34.9466   23.5120 C   0  0  0  0  0  0
  -16.5338  -29.9028   23.6326 C   0  0  0  0  0  0
  -16.7258  -28.6471   23.0316 C   0  0  0  0  0  0
  -26.4484  -31.6592   25.0734 C   0  0  0  0  0  0
  -25.3739  -31.3671   26.1472 C   0  0  0  0  0  0
  -27.0341  -30.3056   24.6089 C   0  0  0  0  0  0
  -27.6067  -32.4326   25.7482 C   0  0  0  0  0  0
  -27.5603  -37.1795   24.8459 C   0  0  0  0  0  0
  -21.4154  -29.3012   22.3815 N   0  0  0  0  0  0
  -26.4320  -37.3776   23.9407 N   0  0  0  0  0  0
  -24.6687  -31.0748   22.0993 N   0  0  0  0  0  0
  -23.4229  -28.8115   23.3053 O   0  0  0  0  0  0
  -28.3358  -26.6250   20.1982 O   0  0  0  0  0  0
  -26.5625  -34.8942   22.4683 O   0  0  0  0  0  0
  -23.5364  -32.1422   23.7502 O   0  0  0  0  0  0
  -32.1753  -17.7911   23.0439 C   0  0  0  0  0  0
  -31.6541  -16.6273   22.4621 C   0  0  0  0  0  0
  -29.9890  -17.9673   21.2954 C   0  0  0  0  0  0
  -31.6175  -19.0633   22.7773 C   0  0  0  0  0  0
  -30.5568  -16.6987   21.5827 C   0  0  0  0  0  0
  -30.5166  -19.1600   21.8683 C   0  0  0  0  0  0
  -32.2582  -20.2478   23.4422 C   0  0  0  0  0  0
  -30.1279  -22.2689   19.9443 C   0  0  0  0  0  0
  -32.9955  -20.0134   24.7578 C   0  0  0  0  0  0
  -27.9397  -26.1923   22.5759 C   0  0  0  0  0  0
  -29.6020  -23.8473   22.5047 C   0  0  0  0  0  0
  -30.6966  -25.3313   20.8267 C   0  0  0  0  0  0
  -29.1170  -23.4367   20.0589 C   0  0  0  0  0  0
  -29.6517  -20.8266   20.2204 C   0  0  0  0  0  0
  -28.1919  -25.5603   21.1782 C   0  0  2  0  0  0
  -29.4017  -24.5466   21.1341 C   0  0  0  0  0  0
  -30.0067  -15.4917   21.0579 N   0  0  0  0  0  0
  -29.9182  -20.4117   21.6020 N   0  0  0  0  0  0
  -32.2006  -21.3997   23.0065 O   0  0  0  0  0  0
  -31.3071  -22.4767   19.6523 O   0  0  0  0  0  0
  -31.4546  -12.3847   19.1076 H   0  0  0  0  0  0
  -30.3032  -11.2874   19.8155 H   0  0  0  0  0  0
  -29.7140  -11.7595   17.4191 H   0  0  0  0  0  0
  -29.6457  -13.4729   17.7510 H   0  0  0  0  0  0
  -27.8114  -11.2979   18.8116 H   0  0  0  0  0  0
  -27.3510  -12.6265   17.7831 H   0  0  0  0  0  0
  -27.6952  -14.2441   19.5577 H   0  0  0  0  0  0
  -28.6773  -11.9595   21.3405 H   0  0  0  0  0  0
  -28.4688  -13.6054   21.8575 H   0  0  0  0  0  0
  -25.2732   -9.5698   22.4748 H   0  0  0  0  0  0
  -24.0000   -7.4631   22.7474 H   0  0  0  0  0  0
  -21.0826   -8.8708   19.8938 H   0  0  0  0  0  0
  -22.3627  -10.9643   19.6163 H   0  0  0  0  0  0
  -21.2015   -7.6145   23.9700 H   0  0  0  0  0  0
  -21.1487   -6.0534   25.9077 H   0  0  0  0  0  0
  -22.0600   -2.7595   23.2870 H   0  0  0  0  0  0
  -22.4155  -11.9860   22.4753 H   0  0  0  0  0  0
  -21.1127  -13.1199   22.2644 H   0  0  0  0  0  0
  -24.6688  -15.8450   20.5008 H   0  0  0  0  0  0
  -26.2859  -15.6159   20.0701 H   0  0  0  0  0  0
  -26.7113  -32.5518   23.1147 H   0  0  0  0  0  0
  -25.0052  -33.9771   25.0453 H   0  0  0  0  0  0
  -22.6934  -31.2983   21.4097 H   0  0  0  0  0  0
  -23.3803  -35.9646   23.3301 H   0  0  0  0  0  0
  -24.3600  -36.8949   22.2053 H   0  0  0  0  0  0
  -23.7319  -37.6521   23.6675 H   0  0  0  0  0  0
  -26.0550  -31.6189   20.6091 H   0  0  0  0  0  0
  -26.8173  -30.8723   21.9864 H   0  0  0  0  0  0
  -28.1043  -29.1036   21.1493 H   0  0  0  0  0  0
  -26.0506  -25.9434   19.0577 H   0  0  0  0  0  0
  -23.9719  -27.2798   19.0491 H   0  0  0  0  0  0
  -23.6961  -30.5819   19.4038 H   0  0  0  0  0  0
  -22.7348  -29.2129   19.8894 H   0  0  0  0  0  0
  -25.1317  -36.1949   25.0837 H   0  0  0  0  0  0
  -20.9875  -28.3166   24.1495 H   0  0  0  0  0  0
  -20.5674  -26.2195   23.3590 H   0  0  0  0  0  0
  -21.6597  -26.7392   22.1160 H   0  0  0  0  0  0
  -19.6891  -25.6247   21.1246 H   0  0  0  0  0  0
  -19.6698  -27.3160   20.6768 H   0  0  0  0  0  0
  -17.4145  -26.6660   21.4019 H   0  0  0  0  0  0
  -18.0231  -26.0047   22.9033 H   0  0  0  0  0  0
  -19.7934  -30.7192   24.2264 H   0  0  0  0  0  0
  -17.5011  -31.6251   24.5091 H   0  0  0  0  0  0
  -15.5318  -30.2903   23.7686 H   0  0  0  0  0  0
  -15.8663  -28.0786   22.7024 H   0  0  0  0  0  0
  -24.5893  -30.7053   25.7783 H   0  0  0  0  0  0
  -24.8925  -32.2805   26.4990 H   0  0  0  0  0  0
  -25.8055  -30.8773   27.0205 H   0  0  0  0  0  0
  -26.2879  -29.6772   24.1206 H   0  0  0  0  0  0
  -27.4218  -29.7337   25.4524 H   0  0  0  0  0  0
  -27.8667  -30.4428   23.9180 H   0  0  0  0  0  0
  -27.2683  -33.3620   26.2076 H   0  0  0  0  0  0
  -28.3828  -32.6890   25.0259 H   0  0  0  0  0  0
  -28.0786  -31.8440   26.5365 H   0  0  0  0  0  0
  -28.2563  -38.0148   24.7495 H   0  0  0  0  0  0
  -28.1144  -36.2651   24.6262 H   0  0  0  0  0  0
  -27.2285  -37.1383   25.8854 H   0  0  0  0  0  0
  -20.9318  -29.8860   21.7143 H   0  0  0  0  0  0
  -26.0233  -38.2871   24.1376 H   0  0  0  0  0  0
  -33.0208  -17.6764   23.7054 H   0  0  0  0  0  0
  -32.1035  -15.6767   22.7142 H   0  0  0  0  0  0
  -29.1307  -18.0231   20.6387 H   0  0  0  0  0  0
  -32.3825  -19.4220   25.4385 H   0  0  0  0  0  0
  -33.2186  -20.9651   25.2391 H   0  0  0  0  0  0
  -33.9364  -19.4937   24.5811 H   0  0  0  0  0  0
  -27.7730  -25.4413   23.3474 H   0  0  0  0  0  0
  -27.0331  -26.7956   22.5958 H   0  0  0  0  0  0
  -28.7630  -26.8322   22.8939 H   0  0  0  0  0  0
  -30.4512  -23.1701   22.4854 H   0  0  0  0  0  0
  -28.7238  -23.2686   22.7949 H   0  0  0  0  0  0
  -29.8326  -24.5456   23.3107 H   0  0  0  0  0  0
  -31.5927  -24.7283   20.9706 H   0  0  0  0  0  0
  -30.7911  -26.1979   21.4815 H   0  0  0  0  0  0
  -30.7081  -25.6951   19.7970 H   0  0  0  0  0  0
  -28.1403  -22.9933   20.2523 H   0  0  0  0  0  0
  -29.0393  -23.9003   19.0764 H   0  0  0  0  0  0
  -30.1556  -20.1627   19.5138 H   0  0  0  0  0  0
  -28.5837  -20.7558   20.0159 H   0  0  0  0  0  0
  -27.2896  -24.9958   20.9387 H   0  0  0  0  0  0
  -29.0099  -15.3663   21.1377 H   0  0  0  0  0  0
  -30.3703  -21.1684   22.1142 H   0  0  0  0  0  0
  1 25  1  0  0  0
  1 30  2  0  0  0
  1 87  1  0  0  0
  2  3  1  0  0  0
  2 25  1  0  0  0
  2 91  1  0  0  0
  2 92  1  0  0  0
  3  4  1  0  0  0
  3 93  1  0  0  0
  3 94  1  0  0  0
  4  5  1  0  0  0
  4 95  1  0  0  0
  4 96  1  0  0  0
  5  6  1  0  0  0
  5 26  1  0  0  0
  5 97  1  0  0  0
  6 25  1  0  0  0
  6 98  1  0  0  0
  6 99  1  0  0  0
  7  8  2  0  0  0
  7 26  1  0  0  0
  7 29  1  0  0  0
  8  9  1  0  0  0
  8 22  1  0  0  0
  9 10  1  0  0  0
  9 27  2  0  0  0
 10 11  2  0  0  0
 10 15  1  0  0  0
 11 12  1  0  0  0
 11100  1  0  0  0
 12 13  2  0  0  0
 12101  1  0  0  0
 13 14  1  0  0  0
 13 31  1  0  0  0
 14 15  2  0  0  0
 14102  1  0  0  0
 15103  1  0  0  0
 16 17  2  0  0  0
 16 21  1  0  0  0
 16 31  1  0  0  0
 17 18  1  0  0  0
 17104  1  0  0  0
 18 19  2  0  0  0
 18105  1  0  0  0
 19 20  1  0  0  0
 19 24  1  0  0  0
 20 21  2  0  0  0
 20106  1  0  0  0
 21 23  1  0  0  0
 22 28  1  0  0  0
 22 32  2  0  0  0
 26 27  1  0  0  0
 28107  1  0  0  0
 28108  1  0  0  0
 29109  1  0  0  0
 29110  1  0  0  0
 33 34  1  0  0  0
 33 66  1  0  0  0
 33 70  2  0  0  0
 34 36  1  0  0  0
 34 59  1  0  0  0
 34111  1  0  0  0
 35 44  2  0  0  0
 35 45  1  0  0  0
 35 68  1  0  0  0
 36 56  1  0  0  0
 36112  1  0  0  0
 37 39  1  0  0  0
 37 47  1  0  0  0
 37 66  1  0  0  0
 37113  1  0  0  0
 38 43  2  0  0  0
 38 46  1  0  0  0
 38 47  1  0  0  0
 39 64  1  0  0  0
 39 67  2  0  0  0
 40 52  1  0  0  0
 40 53  2  0  0  0
 40 58  1  0  0  0
 41114  1  0  0  0
 41115  1  0  0  0
 41116  1  0  0  0
 41 48  1  0  0  0
 42 43  1  0  0  0
 42 66  1  0  0  0
 42117  1  0  0  0
 42118  1  0  0  0
 43 44  1  0  0  0
 44119  1  0  0  0
 45 46  2  0  0  0
 45120  1  0  0  0
 46121  1  0  0  0
 47122  1  0  0  0
 47123  1  0  0  0
 48 56  1  0  0  0
 48 65  1  0  0  0
 48124  1  0  0  0
 49 50  1  0  0  0
 49 53  1  0  0  0
 49 64  1  0  0  0
 49125  1  0  0  0
 50 51  1  0  0  0
 50126  1  0  0  0
 50127  1  0  0  0
 51 52  1  0  0  0
 51128  1  0  0  0
 51129  1  0  0  0
 52130  1  0  0  0
 52131  1  0  0  0
 53 54  1  0  0  0
 54 55  2  0  0  0
 54132  1  0  0  0
 55 57  1  0  0  0
 55133  1  0  0  0
 56 69  2  0  0  0
 57 58  2  0  0  0
 57134  1  0  0  0
 58135  1  0  0  0
 59 60  1  0  0  0
 59 61  1  0  0  0
 59 62  1  0  0  0
 60136  1  0  0  0
 60137  1  0  0  0
 60138  1  0  0  0
 61139  1  0  0  0
 61140  1  0  0  0
 61141  1  0  0  0
 62142  1  0  0  0
 62143  1  0  0  0
 62144  1  0  0  0
 63 65  1  0  0  0
 63145  1  0  0  0
 63146  1  0  0  0
 63147  1  0  0  0
 64148  1  0  0  0
 65149  1  0  0  0
 68 85  1  0  0  0
 71 72  2  0  0  0
 71 74  1  0  0  0
 71150  1  0  0  0
 72 75  1  0  0  0
 72151  1  0  0  0
 73 75  2  0  0  0
 73 76  1  0  0  0
 73152  1  0  0  0
 74 76  2  0  0  0
 74 77  1  0  0  0
 75 87  1  0  0  0
 76 88  1  0  0  0
 77 79  1  0  0  0
 77 89  2  0  0  0
 78 83  1  0  0  0
 78 84  1  0  0  0
 78 90  2  0  0  0
 79153  1  0  0  0
 79154  1  0  0  0
 79155  1  0  0  0
 80156  1  0  0  0
 80157  1  0  0  0
 80158  1  0  0  0
 80 85  1  0  0  0
 81159  1  0  0  0
 81160  1  0  0  0
 81161  1  0  0  0
 81 86  1  0  0  0
 82 86  1  0  0  0
 82162  1  0  0  0
 82163  1  0  0  0
 82164  1  0  0  0
 83 86  1  0  0  0
 83165  1  0  0  0
 83166  1  0  0  0
 84 88  1  0  0  0
 84167  1  0  0  0
 84168  1  0  0  0
 85 86  1  0  0  0
 85169  1  0  0  0
 87170  1  0  0  0
 88171  1  0  0  0
M  ISO  4   1 100  68 101  85 101  87 100
M  END
> <chiral flag>
0

> <version>
0

> <s_m_source_file>
/data/baiqing/PycharmProjects/Reinvent-master-3.2/result/LINK_invent/BTK/process_docking_weight1_custom_product_contain_oxygen_bond_distance_aromatic_linkinvent_7_9_3/rearranged_h_0141.sdf

> <i_m_source_file_index>
31

> <r_mmod_Potential_Energy-OPLS-2005>
106.758186340332

> <r_mmod_Stretch_Energy-OPLS-2005>
48.1086158752441

> <r_mmod_Bend_Energy-OPLS-2005>
106.887313842773

> <r_mmod_Torsional_Energy-OPLS-2005>
288.651153564453

> <r_mmod_Improper_Torsional_Energy-OPLS-2005>
9.36612033843994

> <r_mmod_Van_der_Waal_Energy-OPLS-2005>
169.333236694336

> <r_mmod_Electrostatic_Energy-OPLS-2005>
-303.159942626953

> <r_mmod_Solvation_Energy-OPLS-2005>
-229.95002746582

> <b_mmod_Minimization_Converged-OPLS-2005>
0

> <r_mmod_RMS_Derivative-OPLS-2005>
3.67758941650391

$$$$
31
                    3D
 Structure written by MMmdl.
161170  0  0  1  0            999 V2000
  -30.6705  -14.5794   20.5047 C   0  0  0  0  0  0
  -30.4180  -12.3548   19.4476 C   0  0  0  0  0  0
  -29.4987  -12.4990   18.2172 C   0  0  0  0  0  0
  -28.0220  -12.3482   18.6278 C   0  0  0  0  0  0
  -27.6499  -13.2179   19.8583 C   0  0  2  0  0  0
  -28.6909  -13.0774   20.9907 C   0  0  0  0  0  0
  -25.2559  -13.8182   20.5661 C   0  0  0  0  0  0
  -24.1836  -13.0450   20.9203 C   0  0  0  0  0  0
  -24.6410  -11.6922   20.8735 C   0  0  0  0  0  0
  -23.9091  -10.4302   21.0413 C   0  0  0  0  0  0
  -24.3640   -9.4209   21.9190 C   0  0  0  0  0  0
  -23.6307   -8.2242   22.0747 C   0  0  0  0  0  0
  -22.4279   -8.0297   21.3543 C   0  0  0  0  0  0
  -21.9933   -9.0276   20.4636 C   0  0  0  0  0  0
  -22.7273  -10.2150   20.3054 C   0  0  0  0  0  0
  -21.6858   -6.0750   22.5289 C   0  0  0  0  0  0
  -21.4012   -6.5648   23.8226 C   0  0  0  0  0  0
  -21.3653   -5.6789   24.9178 C   0  0  0  0  0  0
  -21.6048   -4.3055   24.7225 C   0  0  0  0  0  0
  -21.8821   -3.8152   23.4343 C   0  0  0  0  0  0
  -21.9194   -4.6972   22.3402 C   0  0  0  0  0  0
  -22.7861  -13.5244   21.1880 C   0  0  0  0  0  0
  -22.1667   -4.2156   21.0979 F   0  0  0  0  0  0
  -21.5627   -3.4542   25.7738 F   0  0  0  0  0  0
  -30.0108  -13.3847   20.4237 N   0  0  0  0  0  0
  -26.2973  -12.9366   20.3285 N   0  0  0  0  0  0
  -25.9335  -11.6524   20.5738 N   0  0  0  0  0  0
  -22.0480  -12.8222   22.0406 N   0  0  0  0  0  0
  -25.4289  -15.1901   20.4053 N   0  0  0  0  0  0
  -31.8430  -14.6670   20.1362 O   0  0  0  0  0  0
  -21.6632   -6.8900   21.4255 O   0  0  0  0  0  0
  -22.3555  -14.5557   20.6735 O   0  0  0  0  0  0
  -24.6258  -31.8613   23.1990 C   0  0  0  0  0  0
  -25.9099  -32.4801   23.8332 C   0  0  1  0  0  0
  -27.2278  -27.3529   20.1106 C   0  0  0  0  0  0
  -25.5895  -33.8591   24.2276 N   0  0  0  0  0  0
  -23.4161  -30.4838   21.5394 C   0  0  2  0  0  0
  -24.8573  -28.9292   20.1048 C   0  0  0  0  0  0
  -22.7465  -29.4641   22.4914 C   0  0  0  0  0  0
  -18.0286  -28.1445   22.8499 C   0  0  0  0  0  0
  -24.1459  -36.7288   23.2643 C   0  0  0  0  0  0
  -25.9470  -30.8059   21.3523 C   0  0  0  0  0  0
  -26.0168  -29.4294   20.7058 C   0  0  0  0  0  0
  -27.2001  -28.6457   20.7021 C   0  0  0  0  0  0
  -26.0527  -26.8821   19.4888 C   0  0  0  0  0  0
  -24.8726  -27.6609   19.4922 C   0  0  0  0  0  0
  -23.6238  -29.8098   20.1541 C   0  0  0  0  0  0
  -25.4100  -36.3091   24.0326 C   0  0  1  0  0  0
  -20.5882  -28.3741   23.1286 C   0  0  2  0  0  0
  -20.6764  -26.9462   22.5421 C   0  0  0  0  0  0
  -19.5723  -26.6420   21.5228 C   0  0  0  0  0  0
  -18.1905  -26.7996   22.1624 C   0  0  0  0  0  0
  -19.1546  -28.8904   23.2902 C   0  0  0  0  0  0
  -18.9460  -30.1495   23.8946 C   0  0  0  0  0  0
  -17.6469  -30.6641   24.0592 C   0  0  0  0  0  0
  -25.9048  -34.9465   23.5110 C   0  0  0  0  0  0
  -16.5362  -29.9162   23.6320 C   0  0  0  0  0  0
  -16.7273  -28.6565   23.0359 C   0  0  0  0  0  0
  -26.4474  -31.6614   25.0704 C   0  0  0  0  0  0
  -25.3728  -31.3730   26.1453 C   0  0  0  0  0  0
  -27.0313  -30.3055   24.6111 C   0  0  0  0  0  0
  -27.6070  -32.4318   25.7469 C   0  0  0  0  0  0
  -27.5568  -37.1819   24.8478 C   0  0  0  0  0  0
  -21.4180  -29.3085   22.3679 N   0  0  0  0  0  0
  -26.4281  -37.3792   23.9421 N   0  0  0  0  0  0
  -24.6823  -31.0687   22.0881 N   0  0  0  0  0  0
  -23.4208  -28.8184   23.2985 O   0  0  0  0  0  0
  -28.3987  -26.6085   20.1943 O   0  0  0  0  0  0
  -26.5635  -34.8935   22.4690 O   0  0  0  0  0  0
  -23.5431  -32.1381   23.7356 O   0  0  0  0  0  0
  -30.8598  -19.9104   20.7020 C   0  0  0  0  0  0
  -29.2400  -18.1099   20.9872 C   0  0  0  0  0  0
  -31.5467  -17.5807   20.4485 C   0  0  0  0  0  0
  -29.5331  -19.5188   20.9789 C   0  0  0  0  0  0
  -31.8602  -18.9550   20.4307 C   0  0  0  0  0  0
  -30.2405  -17.1092   20.7382 C   0  0  0  0  0  0
  -28.2858  -24.1194   20.3208 C   0  0  0  0  0  0
  -28.6121  -25.3097   19.7238 C   0  0  0  0  0  0
  -27.3068  -23.8699   21.4295 C   0  0  0  0  0  0
  -28.9073  -22.7402   20.0128 C   0  0  0  0  0  0
  -26.8446  -22.4222   21.1492 C   0  0  0  0  0  0
  -28.5230  -20.6005   21.4710 C   0  0  0  0  0  0
  -33.2943  -19.3842   20.1419 C   0  0  0  0  0  0
  -29.9216  -15.6832   20.8193 N   0  0  0  0  0  0
  -27.9864  -21.6770   20.5447 N   0  3  2  0  0  0
  -33.5097  -20.6629   20.4569 F   0  0  0  0  0  0
  -34.1473  -18.6351   20.8423 F   0  0  0  0  0  0
  -33.5489  -19.2205   18.8439 F   0  0  0  0  0  0
  -31.4641  -12.4461   19.1488 H   0  0  0  0  0  0
  -30.3212  -11.3590   19.8843 H   0  0  0  0  0  0
  -29.7558  -11.7534   17.4639 H   0  0  0  0  0  0
  -29.6567  -13.4725   17.7504 H   0  0  0  0  0  0
  -27.8515  -11.2946   18.8522 H   0  0  0  0  0  0
  -27.3720  -12.5867   17.7857 H   0  0  0  0  0  0
  -27.6702  -14.2520   19.5162 H   0  0  0  0  0  0
  -28.6858  -12.0645   21.3967 H   0  0  0  0  0  0
  -28.4476  -13.7351   21.8256 H   0  0  0  0  0  0
  -25.2788   -9.5683   22.4763 H   0  0  0  0  0  0
  -24.0033   -7.4625   22.7445 H   0  0  0  0  0  0
  -21.0878   -8.8797   19.8925 H   0  0  0  0  0  0
  -22.3751  -10.9691   19.6149 H   0  0  0  0  0  0
  -21.1998   -7.6155   23.9742 H   0  0  0  0  0  0
  -21.1471   -6.0506   25.9085 H   0  0  0  0  0  0
  -22.0602   -2.7617   23.2837 H   0  0  0  0  0  0
  -22.4073  -11.9858   22.4765 H   0  0  0  0  0  0
  -21.1097  -13.1239   22.2591 H   0  0  0  0  0  0
  -24.6576  -15.8426   20.4918 H   0  0  0  0  0  0
  -26.2730  -15.6215   20.0516 H   0  0  0  0  0  0
  -26.7193  -32.5499   23.1112 H   0  0  0  0  0  0
  -25.0072  -33.9723   25.0436 H   0  0  0  0  0  0
  -22.7087  -31.3038   21.3950 H   0  0  0  0  0  0
  -23.3732  -35.9607   23.3321 H   0  0  0  0  0  0
  -24.3548  -36.8879   22.2051 H   0  0  0  0  0  0
  -23.7176  -37.6489   23.6648 H   0  0  0  0  0  0
  -26.0598  -31.5652   20.5758 H   0  0  0  0  0  0
  -26.8366  -30.8679   21.9684 H   0  0  0  0  0  0
  -28.0965  -29.0226   21.1711 H   0  0  0  0  0  0
  -26.0375  -25.9098   19.0204 H   0  0  0  0  0  0
  -23.9789  -27.2714   19.0261 H   0  0  0  0  0  0
  -23.7461  -30.5843   19.3958 H   0  0  0  0  0  0
  -22.7420  -29.2432   19.8525 H   0  0  0  0  0  0
  -25.1264  -36.1950   25.0813 H   0  0  0  0  0  0
  -21.0009  -28.3341   24.1394 H   0  0  0  0  0  0
  -20.5630  -26.2382   23.3637 H   0  0  0  0  0  0
  -21.6634  -26.7478   22.1229 H   0  0  0  0  0  0
  -19.6868  -25.6319   21.1261 H   0  0  0  0  0  0
  -19.6638  -27.3222   20.6747 H   0  0  0  0  0  0
  -17.4168  -26.6766   21.4030 H   0  0  0  0  0  0
  -18.0282  -26.0155   22.9021 H   0  0  0  0  0  0
  -19.7947  -30.7301   24.2335 H   0  0  0  0  0  0
  -17.5026  -31.6314   24.5215 H   0  0  0  0  0  0
  -15.5356  -30.3077   23.7628 H   0  0  0  0  0  0
  -15.8671  -28.0895   22.7069 H   0  0  0  0  0  0
  -24.5932  -30.7026   25.7802 H   0  0  0  0  0  0
  -24.8906  -32.2893   26.4882 H   0  0  0  0  0  0
  -25.8094  -30.8947   27.0228 H   0  0  0  0  0  0
  -26.2867  -29.6815   24.1160 H   0  0  0  0  0  0
  -27.4064  -29.7297   25.4580 H   0  0  0  0  0  0
  -27.8688  -30.4366   23.9252 H   0  0  0  0  0  0
  -27.2727  -33.3634   26.2041 H   0  0  0  0  0  0
  -28.3899  -32.6827   25.0296 H   0  0  0  0  0  0
  -28.0709  -31.8433   26.5392 H   0  0  0  0  0  0
  -28.2632  -38.0082   24.7537 H   0  0  0  0  0  0
  -28.0997  -36.2620   24.6277 H   0  0  0  0  0  0
  -27.2309  -37.1475   25.8891 H   0  0  0  0  0  0
  -20.9350  -29.8850   21.6924 H   0  0  0  0  0  0
  -26.0148  -38.2853   24.1463 H   0  0  0  0  0  0
  -31.1398  -20.9512   20.7463 H   0  0  0  0  0  0
  -28.2402  -17.7847   21.2415 H   0  0  0  0  0  0
  -32.3702  -16.9147   20.2545 H   0  0  0  0  0  0
  -29.3557  -25.3338   18.9382 H   0  0  0  0  0  0
  -26.4791  -24.5789   21.4290 H   0  0  0  0  0  0
  -27.8202  -23.9294   22.3894 H   0  0  0  0  0  0
  -29.8694  -22.7011   20.5194 H   0  0  0  0  0  0
  -29.0801  -22.6147   18.9432 H   0  0  0  0  0  0
  -26.0489  -22.4401   20.4036 H   0  0  0  0  0  0
  -26.4274  -21.9422   22.0363 H   0  0  0  0  0  0
  -28.9508  -21.0824   22.3512 H   0  0  0  0  0  0
  -27.6609  -20.0465   21.8474 H   0  0  0  0  0  0
  -28.9743  -15.4635   21.0861 H   0  0  0  0  0  0
  -27.6128  -21.1792   19.7511 H   0  0  0  0  0  0
  1 25  1  0  0  0
  1 30  2  0  0  0
  1 84  1  0  0  0
  2  3  1  0  0  0
  2 25  1  0  0  0
  2 89  1  0  0  0
  2 90  1  0  0  0
  3  4  1  0  0  0
  3 91  1  0  0  0
  3 92  1  0  0  0
  4  5  1  0  0  0
  4 93  1  0  0  0
  4 94  1  0  0  0
  5  6  1  0  0  0
  5 26  1  0  0  0
  5 95  1  0  0  0
  6 25  1  0  0  0
  6 96  1  0  0  0
  6 97  1  0  0  0
  7  8  2  0  0  0
  7 26  1  0  0  0
  7 29  1  0  0  0
  8  9  1  0  0  0
  8 22  1  0  0  0
  9 10  1  0  0  0
  9 27  2  0  0  0
 10 11  2  0  0  0
 10 15  1  0  0  0
 11 12  1  0  0  0
 11 98  1  0  0  0
 12 13  2  0  0  0
 12 99  1  0  0  0
 13 14  1  0  0  0
 13 31  1  0  0  0
 14 15  2  0  0  0
 14100  1  0  0  0
 15101  1  0  0  0
 16 17  2  0  0  0
 16 21  1  0  0  0
 16 31  1  0  0  0
 17 18  1  0  0  0
 17102  1  0  0  0
 18 19  2  0  0  0
 18103  1  0  0  0
 19 20  1  0  0  0
 19 24  1  0  0  0
 20 21  2  0  0  0
 20104  1  0  0  0
 21 23  1  0  0  0
 22 28  1  0  0  0
 22 32  2  0  0  0
 26 27  1  0  0  0
 28105  1  0  0  0
 28106  1  0  0  0
 29107  1  0  0  0
 29108  1  0  0  0
 33 34  1  0  0  0
 33 66  1  0  0  0
 33 70  2  0  0  0
 34 36  1  0  0  0
 34 59  1  0  0  0
 34109  1  0  0  0
 35 44  2  0  0  0
 35 45  1  0  0  0
 35 68  1  0  0  0
 36 56  1  0  0  0
 36110  1  0  0  0
 37 39  1  0  0  0
 37 47  1  0  0  0
 37 66  1  0  0  0
 37111  1  0  0  0
 38 43  2  0  0  0
 38 46  1  0  0  0
 38 47  1  0  0  0
 39 64  1  0  0  0
 39 67  2  0  0  0
 40 52  1  0  0  0
 40 53  2  0  0  0
 40 58  1  0  0  0
 41112  1  0  0  0
 41113  1  0  0  0
 41114  1  0  0  0
 41 48  1  0  0  0
 42 43  1  0  0  0
 42 66  1  0  0  0
 42115  1  0  0  0
 42116  1  0  0  0
 43 44  1  0  0  0
 44117  1  0  0  0
 45 46  2  0  0  0
 45118  1  0  0  0
 46119  1  0  0  0
 47120  1  0  0  0
 47121  1  0  0  0
 48 56  1  0  0  0
 48 65  1  0  0  0
 48122  1  0  0  0
 49 50  1  0  0  0
 49 53  1  0  0  0
 49 64  1  0  0  0
 49123  1  0  0  0
 50 51  1  0  0  0
 50124  1  0  0  0
 50125  1  0  0  0
 51 52  1  0  0  0
 51126  1  0  0  0
 51127  1  0  0  0
 52128  1  0  0  0
 52129  1  0  0  0
 53 54  1  0  0  0
 54 55  2  0  0  0
 54130  1  0  0  0
 55 57  1  0  0  0
 55131  1  0  0  0
 56 69  2  0  0  0
 57 58  2  0  0  0
 57132  1  0  0  0
 58133  1  0  0  0
 59 60  1  0  0  0
 59 61  1  0  0  0
 59 62  1  0  0  0
 60134  1  0  0  0
 60135  1  0  0  0
 60136  1  0  0  0
 61137  1  0  0  0
 61138  1  0  0  0
 61139  1  0  0  0
 62140  1  0  0  0
 62141  1  0  0  0
 62142  1  0  0  0
 63 65  1  0  0  0
 63143  1  0  0  0
 63144  1  0  0  0
 63145  1  0  0  0
 64146  1  0  0  0
 65147  1  0  0  0
 68 78  1  0  0  0
 71 74  2  0  0  0
 71 75  1  0  0  0
 71148  1  0  0  0
 72 74  1  0  0  0
 72 76  2  0  0  0
 72149  1  0  0  0
 73 75  2  0  0  0
 73 76  1  0  0  0
 73150  1  0  0  0
 74 82  1  0  0  0
 75 83  1  0  0  0
 76 84  1  0  0  0
 77 78  2  0  0  0
 77 79  1  0  0  0
 77 80  1  0  0  0
 78151  1  0  0  0
 79 81  1  0  0  0
 79152  1  0  0  0
 79153  1  0  0  0
 80 85  1  0  0  0
 80154  1  0  0  0
 80155  1  0  0  0
 81 85  1  0  0  0
 81156  1  0  0  0
 81157  1  0  0  0
 82158  1  0  0  0
 82159  1  0  0  0
 82 85  1  0  0  0
 83 86  1  0  0  0
 83 87  1  0  0  0
 83 88  1  0  0  0
 84160  1  0  0  0
 85161  1  0  0  0
M  CHG  1  85   1
M  ISO  4   1 100  68 101  78 101  84 100
M  END
> <chiral flag>
0

> <version>
0

> <s_m_source_file>
/data/baiqing/PycharmProjects/Reinvent-master-3.2/result/LINK_invent/BTK/process_docking_weight1_custom_product_contain_oxygen_bond_distance_aromatic_linkinvent_7_9_3/rearranged_h_0141.sdf

> <i_m_source_file_index>
32

> <r_mmod_Potential_Energy-OPLS-2005>
-26.4838981628418

> <r_mmod_Stretch_Energy-OPLS-2005>
64.506103515625

> <r_mmod_Bend_Energy-OPLS-2005>
176.968307495117

> <r_mmod_Torsional_Energy-OPLS-2005>
259.230377197266

> <r_mmod_Improper_Torsional_Energy-OPLS-2005>
6.16665029525757

> <r_mmod_Van_der_Waal_Energy-OPLS-2005>
142.506118774414

> <r_mmod_Electrostatic_Energy-OPLS-2005>
-246.092224121094

> <r_mmod_Solvation_Energy-OPLS-2005>
-463.477783203125

> <b_mmod_Minimization_Converged-OPLS-2005>
0

> <r_mmod_RMS_Derivative-OPLS-2005>
3.46901512145996

$$$$
32
                    3D
 Structure written by MMmdl.
165173  0  0  1  0            999 V2000
  -30.7457  -14.3813   20.6220 C   0  0  0  0  0  0
  -30.4057  -12.2697   19.3980 C   0  0  0  0  0  0
  -29.4798  -12.5082   18.1898 C   0  0  0  0  0  0
  -28.0025  -12.3757   18.6064 C   0  0  0  0  0  0
  -27.6634  -13.2009   19.8771 C   0  0  2  0  0  0
  -28.7024  -12.9455   20.9913 C   0  0  0  0  0  0
  -25.2596  -13.8152   20.5669 C   0  0  0  0  0  0
  -24.1837  -13.0437   20.9160 C   0  0  0  0  0  0
  -24.6391  -11.6900   20.8735 C   0  0  0  0  0  0
  -23.9057  -10.4286   21.0409 C   0  0  0  0  0  0
  -24.3614   -9.4200   21.9190 C   0  0  0  0  0  0
  -23.6288   -8.2237   22.0757 C   0  0  0  0  0  0
  -22.4271   -8.0278   21.3545 C   0  0  0  0  0  0
  -21.9909   -9.0253   20.4649 C   0  0  0  0  0  0
  -22.7235  -10.2131   20.3060 C   0  0  0  0  0  0
  -21.6852   -6.0734   22.5281 C   0  0  0  0  0  0
  -21.4014   -6.5642   23.8211 C   0  0  0  0  0  0
  -21.3657   -5.6792   24.9175 C   0  0  0  0  0  0
  -21.6044   -4.3059   24.7228 C   0  0  0  0  0  0
  -21.8818   -3.8148   23.4349 C   0  0  0  0  0  0
  -21.9190   -4.6960   22.3403 C   0  0  0  0  0  0
  -22.7864  -13.5234   21.1828 C   0  0  0  0  0  0
  -22.1658   -4.2145   21.0981 F   0  0  0  0  0  0
  -21.5629   -3.4542   25.7744 F   0  0  0  0  0  0
  -30.0387  -13.2361   20.4439 N   0  0  0  0  0  0
  -26.3034  -12.9315   20.3378 N   0  0  0  0  0  0
  -25.9316  -11.6480   20.5769 N   0  0  0  0  0  0
  -22.0517  -12.8235   22.0394 N   0  0  0  0  0  0
  -25.4329  -15.1868   20.4063 N   0  0  0  0  0  0
  -31.8204  -14.5918   20.0500 O   0  0  0  0  0  0
  -21.6634   -6.8877   21.4239 O   0  0  0  0  0  0
  -22.3551  -14.5543   20.6672 O   0  0  0  0  0  0
  -24.6122  -31.8723   23.2138 C   0  0  0  0  0  0
  -25.9029  -32.4854   23.8416 C   0  0  1  0  0  0
  -27.2245  -27.4431   20.0822 C   0  0  0  0  0  0
  -25.5875  -33.8642   24.2356 N   0  0  0  0  0  0
  -23.3977  -30.4963   21.5565 C   0  0  2  0  0  0
  -24.8396  -28.9661   20.1164 C   0  0  0  0  0  0
  -22.7399  -29.4658   22.5022 C   0  0  0  0  0  0
  -18.0269  -28.1354   22.8485 C   0  0  0  0  0  0
  -24.1490  -36.7310   23.2636 C   0  0  0  0  0  0
  -25.9266  -30.8348   21.3689 C   0  0  0  0  0  0
  -25.9999  -29.4706   20.7149 C   0  0  0  0  0  0
  -27.1923  -28.7148   20.6978 C   0  0  0  0  0  0
  -26.0449  -26.9595   19.4667 C   0  0  0  0  0  0
  -24.8553  -27.7076   19.4938 C   0  0  0  0  0  0
  -23.6043  -29.8338   20.1692 C   0  0  0  0  0  0
  -25.4112  -36.3125   24.0340 C   0  0  1  0  0  0
  -20.5844  -28.3641   23.1328 C   0  0  2  0  0  0
  -20.6756  -26.9384   22.5416 C   0  0  0  0  0  0
  -19.5740  -26.6375   21.5202 C   0  0  0  0  0  0
  -18.1915  -26.7904   22.1617 C   0  0  0  0  0  0
  -19.1509  -28.8818   23.2902 C   0  0  0  0  0  0
  -18.9443  -30.1422   23.8914 C   0  0  0  0  0  0
  -17.6451  -30.6569   24.0554 C   0  0  0  0  0  0
  -25.9028  -34.9487   23.5145 C   0  0  0  0  0  0
  -16.5340  -29.9067   23.6308 C   0  0  0  0  0  0
  -16.7258  -28.6481   23.0340 C   0  0  0  0  0  0
  -26.4454  -31.6622   25.0737 C   0  0  0  0  0  0
  -25.3710  -31.3717   26.1483 C   0  0  0  0  0  0
  -27.0301  -30.3074   24.6097 C   0  0  0  0  0  0
  -27.6044  -32.4336   25.7482 C   0  0  0  0  0  0
  -27.5593  -37.1806   24.8462 C   0  0  0  0  0  0
  -21.4122  -29.3023   22.3760 N   0  0  0  0  0  0
  -26.4317  -37.3789   23.9393 N   0  0  0  0  0  0
  -24.6639  -31.0819   22.1048 N   0  0  0  0  0  0
  -23.4197  -28.8180   23.3027 O   0  0  0  0  0  0
  -28.4212  -26.7565   20.0805 O   0  0  0  0  0  0
  -26.5608  -34.8937   22.4720 O   0  0  0  0  0  0
  -23.5314  -32.1490   23.7524 O   0  0  0  0  0  0
  -31.9472  -16.9016   21.8286 C   0  0  0  0  0  0
  -31.9578  -18.2811   22.1787 C   0  0  0  0  0  0
  -30.6308  -16.5376   21.7160 C   0  0  0  0  0  0
  -30.6273  -18.6168   22.2866 C   0  0  0  0  0  0
  -33.1282  -19.1705   22.3789 C   0  0  0  0  0  0
  -29.5810  -22.1166   21.9098 C   0  0  0  0  0  0
  -34.4967  -18.5361   22.1656 C   0  0  0  0  0  0
  -30.4992  -25.1606   21.3448 C   0  0  0  0  0  0
  -28.1864  -24.9340   22.3763 C   0  0  0  0  0  0
  -29.0581  -23.0874   20.8363 C   0  0  0  0  0  0
  -29.3481  -20.6159   21.6848 C   0  0  0  0  0  0
  -28.4457  -25.3309   19.9087 C   0  0  0  0  0  0
  -29.0635  -24.6214   21.1400 C   0  0  0  0  0  0
  -30.1591  -15.3021   21.4072 N   0  0  0  0  0  0
  -30.0843  -19.8366   22.6756 N   0  0  0  0  0  0
  -33.0387  -20.3621   22.6877 O   0  0  0  0  0  0
  -30.1933  -22.4960   22.9142 O   0  0  0  0  0  0
  -29.7947  -17.5747   22.0039 O   0  0  0  0  0  0
  -31.4529  -12.3434   19.0981 H   0  0  0  0  0  0
  -30.2798  -11.2528   19.7731 H   0  0  0  0  0  0
  -29.7054  -11.7999   17.3917 H   0  0  0  0  0  0
  -29.6575  -13.5022   17.7755 H   0  0  0  0  0  0
  -27.7997  -11.3190   18.7854 H   0  0  0  0  0  0
  -27.3510  -12.6713   17.7829 H   0  0  0  0  0  0
  -27.7196  -14.2534   19.5990 H   0  0  0  0  0  0
  -28.6661  -11.9016   21.3068 H   0  0  0  0  0  0
  -28.4647  -13.5212   21.8865 H   0  0  0  0  0  0
  -25.2764   -9.5674   22.4763 H   0  0  0  0  0  0
  -23.9996   -7.4629   22.7485 H   0  0  0  0  0  0
  -21.0838   -8.8773   19.8960 H   0  0  0  0  0  0
  -22.3697  -10.9670   19.6166 H   0  0  0  0  0  0
  -21.2010   -7.6152   23.9713 H   0  0  0  0  0  0
  -21.1481   -6.0529   25.9078 H   0  0  0  0  0  0
  -22.0602   -2.7608   23.2852 H   0  0  0  0  0  0
  -22.4132  -11.9877   22.4744 H   0  0  0  0  0  0
  -21.1147  -13.1263   22.2629 H   0  0  0  0  0  0
  -24.6680  -15.8450   20.5117 H   0  0  0  0  0  0
  -26.2916  -15.6246   20.0952 H   0  0  0  0  0  0
  -26.7110  -32.5574   23.1186 H   0  0  0  0  0  0
  -24.9992  -33.9830   25.0476 H   0  0  0  0  0  0
  -22.6826  -31.3108   21.4219 H   0  0  0  0  0  0
  -23.3769  -35.9628   23.3309 H   0  0  0  0  0  0
  -24.3573  -36.8909   22.2045 H   0  0  0  0  0  0
  -23.7241  -37.6508   23.6662 H   0  0  0  0  0  0
  -26.0425  -31.6032   20.6031 H   0  0  0  0  0  0
  -26.8136  -30.8853   21.9886 H   0  0  0  0  0  0
  -28.0902  -29.0991   21.1625 H   0  0  0  0  0  0
  -26.0115  -26.0252   18.9300 H   0  0  0  0  0  0
  -23.9658  -27.3188   19.0165 H   0  0  0  0  0  0
  -23.7140  -30.6120   19.4123 H   0  0  0  0  0  0
  -22.7274  -29.2559   19.8740 H   0  0  0  0  0  0
  -25.1299  -36.1995   25.0839 H   0  0  0  0  0  0
  -20.9938  -28.3208   24.1443 H   0  0  0  0  0  0
  -20.5627  -26.2255   23.3596 H   0  0  0  0  0  0
  -21.6635  -26.7412   22.1222 H   0  0  0  0  0  0
  -19.6895  -25.6288   21.1226 H   0  0  0  0  0  0
  -19.6677  -27.3201   20.6741 H   0  0  0  0  0  0
  -17.4180  -26.6642   21.4028 H   0  0  0  0  0  0
  -18.0301  -26.0048   22.9014 H   0  0  0  0  0  0
  -19.7932  -30.7212   24.2303 H   0  0  0  0  0  0
  -17.5018  -31.6252   24.5164 H   0  0  0  0  0  0
  -15.5344  -30.2979   23.7629 H   0  0  0  0  0  0
  -15.8651  -28.0814   22.7032 H   0  0  0  0  0  0
  -24.5888  -30.7066   25.7804 H   0  0  0  0  0  0
  -24.8890  -32.2865   26.4947 H   0  0  0  0  0  0
  -25.8038  -30.8871   27.0241 H   0  0  0  0  0  0
  -26.2852  -29.6819   24.1169 H   0  0  0  0  0  0
  -27.4105  -29.7323   25.4546 H   0  0  0  0  0  0
  -27.8668  -30.4410   23.9233 H   0  0  0  0  0  0
  -27.2695  -33.3651   26.2057 H   0  0  0  0  0  0
  -28.3837  -32.6866   25.0282 H   0  0  0  0  0  0
  -28.0734  -31.8463   26.5388 H   0  0  0  0  0  0
  -28.2614  -38.0105   24.7530 H   0  0  0  0  0  0
  -28.1097  -36.2637   24.6285 H   0  0  0  0  0  0
  -27.2304  -37.1428   25.8864 H   0  0  0  0  0  0
  -20.9270  -29.8777   21.7015 H   0  0  0  0  0  0
  -26.0217  -38.2870   24.1399 H   0  0  0  0  0  0
  -32.8059  -16.2653   21.6721 H   0  0  0  0  0  0
  -34.5330  -18.0313   21.1998 H   0  0  0  0  0  0
  -34.6918  -17.8038   22.9481 H   0  0  0  0  0  0
  -35.2835  -19.2889   22.1920 H   0  0  0  0  0  0
  -30.9608  -24.7874   22.2581 H   0  0  0  0  0  0
  -30.5129  -26.2479   21.4210 H   0  0  0  0  0  0
  -31.1488  -24.8866   20.5122 H   0  0  0  0  0  0
  -28.5690  -24.4736   23.2865 H   0  0  0  0  0  0
  -27.1656  -24.5744   22.2359 H   0  0  0  0  0  0
  -28.1293  -26.0053   22.5703 H   0  0  0  0  0  0
  -28.0384  -22.7759   20.6087 H   0  0  0  0  0  0
  -29.6351  -22.8979   19.9311 H   0  0  0  0  0  0
  -29.6683  -20.3535   20.6753 H   0  0  0  0  0  0
  -28.2810  -20.4008   21.7568 H   0  0  0  0  0  0
  -27.4775  -24.8734   19.7213 H   0  0  0  0  0  0
  -29.0431  -25.1255   19.0208 H   0  0  0  0  0  0
  -29.2319  -15.0742   21.7317 H   0  0  0  0  0  0
  -30.7716  -20.4623   23.0999 H   0  0  0  0  0  0
  1 25  1  0  0  0
  1 30  2  0  0  0
  1 84  1  0  0  0
  2  3  1  0  0  0
  2 25  1  0  0  0
  2 89  1  0  0  0
  2 90  1  0  0  0
  3  4  1  0  0  0
  3 91  1  0  0  0
  3 92  1  0  0  0
  4  5  1  0  0  0
  4 93  1  0  0  0
  4 94  1  0  0  0
  5  6  1  0  0  0
  5 26  1  0  0  0
  5 95  1  0  0  0
  6 25  1  0  0  0
  6 96  1  0  0  0
  6 97  1  0  0  0
  7  8  2  0  0  0
  7 26  1  0  0  0
  7 29  1  0  0  0
  8  9  1  0  0  0
  8 22  1  0  0  0
  9 10  1  0  0  0
  9 27  2  0  0  0
 10 11  2  0  0  0
 10 15  1  0  0  0
 11 12  1  0  0  0
 11 98  1  0  0  0
 12 13  2  0  0  0
 12 99  1  0  0  0
 13 14  1  0  0  0
 13 31  1  0  0  0
 14 15  2  0  0  0
 14100  1  0  0  0
 15101  1  0  0  0
 16 17  2  0  0  0
 16 21  1  0  0  0
 16 31  1  0  0  0
 17 18  1  0  0  0
 17102  1  0  0  0
 18 19  2  0  0  0
 18103  1  0  0  0
 19 20  1  0  0  0
 19 24  1  0  0  0
 20 21  2  0  0  0
 20104  1  0  0  0
 21 23  1  0  0  0
 22 28  1  0  0  0
 22 32  2  0  0  0
 26 27  1  0  0  0
 28105  1  0  0  0
 28106  1  0  0  0
 29107  1  0  0  0
 29108  1  0  0  0
 33 34  1  0  0  0
 33 66  1  0  0  0
 33 70  2  0  0  0
 34 36  1  0  0  0
 34 59  1  0  0  0
 34109  1  0  0  0
 35 44  2  0  0  0
 35 45  1  0  0  0
 35 68  1  0  0  0
 36 56  1  0  0  0
 36110  1  0  0  0
 37 39  1  0  0  0
 37 47  1  0  0  0
 37 66  1  0  0  0
 37111  1  0  0  0
 38 43  2  0  0  0
 38 46  1  0  0  0
 38 47  1  0  0  0
 39 64  1  0  0  0
 39 67  2  0  0  0
 40 52  1  0  0  0
 40 53  2  0  0  0
 40 58  1  0  0  0
 41112  1  0  0  0
 41113  1  0  0  0
 41114  1  0  0  0
 41 48  1  0  0  0
 42 43  1  0  0  0
 42 66  1  0  0  0
 42115  1  0  0  0
 42116  1  0  0  0
 43 44  1  0  0  0
 44117  1  0  0  0
 45 46  2  0  0  0
 45118  1  0  0  0
 46119  1  0  0  0
 47120  1  0  0  0
 47121  1  0  0  0
 48 56  1  0  0  0
 48 65  1  0  0  0
 48122  1  0  0  0
 49 50  1  0  0  0
 49 53  1  0  0  0
 49 64  1  0  0  0
 49123  1  0  0  0
 50 51  1  0  0  0
 50124  1  0  0  0
 50125  1  0  0  0
 51 52  1  0  0  0
 51126  1  0  0  0
 51127  1  0  0  0
 52128  1  0  0  0
 52129  1  0  0  0
 53 54  1  0  0  0
 54 55  2  0  0  0
 54130  1  0  0  0
 55 57  1  0  0  0
 55131  1  0  0  0
 56 69  2  0  0  0
 57 58  2  0  0  0
 57132  1  0  0  0
 58133  1  0  0  0
 59 60  1  0  0  0
 59 61  1  0  0  0
 59 62  1  0  0  0
 60134  1  0  0  0
 60135  1  0  0  0
 60136  1  0  0  0
 61137  1  0  0  0
 61138  1  0  0  0
 61139  1  0  0  0
 62140  1  0  0  0
 62141  1  0  0  0
 62142  1  0  0  0
 63 65  1  0  0  0
 63143  1  0  0  0
 63144  1  0  0  0
 63145  1  0  0  0
 64146  1  0  0  0
 65147  1  0  0  0
 68 82  1  0  0  0
 71 72  1  0  0  0
 71 73  2  0  0  0
 71148  1  0  0  0
 72 74  2  0  0  0
 72 75  1  0  0  0
 73 84  1  0  0  0
 73 88  1  0  0  0
 74 85  1  0  0  0
 74 88  1  0  0  0
 75 77  1  0  0  0
 75 86  2  0  0  0
 76 80  1  0  0  0
 76 81  1  0  0  0
 76 87  2  0  0  0
 77149  1  0  0  0
 77150  1  0  0  0
 77151  1  0  0  0
 78152  1  0  0  0
 78153  1  0  0  0
 78154  1  0  0  0
 78 83  1  0  0  0
 79 83  1  0  0  0
 79155  1  0  0  0
 79156  1  0  0  0
 79157  1  0  0  0
 80 83  1  0  0  0
 80158  1  0  0  0
 80159  1  0  0  0
 81 85  1  0  0  0
 81160  1  0  0  0
 81161  1  0  0  0
 82 83  1  0  0  0
 82162  1  0  0  0
 82163  1  0  0  0
 84164  1  0  0  0
 85165  1  0  0  0
M  ISO  4   1 100  68 101  82 101  84 100
M  END
> <chiral flag>
0

> <version>
0

> <s_m_source_file>
/data/baiqing/PycharmProjects/Reinvent-master-3.2/result/LINK_invent/BTK/process_docking_weight1_custom_product_contain_oxygen_bond_distance_aromatic_linkinvent_7_9_3/rearranged_h_0141.sdf

> <i_m_source_file_index>
33

> <r_mmod_Potential_Energy-OPLS-2005>
-52.7716865539551

> <r_mmod_Stretch_Energy-OPLS-2005>
34.7614860534668

> <r_mmod_Bend_Energy-OPLS-2005>
126.400016784668

> <r_mmod_Torsional_Energy-OPLS-2005>
227.349563598633

> <r_mmod_Improper_Torsional_Energy-OPLS-2005>
7.79274320602417

> <r_mmod_Van_der_Waal_Energy-OPLS-2005>
150.382965087891

> <r_mmod_Electrostatic_Energy-OPLS-2005>
-377.128173828125

> <r_mmod_Solvation_Energy-OPLS-2005>
-231.500061035156

> <b_mmod_Minimization_Converged-OPLS-2005>
0

> <r_mmod_RMS_Derivative-OPLS-2005>
2.09190225601196

$$$$
33
                    3D
 Structure written by MMmdl.
182191  0  0  1  0            999 V2000
  -30.7193  -14.5216   20.5457 C   0  0  0  0  0  0
  -30.4141  -12.3249   19.4601 C   0  0  0  0  0  0
  -29.5084  -12.5065   18.2267 C   0  0  0  0  0  0
  -28.0261  -12.3680   18.6284 C   0  0  0  0  0  0
  -27.6587  -13.2224   19.8728 C   0  0  2  0  0  0
  -28.6960  -13.0585   21.0071 C   0  0  0  0  0  0
  -25.2554  -13.8205   20.5676 C   0  0  0  0  0  0
  -24.1819  -13.0463   20.9166 C   0  0  0  0  0  0
  -24.6385  -11.6923   20.8689 C   0  0  0  0  0  0
  -23.9053  -10.4298   21.0355 C   0  0  0  0  0  0
  -24.3592   -9.4210   21.9148 C   0  0  0  0  0  0
  -23.6264   -8.2259   22.0741 C   0  0  0  0  0  0
  -22.4237   -8.0290   21.3541 C   0  0  0  0  0  0
  -21.9864   -9.0266   20.4648 C   0  0  0  0  0  0
  -22.7214  -10.2142   20.3026 C   0  0  0  0  0  0
  -21.6869   -6.0693   22.5252 C   0  0  0  0  0  0
  -21.4047   -6.5610   23.8192 C   0  0  0  0  0  0
  -21.3647   -5.6776   24.9163 C   0  0  0  0  0  0
  -21.6023   -4.3033   24.7221 C   0  0  0  0  0  0
  -21.8829   -3.8119   23.4354 C   0  0  0  0  0  0
  -21.9207   -4.6925   22.3385 C   0  0  0  0  0  0
  -22.7829  -13.5229   21.1822 C   0  0  0  0  0  0
  -22.1666   -4.2108   21.0964 F   0  0  0  0  0  0
  -21.5609   -3.4523   25.7740 F   0  0  0  0  0  0
  -30.0253  -13.3480   20.4504 N   0  0  0  0  0  0
  -26.2999  -12.9399   20.3339 N   0  0  0  0  0  0
  -25.9322  -11.6536   20.5733 N   0  0  0  0  0  0
  -22.0461  -12.8229   22.0393 N   0  0  0  0  0  0
  -25.4326  -15.1920   20.4067 N   0  0  0  0  0  0
  -31.8528  -14.6080   20.0730 O   0  0  0  0  0  0
  -21.6637   -6.8841   21.4222 O   0  0  0  0  0  0
  -22.3478  -14.5499   20.6640 O   0  0  0  0  0  0
  -24.6187  -31.8655   23.2062 C   0  0  0  0  0  0
  -25.9073  -32.4791   23.8367 C   0  0  1  0  0  0
  -27.2229  -27.4013   20.1219 C   0  0  0  0  0  0
  -25.5934  -33.8578   24.2312 N   0  0  0  0  0  0
  -23.4072  -30.4869   21.5473 C   0  0  2  0  0  0
  -24.8564  -28.9554   20.1067 C   0  0  0  0  0  0
  -22.7429  -29.4617   22.4954 C   0  0  0  0  0  0
  -18.0280  -28.1355   22.8461 C   0  0  0  0  0  0
  -24.1485  -36.7296   23.2621 C   0  0  0  0  0  0
  -25.9373  -30.8253   21.3624 C   0  0  0  0  0  0
  -26.0178  -29.4571   20.7095 C   0  0  0  0  0  0
  -27.2096  -28.6898   20.7107 C   0  0  0  0  0  0
  -26.0516  -26.9233   19.4986 C   0  0  0  0  0  0
  -24.8705  -27.6898   19.4928 C   0  0  0  0  0  0
  -23.6167  -29.8233   20.1600 C   0  0  0  0  0  0
  -25.4091  -36.3073   24.0331 C   0  0  1  0  0  0
  -20.5867  -28.3637   23.1306 C   0  0  2  0  0  0
  -20.6757  -26.9359   22.5426 C   0  0  0  0  0  0
  -19.5759  -26.6359   21.5184 C   0  0  0  0  0  0
  -18.1924  -26.7914   22.1569 C   0  0  0  0  0  0
  -19.1528  -28.8814   23.2883 C   0  0  0  0  0  0
  -18.9460  -30.1423   23.8884 C   0  0  0  0  0  0
  -17.6464  -30.6553   24.0552 C   0  0  0  0  0  0
  -25.9034  -34.9453   23.5121 C   0  0  0  0  0  0
  -16.5356  -29.9051   23.6314 C   0  0  0  0  0  0
  -16.7268  -28.6471   23.0329 C   0  0  0  0  0  0
  -26.4480  -31.6548   25.0693 C   0  0  0  0  0  0
  -25.3760  -31.3733   26.1468 C   0  0  0  0  0  0
  -27.0263  -30.2960   24.6091 C   0  0  0  0  0  0
  -27.6064  -32.4243   25.7463 C   0  0  0  0  0  0
  -27.5601  -37.1758   24.8417 C   0  0  0  0  0  0
  -21.4138  -29.3001   22.3700 N   0  0  0  0  0  0
  -26.4256  -37.3787   23.9446 N   0  0  0  0  0  0
  -24.6717  -31.0736   22.0967 N   0  0  0  0  0  0
  -23.4181  -28.8154   23.3009 O   0  0  0  0  0  0
  -28.3163  -26.5625   20.1985 O   0  0  0  0  0  0
  -26.5583  -34.8927   22.4671 O   0  0  0  0  0  0
  -23.5374  -32.1413   23.7449 O   0  0  0  0  0  0
  -31.1351  -19.7610   20.5170 C   0  0  0  0  0  0
  -29.4625  -18.0558   21.0400 C   0  0  0  0  0  0
  -31.7760  -17.4137   20.6546 C   0  0  0  0  0  0
  -29.8072  -19.4358   20.8632 C   0  0  0  0  0  0
  -32.1168  -18.7590   20.4173 C   0  0  0  0  0  0
  -30.4387  -17.0150   20.9166 C   0  0  0  0  0  0
  -28.8158  -20.5455   20.9461 C   0  0  0  0  0  0
  -28.6616  -24.1453   20.9490 C   0  0  0  0  0  0
  -34.5689  -19.0852   21.1330 C   0  0  0  0  0  0
  -29.6312  -22.5574   23.8391 C   0  0  0  0  0  0
  -28.3567  -23.2740   23.3691 C   0  0  0  0  0  0
  -30.1553  -21.8193   22.6104 C   0  0  0  0  0  0
  -28.1634  -22.9508   21.8586 C   0  0  1  0  0  0
  -26.6432  -22.7600   21.6085 C   0  0  0  0  0  0
  -36.1730  -20.6310   19.9304 C   0  0  0  0  0  0
  -36.5844  -18.1426   19.9220 C   0  0  0  0  0  0
  -36.9166  -19.4642   22.0252 C   0  0  0  0  0  0
  -33.5351  -19.1143   19.9983 C   0  0  0  0  0  0
  -28.1611  -25.5897   21.2671 C   0  0  0  0  0  0
  -36.0517  -19.3297   20.7529 C   0  0  0  0  0  0
  -28.9855  -21.6780   21.7144 N   0  0  0  0  0  0
  -30.0670  -15.6118   21.0442 N   0  0  0  0  0  0
  -27.7194  -20.4068   20.2072 N   0  3  0  0  0  0
  -29.4390  -23.9359   20.0093 O   0  0  0  0  0  0
  -34.2326  -18.8570   22.3009 O   0  0  0  0  0  0
  -31.4644  -12.3833   19.1677 H   0  0  0  0  0  0
  -30.2859  -11.3279   19.8861 H   0  0  0  0  0  0
  -29.7621  -11.7713   17.4609 H   0  0  0  0  0  0
  -29.6898  -13.4862   17.7834 H   0  0  0  0  0  0
  -27.8390  -11.3149   18.8353 H   0  0  0  0  0  0
  -27.3851  -12.6360   17.7878 H   0  0  0  0  0  0
  -27.6905  -14.2648   19.5542 H   0  0  0  0  0  0
  -28.6762  -12.0388   21.3974 H   0  0  0  0  0  0
  -28.4546  -13.7014   21.8548 H   0  0  0  0  0  0
  -25.2745   -9.5671   22.4717 H   0  0  0  0  0  0
  -23.9981   -7.4627   22.7441 H   0  0  0  0  0  0
  -21.0799   -8.8782   19.8938 H   0  0  0  0  0  0
  -22.3675  -10.9661   19.6107 H   0  0  0  0  0  0
  -21.2078   -7.6118   23.9688 H   0  0  0  0  0  0
  -21.1436   -6.0499   25.9058 H   0  0  0  0  0  0
  -22.0624   -2.7582   23.2890 H   0  0  0  0  0  0
  -22.4049  -11.9897   22.4806 H   0  0  0  0  0  0
  -21.1087  -13.1281   22.2551 H   0  0  0  0  0  0
  -24.6756  -15.8595   20.5043 H   0  0  0  0  0  0
  -26.2883  -15.6166   20.0722 H   0  0  0  0  0  0
  -26.7141  -32.5492   23.1115 H   0  0  0  0  0  0
  -25.0117  -33.9736   25.0487 H   0  0  0  0  0  0
  -22.6940  -31.3019   21.4083 H   0  0  0  0  0  0
  -23.3770  -35.9600   23.3190 H   0  0  0  0  0  0
  -24.3641  -36.9005   22.2062 H   0  0  0  0  0  0
  -23.7199  -37.6452   23.6703 H   0  0  0  0  0  0
  -26.0559  -31.5912   20.5944 H   0  0  0  0  0  0
  -26.8216  -30.8761   21.9849 H   0  0  0  0  0  0
  -28.1010  -29.0665   21.1944 H   0  0  0  0  0  0
  -26.0455  -25.9435   19.0438 H   0  0  0  0  0  0
  -23.9800  -27.2958   19.0217 H   0  0  0  0  0  0
  -23.7202  -30.5971   19.3975 H   0  0  0  0  0  0
  -22.7391  -29.2432   19.8679 H   0  0  0  0  0  0
  -25.1241  -36.1917   25.0817 H   0  0  0  0  0  0
  -20.9955  -28.3225   24.1433 H   0  0  0  0  0  0
  -20.5563  -26.2255   23.3618 H   0  0  0  0  0  0
  -21.6653  -26.7360   22.1295 H   0  0  0  0  0  0
  -19.6918  -25.6270   21.1212 H   0  0  0  0  0  0
  -19.6712  -27.3159   20.6707 H   0  0  0  0  0  0
  -17.4210  -26.6685   21.3948 H   0  0  0  0  0  0
  -18.0278  -26.0033   22.8927 H   0  0  0  0  0  0
  -19.7951  -30.7234   24.2238 H   0  0  0  0  0  0
  -17.5028  -31.6235   24.5155 H   0  0  0  0  0  0
  -15.5348  -30.2942   23.7639 H   0  0  0  0  0  0
  -15.8672  -28.0781   22.7053 H   0  0  0  0  0  0
  -24.5968  -30.6977   25.7920 H   0  0  0  0  0  0
  -24.8910  -32.2916   26.4786 H   0  0  0  0  0  0
  -25.8153  -30.9071   27.0300 H   0  0  0  0  0  0
  -26.2797  -29.6759   24.1112 H   0  0  0  0  0  0
  -27.3961  -29.7148   25.4554 H   0  0  0  0  0  0
  -27.8672  -30.4222   23.9267 H   0  0  0  0  0  0
  -27.2703  -33.3546   26.2060 H   0  0  0  0  0  0
  -28.3876  -32.6789   25.0283 H   0  0  0  0  0  0
  -28.0717  -31.8347   26.5378 H   0  0  0  0  0  0
  -28.2491  -38.0176   24.7639 H   0  0  0  0  0  0
  -28.1213  -36.2734   24.5958 H   0  0  0  0  0  0
  -27.2400  -37.1089   25.8830 H   0  0  0  0  0  0
  -20.9275  -29.8780   21.6982 H   0  0  0  0  0  0
  -26.0128  -38.2828   24.1579 H   0  0  0  0  0  0
  -31.4010  -20.7916   20.3189 H   0  0  0  0  0  0
  -28.4364  -17.7979   21.2616 H   0  0  0  0  0  0
  -32.5847  -16.7044   20.6053 H   0  0  0  0  0  0
  -29.4072  -21.8524   24.6425 H   0  0  0  0  0  0
  -30.3709  -23.2627   24.2200 H   0  0  0  0  0  0
  -28.4380  -24.3396   23.5812 H   0  0  0  0  0  0
  -27.5095  -22.9254   23.9630 H   0  0  0  0  0  0
  -30.6142  -20.8782   22.9214 H   0  0  0  0  0  0
  -30.9318  -22.4091   22.1187 H   0  0  0  0  0  0
  -26.0652  -23.4816   22.1872 H   0  0  0  0  0  0
  -26.2909  -21.7809   21.9314 H   0  0  0  0  0  0
  -26.3676  -22.9091   20.5642 H   0  0  0  0  0  0
  -35.7379  -20.5237   18.9364 H   0  0  0  0  0  0
  -37.2158  -20.9164   19.7907 H   0  0  0  0  0  0
  -35.6705  -21.4671   20.4197 H   0  0  0  0  0  0
  -36.0563  -18.0319   18.9745 H   0  0  0  0  0  0
  -36.4898  -17.1985   20.4624 H   0  0  0  0  0  0
  -37.6410  -18.2760   19.6845 H   0  0  0  0  0  0
  -36.5839  -20.2925   22.6526 H   0  0  0  0  0  0
  -37.9634  -19.6438   21.7775 H   0  0  0  0  0  0
  -36.8817  -18.5579   22.6325 H   0  0  0  0  0  0
  -33.5329  -20.1042   19.5431 H   0  0  0  0  0  0
  -33.8485  -18.4167   19.2226 H   0  0  0  0  0  0
  -28.7188  -25.9642   22.1246 H   0  0  0  0  0  0
  -27.1211  -25.5218   21.5891 H   0  0  0  0  0  0
  -29.1467  -15.4262   21.4110 H   0  0  0  0  0  0
  -27.6524  -19.6286   19.5688 H   0  0  0  0  0  0
  -26.9620  -21.0659   20.2537 H   0  0  0  0  0  0
  1 25  1  0  0  0
  1 30  2  0  0  0
  1 92  1  0  0  0
  2  3  1  0  0  0
  2 25  1  0  0  0
  2 96  1  0  0  0
  2 97  1  0  0  0
  3  4  1  0  0  0
  3 98  1  0  0  0
  3 99  1  0  0  0
  4  5  1  0  0  0
  4100  1  0  0  0
  4101  1  0  0  0
  5  6  1  0  0  0
  5 26  1  0  0  0
  5102  1  0  0  0
  6 25  1  0  0  0
  6103  1  0  0  0
  6104  1  0  0  0
  7  8  2  0  0  0
  7 26  1  0  0  0
  7 29  1  0  0  0
  8  9  1  0  0  0
  8 22  1  0  0  0
  9 10  1  0  0  0
  9 27  2  0  0  0
 10 11  2  0  0  0
 10 15  1  0  0  0
 11 12  1  0  0  0
 11105  1  0  0  0
 12 13  2  0  0  0
 12106  1  0  0  0
 13 14  1  0  0  0
 13 31  1  0  0  0
 14 15  2  0  0  0
 14107  1  0  0  0
 15108  1  0  0  0
 16 17  2  0  0  0
 16 21  1  0  0  0
 16 31  1  0  0  0
 17 18  1  0  0  0
 17109  1  0  0  0
 18 19  2  0  0  0
 18110  1  0  0  0
 19 20  1  0  0  0
 19 24  1  0  0  0
 20 21  2  0  0  0
 20111  1  0  0  0
 21 23  1  0  0  0
 22 28  1  0  0  0
 22 32  2  0  0  0
 26 27  1  0  0  0
 28112  1  0  0  0
 28113  1  0  0  0
 29114  1  0  0  0
 29115  1  0  0  0
 33 34  1  0  0  0
 33 66  1  0  0  0
 33 70  2  0  0  0
 34 36  1  0  0  0
 34 59  1  0  0  0
 34116  1  0  0  0
 35 44  2  0  0  0
 35 45  1  0  0  0
 35 68  1  0  0  0
 36 56  1  0  0  0
 36117  1  0  0  0
 37 39  1  0  0  0
 37 47  1  0  0  0
 37 66  1  0  0  0
 37118  1  0  0  0
 38 43  2  0  0  0
 38 46  1  0  0  0
 38 47  1  0  0  0
 39 64  1  0  0  0
 39 67  2  0  0  0
 40 52  1  0  0  0
 40 53  2  0  0  0
 40 58  1  0  0  0
 41119  1  0  0  0
 41120  1  0  0  0
 41121  1  0  0  0
 41 48  1  0  0  0
 42 43  1  0  0  0
 42 66  1  0  0  0
 42122  1  0  0  0
 42123  1  0  0  0
 43 44  1  0  0  0
 44124  1  0  0  0
 45 46  2  0  0  0
 45125  1  0  0  0
 46126  1  0  0  0
 47127  1  0  0  0
 47128  1  0  0  0
 48 56  1  0  0  0
 48 65  1  0  0  0
 48129  1  0  0  0
 49 50  1  0  0  0
 49 53  1  0  0  0
 49 64  1  0  0  0
 49130  1  0  0  0
 50 51  1  0  0  0
 50131  1  0  0  0
 50132  1  0  0  0
 51 52  1  0  0  0
 51133  1  0  0  0
 51134  1  0  0  0
 52135  1  0  0  0
 52136  1  0  0  0
 53 54  1  0  0  0
 54 55  2  0  0  0
 54137  1  0  0  0
 55 57  1  0  0  0
 55138  1  0  0  0
 56 69  2  0  0  0
 57 58  2  0  0  0
 57139  1  0  0  0
 58140  1  0  0  0
 59 60  1  0  0  0
 59 61  1  0  0  0
 59 62  1  0  0  0
 60141  1  0  0  0
 60142  1  0  0  0
 60143  1  0  0  0
 61144  1  0  0  0
 61145  1  0  0  0
 61146  1  0  0  0
 62147  1  0  0  0
 62148  1  0  0  0
 62149  1  0  0  0
 63 65  1  0  0  0
 63150  1  0  0  0
 63151  1  0  0  0
 63152  1  0  0  0
 64153  1  0  0  0
 65154  1  0  0  0
 68 89  1  0  0  0
 71 74  2  0  0  0
 71 75  1  0  0  0
 71155  1  0  0  0
 72 74  1  0  0  0
 72 76  2  0  0  0
 72156  1  0  0  0
 73 75  2  0  0  0
 73 76  1  0  0  0
 73157  1  0  0  0
 74 77  1  0  0  0
 75 88  1  0  0  0
 76 92  1  0  0  0
 77 91  1  0  0  0
 77 93  2  0  0  0
 78 89  1  0  0  0
 78 94  2  0  0  0
 78 83  1  0  0  0
 79 88  1  0  0  0
 79 90  1  0  0  0
 79 95  2  0  0  0
 80 81  1  0  0  0
 80 82  1  0  0  0
 80158  1  0  0  0
 80159  1  0  0  0
 81 83  1  0  0  0
 81160  1  0  0  0
 81161  1  0  0  0
 82 91  1  0  0  0
 82162  1  0  0  0
 82163  1  0  0  0
 83 84  1  0  0  0
 83 91  1  0  0  0
 84164  1  0  0  0
 84165  1  0  0  0
 84166  1  0  0  0
 85167  1  0  0  0
 85168  1  0  0  0
 85169  1  0  0  0
 85 90  1  0  0  0
 86 90  1  0  0  0
 86170  1  0  0  0
 86171  1  0  0  0
 86172  1  0  0  0
 87 90  1  0  0  0
 87173  1  0  0  0
 87174  1  0  0  0
 87175  1  0  0  0
 88176  1  0  0  0
 88177  1  0  0  0
 89178  1  0  0  0
 89179  1  0  0  0
 92180  1  0  0  0
 93181  1  0  0  0
 93182  1  0  0  0
M  CHG  1  93   1
M  ISO  4   1 100  68 101  89 101  92 100
M  END
> <chiral flag>
0

> <version>
0

> <s_m_source_file>
/data/baiqing/PycharmProjects/Reinvent-master-3.2/result/LINK_invent/BTK/process_docking_weight1_custom_product_contain_oxygen_bond_distance_aromatic_linkinvent_7_9_3/rearranged_h_0141.sdf

> <i_m_source_file_index>
34

> <r_mmod_Potential_Energy-OPLS-2005>
-2.24863839149475

> <r_mmod_Stretch_Energy-OPLS-2005>
67.0813217163086

> <r_mmod_Bend_Energy-OPLS-2005>
156.485061645508

> <r_mmod_Torsional_Energy-OPLS-2005>
330.733428955078

> <r_mmod_Improper_Torsional_Energy-OPLS-2005>
3.86499333381653

> <r_mmod_Van_der_Waal_Energy-OPLS-2005>
170.290161132812

> <r_mmod_Electrostatic_Energy-OPLS-2005>
-351.576019287109

> <r_mmod_Solvation_Energy-OPLS-2005>
-404.975952148438

> <b_mmod_Minimization_Converged-OPLS-2005>
0

> <r_mmod_RMS_Derivative-OPLS-2005>
3.7283730506897

$$$$
34
                    3D
 Structure written by MMmdl.
168176  0  0  1  0            999 V2000
  -30.7304  -14.3908   20.6125 C   0  0  0  0  0  0
  -30.4237  -12.2690   19.4030 C   0  0  0  0  0  0
  -29.4925  -12.5132   18.1975 C   0  0  0  0  0  0
  -28.0113  -12.3936   18.6078 C   0  0  0  0  0  0
  -27.6736  -13.2015   19.8879 C   0  0  2  0  0  0
  -28.7145  -12.9286   21.0008 C   0  0  0  0  0  0
  -25.2652  -13.8148   20.5700 C   0  0  0  0  0  0
  -24.1860  -13.0438   20.9155 C   0  0  0  0  0  0
  -24.6422  -11.6910   20.8735 C   0  0  0  0  0  0
  -23.9082  -10.4298   21.0407 C   0  0  0  0  0  0
  -24.3628   -9.4207   21.9194 C   0  0  0  0  0  0
  -23.6296   -8.2252   22.0770 C   0  0  0  0  0  0
  -22.4279   -8.0289   21.3561 C   0  0  0  0  0  0
  -21.9912   -9.0268   20.4661 C   0  0  0  0  0  0
  -22.7247  -10.2139   20.3064 C   0  0  0  0  0  0
  -21.6845   -6.0733   22.5283 C   0  0  0  0  0  0
  -21.4019   -6.5647   23.8212 C   0  0  0  0  0  0
  -21.3656   -5.6793   24.9178 C   0  0  0  0  0  0
  -21.6040   -4.3060   24.7222 C   0  0  0  0  0  0
  -21.8814   -3.8149   23.4351 C   0  0  0  0  0  0
  -21.9201   -4.6969   22.3402 C   0  0  0  0  0  0
  -22.7884  -13.5242   21.1796 C   0  0  0  0  0  0
  -22.1659   -4.2155   21.0985 F   0  0  0  0  0  0
  -21.5625   -3.4542   25.7741 F   0  0  0  0  0  0
  -30.0597  -13.2186   20.4637 N   0  0  0  0  0  0
  -26.3106  -12.9308   20.3407 N   0  0  0  0  0  0
  -25.9368  -11.6478   20.5792 N   0  0  0  0  0  0
  -22.0520  -12.8279   22.0371 N   0  0  0  0  0  0
  -25.4365  -15.1881   20.4163 N   0  0  0  0  0  0
  -31.7841  -14.6600   20.0285 O   0  0  0  0  0  0
  -21.6639   -6.8889   21.4246 O   0  0  0  0  0  0
  -22.3595  -14.5548   20.6621 O   0  0  0  0  0  0
  -24.6154  -31.8701   23.2119 C   0  0  0  0  0  0
  -25.9037  -32.4825   23.8376 C   0  0  1  0  0  0
  -27.2016  -27.4331   20.1004 C   0  0  0  0  0  0
  -25.5902  -33.8627   24.2278 N   0  0  0  0  0  0
  -23.4025  -30.5007   21.5494 C   0  0  2  0  0  0
  -24.8459  -28.9899   20.0818 C   0  0  0  0  0  0
  -22.7393  -29.4672   22.4905 C   0  0  0  0  0  0
  -18.0293  -28.1185   22.8595 C   0  0  0  0  0  0
  -24.1490  -36.7319   23.2632 C   0  0  0  0  0  0
  -25.9330  -30.8328   21.3686 C   0  0  0  0  0  0
  -26.0031  -29.4764   20.7018 C   0  0  0  0  0  0
  -27.1890  -28.7094   20.7023 C   0  0  0  0  0  0
  -26.0517  -26.9982   19.4010 C   0  0  0  0  0  0
  -24.8721  -27.7573   19.4140 C   0  0  0  0  0  0
  -23.6042  -29.8494   20.1532 C   0  0  0  0  0  0
  -25.4107  -36.3096   24.0313 C   0  0  1  0  0  0
  -20.5824  -28.3742   23.1253 C   0  0  2  0  0  0
  -20.6934  -26.9469   22.5354 C   0  0  0  0  0  0
  -19.5710  -26.5917   21.5550 C   0  0  0  0  0  0
  -18.2038  -26.7528   22.2231 C   0  0  0  0  0  0
  -19.1478  -28.8792   23.2847 C   0  0  0  0  0  0
  -18.9281  -30.1431   23.8787 C   0  0  0  0  0  0
  -17.6237  -30.6497   24.0385 C   0  0  0  0  0  0
  -25.9038  -34.9474   23.5092 C   0  0  0  0  0  0
  -16.5210  -29.8857   23.6122 C   0  0  0  0  0  0
  -16.7270  -28.6219   23.0316 C   0  0  0  0  0  0
  -26.4465  -31.6617   25.0709 C   0  0  0  0  0  0
  -25.3678  -31.3746   26.1417 C   0  0  0  0  0  0
  -27.0329  -30.3058   24.6112 C   0  0  0  0  0  0
  -27.6051  -32.4337   25.7436 C   0  0  0  0  0  0
  -27.5588  -37.1822   24.8470 C   0  0  0  0  0  0
  -21.4088  -29.3179   22.3757 N   0  0  0  0  0  0
  -26.4292  -37.3786   23.9404 N   0  0  0  0  0  0
  -24.6685  -31.0817   22.1016 N   0  0  0  0  0  0
  -23.4214  -28.8097   23.2808 O   0  0  0  0  0  0
  -28.3227  -26.6266   20.2234 O   0  0  0  0  0  0
  -26.5630  -34.8937   22.4677 O   0  0  0  0  0  0
  -23.5344  -32.1400   23.7523 O   0  0  0  0  0  0
  -29.2012  -16.6817   19.5539 C   0  0  0  0  0  0
  -28.1040  -18.7884   20.0897 C   0  0  0  0  0  0
  -29.1843  -17.4936   21.8510 C   0  0  0  0  0  0
  -28.4630  -17.8076   19.1347 C   0  0  0  0  0  0
  -29.5379  -16.5001   20.9160 C   0  0  0  0  0  0
  -28.4770  -18.6438   21.4473 C   0  0  0  0  0  0
  -28.0819  -17.9286   17.6994 C   0  0  0  0  0  0
  -27.9321  -21.9469   21.5047 C   0  0  0  0  0  0
  -27.0004  -18.9379   17.3344 C   0  0  0  0  0  0
  -27.5618  -24.4123   23.1445 C   0  0  0  0  0  0
  -25.7202  -25.0591   21.6499 C   0  0  0  0  0  0
  -26.9666  -23.0426   21.0591 C   0  0  0  0  0  0
  -27.2674  -20.7164   22.1518 C   0  0  0  0  0  0
  -28.2212  -25.2690   20.7736 C   0  0  0  0  0  0
  -27.1510  -24.4758   21.6477 C   0  0  0  0  0  0
  -30.1202  -15.2933   21.3919 N   0  0  0  0  0  0
  -28.1581  -19.5905   22.4303 N   0  0  0  0  0  0
  -28.5707  -17.2281   16.8126 O   0  0  0  0  0  0
  -29.1538  -22.0330   21.3357 O   0  0  0  0  0  0
  -31.4689  -12.3610   19.0988 H   0  0  0  0  0  0
  -30.3156  -11.2454   19.7671 H   0  0  0  0  0  0
  -29.7155  -11.8005   17.4035 H   0  0  0  0  0  0
  -29.6832  -13.5033   17.7798 H   0  0  0  0  0  0
  -27.7944  -11.3349   18.7693 H   0  0  0  0  0  0
  -27.3712  -12.7106   17.7835 H   0  0  0  0  0  0
  -27.7326  -14.2562   19.6262 H   0  0  0  0  0  0
  -28.6726  -11.8833   21.3108 H   0  0  0  0  0  0
  -28.4747  -13.5000   21.8978 H   0  0  0  0  0  0
  -25.2763   -9.5679   22.4775 H   0  0  0  0  0  0
  -23.9985   -7.4649   22.7508 H   0  0  0  0  0  0
  -21.0827   -8.8803   19.8985 H   0  0  0  0  0  0
  -22.3708  -10.9692   19.6182 H   0  0  0  0  0  0
  -21.2009   -7.6157   23.9721 H   0  0  0  0  0  0
  -21.1474   -6.0528   25.9078 H   0  0  0  0  0  0
  -22.0600   -2.7621   23.2850 H   0  0  0  0  0  0
  -22.4090  -11.9945   22.4779 H   0  0  0  0  0  0
  -21.1156  -13.1358   22.2533 H   0  0  0  0  0  0
  -24.6771  -15.8425   20.5661 H   0  0  0  0  0  0
  -26.3055  -15.6387   20.1640 H   0  0  0  0  0  0
  -26.7113  -32.5504   23.1170 H   0  0  0  0  0  0
  -25.0096  -33.9750   25.0451 H   0  0  0  0  0  0
  -22.6863  -31.3164   21.4193 H   0  0  0  0  0  0
  -23.3737  -35.9685   23.3324 H   0  0  0  0  0  0
  -24.3608  -36.8915   22.2047 H   0  0  0  0  0  0
  -23.7265  -37.6532   23.6651 H   0  0  0  0  0  0
  -26.0504  -31.6012   20.6049 H   0  0  0  0  0  0
  -26.8197  -30.8743   21.9910 H   0  0  0  0  0  0
  -28.0863  -29.0623   21.1926 H   0  0  0  0  0  0
  -26.0350  -26.0471   18.8868 H   0  0  0  0  0  0
  -23.9982  -27.3947   18.8894 H   0  0  0  0  0  0
  -23.6967  -30.6315   19.3985 H   0  0  0  0  0  0
  -22.7244  -29.2758   19.8595 H   0  0  0  0  0  0
  -25.1295  -36.1962   25.0806 H   0  0  0  0  0  0
  -20.9783  -28.3350   24.1433 H   0  0  0  0  0  0
  -20.6555  -26.2329   23.3590 H   0  0  0  0  0  0
  -21.6635  -26.7849   22.0700 H   0  0  0  0  0  0
  -19.6998  -25.5657   21.2112 H   0  0  0  0  0  0
  -19.6307  -27.2350   20.6746 H   0  0  0  0  0  0
  -17.4020  -26.5673   21.5062 H   0  0  0  0  0  0
  -18.0819  -26.0050   23.0079 H   0  0  0  0  0  0
  -19.7677  -30.7346   24.2132 H   0  0  0  0  0  0
  -17.4584  -31.6182   24.4854 H   0  0  0  0  0  0
  -15.5137  -30.2620   23.7248 H   0  0  0  0  0  0
  -15.8772  -28.0396   22.7072 H   0  0  0  0  0  0
  -24.5842  -30.7146   25.7689 H   0  0  0  0  0  0
  -24.8882  -32.2922   26.4803 H   0  0  0  0  0  0
  -25.7923  -30.8895   27.0195 H   0  0  0  0  0  0
  -26.2900  -29.6791   24.1164 H   0  0  0  0  0  0
  -27.4116  -29.7311   25.4552 H   0  0  0  0  0  0
  -27.8710  -30.4378   23.9273 H   0  0  0  0  0  0
  -27.2713  -33.3638   26.2030 H   0  0  0  0  0  0
  -28.3838  -32.6899   25.0244 H   0  0  0  0  0  0
  -28.0784  -31.8473   26.5317 H   0  0  0  0  0  0
  -28.2595  -38.0113   24.7497 H   0  0  0  0  0  0
  -28.1075  -36.2646   24.6318 H   0  0  0  0  0  0
  -27.2321  -37.1500   25.8873 H   0  0  0  0  0  0
  -20.9127  -29.9283   21.7437 H   0  0  0  0  0  0
  -26.0178  -38.2866   24.1416 H   0  0  0  0  0  0
  -29.4526  -15.9294   18.8191 H   0  0  0  0  0  0
  -27.5547  -19.6572   19.7633 H   0  0  0  0  0  0
  -29.4402  -17.3619   22.8936 H   0  0  0  0  0  0
  -26.0948  -18.7595   17.9168 H   0  0  0  0  0  0
  -26.7474  -18.8446   16.2785 H   0  0  0  0  0  0
  -27.3446  -19.9553   17.5199 H   0  0  0  0  0  0
  -26.8707  -23.7927   23.7167 H   0  0  0  0  0  0
  -27.5411  -25.4054   23.5966 H   0  0  0  0  0  0
  -28.5669  -24.0119   23.2952 H   0  0  0  0  0  0
  -25.0747  -24.5350   22.3557 H   0  0  0  0  0  0
  -25.2411  -24.9332   20.6792 H   0  0  0  0  0  0
  -25.6975  -26.1121   21.9355 H   0  0  0  0  0  0
  -25.9758  -22.6774   21.3253 H   0  0  0  0  0  0
  -26.9745  -23.0692   19.9699 H   0  0  0  0  0  0
  -26.4367  -20.3854   21.5283 H   0  0  0  0  0  0
  -26.8213  -21.0453   23.0952 H   0  0  0  0  0  0
  -28.2651  -26.0043   21.5750 H   0  0  0  0  0  0
  -27.6981  -25.1183   19.8344 H   0  0  0  0  0  0
  -29.6144  -14.8838   22.1645 H   0  0  0  0  0  0
  -28.6504  -19.5848   23.3197 H   0  0  0  0  0  0
  1 25  1  0  0  0
  1 30  2  0  0  0
  1 86  1  0  0  0
  2  3  1  0  0  0
  2 25  1  0  0  0
  2 90  1  0  0  0
  2 91  1  0  0  0
  3  4  1  0  0  0
  3 92  1  0  0  0
  3 93  1  0  0  0
  4  5  1  0  0  0
  4 94  1  0  0  0
  4 95  1  0  0  0
  5  6  1  0  0  0
  5 26  1  0  0  0
  5 96  1  0  0  0
  6 25  1  0  0  0
  6 97  1  0  0  0
  6 98  1  0  0  0
  7  8  2  0  0  0
  7 26  1  0  0  0
  7 29  1  0  0  0
  8  9  1  0  0  0
  8 22  1  0  0  0
  9 10  1  0  0  0
  9 27  2  0  0  0
 10 11  2  0  0  0
 10 15  1  0  0  0
 11 12  1  0  0  0
 11 99  1  0  0  0
 12 13  2  0  0  0
 12100  1  0  0  0
 13 14  1  0  0  0
 13 31  1  0  0  0
 14 15  2  0  0  0
 14101  1  0  0  0
 15102  1  0  0  0
 16 17  2  0  0  0
 16 21  1  0  0  0
 16 31  1  0  0  0
 17 18  1  0  0  0
 17103  1  0  0  0
 18 19  2  0  0  0
 18104  1  0  0  0
 19 20  1  0  0  0
 19 24  1  0  0  0
 20 21  2  0  0  0
 20105  1  0  0  0
 21 23  1  0  0  0
 22 28  1  0  0  0
 22 32  2  0  0  0
 26 27  1  0  0  0
 28106  1  0  0  0
 28107  1  0  0  0
 29108  1  0  0  0
 29109  1  0  0  0
 33 34  1  0  0  0
 33 66  1  0  0  0
 33 70  2  0  0  0
 34 36  1  0  0  0
 34 59  1  0  0  0
 34110  1  0  0  0
 35 44  2  0  0  0
 35 45  1  0  0  0
 35 68  1  0  0  0
 36 56  1  0  0  0
 36111  1  0  0  0
 37 39  1  0  0  0
 37 47  1  0  0  0
 37 66  1  0  0  0
 37112  1  0  0  0
 38 43  2  0  0  0
 38 46  1  0  0  0
 38 47  1  0  0  0
 39 64  1  0  0  0
 39 67  2  0  0  0
 40 52  1  0  0  0
 40 53  2  0  0  0
 40 58  1  0  0  0
 41113  1  0  0  0
 41114  1  0  0  0
 41115  1  0  0  0
 41 48  1  0  0  0
 42 43  1  0  0  0
 42 66  1  0  0  0
 42116  1  0  0  0
 42117  1  0  0  0
 43 44  1  0  0  0
 44118  1  0  0  0
 45 46  2  0  0  0
 45119  1  0  0  0
 46120  1  0  0  0
 47121  1  0  0  0
 47122  1  0  0  0
 48 56  1  0  0  0
 48 65  1  0  0  0
 48123  1  0  0  0
 49 50  1  0  0  0
 49 53  1  0  0  0
 49 64  1  0  0  0
 49124  1  0  0  0
 50 51  1  0  0  0
 50125  1  0  0  0
 50126  1  0  0  0
 51 52  1  0  0  0
 51127  1  0  0  0
 51128  1  0  0  0
 52129  1  0  0  0
 52130  1  0  0  0
 53 54  1  0  0  0
 54 55  2  0  0  0
 54131  1  0  0  0
 55 57  1  0  0  0
 55132  1  0  0  0
 56 69  2  0  0  0
 57 58  2  0  0  0
 57133  1  0  0  0
 58134  1  0  0  0
 59 60  1  0  0  0
 59 61  1  0  0  0
 59 62  1  0  0  0
 60135  1  0  0  0
 60136  1  0  0  0
 60137  1  0  0  0
 61138  1  0  0  0
 61139  1  0  0  0
 61140  1  0  0  0
 62141  1  0  0  0
 62142  1  0  0  0
 62143  1  0  0  0
 63 65  1  0  0  0
 63144  1  0  0  0
 63145  1  0  0  0
 63146  1  0  0  0
 64147  1  0  0  0
 65148  1  0  0  0
 68 84  1  0  0  0
 71 74  2  0  0  0
 71 75  1  0  0  0
 71149  1  0  0  0
 72 74  1  0  0  0
 72 76  2  0  0  0
 72150  1  0  0  0
 73 75  2  0  0  0
 73 76  1  0  0  0
 73151  1  0  0  0
 74 77  1  0  0  0
 75 86  1  0  0  0
 76 87  1  0  0  0
 77 79  1  0  0  0
 77 88  2  0  0  0
 78 82  1  0  0  0
 78 83  1  0  0  0
 78 89  2  0  0  0
 79152  1  0  0  0
 79153  1  0  0  0
 79154  1  0  0  0
 80155  1  0  0  0
 80156  1  0  0  0
 80157  1  0  0  0
 80 85  1  0  0  0
 81 85  1  0  0  0
 81158  1  0  0  0
 81159  1  0  0  0
 81160  1  0  0  0
 82 85  1  0  0  0
 82161  1  0  0  0
 82162  1  0  0  0
 83 87  1  0  0  0
 83163  1  0  0  0
 83164  1  0  0  0
 84 85  1  0  0  0
 84165  1  0  0  0
 84166  1  0  0  0
 86167  1  0  0  0
 87168  1  0  0  0
M  ISO  4   1 100  68 101  84 101  86 100
M  END
> <chiral flag>
0

> <version>
0

> <s_m_source_file>
/data/baiqing/PycharmProjects/Reinvent-master-3.2/result/LINK_invent/BTK/process_docking_weight1_custom_product_contain_oxygen_bond_distance_aromatic_linkinvent_7_9_3/rearranged_h_0141.sdf

> <i_m_source_file_index>
35

> <r_mmod_Potential_Energy-OPLS-2005>
260.215850830078

> <r_mmod_Stretch_Energy-OPLS-2005>
44.7909355163574

> <r_mmod_Bend_Energy-OPLS-2005>
356.319610595703

> <r_mmod_Torsional_Energy-OPLS-2005>
278.823333740234

> <r_mmod_Improper_Torsional_Energy-OPLS-2005>
5.88638210296631

> <r_mmod_Van_der_Waal_Energy-OPLS-2005>
180.125854492188

> <r_mmod_Electrostatic_Energy-OPLS-2005>
-374.5927734375

> <r_mmod_Solvation_Energy-OPLS-2005>
-249.583267211914

> <b_mmod_Minimization_Converged-OPLS-2005>
0

> <r_mmod_RMS_Derivative-OPLS-2005>
6.61554574966431

$$$$
35
                    3D
 Structure written by MMmdl.
163171  0  0  1  0            999 V2000
  -30.7491  -14.4532   20.5761 C   0  0  0  0  0  0
  -30.4044  -12.2949   19.4314 C   0  0  0  0  0  0
  -29.4869  -12.5145   18.2125 C   0  0  0  0  0  0
  -28.0090  -12.3803   18.6229 C   0  0  0  0  0  0
  -27.6616  -13.2168   19.8838 C   0  0  2  0  0  0
  -28.7077  -13.0086   21.0054 C   0  0  0  0  0  0
  -25.2573  -13.8193   20.5697 C   0  0  0  0  0  0
  -24.1826  -13.0435   20.9188 C   0  0  0  0  0  0
  -24.6398  -11.6912   20.8739 C   0  0  0  0  0  0
  -23.9070  -10.4284   21.0399 C   0  0  0  0  0  0
  -24.3623   -9.4199   21.9177 C   0  0  0  0  0  0
  -23.6292   -8.2239   22.0744 C   0  0  0  0  0  0
  -22.4277   -8.0281   21.3540 C   0  0  0  0  0  0
  -21.9915   -9.0251   20.4641 C   0  0  0  0  0  0
  -22.7245  -10.2131   20.3049 C   0  0  0  0  0  0
  -21.6861   -6.0733   22.5277 C   0  0  0  0  0  0
  -21.4014   -6.5633   23.8211 C   0  0  0  0  0  0
  -21.3664   -5.6789   24.9175 C   0  0  0  0  0  0
  -21.6056   -4.3053   24.7232 C   0  0  0  0  0  0
  -21.8820   -3.8145   23.4350 C   0  0  0  0  0  0
  -21.9189   -4.6959   22.3405 C   0  0  0  0  0  0
  -22.7851  -13.5205   21.1865 C   0  0  0  0  0  0
  -22.1648   -4.2143   21.0980 F   0  0  0  0  0  0
  -21.5640   -3.4534   25.7742 F   0  0  0  0  0  0
  -30.0424  -13.2937   20.4518 N   0  0  0  0  0  0
  -26.3026  -12.9374   20.3438 N   0  0  0  0  0  0
  -25.9328  -11.6517   20.5797 N   0  0  0  0  0  0
  -22.0521  -12.8163   22.0434 N   0  0  0  0  0  0
  -25.4299  -15.1907   20.4060 N   0  0  0  0  0  0
  -31.8639  -14.5875   20.0692 O   0  0  0  0  0  0
  -21.6645   -6.8878   21.4240 O   0  0  0  0  0  0
  -22.3505  -14.5505   20.6732 O   0  0  0  0  0  0
  -24.6167  -31.8675   23.2173 C   0  0  0  0  0  0
  -25.9056  -32.4824   23.8432 C   0  0  1  0  0  0
  -27.2224  -27.4335   20.0850 C   0  0  0  0  0  0
  -25.5923  -33.8632   24.2347 N   0  0  0  0  0  0
  -23.3991  -30.5003   21.5593 C   0  0  2  0  0  0
  -24.8425  -28.9880   20.1091 C   0  0  0  0  0  0
  -22.7415  -29.4643   22.5002 C   0  0  0  0  0  0
  -18.0257  -28.1336   22.8501 C   0  0  0  0  0  0
  -24.1482  -36.7332   23.2642 C   0  0  0  0  0  0
  -25.9338  -30.8385   21.3695 C   0  0  0  0  0  0
  -26.0098  -29.4773   20.7113 C   0  0  0  0  0  0
  -27.2021  -28.7095   20.7007 C   0  0  0  0  0  0
  -26.0284  -26.9891   19.4544 C   0  0  0  0  0  0
  -24.8498  -27.7413   19.4777 C   0  0  0  0  0  0
  -23.6038  -29.8524   20.1675 C   0  0  0  0  0  0
  -25.4102  -36.3117   24.0336 C   0  0  1  0  0  0
  -20.5853  -28.3636   23.1329 C   0  0  2  0  0  0
  -20.6756  -26.9373   22.5429 C   0  0  0  0  0  0
  -19.5722  -26.6362   21.5233 C   0  0  0  0  0  0
  -18.1898  -26.7880   22.1638 C   0  0  0  0  0  0
  -19.1503  -28.8800   23.2913 C   0  0  0  0  0  0
  -18.9434  -30.1410   23.8924 C   0  0  0  0  0  0
  -17.6440  -30.6562   24.0549 C   0  0  0  0  0  0
  -25.9032  -34.9479   23.5129 C   0  0  0  0  0  0
  -16.5332  -29.9053   23.6321 C   0  0  0  0  0  0
  -16.7247  -28.6460   23.0358 C   0  0  0  0  0  0
  -26.4475  -31.6591   25.0745 C   0  0  0  0  0  0
  -25.3762  -31.3713   26.1509 C   0  0  0  0  0  0
  -27.0284  -30.3029   24.6090 C   0  0  0  0  0  0
  -27.6018  -32.4329   25.7529 C   0  0  0  0  0  0
  -27.5562  -37.1817   24.8453 C   0  0  0  0  0  0
  -21.4135  -29.3019   22.3750 N   0  0  0  0  0  0
  -26.4275  -37.3806   23.9403 N   0  0  0  0  0  0
  -24.6683  -31.0796   22.1074 N   0  0  0  0  0  0
  -23.4214  -28.8147   23.2988 O   0  0  0  0  0  0
  -28.3617  -26.6344   20.1316 O   0  0  0  0  0  0
  -26.5571  -34.8912   22.4682 O   0  0  0  0  0  0
  -23.5365  -32.1399   23.7591 O   0  0  0  0  0  0
  -29.4802  -17.8432   21.1096 C   0  0  0  0  0  0
  -31.3871  -19.1122   20.6297 C   0  0  0  0  0  0
  -30.0344  -19.1336   20.8226 C   0  0  0  0  0  0
  -30.3982  -16.8148   21.0598 C   0  0  0  0  0  0
  -29.1808  -20.3228   20.6348 C   0  0  0  0  0  0
  -29.5364  -21.5111   20.0845 C   0  0  0  0  0  0
  -28.4749  -22.6269   18.1978 C   0  0  0  0  0  0
  -27.1760  -22.4108   20.2976 C   0  0  0  0  0  0
  -30.4658  -24.5165   19.4845 C   0  0  0  0  0  0
  -29.4369  -24.1459   21.7263 C   0  0  0  0  0  0
  -28.0959  -25.2352   19.8969 C   0  0  0  0  0  0
  -28.6033  -22.6938   19.7398 C   0  0  0  0  0  0
  -29.1540  -24.1306   20.2085 C   0  0  0  0  0  0
  -30.1148  -15.4805   21.1839 N   0  0  0  0  0  0
  -32.0050  -17.4918   20.7904 S   0  0  0  0  0  0
  -31.4526  -12.3540   19.1355 H   0  0  0  0  0  0
  -30.2639  -11.2887   19.8314 H   0  0  0  0  0  0
  -29.7181  -11.7934   17.4274 H   0  0  0  0  0  0
  -29.6654  -13.5029   17.7854 H   0  0  0  0  0  0
  -27.8157  -11.3236   18.8101 H   0  0  0  0  0  0
  -27.3583  -12.6637   17.7945 H   0  0  0  0  0  0
  -27.7005  -14.2650   19.5869 H   0  0  0  0  0  0
  -28.6779  -11.9770   21.3602 H   0  0  0  0  0  0
  -28.4752  -13.6204   21.8773 H   0  0  0  0  0  0
  -25.2777   -9.5663   22.4744 H   0  0  0  0  0  0
  -24.0011   -7.4620   22.7434 H   0  0  0  0  0  0
  -21.0864   -8.8762   19.8928 H   0  0  0  0  0  0
  -22.3710  -10.9664   19.6155 H   0  0  0  0  0  0
  -21.2002   -7.6142   23.9708 H   0  0  0  0  0  0
  -21.1490   -6.0525   25.9075 H   0  0  0  0  0  0
  -22.0599   -2.7602   23.2856 H   0  0  0  0  0  0
  -22.4148  -11.9804   22.4775 H   0  0  0  0  0  0
  -21.1143  -13.1178   22.2680 H   0  0  0  0  0  0
  -24.6694  -15.8557   20.5007 H   0  0  0  0  0  0
  -26.2870  -15.6205   20.0788 H   0  0  0  0  0  0
  -26.7138  -32.5522   23.1205 H   0  0  0  0  0  0
  -25.0118  -33.9828   25.0515 H   0  0  0  0  0  0
  -22.6841  -31.3167   21.4339 H   0  0  0  0  0  0
  -23.3726  -35.9683   23.3316 H   0  0  0  0  0  0
  -24.3592  -36.8929   22.2054 H   0  0  0  0  0  0
  -23.7232  -37.6547   23.6643 H   0  0  0  0  0  0
  -26.0410  -31.6059   20.6018 H   0  0  0  0  0  0
  -26.8249  -30.8921   21.9834 H   0  0  0  0  0  0
  -28.0944  -29.0840   21.1830 H   0  0  0  0  0  0
  -25.9534  -26.0513   18.9287 H   0  0  0  0  0  0
  -23.9613  -27.3563   18.9952 H   0  0  0  0  0  0
  -23.7041  -30.6387   19.4183 H   0  0  0  0  0  0
  -22.7258  -29.2757   19.8686 H   0  0  0  0  0  0
  -25.1274  -36.1986   25.0827 H   0  0  0  0  0  0
  -20.9942  -28.3190   24.1452 H   0  0  0  0  0  0
  -20.5684  -26.2246   23.3616 H   0  0  0  0  0  0
  -21.6620  -26.7420   22.1204 H   0  0  0  0  0  0
  -19.6896  -25.6292   21.1205 H   0  0  0  0  0  0
  -19.6641  -27.3229   20.6807 H   0  0  0  0  0  0
  -17.4186  -26.6659   21.4016 H   0  0  0  0  0  0
  -18.0274  -25.9994   22.9002 H   0  0  0  0  0  0
  -19.7917  -30.7192   24.2328 H   0  0  0  0  0  0
  -17.4995  -31.6248   24.5120 H   0  0  0  0  0  0
  -15.5327  -30.2956   23.7625 H   0  0  0  0  0  0
  -15.8649  -28.0773   22.7081 H   0  0  0  0  0  0
  -24.5945  -30.7012   25.7906 H   0  0  0  0  0  0
  -24.8954  -32.2885   26.4922 H   0  0  0  0  0  0
  -25.8162  -30.8945   27.0275 H   0  0  0  0  0  0
  -26.2821  -29.6822   24.1104 H   0  0  0  0  0  0
  -27.4016  -29.7204   25.4521 H   0  0  0  0  0  0
  -27.8680  -30.4352   23.9263 H   0  0  0  0  0  0
  -27.2588  -33.3621   26.2099 H   0  0  0  0  0  0
  -28.3853  -32.6894   25.0388 H   0  0  0  0  0  0
  -28.0642  -31.8449   26.5462 H   0  0  0  0  0  0
  -28.2579  -38.0110   24.7497 H   0  0  0  0  0  0
  -28.1039  -36.2631   24.6279 H   0  0  0  0  0  0
  -27.2279  -37.1493   25.8856 H   0  0  0  0  0  0
  -20.9278  -29.8836   21.7063 H   0  0  0  0  0  0
  -26.0148  -38.2873   24.1425 H   0  0  0  0  0  0
  -28.4197  -17.7100   21.2751 H   0  0  0  0  0  0
  -32.0564  -19.9274   20.3853 H   0  0  0  0  0  0
  -28.1639  -20.1638   20.9555 H   0  0  0  0  0  0
  -30.5650  -21.6467   19.7914 H   0  0  0  0  0  0
  -28.1012  -21.6514   17.8855 H   0  0  0  0  0  0
  -29.4312  -22.7583   17.6929 H   0  0  0  0  0  0
  -27.7823  -23.3581   17.7855 H   0  0  0  0  0  0
  -26.7908  -21.4504   19.9541 H   0  0  0  0  0  0
  -26.4316  -23.1262   19.9539 H   0  0  0  0  0  0
  -27.1506  -22.3997   21.3881 H   0  0  0  0  0  0
  -30.8704  -25.4495   19.8795 H   0  0  0  0  0  0
  -30.3159  -24.6790   18.4179 H   0  0  0  0  0  0
  -31.2414  -23.7614   19.5944 H   0  0  0  0  0  0
  -29.8080  -25.1218   22.0441 H   0  0  0  0  0  0
  -30.1904  -23.4097   22.0061 H   0  0  0  0  0  0
  -28.5403  -23.9431   22.3111 H   0  0  0  0  0  0
  -27.2177  -25.0013   20.4975 H   0  0  0  0  0  0
  -27.8346  -25.1606   18.8448 H   0  0  0  0  0  0
  -29.2152  -15.2501   21.5769 H   0  0  0  0  0  0
  1 25  1  0  0  0
  1 30  2  0  0  0
  1 84  1  0  0  0
  2  3  1  0  0  0
  2 25  1  0  0  0
  2 86  1  0  0  0
  2 87  1  0  0  0
  3  4  1  0  0  0
  3 88  1  0  0  0
  3 89  1  0  0  0
  4  5  1  0  0  0
  4 90  1  0  0  0
  4 91  1  0  0  0
  5  6  1  0  0  0
  5 26  1  0  0  0
  5 92  1  0  0  0
  6 25  1  0  0  0
  6 93  1  0  0  0
  6 94  1  0  0  0
  7  8  2  0  0  0
  7 26  1  0  0  0
  7 29  1  0  0  0
  8  9  1  0  0  0
  8 22  1  0  0  0
  9 10  1  0  0  0
  9 27  2  0  0  0
 10 11  2  0  0  0
 10 15  1  0  0  0
 11 12  1  0  0  0
 11 95  1  0  0  0
 12 13  2  0  0  0
 12 96  1  0  0  0
 13 14  1  0  0  0
 13 31  1  0  0  0
 14 15  2  0  0  0
 14 97  1  0  0  0
 15 98  1  0  0  0
 16 17  2  0  0  0
 16 21  1  0  0  0
 16 31  1  0  0  0
 17 18  1  0  0  0
 17 99  1  0  0  0
 18 19  2  0  0  0
 18100  1  0  0  0
 19 20  1  0  0  0
 19 24  1  0  0  0
 20 21  2  0  0  0
 20101  1  0  0  0
 21 23  1  0  0  0
 22 28  1  0  0  0
 22 32  2  0  0  0
 26 27  1  0  0  0
 28102  1  0  0  0
 28103  1  0  0  0
 29104  1  0  0  0
 29105  1  0  0  0
 33 34  1  0  0  0
 33 66  1  0  0  0
 33 70  2  0  0  0
 34 36  1  0  0  0
 34 59  1  0  0  0
 34106  1  0  0  0
 35 44  2  0  0  0
 35 45  1  0  0  0
 35 68  1  0  0  0
 36 56  1  0  0  0
 36107  1  0  0  0
 37 39  1  0  0  0
 37 47  1  0  0  0
 37 66  1  0  0  0
 37108  1  0  0  0
 38 43  2  0  0  0
 38 46  1  0  0  0
 38 47  1  0  0  0
 39 64  1  0  0  0
 39 67  2  0  0  0
 40 52  1  0  0  0
 40 53  2  0  0  0
 40 58  1  0  0  0
 41109  1  0  0  0
 41110  1  0  0  0
 41111  1  0  0  0
 41 48  1  0  0  0
 42 43  1  0  0  0
 42 66  1  0  0  0
 42112  1  0  0  0
 42113  1  0  0  0
 43 44  1  0  0  0
 44114  1  0  0  0
 45 46  2  0  0  0
 45115  1  0  0  0
 46116  1  0  0  0
 47117  1  0  0  0
 47118  1  0  0  0
 48 56  1  0  0  0
 48 65  1  0  0  0
 48119  1  0  0  0
 49 50  1  0  0  0
 49 53  1  0  0  0
 49 64  1  0  0  0
 49120  1  0  0  0
 50 51  1  0  0  0
 50121  1  0  0  0
 50122  1  0  0  0
 51 52  1  0  0  0
 51123  1  0  0  0
 51124  1  0  0  0
 52125  1  0  0  0
 52126  1  0  0  0
 53 54  1  0  0  0
 54 55  2  0  0  0
 54127  1  0  0  0
 55 57  1  0  0  0
 55128  1  0  0  0
 56 69  2  0  0  0
 57 58  2  0  0  0
 57129  1  0  0  0
 58130  1  0  0  0
 59 60  1  0  0  0
 59 61  1  0  0  0
 59 62  1  0  0  0
 60131  1  0  0  0
 60132  1  0  0  0
 60133  1  0  0  0
 61134  1  0  0  0
 61135  1  0  0  0
 61136  1  0  0  0
 62137  1  0  0  0
 62138  1  0  0  0
 62139  1  0  0  0
 63 65  1  0  0  0
 63140  1  0  0  0
 63141  1  0  0  0
 63142  1  0  0  0
 64143  1  0  0  0
 65144  1  0  0  0
 68 81  1  0  0  0
 71 73  1  0  0  0
 71 74  2  0  0  0
 71145  1  0  0  0
 72 73  2  0  0  0
 72 85  1  0  0  0
 72146  1  0  0  0
 73 75  1  0  0  0
 74 84  1  0  0  0
 74 85  1  0  0  0
 75 76  2  0  0  0
 75147  1  0  0  0
 76 82  1  0  0  0
 76148  1  0  0  0
 77149  1  0  0  0
 77150  1  0  0  0
 77151  1  0  0  0
 77 82  1  0  0  0
 78 82  1  0  0  0
 78152  1  0  0  0
 78153  1  0  0  0
 78154  1  0  0  0
 79155  1  0  0  0
 79156  1  0  0  0
 79157  1  0  0  0
 79 83  1  0  0  0
 80 83  1  0  0  0
 80158  1  0  0  0
 80159  1  0  0  0
 80160  1  0  0  0
 81 83  1  0  0  0
 81161  1  0  0  0
 81162  1  0  0  0
 82 83  1  0  0  0
 84163  1  0  0  0
M  ISO  4   1 100  68 101  81 101  84 100
M  END
> <chiral flag>
0

> <version>
0

> <s_m_source_file>
/data/baiqing/PycharmProjects/Reinvent-master-3.2/result/LINK_invent/BTK/process_docking_weight1_custom_product_contain_oxygen_bond_distance_aromatic_linkinvent_7_9_3/rearranged_h_0141.sdf

> <i_m_source_file_index>
36

> <r_mmod_Potential_Energy-OPLS-2005>
-21.0778293609619

> <r_mmod_Stretch_Energy-OPLS-2005>
48.565544128418

> <r_mmod_Bend_Energy-OPLS-2005>
125.936660766602

> <r_mmod_Torsional_Energy-OPLS-2005>
219.881866455078

> <r_mmod_Improper_Torsional_Energy-OPLS-2005>
4.46064376831055

> <r_mmod_Van_der_Waal_Energy-OPLS-2005>
172.797760009766

> <r_mmod_Electrostatic_Energy-OPLS-2005>
-406.269256591797

> <r_mmod_Solvation_Energy-OPLS-2005>
-202.075531005859

> <b_mmod_Minimization_Converged-OPLS-2005>
0

> <r_mmod_RMS_Derivative-OPLS-2005>
3.0537223815918

$$$$
36
                    3D
 Structure written by MMmdl.
170178  0  0  1  0            999 V2000
  -30.6799  -14.5240   20.4699 C   0  0  0  0  0  0
  -30.4177  -12.3113   19.4432 C   0  0  0  0  0  0
  -29.4994  -12.4814   18.2152 C   0  0  0  0  0  0
  -28.0193  -12.3473   18.6246 C   0  0  0  0  0  0
  -27.6543  -13.2117   19.8605 C   0  0  2  0  0  0
  -28.6958  -13.0526   20.9910 C   0  0  0  0  0  0
  -25.2558  -13.8163   20.5670 C   0  0  0  0  0  0
  -24.1810  -13.0444   20.9176 C   0  0  0  0  0  0
  -24.6358  -11.6905   20.8718 C   0  0  0  0  0  0
  -23.9027  -10.4288   21.0390 C   0  0  0  0  0  0
  -24.3581   -9.4209   21.9169 C   0  0  0  0  0  0
  -23.6273   -8.2237   22.0741 C   0  0  0  0  0  0
  -22.4255   -8.0259   21.3538 C   0  0  0  0  0  0
  -21.9884   -9.0225   20.4646 C   0  0  0  0  0  0
  -22.7198  -10.2114   20.3045 C   0  0  0  0  0  0
  -21.6854   -6.0715   22.5275 C   0  0  0  0  0  0
  -21.4011   -6.5619   23.8199 C   0  0  0  0  0  0
  -21.3664   -5.6775   24.9166 C   0  0  0  0  0  0
  -21.6051   -4.3044   24.7230 C   0  0  0  0  0  0
  -21.8817   -3.8128   23.4349 C   0  0  0  0  0  0
  -21.9190   -4.6936   22.3402 C   0  0  0  0  0  0
  -22.7836  -13.5238   21.1849 C   0  0  0  0  0  0
  -22.1660   -4.2116   21.0986 F   0  0  0  0  0  0
  -21.5629   -3.4542   25.7755 F   0  0  0  0  0  0
  -30.0236  -13.3324   20.4266 N   0  0  0  0  0  0
  -26.2977  -12.9342   20.3289 N   0  0  0  0  0  0
  -25.9285  -11.6498   20.5725 N   0  0  0  0  0  0
  -22.0473  -12.8226   22.0412 N   0  0  0  0  0  0
  -25.4325  -15.1876   20.4095 N   0  0  0  0  0  0
  -31.8700  -14.6262   20.1647 O   0  0  0  0  0  0
  -21.6633   -6.8852   21.4236 O   0  0  0  0  0  0
  -22.3524  -14.5560   20.6722 O   0  0  0  0  0  0
  -24.6157  -31.8687   23.2095 C   0  0  0  0  0  0
  -25.9051  -32.4822   23.8398 C   0  0  1  0  0  0
  -27.2303  -27.4348   20.1000 C   0  0  0  0  0  0
  -25.5909  -33.8619   24.2342 N   0  0  0  0  0  0
  -23.4040  -30.4926   21.5501 C   0  0  2  0  0  0
  -24.8511  -28.9586   20.1112 C   0  0  0  0  0  0
  -22.7417  -29.4673   22.4985 C   0  0  0  0  0  0
  -18.0279  -28.1376   22.8497 C   0  0  0  0  0  0
  -24.1487  -36.7309   23.2644 C   0  0  0  0  0  0
  -25.9331  -30.8349   21.3624 C   0  0  0  0  0  0
  -26.0118  -29.4703   20.7072 C   0  0  0  0  0  0
  -27.2086  -28.7172   20.6946 C   0  0  0  0  0  0
  -26.0584  -26.9378   19.4953 C   0  0  0  0  0  0
  -24.8696  -27.6928   19.4986 C   0  0  0  0  0  0
  -23.6122  -29.8250   20.1642 C   0  0  0  0  0  0
  -25.4108  -36.3114   24.0348 C   0  0  1  0  0  0
  -20.5873  -28.3669   23.1313 C   0  0  2  0  0  0
  -20.6770  -26.9403   22.5416 C   0  0  0  0  0  0
  -19.5746  -26.6388   21.5216 C   0  0  0  0  0  0
  -18.1923  -26.7926   22.1621 C   0  0  0  0  0  0
  -19.1530  -28.8838   23.2903 C   0  0  0  0  0  0
  -18.9455  -30.1443   23.8917 C   0  0  0  0  0  0
  -17.6458  -30.6581   24.0566 C   0  0  0  0  0  0
  -25.9035  -34.9476   23.5138 C   0  0  0  0  0  0
  -16.5349  -29.9084   23.6323 C   0  0  0  0  0  0
  -16.7271  -28.6498   23.0351 C   0  0  0  0  0  0
  -26.4482  -31.6598   25.0716 C   0  0  0  0  0  0
  -25.3761  -31.3701   26.1479 C   0  0  0  0  0  0
  -27.0312  -30.3042   24.6090 C   0  0  0  0  0  0
  -27.6070  -32.4309   25.7462 C   0  0  0  0  0  0
  -27.5585  -37.1805   24.8466 C   0  0  0  0  0  0
  -21.4149  -29.3035   22.3712 N   0  0  0  0  0  0
  -26.4298  -37.3794   23.9411 N   0  0  0  0  0  0
  -24.6691  -31.0795   22.0991 N   0  0  0  0  0  0
  -23.4186  -28.8219   23.3038 O   0  0  0  0  0  0
  -28.3632  -26.6530   20.1199 O   0  0  0  0  0  0
  -26.5586  -34.8928   22.4692 O   0  0  0  0  0  0
  -23.5350  -32.1434   23.7494 O   0  0  0  0  0  0
  -30.1454  -19.3879   18.6123 C   0  0  0  0  0  0
  -30.8312  -17.0631   18.8300 C   0  0  0  0  0  0
  -29.3003  -18.0332   20.4561 C   0  0  0  0  0  0
  -30.8971  -18.2932   18.1483 C   0  0  0  0  0  0
  -29.3491  -19.2871   19.7738 C   0  0  0  0  0  0
  -30.0364  -16.9039   19.9937 C   0  0  0  0  0  0
  -28.4918  -22.9349   21.2658 C   0  0  0  0  0  0
  -27.1459  -20.1251   20.7701 C   0  0  0  0  0  0
  -30.6668  -21.9717   20.3688 C   0  0  0  0  0  0
  -29.6624  -21.0235   22.4277 C   0  0  0  0  0  0
  -31.7602  -18.4359   16.9028 C   0  0  0  0  0  0
  -28.6120  -24.1480   20.3036 C   0  0  0  0  0  0
  -28.2562  -25.5013   20.9821 C   0  0  0  0  0  0
  -28.5241  -20.5324   20.1966 C   0  0  1  0  0  0
  -29.3156  -21.6171   21.0378 C   0  0  0  0  0  0
  -29.9042  -15.6227   20.6502 N   0  0  0  0  0  0
  -33.1439  -18.7891   17.2456 N   0  3  0  0  0  0
  -27.7201  -23.0112   22.2275 O   0  0  0  0  0  0
  -31.4656  -12.3942   19.1471 H   0  0  0  0  0  0
  -30.3066  -11.3138   19.8718 H   0  0  0  0  0  0
  -29.7426  -11.7323   17.4604 H   0  0  0  0  0  0
  -29.6703  -13.4532   17.7472 H   0  0  0  0  0  0
  -27.8307  -11.2956   18.8442 H   0  0  0  0  0  0
  -27.3727  -12.6033   17.7854 H   0  0  0  0  0  0
  -27.6806  -14.2483   19.5226 H   0  0  0  0  0  0
  -28.6729  -12.0394   21.3956 H   0  0  0  0  0  0
  -28.4661  -13.7167   21.8263 H   0  0  0  0  0  0
  -25.2717   -9.5699   22.4746 H   0  0  0  0  0  0
  -23.9984   -7.4630   22.7455 H   0  0  0  0  0  0
  -21.0810   -8.8735   19.8960 H   0  0  0  0  0  0
  -22.3637  -10.9637   19.6153 H   0  0  0  0  0  0
  -21.2008   -7.6126   23.9689 H   0  0  0  0  0  0
  -21.1489   -6.0516   25.9066 H   0  0  0  0  0  0
  -22.0602   -2.7588   23.2865 H   0  0  0  0  0  0
  -22.4088  -11.9908   22.4814 H   0  0  0  0  0  0
  -21.1087  -13.1253   22.2609 H   0  0  0  0  0  0
  -24.6754  -15.8519   20.5279 H   0  0  0  0  0  0
  -26.2845  -15.6193   20.0735 H   0  0  0  0  0  0
  -26.7124  -32.5539   23.1165 H   0  0  0  0  0  0
  -25.0080  -33.9779   25.0502 H   0  0  0  0  0  0
  -22.6925  -31.3092   21.4118 H   0  0  0  0  0  0
  -23.3750  -35.9639   23.3313 H   0  0  0  0  0  0
  -24.3588  -36.8909   22.2056 H   0  0  0  0  0  0
  -23.7234  -37.6518   23.6642 H   0  0  0  0  0  0
  -26.0486  -31.6023   20.5957 H   0  0  0  0  0  0
  -26.8198  -30.8861   21.9819 H   0  0  0  0  0  0
  -28.1041  -29.1056   21.1586 H   0  0  0  0  0  0
  -26.0652  -25.9618   19.0314 H   0  0  0  0  0  0
  -23.9787  -27.2943   19.0319 H   0  0  0  0  0  0
  -23.7175  -30.6001   19.4047 H   0  0  0  0  0  0
  -22.7357  -29.2453   19.8702 H   0  0  0  0  0  0
  -25.1280  -36.1985   25.0844 H   0  0  0  0  0  0
  -20.9979  -28.3247   24.1432 H   0  0  0  0  0  0
  -20.5686  -26.2280   23.3610 H   0  0  0  0  0  0
  -21.6641  -26.7446   22.1206 H   0  0  0  0  0  0
  -19.6904  -25.6307   21.1233 H   0  0  0  0  0  0
  -19.6680  -27.3210   20.6757 H   0  0  0  0  0  0
  -17.4198  -26.6695   21.4015 H   0  0  0  0  0  0
  -18.0301  -26.0063   22.9008 H   0  0  0  0  0  0
  -19.7932  -30.7248   24.2301 H   0  0  0  0  0  0
  -17.5013  -31.6267   24.5157 H   0  0  0  0  0  0
  -15.5349  -30.2985   23.7639 H   0  0  0  0  0  0
  -15.8674  -28.0816   22.7058 H   0  0  0  0  0  0
  -24.5875  -30.7127   25.7804 H   0  0  0  0  0  0
  -24.9026  -32.2864   26.5015 H   0  0  0  0  0  0
  -25.8112  -30.8777   27.0184 H   0  0  0  0  0  0
  -26.2846  -29.6780   24.1194 H   0  0  0  0  0  0
  -27.4148  -29.7300   25.4533 H   0  0  0  0  0  0
  -27.8653  -30.4363   23.9192 H   0  0  0  0  0  0
  -27.2702  -33.3588   26.2096 H   0  0  0  0  0  0
  -28.3837  -32.6911   25.0255 H   0  0  0  0  0  0
  -28.0796  -31.8406   26.5323 H   0  0  0  0  0  0
  -28.2614  -38.0094   24.7512 H   0  0  0  0  0  0
  -28.1069  -36.2626   24.6284 H   0  0  0  0  0  0
  -27.2305  -37.1456   25.8871 H   0  0  0  0  0  0
  -20.9311  -29.8741   21.6917 H   0  0  0  0  0  0
  -26.0191  -38.2878   24.1398 H   0  0  0  0  0  0
  -30.1808  -20.3189   18.0654 H   0  0  0  0  0  0
  -31.3876  -16.2354   18.4162 H   0  0  0  0  0  0
  -28.6804  -17.9274   21.3348 H   0  0  0  0  0  0
  -26.6349  -19.4381   20.0942 H   0  0  0  0  0  0
  -26.4877  -20.9847   20.8951 H   0  0  0  0  0  0
  -27.2205  -19.6310   21.7381 H   0  0  0  0  0  0
  -31.1755  -22.7857   20.8870 H   0  0  0  0  0  0
  -30.5374  -22.2730   19.3288 H   0  0  0  0  0  0
  -31.3553  -21.1269   20.3746 H   0  0  0  0  0  0
  -30.1993  -21.7467   23.0434 H   0  0  0  0  0  0
  -30.2961  -20.1407   22.3426 H   0  0  0  0  0  0
  -28.7742  -20.7296   22.9875 H   0  0  0  0  0  0
  -31.3449  -19.2011   16.2450 H   0  0  0  0  0  0
  -31.7461  -17.5035   16.3377 H   0  0  0  0  0  0
  -27.9505  -23.9745   19.4560 H   0  0  0  0  0  0
  -29.6216  -24.2209   19.9071 H   0  0  0  0  0  0
  -28.9409  -25.6686   21.8145 H   0  0  0  0  0  0
  -27.2645  -25.4360   21.4366 H   0  0  0  0  0  0
  -28.2764  -21.0280   19.2558 H   0  0  0  0  0  0
  -29.0125  -15.4491   21.0886 H   0  0  0  0  0  0
  -33.1771  -19.6981   17.6681 H   0  0  0  0  0  0
  -33.7045  -18.8058   16.4124 H   0  0  0  0  0  0
  -33.5338  -18.1164   17.8799 H   0  0  0  0  0  0
  1 25  1  0  0  0
  1 30  2  0  0  0
  1 86  1  0  0  0
  2  3  1  0  0  0
  2 25  1  0  0  0
  2 89  1  0  0  0
  2 90  1  0  0  0
  3  4  1  0  0  0
  3 91  1  0  0  0
  3 92  1  0  0  0
  4  5  1  0  0  0
  4 93  1  0  0  0
  4 94  1  0  0  0
  5  6  1  0  0  0
  5 26  1  0  0  0
  5 95  1  0  0  0
  6 25  1  0  0  0
  6 96  1  0  0  0
  6 97  1  0  0  0
  7  8  2  0  0  0
  7 26  1  0  0  0
  7 29  1  0  0  0
  8  9  1  0  0  0
  8 22  1  0  0  0
  9 10  1  0  0  0
  9 27  2  0  0  0
 10 11  2  0  0  0
 10 15  1  0  0  0
 11 12  1  0  0  0
 11 98  1  0  0  0
 12 13  2  0  0  0
 12 99  1  0  0  0
 13 14  1  0  0  0
 13 31  1  0  0  0
 14 15  2  0  0  0
 14100  1  0  0  0
 15101  1  0  0  0
 16 17  2  0  0  0
 16 21  1  0  0  0
 16 31  1  0  0  0
 17 18  1  0  0  0
 17102  1  0  0  0
 18 19  2  0  0  0
 18103  1  0  0  0
 19 20  1  0  0  0
 19 24  1  0  0  0
 20 21  2  0  0  0
 20104  1  0  0  0
 21 23  1  0  0  0
 22 28  1  0  0  0
 22 32  2  0  0  0
 26 27  1  0  0  0
 28105  1  0  0  0
 28106  1  0  0  0
 29107  1  0  0  0
 29108  1  0  0  0
 33 34  1  0  0  0
 33 66  1  0  0  0
 33 70  2  0  0  0
 34 36  1  0  0  0
 34 59  1  0  0  0
 34109  1  0  0  0
 35 44  2  0  0  0
 35 45  1  0  0  0
 35 68  1  0  0  0
 36 56  1  0  0  0
 36110  1  0  0  0
 37 39  1  0  0  0
 37 47  1  0  0  0
 37 66  1  0  0  0
 37111  1  0  0  0
 38 43  2  0  0  0
 38 46  1  0  0  0
 38 47  1  0  0  0
 39 64  1  0  0  0
 39 67  2  0  0  0
 40 52  1  0  0  0
 40 53  2  0  0  0
 40 58  1  0  0  0
 41112  1  0  0  0
 41113  1  0  0  0
 41114  1  0  0  0
 41 48  1  0  0  0
 42 43  1  0  0  0
 42 66  1  0  0  0
 42115  1  0  0  0
 42116  1  0  0  0
 43 44  1  0  0  0
 44117  1  0  0  0
 45 46  2  0  0  0
 45118  1  0  0  0
 46119  1  0  0  0
 47120  1  0  0  0
 47121  1  0  0  0
 48 56  1  0  0  0
 48 65  1  0  0  0
 48122  1  0  0  0
 49 50  1  0  0  0
 49 53  1  0  0  0
 49 64  1  0  0  0
 49123  1  0  0  0
 50 51  1  0  0  0
 50124  1  0  0  0
 50125  1  0  0  0
 51 52  1  0  0  0
 51126  1  0  0  0
 51127  1  0  0  0
 52128  1  0  0  0
 52129  1  0  0  0
 53 54  1  0  0  0
 54 55  2  0  0  0
 54130  1  0  0  0
 55 57  1  0  0  0
 55131  1  0  0  0
 56 69  2  0  0  0
 57 58  2  0  0  0
 57132  1  0  0  0
 58133  1  0  0  0
 59 60  1  0  0  0
 59 61  1  0  0  0
 59 62  1  0  0  0
 60134  1  0  0  0
 60135  1  0  0  0
 60136  1  0  0  0
 61137  1  0  0  0
 61138  1  0  0  0
 61139  1  0  0  0
 62140  1  0  0  0
 62141  1  0  0  0
 62142  1  0  0  0
 63 65  1  0  0  0
 63143  1  0  0  0
 63144  1  0  0  0
 63145  1  0  0  0
 64146  1  0  0  0
 65147  1  0  0  0
 68 83  1  0  0  0
 71 74  2  0  0  0
 71 75  1  0  0  0
 71148  1  0  0  0
 72 74  1  0  0  0
 72 76  2  0  0  0
 72149  1  0  0  0
 73 75  2  0  0  0
 73 76  1  0  0  0
 73150  1  0  0  0
 74 81  1  0  0  0
 75 84  1  0  0  0
 76 86  1  0  0  0
 77 82  1  0  0  0
 77 85  1  0  0  0
 77 88  2  0  0  0
 78151  1  0  0  0
 78152  1  0  0  0
 78153  1  0  0  0
 78 84  1  0  0  0
 79154  1  0  0  0
 79155  1  0  0  0
 79156  1  0  0  0
 79 85  1  0  0  0
 80 85  1  0  0  0
 80157  1  0  0  0
 80158  1  0  0  0
 80159  1  0  0  0
 81 87  1  0  0  0
 81160  1  0  0  0
 81161  1  0  0  0
 82 83  1  0  0  0
 82162  1  0  0  0
 82163  1  0  0  0
 83164  1  0  0  0
 83165  1  0  0  0
 84 85  1  0  0  0
 84166  1  0  0  0
 86167  1  0  0  0
 87168  1  0  0  0
 87169  1  0  0  0
 87170  1  0  0  0
M  CHG  1  87   1
M  ISO  4   1 100  68 101  83 101  86 100
M  END
> <chiral flag>
0

> <version>
0

> <s_m_source_file>
/data/baiqing/PycharmProjects/Reinvent-master-3.2/result/LINK_invent/BTK/process_docking_weight1_custom_product_contain_oxygen_bond_distance_aromatic_linkinvent_7_9_3/rearranged_h_0141.sdf

> <i_m_source_file_index>
37

> <r_mmod_Potential_Energy-OPLS-2005>
-290.703643798828

> <r_mmod_Stretch_Energy-OPLS-2005>
51.0076751708984

> <r_mmod_Bend_Energy-OPLS-2005>
105.151733398438

> <r_mmod_Torsional_Energy-OPLS-2005>
259.693115234375

> <r_mmod_Improper_Torsional_Energy-OPLS-2005>
6.0738263130188

> <r_mmod_Van_der_Waal_Energy-OPLS-2005>
162.433792114258

> <r_mmod_Electrostatic_Energy-OPLS-2005>
-393.576965332031

> <r_mmod_Solvation_Energy-OPLS-2005>
-504.047607421875

> <b_mmod_Minimization_Converged-OPLS-2005>
0

> <r_mmod_RMS_Derivative-OPLS-2005>
2.17461633682251

$$$$
37
                    3D
 Structure written by MMmdl.
161170  0  0  1  0            999 V2000
  -30.6522  -14.5385   20.5496 C   0  0  0  0  0  0
  -30.4380  -12.3334   19.4516 C   0  0  0  0  0  0
  -29.5113  -12.4945   18.2261 C   0  0  0  0  0  0
  -28.0322  -12.3456   18.6338 C   0  0  0  0  0  0
  -27.6623  -13.2074   19.8713 C   0  0  2  0  0  0
  -28.6981  -13.0128   21.0022 C   0  0  0  0  0  0
  -25.2606  -13.8172   20.5681 C   0  0  0  0  0  0
  -24.1857  -13.0448   20.9180 C   0  0  0  0  0  0
  -24.6406  -11.6912   20.8729 C   0  0  0  0  0  0
  -23.9071  -10.4305   21.0419 C   0  0  0  0  0  0
  -24.3626   -9.4210   21.9187 C   0  0  0  0  0  0
  -23.6304   -8.2252   22.0742 C   0  0  0  0  0  0
  -22.4286   -8.0301   21.3538 C   0  0  0  0  0  0
  -21.9909   -9.0282   20.4645 C   0  0  0  0  0  0
  -22.7241  -10.2158   20.3071 C   0  0  0  0  0  0
  -21.6849   -6.0753   22.5277 C   0  0  0  0  0  0
  -21.4022   -6.5644   23.8221 C   0  0  0  0  0  0
  -21.3657   -5.6783   24.9168 C   0  0  0  0  0  0
  -21.6049   -4.3051   24.7209 C   0  0  0  0  0  0
  -21.8816   -3.8151   23.4326 C   0  0  0  0  0  0
  -21.9188   -4.6978   22.3387 C   0  0  0  0  0  0
  -22.7884  -13.5256   21.1848 C   0  0  0  0  0  0
  -22.1660   -4.2173   21.0965 F   0  0  0  0  0  0
  -21.5614   -3.4516   25.7710 F   0  0  0  0  0  0
  -30.0311  -13.3281   20.4608 N   0  0  0  0  0  0
  -26.3027  -12.9330   20.3329 N   0  0  0  0  0  0
  -25.9327  -11.6487   20.5750 N   0  0  0  0  0  0
  -22.0495  -12.8265   22.0396 N   0  0  0  0  0  0
  -25.4349  -15.1897   20.4149 N   0  0  0  0  0  0
  -31.7660  -14.7493   20.0598 O   0  0  0  0  0  0
  -21.6641   -6.8905   21.4246 O   0  0  0  0  0  0
  -22.3587  -14.5566   20.6693 O   0  0  0  0  0  0
  -24.6187  -31.8665   23.2067 C   0  0  0  0  0  0
  -25.9062  -32.4812   23.8380 C   0  0  1  0  0  0
  -27.2236  -27.3833   20.1421 C   0  0  0  0  0  0
  -25.5908  -33.8605   24.2313 N   0  0  0  0  0  0
  -23.4096  -30.4896   21.5475 C   0  0  2  0  0  0
  -24.8590  -28.9519   20.1127 C   0  0  0  0  0  0
  -22.7444  -29.4660   22.4967 C   0  0  0  0  0  0
  -18.0288  -28.1391   22.8489 C   0  0  0  0  0  0
  -24.1483  -36.7298   23.2629 C   0  0  0  0  0  0
  -25.9435  -30.8222   21.3645 C   0  0  0  0  0  0
  -26.0221  -29.4537   20.7124 C   0  0  0  0  0  0
  -27.2124  -28.6794   20.7180 C   0  0  0  0  0  0
  -26.0480  -26.9158   19.5172 C   0  0  0  0  0  0
  -24.8705  -27.6851   19.5063 C   0  0  0  0  0  0
  -23.6212  -29.8209   20.1630 C   0  0  0  0  0  0
  -25.4101  -36.3098   24.0337 C   0  0  1  0  0  0
  -20.5878  -28.3687   23.1305 C   0  0  2  0  0  0
  -20.6763  -26.9406   22.5437 C   0  0  0  0  0  0
  -19.5747  -26.6392   21.5218 C   0  0  0  0  0  0
  -18.1920  -26.7941   22.1614 C   0  0  0  0  0  0
  -19.1536  -28.8856   23.2896 C   0  0  0  0  0  0
  -18.9461  -30.1457   23.8912 C   0  0  0  0  0  0
  -17.6461  -30.6584   24.0577 C   0  0  0  0  0  0
  -25.9044  -34.9469   23.5130 C   0  0  0  0  0  0
  -16.5359  -29.9090   23.6323 C   0  0  0  0  0  0
  -16.7274  -28.6513   23.0340 C   0  0  0  0  0  0
  -26.4475  -31.6594   25.0714 C   0  0  0  0  0  0
  -25.3753  -31.3777   26.1499 C   0  0  0  0  0  0
  -27.0245  -30.2996   24.6118 C   0  0  0  0  0  0
  -27.6087  -32.4301   25.7439 C   0  0  0  0  0  0
  -27.5595  -37.1791   24.8449 C   0  0  0  0  0  0
  -21.4166  -29.3038   22.3697 N   0  0  0  0  0  0
  -26.4282  -37.3790   23.9425 N   0  0  0  0  0  0
  -24.6756  -31.0744   22.0978 N   0  0  0  0  0  0
  -23.4195  -28.8206   23.3030 O   0  0  0  0  0  0
  -28.3252  -26.5447   20.2192 O   0  0  0  0  0  0
  -26.5608  -34.8933   22.4692 O   0  0  0  0  0  0
  -23.5373  -32.1426   23.7445 O   0  0  0  0  0  0
  -29.2910  -17.8863   21.4847 C   0  0  0  0  0  0
  -29.0291  -19.1054   20.7533 C   0  0  0  0  0  0
  -29.2533  -18.9225   19.4014 C   0  0  0  0  0  0
  -29.7510  -16.8165   20.7367 C   0  0  0  0  0  0
  -28.3754  -20.3220   21.4037 C   0  0  0  0  0  0
  -29.9636  -23.6046   20.4680 C   0  0  0  0  0  0
  -30.0488  -22.0578   20.5562 C   0  0  0  0  0  0
  -27.9848  -22.7995   21.4572 C   0  0  0  0  0  0
  -28.4694  -23.9554   20.5350 C   0  0  2  0  0  0
  -28.9391  -19.8152   18.2372 C   0  0  0  0  0  0
  -27.8185  -23.7841   19.1501 C   0  0  0  0  0  0
  -28.1368  -25.3914   21.0987 C   0  0  0  0  0  0
  -28.7737  -21.5983   21.1122 N   0  0  0  0  0  0
  -29.9392  -15.5221   21.1571 N   0  0  0  0  0  0
  -27.4432  -20.1321   22.1919 O   0  0  0  0  0  0
  -29.9126  -17.3319   19.0721 S   0  0  0  0  0  0
  -31.4827  -12.4451   19.1539 H   0  0  0  0  0  0
  -30.3552  -11.3299   19.8716 H   0  0  0  0  0  0
  -29.7638  -11.7506   17.4693 H   0  0  0  0  0  0
  -29.6707  -13.4712   17.7660 H   0  0  0  0  0  0
  -27.8602  -11.2914   18.8579 H   0  0  0  0  0  0
  -27.3826  -12.5846   17.7910 H   0  0  0  0  0  0
  -27.7002  -14.2510   19.5551 H   0  0  0  0  0  0
  -28.6811  -11.9836   21.3591 H   0  0  0  0  0  0
  -28.4404  -13.6205   21.8713 H   0  0  0  0  0  0
  -25.2786   -9.5657   22.4754 H   0  0  0  0  0  0
  -24.0000   -7.4628   22.7447 H   0  0  0  0  0  0
  -21.0826   -8.8823   19.8965 H   0  0  0  0  0  0
  -22.3712  -10.9711   19.6185 H   0  0  0  0  0  0
  -21.2036   -7.6161   23.9733 H   0  0  0  0  0  0
  -21.1480   -6.0513   25.9080 H   0  0  0  0  0  0
  -22.0597   -2.7615   23.2814 H   0  0  0  0  0  0
  -22.4058  -11.9930   22.4827 H   0  0  0  0  0  0
  -21.1119  -13.1333   22.2568 H   0  0  0  0  0  0
  -24.6794  -15.8507   20.5665 H   0  0  0  0  0  0
  -26.2939  -15.6314   20.1122 H   0  0  0  0  0  0
  -26.7141  -32.5518   23.1156 H   0  0  0  0  0  0
  -25.0038  -33.9756   25.0450 H   0  0  0  0  0  0
  -22.6984  -31.3064   21.4052 H   0  0  0  0  0  0
  -23.3755  -35.9619   23.3260 H   0  0  0  0  0  0
  -24.3589  -36.8932   22.2047 H   0  0  0  0  0  0
  -23.7219  -37.6490   23.6662 H   0  0  0  0  0  0
  -26.0602  -31.5839   20.5923 H   0  0  0  0  0  0
  -26.8308  -30.8771   21.9842 H   0  0  0  0  0  0
  -28.1044  -29.0540   21.2004 H   0  0  0  0  0  0
  -26.0275  -25.9374   19.0649 H   0  0  0  0  0  0
  -23.9760  -27.2876   19.0462 H   0  0  0  0  0  0
  -23.7320  -30.5941   19.4025 H   0  0  0  0  0  0
  -22.7428  -29.2441   19.8673 H   0  0  0  0  0  0
  -25.1265  -36.1954   25.0826 H   0  0  0  0  0  0
  -20.9986  -28.3279   24.1424 H   0  0  0  0  0  0
  -20.5614  -26.2309   23.3645 H   0  0  0  0  0  0
  -21.6646  -26.7403   22.1271 H   0  0  0  0  0  0
  -19.6903  -25.6311   21.1221 H   0  0  0  0  0  0
  -19.6685  -27.3226   20.6767 H   0  0  0  0  0  0
  -17.4198  -26.6721   21.4005 H   0  0  0  0  0  0
  -18.0287  -26.0077   22.8993 H   0  0  0  0  0  0
  -19.7938  -30.7273   24.2288 H   0  0  0  0  0  0
  -17.5012  -31.6255   24.5196 H   0  0  0  0  0  0
  -15.5356  -30.2990   23.7639 H   0  0  0  0  0  0
  -15.8681  -28.0840   22.7035 H   0  0  0  0  0  0
  -24.5933  -30.7070   25.7925 H   0  0  0  0  0  0
  -24.8934  -32.2955   26.4877 H   0  0  0  0  0  0
  -25.8132  -30.9052   27.0298 H   0  0  0  0  0  0
  -26.2767  -29.6800   24.1148 H   0  0  0  0  0  0
  -27.3936  -29.7206   25.4595 H   0  0  0  0  0  0
  -27.8655  -30.4245   23.9291 H   0  0  0  0  0  0
  -27.2746  -33.3619   26.2019 H   0  0  0  0  0  0
  -28.3876  -32.6828   25.0230 H   0  0  0  0  0  0
  -28.0768  -31.8411   26.5339 H   0  0  0  0  0  0
  -28.2614  -38.0092   24.7507 H   0  0  0  0  0  0
  -28.1089  -36.2632   24.6221 H   0  0  0  0  0  0
  -27.2341  -37.1378   25.8861 H   0  0  0  0  0  0
  -20.9346  -29.8752   21.6904 H   0  0  0  0  0  0
  -26.0165  -38.2858   24.1474 H   0  0  0  0  0  0
  -29.0824  -17.8320   22.5448 H   0  0  0  0  0  0
  -30.4441  -23.9966   19.5708 H   0  0  0  0  0  0
  -30.4840  -24.0414   21.3218 H   0  0  0  0  0  0
  -30.8772  -21.7484   21.1961 H   0  0  0  0  0  0
  -30.2274  -21.6339   19.5742 H   0  0  0  0  0  0
  -26.9129  -22.6218   21.3577 H   0  0  0  0  0  0
  -28.1695  -23.0371   22.5074 H   0  0  0  0  0  0
  -29.8318  -20.3115   17.8565 H   0  0  0  0  0  0
  -28.2057  -20.5766   18.4952 H   0  0  0  0  0  0
  -28.5174  -19.2400   17.4128 H   0  0  0  0  0  0
  -28.0609  -22.8229   18.7016 H   0  0  0  0  0  0
  -28.1540  -24.5537   18.4548 H   0  0  0  0  0  0
  -26.7321  -23.8360   19.2168 H   0  0  0  0  0  0
  -28.7265  -25.5688   22.0002 H   0  0  0  0  0  0
  -27.1071  -25.3602   21.4606 H   0  0  0  0  0  0
  -29.2262  -15.1741   21.7795 H   0  0  0  0  0  0
  1 25  1  0  0  0
  1 30  2  0  0  0
  1 84  1  0  0  0
  2  3  1  0  0  0
  2 25  1  0  0  0
  2 87  1  0  0  0
  2 88  1  0  0  0
  3  4  1  0  0  0
  3 89  1  0  0  0
  3 90  1  0  0  0
  4  5  1  0  0  0
  4 91  1  0  0  0
  4 92  1  0  0  0
  5  6  1  0  0  0
  5 26  1  0  0  0
  5 93  1  0  0  0
  6 25  1  0  0  0
  6 94  1  0  0  0
  6 95  1  0  0  0
  7  8  2  0  0  0
  7 26  1  0  0  0
  7 29  1  0  0  0
  8  9  1  0  0  0
  8 22  1  0  0  0
  9 10  1  0  0  0
  9 27  2  0  0  0
 10 11  2  0  0  0
 10 15  1  0  0  0
 11 12  1  0  0  0
 11 96  1  0  0  0
 12 13  2  0  0  0
 12 97  1  0  0  0
 13 14  1  0  0  0
 13 31  1  0  0  0
 14 15  2  0  0  0
 14 98  1  0  0  0
 15 99  1  0  0  0
 16 17  2  0  0  0
 16 21  1  0  0  0
 16 31  1  0  0  0
 17 18  1  0  0  0
 17100  1  0  0  0
 18 19  2  0  0  0
 18101  1  0  0  0
 19 20  1  0  0  0
 19 24  1  0  0  0
 20 21  2  0  0  0
 20102  1  0  0  0
 21 23  1  0  0  0
 22 28  1  0  0  0
 22 32  2  0  0  0
 26 27  1  0  0  0
 28103  1  0  0  0
 28104  1  0  0  0
 29105  1  0  0  0
 29106  1  0  0  0
 33 34  1  0  0  0
 33 66  1  0  0  0
 33 70  2  0  0  0
 34 36  1  0  0  0
 34 59  1  0  0  0
 34107  1  0  0  0
 35 44  2  0  0  0
 35 45  1  0  0  0
 35 68  1  0  0  0
 36 56  1  0  0  0
 36108  1  0  0  0
 37 39  1  0  0  0
 37 47  1  0  0  0
 37 66  1  0  0  0
 37109  1  0  0  0
 38 43  2  0  0  0
 38 46  1  0  0  0
 38 47  1  0  0  0
 39 64  1  0  0  0
 39 67  2  0  0  0
 40 52  1  0  0  0
 40 53  2  0  0  0
 40 58  1  0  0  0
 41110  1  0  0  0
 41111  1  0  0  0
 41112  1  0  0  0
 41 48  1  0  0  0
 42 43  1  0  0  0
 42 66  1  0  0  0
 42113  1  0  0  0
 42114  1  0  0  0
 43 44  1  0  0  0
 44115  1  0  0  0
 45 46  2  0  0  0
 45116  1  0  0  0
 46117  1  0  0  0
 47118  1  0  0  0
 47119  1  0  0  0
 48 56  1  0  0  0
 48 65  1  0  0  0
 48120  1  0  0  0
 49 50  1  0  0  0
 49 53  1  0  0  0
 49 64  1  0  0  0
 49121  1  0  0  0
 50 51  1  0  0  0
 50122  1  0  0  0
 50123  1  0  0  0
 51 52  1  0  0  0
 51124  1  0  0  0
 51125  1  0  0  0
 52126  1  0  0  0
 52127  1  0  0  0
 53 54  1  0  0  0
 54 55  2  0  0  0
 54128  1  0  0  0
 55 57  1  0  0  0
 55129  1  0  0  0
 56 69  2  0  0  0
 57 58  2  0  0  0
 57130  1  0  0  0
 58131  1  0  0  0
 59 60  1  0  0  0
 59 61  1  0  0  0
 59 62  1  0  0  0
 60132  1  0  0  0
 60133  1  0  0  0
 60134  1  0  0  0
 61135  1  0  0  0
 61136  1  0  0  0
 61137  1  0  0  0
 62138  1  0  0  0
 62139  1  0  0  0
 62140  1  0  0  0
 63 65  1  0  0  0
 63141  1  0  0  0
 63142  1  0  0  0
 63143  1  0  0  0
 64144  1  0  0  0
 65145  1  0  0  0
 68 82  1  0  0  0
 71 72  1  0  0  0
 71 74  2  0  0  0
 71146  1  0  0  0
 72 73  2  0  0  0
 72 75  1  0  0  0
 73 80  1  0  0  0
 73 86  1  0  0  0
 74 84  1  0  0  0
 74 86  1  0  0  0
 75 83  1  0  0  0
 75 85  2  0  0  0
 76 77  1  0  0  0
 76 79  1  0  0  0
 76147  1  0  0  0
 76148  1  0  0  0
 77 83  1  0  0  0
 77149  1  0  0  0
 77150  1  0  0  0
 78 79  1  0  0  0
 78 83  1  0  0  0
 78151  1  0  0  0
 78152  1  0  0  0
 79 81  1  0  0  0
 79 82  1  0  0  0
 80153  1  0  0  0
 80154  1  0  0  0
 80155  1  0  0  0
 81156  1  0  0  0
 81157  1  0  0  0
 81158  1  0  0  0
 82159  1  0  0  0
 82160  1  0  0  0
 84161  1  0  0  0
M  ISO  4   1 100  68 101  82 101  84 100
M  END
> <chiral flag>
0

> <version>
0

> <s_m_source_file>
/data/baiqing/PycharmProjects/Reinvent-master-3.2/result/LINK_invent/BTK/process_docking_weight1_custom_product_contain_oxygen_bond_distance_aromatic_linkinvent_7_9_3/rearranged_h_0141.sdf

> <i_m_source_file_index>
38

> <r_mmod_Potential_Energy-OPLS-2005>
138.856872558594

> <r_mmod_Stretch_Energy-OPLS-2005>
51.4951820373535

> <r_mmod_Bend_Energy-OPLS-2005>
144.164047241211

> <r_mmod_Torsional_Energy-OPLS-2005>
358.302734375

> <r_mmod_Improper_Torsional_Energy-OPLS-2005>
5.55236911773682

> <r_mmod_Van_der_Waal_Energy-OPLS-2005>
121.26611328125

> <r_mmod_Electrostatic_Energy-OPLS-2005>
-349.374420166016

> <r_mmod_Solvation_Energy-OPLS-2005>
-220.647872924805

> <b_mmod_Minimization_Converged-OPLS-2005>
0

> <r_mmod_RMS_Derivative-OPLS-2005>
2.94532036781311

$$$$
38
                    3D
 Structure written by MMmdl.
165173  0  0  1  0            999 V2000
  -30.5453  -14.9876   20.4241 C   0  0  0  0  0  0
  -30.4362  -12.6207   19.4991 C   0  0  0  0  0  0
  -29.5157  -12.5683   18.2561 C   0  0  0  0  0  0
  -28.0582  -12.3329   18.6822 C   0  0  0  0  0  0
  -27.6370  -13.2516   19.8547 C   0  0  2  0  0  0
  -28.6812  -13.2900   20.9945 C   0  0  0  0  0  0
  -25.2552  -13.8188   20.5761 C   0  0  0  0  0  0
  -24.1795  -13.0452   20.9199 C   0  0  0  0  0  0
  -24.6373  -11.6917   20.8728 C   0  0  0  0  0  0
  -23.9013  -10.4307   21.0416 C   0  0  0  0  0  0
  -24.3555   -9.4218   21.9192 C   0  0  0  0  0  0
  -23.6239   -8.2243   22.0751 C   0  0  0  0  0  0
  -22.4237   -8.0267   21.3524 C   0  0  0  0  0  0
  -21.9836   -9.0249   20.4630 C   0  0  0  0  0  0
  -22.7181  -10.2132   20.3085 C   0  0  0  0  0  0
  -21.6866   -6.0686   22.5257 C   0  0  0  0  0  0
  -21.4014   -6.5575   23.8193 C   0  0  0  0  0  0
  -21.3664   -5.6729   24.9130 C   0  0  0  0  0  0
  -21.6063   -4.2999   24.7206 C   0  0  0  0  0  0
  -21.8818   -3.8087   23.4330 C   0  0  0  0  0  0
  -21.9203   -4.6899   22.3383 C   0  0  0  0  0  0
  -22.7860  -13.5282   21.1855 C   0  0  0  0  0  0
  -22.1669   -4.2068   21.0970 F   0  0  0  0  0  0
  -21.5651   -3.4513   25.7733 F   0  0  0  0  0  0
  -29.9585  -13.7164   20.4033 N   0  0  0  0  0  0
  -26.2933  -12.9419   20.3284 N   0  0  0  0  0  0
  -25.9298  -11.6526   20.5656 N   0  0  0  0  0  0
  -22.0428  -12.8346   22.0395 N   0  0  0  0  0  0
  -25.4382  -15.1893   20.4273 N   0  0  0  0  0  0
  -31.7213  -15.0446   20.0465 O   0  0  0  0  0  0
  -21.6653   -6.8841   21.4219 O   0  0  0  0  0  0
  -22.3602  -14.5621   20.6658 O   0  0  0  0  0  0
  -24.6412  -31.8467   23.1881 C   0  0  0  0  0  0
  -25.9196  -32.4706   23.8282 C   0  0  1  0  0  0
  -27.2523  -27.1576   20.1985 C   0  0  0  0  0  0
  -25.5937  -33.8501   24.2220 N   0  0  0  0  0  0
  -23.4469  -30.4630   21.5280 C   0  0  2  0  0  0
  -24.9118  -28.8883   20.1177 C   0  0  0  0  0  0
  -22.7547  -29.4566   22.4823 C   0  0  0  0  0  0
  -18.0315  -28.1409   22.8487 C   0  0  0  0  0  0
  -24.1487  -36.7247   23.2642 C   0  0  0  0  0  0
  -25.9998  -30.7372   21.3842 C   0  0  0  0  0  0
  -26.0834  -29.3460   20.7335 C   0  0  0  0  0  0
  -27.2559  -28.5021   20.7472 C   0  0  0  0  0  0
  -26.0568  -26.7944   19.5411 C   0  0  0  0  0  0
  -24.9114  -27.6229   19.5033 C   0  0  0  0  0  0
  -23.6820  -29.7867   20.1494 C   0  0  0  0  0  0
  -25.4112  -36.3025   24.0328 C   0  0  1  0  0  0
  -20.5922  -28.3739   23.1227 C   0  0  2  0  0  0
  -20.6794  -26.9432   22.5400 C   0  0  0  0  0  0
  -19.5759  -26.6391   21.5223 C   0  0  0  0  0  0
  -18.1948  -26.7947   22.1638 C   0  0  0  0  0  0
  -19.1561  -28.8882   23.2866 C   0  0  0  0  0  0
  -18.9487  -30.1489   23.8893 C   0  0  0  0  0  0
  -17.6473  -30.6598   24.0568 C   0  0  0  0  0  0
  -25.9062  -34.9414   23.5077 C   0  0  0  0  0  0
  -16.5378  -29.9091   23.6328 C   0  0  0  0  0  0
  -16.7295  -28.6510   23.0349 C   0  0  0  0  0  0
  -26.4534  -31.6550   25.0700 C   0  0  0  0  0  0
  -25.3742  -31.3754   26.1408 C   0  0  0  0  0  0
  -27.0361  -30.2918   24.6274 C   0  0  0  0  0  0
  -27.6083  -32.4292   25.7470 C   0  0  0  0  0  0
  -27.5578  -37.1767   24.8468 C   0  0  0  0  0  0
  -21.4248  -29.3082   22.3588 N   0  0  0  0  0  0
  -26.4266  -37.3745   23.9426 N   0  0  0  0  0  0
  -24.7132  -31.0351   22.0909 N   0  0  0  0  0  0
  -23.4187  -28.8125   23.2984 O   0  0  0  0  0  0
  -28.3356  -26.2010   20.2342 O   0  0  0  0  0  0
  -26.5640  -34.8903   22.4655 O   0  0  0  0  0  0
  -23.5529  -32.1329   23.7118 O   0  0  0  0  0  0
  -30.3757  -19.1949   18.4102 C   0  0  0  0  0  0
  -29.9630  -20.3566   19.1040 C   0  0  0  0  0  0
  -30.3418  -17.8951   18.9748 C   0  0  0  0  0  0
  -29.4524  -18.9139   20.9803 C   0  0  0  0  0  0
  -29.4525  -20.3130   20.4216 C   0  0  0  0  0  0
  -29.8882  -17.6554   20.2935 C   0  0  0  0  0  0
  -27.1355  -20.8327   22.8304 C   0  0  0  0  0  0
  -28.3428  -25.0788   22.3374 C   0  0  0  0  0  0
  -29.8660  -21.8437   22.4020 C   0  0  0  0  0  0
  -30.5229  -23.7535   20.2578 C   0  0  0  0  0  0
  -27.4745  -21.6048   21.5437 C   0  0  0  0  0  0
  -28.1856  -24.7637   20.8337 C   0  0  2  0  0  0
  -28.9717  -21.7592   21.1384 C   0  0  2  0  0  0
  -29.0455  -23.3331   20.3885 C   0  0  2  0  0  0
  -29.8205  -16.1785   20.7614 N   0  0  0  0  0  0
  -28.6014  -23.1301   19.1483 F   0  0  0  0  0  0
  -31.4692  -12.7664   19.1793 H   0  0  0  0  0  0
  -30.4161  -11.6634   20.0198 H   0  0  0  0  0  0
  -29.8293  -11.7816   17.5672 H   0  0  0  0  0  0
  -29.5865  -13.5015   17.7006 H   0  0  0  0  0  0
  -27.9565  -11.2869   18.9672 H   0  0  0  0  0  0
  -27.3968  -12.4859   17.8298 H   0  0  0  0  0  0
  -27.5963  -14.2561   19.4258 H   0  0  0  0  0  0
  -28.7798  -12.3143   21.4747 H   0  0  0  0  0  0
  -28.3770  -13.9874   21.7766 H   0  0  0  0  0  0
  -25.2663   -9.5724   22.4784 H   0  0  0  0  0  0
  -23.9901   -7.4674   22.7512 H   0  0  0  0  0  0
  -21.0722   -8.8807   19.8989 H   0  0  0  0  0  0
  -22.3602  -10.9668   19.6241 H   0  0  0  0  0  0
  -21.1985   -7.6085   23.9650 H   0  0  0  0  0  0
  -21.1510   -6.0467   25.9035 H   0  0  0  0  0  0
  -22.0593   -2.7541   23.2865 H   0  0  0  0  0  0
  -22.3926  -11.9990   22.4804 H   0  0  0  0  0  0
  -21.1090  -13.1532   22.2554 H   0  0  0  0  0  0
  -24.7150  -15.8670   20.6400 H   0  0  0  0  0  0
  -26.2883  -15.6073   20.0748 H   0  0  0  0  0  0
  -26.7283  -32.5359   23.1047 H   0  0  0  0  0  0
  -25.0052  -33.9609   25.0328 H   0  0  0  0  0  0
  -22.7505  -31.2882   21.3679 H   0  0  0  0  0  0
  -23.3760  -35.9562   23.3273 H   0  0  0  0  0  0
  -24.3599  -36.8900   22.2068 H   0  0  0  0  0  0
  -23.7231  -37.6425   23.6700 H   0  0  0  0  0  0
  -26.1516  -31.4965   20.6150 H   0  0  0  0  0  0
  -26.8685  -30.7898   22.0273 H   0  0  0  0  0  0
  -28.1514  -28.8617   21.2335 H   0  0  0  0  0  0
  -26.0036  -25.8255   19.0632 H   0  0  0  0  0  0
  -24.0200  -27.2616   19.0099 H   0  0  0  0  0  0
  -23.8247  -30.5632   19.3961 H   0  0  0  0  0  0
  -22.7980  -29.2302   19.8332 H   0  0  0  0  0  0
  -25.1289  -36.1852   25.0813 H   0  0  0  0  0  0
  -21.0045  -28.3365   24.1334 H   0  0  0  0  0  0
  -20.5703  -26.2358   23.3632 H   0  0  0  0  0  0
  -21.6664  -26.7440   22.1199 H   0  0  0  0  0  0
  -19.6902  -25.6297   21.1276 H   0  0  0  0  0  0
  -19.6675  -27.3187   20.6745 H   0  0  0  0  0  0
  -17.4206  -26.6711   21.4065 H   0  0  0  0  0  0
  -18.0330  -26.0102   22.9036 H   0  0  0  0  0  0
  -19.7963  -30.7326   24.2243 H   0  0  0  0  0  0
  -17.5024  -31.6277   24.5177 H   0  0  0  0  0  0
  -15.5378  -30.2983   23.7635 H   0  0  0  0  0  0
  -15.8712  -28.0820   22.7046 H   0  0  0  0  0  0
  -24.5812  -30.7246   25.7714 H   0  0  0  0  0  0
  -24.9072  -32.2956   26.4920 H   0  0  0  0  0  0
  -25.8003  -30.8802   27.0135 H   0  0  0  0  0  0
  -26.2941  -29.6638   24.1315 H   0  0  0  0  0  0
  -27.3987  -29.7235   25.4856 H   0  0  0  0  0  0
  -27.8869  -30.4117   23.9557 H   0  0  0  0  0  0
  -27.2703  -33.3636   26.1958 H   0  0  0  0  0  0
  -28.3926  -32.6761   25.0308 H   0  0  0  0  0  0
  -28.0690  -31.8453   26.5446 H   0  0  0  0  0  0
  -28.2567  -38.0087   24.7523 H   0  0  0  0  0  0
  -28.1087  -36.2618   24.6252 H   0  0  0  0  0  0
  -27.2311  -37.1378   25.8869 H   0  0  0  0  0  0
  -20.9422  -29.8783   21.6779 H   0  0  0  0  0  0
  -26.0137  -38.2801   24.1425 H   0  0  0  0  0  0
  -30.7290  -19.3070   17.3933 H   0  0  0  0  0  0
  -30.0484  -21.3005   18.5869 H   0  0  0  0  0  0
  -30.6508  -17.0650   18.3605 H   0  0  0  0  0  0
  -29.1163  -18.7943   21.9979 H   0  0  0  0  0  0
  -26.0534  -20.7471   22.9412 H   0  0  0  0  0  0
  -27.5047  -21.3468   23.7194 H   0  0  0  0  0  0
  -27.5359  -19.8262   22.8427 H   0  0  0  0  0  0
  -28.0858  -24.2352   22.9738 H   0  0  0  0  0  0
  -27.6798  -25.8901   22.6419 H   0  0  0  0  0  0
  -29.3600  -25.3891   22.5809 H   0  0  0  0  0  0
  -29.7482  -20.9827   23.0573 H   0  0  0  0  0  0
  -29.6780  -22.7312   22.9996 H   0  0  0  0  0  0
  -30.9229  -21.8657   22.1351 H   0  0  0  0  0  0
  -30.9323  -24.0648   21.2206 H   0  0  0  0  0  0
  -30.6483  -24.5944   19.5776 H   0  0  0  0  0  0
  -31.1498  -22.9423   19.8929 H   0  0  0  0  0  0
  -27.0394  -22.5832   21.7191 H   0  0  0  0  0  0
  -26.9145  -21.2044   20.6991 H   0  0  0  0  0  0
  -27.1341  -24.5229   20.6903 H   0  0  0  0  0  0
  -29.0080  -15.9731   21.3237 H   0  0  0  0  0  0
  1 25  1  0  0  0
  1 30  2  0  0  0
  1 85  1  0  0  0
  2  3  1  0  0  0
  2 25  1  0  0  0
  2 87  1  0  0  0
  2 88  1  0  0  0
  3  4  1  0  0  0
  3 89  1  0  0  0
  3 90  1  0  0  0
  4  5  1  0  0  0
  4 91  1  0  0  0
  4 92  1  0  0  0
  5  6  1  0  0  0
  5 26  1  0  0  0
  5 93  1  0  0  0
  6 25  1  0  0  0
  6 94  1  0  0  0
  6 95  1  0  0  0
  7  8  2  0  0  0
  7 26  1  0  0  0
  7 29  1  0  0  0
  8  9  1  0  0  0
  8 22  1  0  0  0
  9 10  1  0  0  0
  9 27  2  0  0  0
 10 11  2  0  0  0
 10 15  1  0  0  0
 11 12  1  0  0  0
 11 96  1  0  0  0
 12 13  2  0  0  0
 12 97  1  0  0  0
 13 14  1  0  0  0
 13 31  1  0  0  0
 14 15  2  0  0  0
 14 98  1  0  0  0
 15 99  1  0  0  0
 16 17  2  0  0  0
 16 21  1  0  0  0
 16 31  1  0  0  0
 17 18  1  0  0  0
 17100  1  0  0  0
 18 19  2  0  0  0
 18101  1  0  0  0
 19 20  1  0  0  0
 19 24  1  0  0  0
 20 21  2  0  0  0
 20102  1  0  0  0
 21 23  1  0  0  0
 22 28  1  0  0  0
 22 32  2  0  0  0
 26 27  1  0  0  0
 28103  1  0  0  0
 28104  1  0  0  0
 29105  1  0  0  0
 29106  1  0  0  0
 33 34  1  0  0  0
 33 66  1  0  0  0
 33 70  2  0  0  0
 34 36  1  0  0  0
 34 59  1  0  0  0
 34107  1  0  0  0
 35 44  2  0  0  0
 35 45  1  0  0  0
 35 68  1  0  0  0
 36 56  1  0  0  0
 36108  1  0  0  0
 37 39  1  0  0  0
 37 47  1  0  0  0
 37 66  1  0  0  0
 37109  1  0  0  0
 38 43  2  0  0  0
 38 46  1  0  0  0
 38 47  1  0  0  0
 39 64  1  0  0  0
 39 67  2  0  0  0
 40 52  1  0  0  0
 40 53  2  0  0  0
 40 58  1  0  0  0
 41110  1  0  0  0
 41111  1  0  0  0
 41112  1  0  0  0
 41 48  1  0  0  0
 42 43  1  0  0  0
 42 66  1  0  0  0
 42113  1  0  0  0
 42114  1  0  0  0
 43 44  1  0  0  0
 44115  1  0  0  0
 45 46  2  0  0  0
 45116  1  0  0  0
 46117  1  0  0  0
 47118  1  0  0  0
 47119  1  0  0  0
 48 56  1  0  0  0
 48 65  1  0  0  0
 48120  1  0  0  0
 49 50  1  0  0  0
 49 53  1  0  0  0
 49 64  1  0  0  0
 49121  1  0  0  0
 50 51  1  0  0  0
 50122  1  0  0  0
 50123  1  0  0  0
 51 52  1  0  0  0
 51124  1  0  0  0
 51125  1  0  0  0
 52126  1  0  0  0
 52127  1  0  0  0
 53 54  1  0  0  0
 54 55  2  0  0  0
 54128  1  0  0  0
 55 57  1  0  0  0
 55129  1  0  0  0
 56 69  2  0  0  0
 57 58  2  0  0  0
 57130  1  0  0  0
 58131  1  0  0  0
 59 60  1  0  0  0
 59 61  1  0  0  0
 59 62  1  0  0  0
 60132  1  0  0  0
 60133  1  0  0  0
 60134  1  0  0  0
 61135  1  0  0  0
 61136  1  0  0  0
 61137  1  0  0  0
 62138  1  0  0  0
 62139  1  0  0  0
 62140  1  0  0  0
 63 65  1  0  0  0
 63141  1  0  0  0
 63142  1  0  0  0
 63143  1  0  0  0
 64144  1  0  0  0
 65145  1  0  0  0
 68 82  1  0  0  0
 71 72  2  0  0  0
 71 73  1  0  0  0
 71146  1  0  0  0
 72 75  1  0  0  0
 72147  1  0  0  0
 73 76  2  0  0  0
 73148  1  0  0  0
 74 75  2  0  0  0
 74 76  1  0  0  0
 74149  1  0  0  0
 75 83  1  0  0  0
 76 85  1  0  0  0
 77 81  1  0  0  0
 77150  1  0  0  0
 77151  1  0  0  0
 77152  1  0  0  0
 78153  1  0  0  0
 78154  1  0  0  0
 78155  1  0  0  0
 78 82  1  0  0  0
 79156  1  0  0  0
 79157  1  0  0  0
 79158  1  0  0  0
 79 83  1  0  0  0
 80159  1  0  0  0
 80160  1  0  0  0
 80161  1  0  0  0
 80 84  1  0  0  0
 81 83  1  0  0  0
 81162  1  0  0  0
 81163  1  0  0  0
 82 84  1  0  0  0
 82164  1  0  0  0
 83 84  1  0  0  0
 84 86  1  0  0  0
 85165  1  0  0  0
M  ISO  4   1 100  68 101  82 101  85 100
M  END
> <chiral flag>
0

> <version>
0

> <s_m_source_file>
/data/baiqing/PycharmProjects/Reinvent-master-3.2/result/LINK_invent/BTK/process_docking_weight1_custom_product_contain_oxygen_bond_distance_aromatic_linkinvent_7_9_3/rearranged_h_0141.sdf

> <i_m_source_file_index>
39

> <r_mmod_Potential_Energy-OPLS-2005>
662.900573730469

> <r_mmod_Stretch_Energy-OPLS-2005>
331.457458496094

> <r_mmod_Bend_Energy-OPLS-2005>
281.903045654297

> <r_mmod_Torsional_Energy-OPLS-2005>
279.018402099609

> <r_mmod_Improper_Torsional_Energy-OPLS-2005>
2.73053598403931

> <r_mmod_Van_der_Waal_Energy-OPLS-2005>
134.589324951172

> <r_mmod_Electrostatic_Energy-OPLS-2005>
-365.725646972656

> <r_mmod_Solvation_Energy-OPLS-2005>
-195.004302978516

> <b_mmod_Minimization_Converged-OPLS-2005>
0

> <r_mmod_RMS_Derivative-OPLS-2005>
6.23375558853149

$$$$
39
                    3D
 Structure written by MMmdl.
158167  0  0  1  0            999 V2000
  -30.6561  -14.5879   20.4873 C   0  0  0  0  0  0
  -30.4235  -12.3558   19.4459 C   0  0  0  0  0  0
  -29.5030  -12.4977   18.2148 C   0  0  0  0  0  0
  -28.0228  -12.3528   18.6241 C   0  0  0  0  0  0
  -27.6524  -13.2182   19.8591 C   0  0  2  0  0  0
  -28.6957  -13.0687   20.9894 C   0  0  0  0  0  0
  -25.2565  -13.8169   20.5677 C   0  0  0  0  0  0
  -24.1837  -13.0432   20.9182 C   0  0  0  0  0  0
  -24.6405  -11.6903   20.8723 C   0  0  0  0  0  0
  -23.9076  -10.4286   21.0392 C   0  0  0  0  0  0
  -24.3631   -9.4205   21.9167 C   0  0  0  0  0  0
  -23.6303   -8.2241   22.0747 C   0  0  0  0  0  0
  -22.4275   -8.0278   21.3544 C   0  0  0  0  0  0
  -21.9915   -9.0254   20.4643 C   0  0  0  0  0  0
  -22.7248  -10.2130   20.3047 C   0  0  0  0  0  0
  -21.6855   -6.0734   22.5276 C   0  0  0  0  0  0
  -21.4014   -6.5640   23.8210 C   0  0  0  0  0  0
  -21.3657   -5.6790   24.9169 C   0  0  0  0  0  0
  -21.6041   -4.3053   24.7222 C   0  0  0  0  0  0
  -21.8823   -3.8148   23.4344 C   0  0  0  0  0  0
  -21.9197   -4.6961   22.3398 C   0  0  0  0  0  0
  -22.7859  -13.5221   21.1841 C   0  0  0  0  0  0
  -22.1665   -4.2151   21.0974 F   0  0  0  0  0  0
  -21.5630   -3.4536   25.7739 F   0  0  0  0  0  0
  -30.0145  -13.3833   20.4234 N   0  0  0  0  0  0
  -26.2992  -12.9358   20.3289 N   0  0  0  0  0  0
  -25.9331  -11.6507   20.5729 N   0  0  0  0  0  0
  -22.0508  -12.8216   22.0403 N   0  0  0  0  0  0
  -25.4263  -15.1890   20.4082 N   0  0  0  0  0  0
  -31.8325  -14.6938   20.1332 O   0  0  0  0  0  0
  -21.6635   -6.8879   21.4240 O   0  0  0  0  0  0
  -22.3543  -14.5523   20.6681 O   0  0  0  0  0  0
  -24.6220  -31.8633   23.2033 C   0  0  0  0  0  0
  -25.9088  -32.4798   23.8350 C   0  0  1  0  0  0
  -27.2262  -27.3586   20.1087 C   0  0  0  0  0  0
  -25.5922  -33.8593   24.2299 N   0  0  0  0  0  0
  -23.4128  -30.4855   21.5449 C   0  0  2  0  0  0
  -24.8575  -28.9403   20.1086 C   0  0  0  0  0  0
  -22.7448  -29.4650   22.4948 C   0  0  0  0  0  0
  -18.0290  -28.1413   22.8506 C   0  0  0  0  0  0
  -24.1481  -36.7278   23.2642 C   0  0  0  0  0  0
  -25.9482  -30.8044   21.3671 C   0  0  0  0  0  0
  -26.0201  -29.4340   20.7122 C   0  0  0  0  0  0
  -27.2036  -28.6497   20.7067 C   0  0  0  0  0  0
  -26.0438  -26.8968   19.4913 C   0  0  0  0  0  0
  -24.8687  -27.6762   19.4922 C   0  0  0  0  0  0
  -23.6249  -29.8186   20.1596 C   0  0  0  0  0  0
  -25.4110  -36.3092   24.0341 C   0  0  1  0  0  0
  -20.5890  -28.3708   23.1310 C   0  0  2  0  0  0
  -20.6776  -26.9432   22.5438 C   0  0  0  0  0  0
  -19.5753  -26.6412   21.5233 C   0  0  0  0  0  0
  -18.1928  -26.7966   22.1627 C   0  0  0  0  0  0
  -19.1541  -28.8873   23.2910 C   0  0  0  0  0  0
  -18.9464  -30.1479   23.8925 C   0  0  0  0  0  0
  -17.6463  -30.6605   24.0594 C   0  0  0  0  0  0
  -25.9051  -34.9465   23.5119 C   0  0  0  0  0  0
  -16.5360  -29.9114   23.6335 C   0  0  0  0  0  0
  -16.7277  -28.6535   23.0350 C   0  0  0  0  0  0
  -26.4481  -31.6604   25.0706 C   0  0  0  0  0  0
  -25.3730  -31.3745   26.1447 C   0  0  0  0  0  0
  -27.0307  -30.3034   24.6131 C   0  0  0  0  0  0
  -27.6070  -32.4324   25.7453 C   0  0  0  0  0  0
  -27.5588  -37.1791   24.8469 C   0  0  0  0  0  0
  -21.4159  -29.3052   22.3685 N   0  0  0  0  0  0
  -26.4286  -37.3794   23.9434 N   0  0  0  0  0  0
  -24.6796  -31.0671   22.0966 N   0  0  0  0  0  0
  -23.4176  -28.8193   23.3027 O   0  0  0  0  0  0
  -28.3821  -26.5851   20.1645 O   0  0  0  0  0  0
  -26.5614  -34.8927   22.4680 O   0  0  0  0  0  0
  -23.5394  -32.1430   23.7388 O   0  0  0  0  0  0
  -31.4384  -18.9416   19.5675 C   0  0  0  0  0  0
  -30.6015  -19.9074   20.1586 C   0  0  0  0  0  0
  -31.2077  -17.5634   19.7524 C   0  0  0  0  0  0
  -29.2503  -18.1015   21.0810 C   0  0  0  0  0  0
  -29.4817  -19.5154   20.9205 C   0  0  0  0  0  0
  -30.1235  -17.0999   20.5408 C   0  0  0  0  0  0
  -28.3418  -24.1520   20.5312 C   0  0  0  0  0  0
  -28.4447  -25.2557   19.7340 C   0  0  0  0  0  0
  -28.6896  -20.5351   21.6899 C   0  0  0  0  0  0
  -27.9327  -24.1991   21.9752 C   0  0  0  0  0  0
  -28.6503  -22.6783   20.1574 C   0  0  0  0  0  0
  -27.7492  -22.7394   22.4054 C   0  0  0  0  0  0
  -28.4058  -21.8631   21.3969 N   0  0  0  0  0  0
  -29.8855  -15.6787   20.7892 N   0  0  0  0  0  0
  -28.2394  -20.0876   22.8637 N   0  3  0  0  0  0
  -31.4690  -12.4521   19.1474 H   0  0  0  0  0  0
  -30.3290  -11.3600   19.8811 H   0  0  0  0  0  0
  -29.7545  -11.7463   17.4648 H   0  0  0  0  0  0
  -29.6650  -13.4668   17.7406 H   0  0  0  0  0  0
  -27.8445  -11.2996   18.8423 H   0  0  0  0  0  0
  -27.3739  -12.6000   17.7828 H   0  0  0  0  0  0
  -27.6722  -14.2548   19.5231 H   0  0  0  0  0  0
  -28.6941  -12.0502   21.3797 H   0  0  0  0  0  0
  -28.4545  -13.7136   21.8364 H   0  0  0  0  0  0
  -25.2785   -9.5673   22.4733 H   0  0  0  0  0  0
  -24.0015   -7.4631   22.7466 H   0  0  0  0  0  0
  -21.0845   -8.8777   19.8954 H   0  0  0  0  0  0
  -22.3711  -10.9668   19.6155 H   0  0  0  0  0  0
  -21.2003   -7.6149   23.9714 H   0  0  0  0  0  0
  -21.1470   -6.0515   25.9071 H   0  0  0  0  0  0
  -22.0605   -2.7611   23.2838 H   0  0  0  0  0  0
  -22.4134  -11.9889   22.4805 H   0  0  0  0  0  0
  -21.1121  -13.1229   22.2596 H   0  0  0  0  0  0
  -24.6520  -15.8368   20.5042 H   0  0  0  0  0  0
  -26.2636  -15.6264   20.0458 H   0  0  0  0  0  0
  -26.7154  -32.5481   23.1099 H   0  0  0  0  0  0
  -25.0080  -33.9744   25.0446 H   0  0  0  0  0  0
  -22.7061  -31.3060   21.4052 H   0  0  0  0  0  0
  -23.3756  -35.9599   23.3303 H   0  0  0  0  0  0
  -24.3575  -36.8891   22.2060 H   0  0  0  0  0  0
  -23.7206  -37.6468   23.6647 H   0  0  0  0  0  0
  -26.0748  -31.5675   20.5985 H   0  0  0  0  0  0
  -26.8302  -30.8542   21.9943 H   0  0  0  0  0  0
  -28.1005  -29.0235   21.1794 H   0  0  0  0  0  0
  -26.0134  -25.9241   19.0221 H   0  0  0  0  0  0
  -23.9758  -27.2929   19.0185 H   0  0  0  0  0  0
  -23.7449  -30.5948   19.4030 H   0  0  0  0  0  0
  -22.7437  -29.2492   19.8567 H   0  0  0  0  0  0
  -25.1287  -36.1946   25.0832 H   0  0  0  0  0  0
  -21.0014  -28.3306   24.1420 H   0  0  0  0  0  0
  -20.5685  -26.2314   23.3635 H   0  0  0  0  0  0
  -21.6644  -26.7479   22.1238 H   0  0  0  0  0  0
  -19.6898  -25.6320   21.1264 H   0  0  0  0  0  0
  -19.6693  -27.3212   20.6754 H   0  0  0  0  0  0
  -17.4210  -26.6756   21.4010 H   0  0  0  0  0  0
  -18.0295  -26.0101   22.9003 H   0  0  0  0  0  0
  -19.7933  -30.7304   24.2296 H   0  0  0  0  0  0
  -17.5009  -31.6284   24.5198 H   0  0  0  0  0  0
  -15.5356  -30.3025   23.7629 H   0  0  0  0  0  0
  -15.8683  -28.0856   22.7053 H   0  0  0  0  0  0
  -24.5931  -30.7043   25.7791 H   0  0  0  0  0  0
  -24.8873  -32.2903   26.4830 H   0  0  0  0  0  0
  -25.8075  -30.8976   27.0243 H   0  0  0  0  0  0
  -26.2854  -29.6785   24.1187 H   0  0  0  0  0  0
  -27.4046  -29.7290   25.4620 H   0  0  0  0  0  0
  -27.8706  -30.4323   23.9303 H   0  0  0  0  0  0
  -27.2716  -33.3636   26.2033 H   0  0  0  0  0  0
  -28.3859  -32.6868   25.0249 H   0  0  0  0  0  0
  -28.0750  -31.8437   26.5358 H   0  0  0  0  0  0
  -28.2624  -38.0078   24.7549 H   0  0  0  0  0  0
  -28.1068  -36.2618   24.6248 H   0  0  0  0  0  0
  -27.2327  -37.1415   25.8879 H   0  0  0  0  0  0
  -20.9317  -29.8733   21.6878 H   0  0  0  0  0  0
  -26.0166  -38.2864   24.1448 H   0  0  0  0  0  0
  -32.2918  -19.2614   18.9863 H   0  0  0  0  0  0
  -30.8631  -20.9472   20.0518 H   0  0  0  0  0  0
  -31.8968  -16.8861   19.2731 H   0  0  0  0  0  0
  -28.4088  -17.7738   21.6748 H   0  0  0  0  0  0
  -28.7553  -25.1960   18.6993 H   0  0  0  0  0  0
  -27.0130  -24.7742   22.0934 H   0  0  0  0  0  0
  -28.7147  -24.6812   22.5618 H   0  0  0  0  0  0
  -29.6827  -22.6214   19.8205 H   0  0  0  0  0  0
  -28.0042  -22.3480   19.3427 H   0  0  0  0  0  0
  -26.6861  -22.4937   22.4542 H   0  0  0  0  0  0
  -28.1654  -22.6006   23.4045 H   0  0  0  0  0  0
  -28.9761  -15.4478   21.1578 H   0  0  0  0  0  0
  -28.4986  -19.1584   23.1547 H   0  0  0  0  0  0
  -27.6634  -20.6386   23.4744 H   0  0  0  0  0  0
  1 25  1  0  0  0
  1 30  2  0  0  0
  1 84  1  0  0  0
  2  3  1  0  0  0
  2 25  1  0  0  0
  2 86  1  0  0  0
  2 87  1  0  0  0
  3  4  1  0  0  0
  3 88  1  0  0  0
  3 89  1  0  0  0
  4  5  1  0  0  0
  4 90  1  0  0  0
  4 91  1  0  0  0
  5  6  1  0  0  0
  5 26  1  0  0  0
  5 92  1  0  0  0
  6 25  1  0  0  0
  6 93  1  0  0  0
  6 94  1  0  0  0
  7  8  2  0  0  0
  7 26  1  0  0  0
  7 29  1  0  0  0
  8  9  1  0  0  0
  8 22  1  0  0  0
  9 10  1  0  0  0
  9 27  2  0  0  0
 10 11  2  0  0  0
 10 15  1  0  0  0
 11 12  1  0  0  0
 11 95  1  0  0  0
 12 13  2  0  0  0
 12 96  1  0  0  0
 13 14  1  0  0  0
 13 31  1  0  0  0
 14 15  2  0  0  0
 14 97  1  0  0  0
 15 98  1  0  0  0
 16 17  2  0  0  0
 16 21  1  0  0  0
 16 31  1  0  0  0
 17 18  1  0  0  0
 17 99  1  0  0  0
 18 19  2  0  0  0
 18100  1  0  0  0
 19 20  1  0  0  0
 19 24  1  0  0  0
 20 21  2  0  0  0
 20101  1  0  0  0
 21 23  1  0  0  0
 22 28  1  0  0  0
 22 32  2  0  0  0
 26 27  1  0  0  0
 28102  1  0  0  0
 28103  1  0  0  0
 29104  1  0  0  0
 29105  1  0  0  0
 33 34  1  0  0  0
 33 66  1  0  0  0
 33 70  2  0  0  0
 34 36  1  0  0  0
 34 59  1  0  0  0
 34106  1  0  0  0
 35 44  2  0  0  0
 35 45  1  0  0  0
 35 68  1  0  0  0
 36 56  1  0  0  0
 36107  1  0  0  0
 37 39  1  0  0  0
 37 47  1  0  0  0
 37 66  1  0  0  0
 37108  1  0  0  0
 38 43  2  0  0  0
 38 46  1  0  0  0
 38 47  1  0  0  0
 39 64  1  0  0  0
 39 67  2  0  0  0
 40 52  1  0  0  0
 40 53  2  0  0  0
 40 58  1  0  0  0
 41109  1  0  0  0
 41110  1  0  0  0
 41111  1  0  0  0
 41 48  1  0  0  0
 42 43  1  0  0  0
 42 66  1  0  0  0
 42112  1  0  0  0
 42113  1  0  0  0
 43 44  1  0  0  0
 44114  1  0  0  0
 45 46  2  0  0  0
 45115  1  0  0  0
 46116  1  0  0  0
 47117  1  0  0  0
 47118  1  0  0  0
 48 56  1  0  0  0
 48 65  1  0  0  0
 48119  1  0  0  0
 49 50  1  0  0  0
 49 53  1  0  0  0
 49 64  1  0  0  0
 49120  1  0  0  0
 50 51  1  0  0  0
 50121  1  0  0  0
 50122  1  0  0  0
 51 52  1  0  0  0
 51123  1  0  0  0
 51124  1  0  0  0
 52125  1  0  0  0
 52126  1  0  0  0
 53 54  1  0  0  0
 54 55  2  0  0  0
 54127  1  0  0  0
 55 57  1  0  0  0
 55128  1  0  0  0
 56 69  2  0  0  0
 57 58  2  0  0  0
 57129  1  0  0  0
 58130  1  0  0  0
 59 60  1  0  0  0
 59 61  1  0  0  0
 59 62  1  0  0  0
 60131  1  0  0  0
 60132  1  0  0  0
 60133  1  0  0  0
 61134  1  0  0  0
 61135  1  0  0  0
 61136  1  0  0  0
 62137  1  0  0  0
 62138  1  0  0  0
 62139  1  0  0  0
 63 65  1  0  0  0
 63140  1  0  0  0
 63141  1  0  0  0
 63142  1  0  0  0
 64143  1  0  0  0
 65144  1  0  0  0
 68 78  1  0  0  0
 71 72  2  0  0  0
 71 73  1  0  0  0
 71145  1  0  0  0
 72 75  1  0  0  0
 72146  1  0  0  0
 73 76  2  0  0  0
 73147  1  0  0  0
 74 75  2  0  0  0
 74 76  1  0  0  0
 74148  1  0  0  0
 75 79  1  0  0  0
 76 84  1  0  0  0
 77 78  2  0  0  0
 77 80  1  0  0  0
 77 81  1  0  0  0
 78149  1  0  0  0
 79 83  1  0  0  0
 79 85  2  0  0  0
 80 82  1  0  0  0
 80150  1  0  0  0
 80151  1  0  0  0
 81 83  1  0  0  0
 81152  1  0  0  0
 81153  1  0  0  0
 82 83  1  0  0  0
 82154  1  0  0  0
 82155  1  0  0  0
 84156  1  0  0  0
 85157  1  0  0  0
 85158  1  0  0  0
M  CHG  1  85   1
M  ISO  4   1 100  68 101  78 101  84 100
M  END
> <chiral flag>
0

> <version>
0

> <s_m_source_file>
/data/baiqing/PycharmProjects/Reinvent-master-3.2/result/LINK_invent/BTK/process_docking_weight1_custom_product_contain_oxygen_bond_distance_aromatic_linkinvent_7_9_3/rearranged_h_0141.sdf

> <i_m_source_file_index>
40

> <r_mmod_Potential_Energy-OPLS-2005>
-123.983612060547

> <r_mmod_Stretch_Energy-OPLS-2005>
66.2931060791016

> <r_mmod_Bend_Energy-OPLS-2005>
152.779052734375

> <r_mmod_Torsional_Energy-OPLS-2005>
249.567001342773

> <r_mmod_Improper_Torsional_Energy-OPLS-2005>
5.48828172683716

> <r_mmod_Van_der_Waal_Energy-OPLS-2005>
156.79557800293

> <r_mmod_Electrostatic_Energy-OPLS-2005>
-383.349273681641

> <r_mmod_Solvation_Energy-OPLS-2005>
-405.175048828125

> <b_mmod_Minimization_Converged-OPLS-2005>
0

> <r_mmod_RMS_Derivative-OPLS-2005>
1.91596722602844

$$$$
40
                    3D
 Structure written by MMmdl.
161169  0  0  1  0            999 V2000
  -30.7208  -14.4262   20.5377 C   0  0  0  0  0  0
  -30.4080  -12.2672   19.4258 C   0  0  0  0  0  0
  -29.4895  -12.4948   18.2078 C   0  0  0  0  0  0
  -28.0090  -12.3698   18.6164 C   0  0  0  0  0  0
  -27.6610  -13.2078   19.8756 C   0  0  2  0  0  0
  -28.7014  -12.9899   20.9993 C   0  0  0  0  0  0
  -25.2585  -13.8177   20.5699 C   0  0  0  0  0  0
  -24.1815  -13.0438   20.9141 C   0  0  0  0  0  0
  -24.6366  -11.6911   20.8697 C   0  0  0  0  0  0
  -23.9027  -10.4288   21.0381 C   0  0  0  0  0  0
  -24.3588   -9.4217   21.9173 C   0  0  0  0  0  0
  -23.6280   -8.2235   22.0767 C   0  0  0  0  0  0
  -22.4273   -8.0256   21.3546 C   0  0  0  0  0  0
  -21.9880   -9.0225   20.4658 C   0  0  0  0  0  0
  -22.7189  -10.2121   20.3047 C   0  0  0  0  0  0
  -21.6865   -6.0693   22.5265 C   0  0  0  0  0  0
  -21.4002   -6.5612   23.8188 C   0  0  0  0  0  0
  -21.3660   -5.6781   24.9163 C   0  0  0  0  0  0
  -21.6066   -4.3042   24.7230 C   0  0  0  0  0  0
  -21.8831   -3.8111   23.4354 C   0  0  0  0  0  0
  -21.9207   -4.6918   22.3398 C   0  0  0  0  0  0
  -22.7844  -13.5243   21.1818 C   0  0  0  0  0  0
  -22.1676   -4.2089   21.0979 F   0  0  0  0  0  0
  -21.5655   -3.4533   25.7752 F   0  0  0  0  0  0
  -30.0363  -13.2593   20.4454 N   0  0  0  0  0  0
  -26.3011  -12.9357   20.3362 N   0  0  0  0  0  0
  -25.9305  -11.6513   20.5748 N   0  0  0  0  0  0
  -22.0461  -12.8256   22.0383 N   0  0  0  0  0  0
  -25.4326  -15.1891   20.4214 N   0  0  0  0  0  0
  -31.8755  -14.5551   20.1229 O   0  0  0  0  0  0
  -21.6667   -6.8829   21.4231 O   0  0  0  0  0  0
  -22.3528  -14.5549   20.6678 O   0  0  0  0  0  0
  -24.6113  -31.8707   23.2123 C   0  0  0  0  0  0
  -25.9023  -32.4836   23.8414 C   0  0  1  0  0  0
  -27.2333  -27.4688   20.1003 C   0  0  0  0  0  0
  -25.5893  -33.8632   24.2349 N   0  0  0  0  0  0
  -23.3969  -30.4936   21.5522 C   0  0  2  0  0  0
  -24.8428  -28.9609   20.1178 C   0  0  0  0  0  0
  -22.7391  -29.4673   22.5008 C   0  0  0  0  0  0
  -18.0265  -28.1379   22.8494 C   0  0  0  0  0  0
  -24.1478  -36.7313   23.2641 C   0  0  0  0  0  0
  -25.9209  -30.8478   21.3589 C   0  0  0  0  0  0
  -25.9991  -29.4832   20.7112 C   0  0  0  0  0  0
  -27.2004  -28.7462   20.6967 C   0  0  0  0  0  0
  -26.0698  -26.9564   19.4923 C   0  0  0  0  0  0
  -24.8707  -27.6940   19.5058 C   0  0  0  0  0  0
  -23.6028  -29.8234   20.1676 C   0  0  0  0  0  0
  -25.4100  -36.3124   24.0349 C   0  0  1  0  0  0
  -20.5853  -28.3656   23.1330 C   0  0  2  0  0  0
  -20.6757  -26.9398   22.5416 C   0  0  0  0  0  0
  -19.5737  -26.6389   21.5214 C   0  0  0  0  0  0
  -18.1915  -26.7929   22.1624 C   0  0  0  0  0  0
  -19.1514  -28.8834   23.2911 C   0  0  0  0  0  0
  -18.9445  -30.1440   23.8921 C   0  0  0  0  0  0
  -17.6455  -30.6588   24.0568 C   0  0  0  0  0  0
  -25.9030  -34.9488   23.5147 C   0  0  0  0  0  0
  -16.5341  -29.9092   23.6328 C   0  0  0  0  0  0
  -16.7255  -28.6504   23.0348 C   0  0  0  0  0  0
  -26.4464  -31.6593   25.0719 C   0  0  0  0  0  0
  -25.3740  -31.3690   26.1474 C   0  0  0  0  0  0
  -27.0284  -30.3038   24.6060 C   0  0  0  0  0  0
  -27.6063  -32.4288   25.7468 C   0  0  0  0  0  0
  -27.5580  -37.1810   24.8470 C   0  0  0  0  0  0
  -21.4123  -29.3031   22.3746 N   0  0  0  0  0  0
  -26.4291  -37.3805   23.9420 N   0  0  0  0  0  0
  -24.6611  -31.0840   22.1007 N   0  0  0  0  0  0
  -23.4177  -28.8223   23.3048 O   0  0  0  0  0  0
  -28.4020  -26.7492   20.0455 O   0  0  0  0  0  0
  -26.5583  -34.8935   22.4703 O   0  0  0  0  0  0
  -23.5317  -32.1446   23.7538 O   0  0  0  0  0  0
  -29.4351  -17.9629   20.9026 C   0  0  0  0  0  0
  -31.1351  -17.2677   19.5913 C   0  0  0  0  0  0
  -30.2096  -16.8329   20.5064 C   0  0  0  0  0  0
  -29.9669  -19.0005   20.1732 C   0  0  0  0  0  0
  -27.6281  -24.7414   21.2171 C   0  0  0  0  0  0
  -27.6345  -23.3950   21.0409 C   0  0  0  0  0  0
  -28.9216  -21.0361   21.0304 C   0  0  0  0  0  0
  -26.3151  -22.6447   21.1578 C   0  0  0  0  0  0
  -30.1210  -25.3835   20.7304 C   0  0  0  0  0  0
  -28.7899  -26.5906   22.4633 C   0  0  0  0  0  0
  -28.8618  -22.5387   20.7031 C   0  0  0  0  0  0
  -28.7049  -25.8415   21.1178 C   0  0  0  0  0  0
  -30.0065  -15.4899   20.9480 N   0  0  0  0  0  0
  -29.5864  -20.2978   20.1290 N   0  0  0  0  0  0
  -28.4346  -20.5874   22.0714 O   0  0  0  0  0  0
  -30.9874  -18.5971   19.3715 O   0  0  0  0  0  0
  -31.4556  -12.3350   19.1267 H   0  0  0  0  0  0
  -30.2797  -11.2587   19.8217 H   0  0  0  0  0  0
  -29.7208  -11.7765   17.4199 H   0  0  0  0  0  0
  -29.6716  -13.4857   17.7867 H   0  0  0  0  0  0
  -27.8090  -11.3156   18.8068 H   0  0  0  0  0  0
  -27.3608  -12.6558   17.7866 H   0  0  0  0  0  0
  -27.7073  -14.2543   19.5744 H   0  0  0  0  0  0
  -28.6623  -11.9631   21.3648 H   0  0  0  0  0  0
  -28.4807  -13.6154   21.8653 H   0  0  0  0  0  0
  -25.2720   -9.5717   22.4756 H   0  0  0  0  0  0
  -23.9979   -7.4653   22.7529 H   0  0  0  0  0  0
  -21.0777   -8.8723   19.9016 H   0  0  0  0  0  0
  -22.3596  -10.9641   19.6157 H   0  0  0  0  0  0
  -21.1967   -7.6127   23.9651 H   0  0  0  0  0  0
  -21.1493   -6.0528   25.9062 H   0  0  0  0  0  0
  -22.0620   -2.7569   23.2873 H   0  0  0  0  0  0
  -22.4029  -11.9910   22.4797 H   0  0  0  0  0  0
  -21.1097  -13.1374   22.2556 H   0  0  0  0  0  0
  -24.6793  -15.8481   20.5860 H   0  0  0  0  0  0
  -26.2968  -15.6380   20.1450 H   0  0  0  0  0  0
  -26.7094  -32.5567   23.1188 H   0  0  0  0  0  0
  -25.0069  -33.9798   25.0508 H   0  0  0  0  0  0
  -22.6849  -31.3095   21.4147 H   0  0  0  0  0  0
  -23.3754  -35.9634   23.3313 H   0  0  0  0  0  0
  -24.3574  -36.8911   22.2055 H   0  0  0  0  0  0
  -23.7210  -37.6516   23.6637 H   0  0  0  0  0  0
  -26.0237  -31.6115   20.5867 H   0  0  0  0  0  0
  -26.8137  -30.9060   21.9704 H   0  0  0  0  0  0
  -28.0988  -29.1524   21.1402 H   0  0  0  0  0  0
  -26.0947  -25.9873   19.0144 H   0  0  0  0  0  0
  -23.9828  -27.2875   19.0408 H   0  0  0  0  0  0
  -23.7079  -30.5963   19.4059 H   0  0  0  0  0  0
  -22.7293  -29.2382   19.8758 H   0  0  0  0  0  0
  -25.1271  -36.2005   25.0843 H   0  0  0  0  0  0
  -20.9947  -28.3224   24.1453 H   0  0  0  0  0  0
  -20.5677  -26.2266   23.3599 H   0  0  0  0  0  0
  -21.6627  -26.7464   22.1203 H   0  0  0  0  0  0
  -19.6898  -25.6306   21.1235 H   0  0  0  0  0  0
  -19.6680  -27.3212   20.6757 H   0  0  0  0  0  0
  -17.4189  -26.6682   21.4019 H   0  0  0  0  0  0
  -18.0312  -26.0064   22.9015 H   0  0  0  0  0  0
  -19.7924  -30.7236   24.2311 H   0  0  0  0  0  0
  -17.5014  -31.6275   24.5162 H   0  0  0  0  0  0
  -15.5344  -30.3006   23.7641 H   0  0  0  0  0  0
  -15.8655  -28.0843   22.7051 H   0  0  0  0  0  0
  -24.5889  -30.7069   25.7803 H   0  0  0  0  0  0
  -24.8954  -32.2843   26.4971 H   0  0  0  0  0  0
  -25.8086  -30.8811   27.0209 H   0  0  0  0  0  0
  -26.2814  -29.6800   24.1134 H   0  0  0  0  0  0
  -27.4095  -29.7265   25.4498 H   0  0  0  0  0  0
  -27.8634  -30.4368   23.9172 H   0  0  0  0  0  0
  -27.2719  -33.3591   26.2076 H   0  0  0  0  0  0
  -28.3857  -32.6837   25.0272 H   0  0  0  0  0  0
  -28.0750  -31.8383   26.5353 H   0  0  0  0  0  0
  -28.2613  -38.0094   24.7526 H   0  0  0  0  0  0
  -28.1055  -36.2631   24.6283 H   0  0  0  0  0  0
  -27.2299  -37.1457   25.8871 H   0  0  0  0  0  0
  -20.9280  -29.8737   21.6957 H   0  0  0  0  0  0
  -26.0189  -38.2889   24.1424 H   0  0  0  0  0  0
  -28.6085  -18.0085   21.5980 H   0  0  0  0  0  0
  -31.9139  -16.8001   19.0050 H   0  0  0  0  0  0
  -26.6685  -25.1653   21.4789 H   0  0  0  0  0  0
  -25.4611  -23.3213   21.2076 H   0  0  0  0  0  0
  -26.2956  -22.0318   22.0587 H   0  0  0  0  0  0
  -26.1693  -21.9981   20.2924 H   0  0  0  0  0  0
  -30.6058  -24.8217   21.5283 H   0  0  0  0  0  0
  -30.7625  -26.2452   20.5426 H   0  0  0  0  0  0
  -30.1253  -24.7942   19.8145 H   0  0  0  0  0  0
  -29.1388  -25.9285   23.2571 H   0  0  0  0  0  0
  -27.8197  -26.9758   22.7788 H   0  0  0  0  0  0
  -29.4806  -27.4328   22.4138 H   0  0  0  0  0  0
  -29.7244  -22.9308   21.2269 H   0  0  0  0  0  0
  -29.0498  -22.6660   19.6362 H   0  0  0  0  0  0
  -29.1246  -15.2849   21.3922 H   0  0  0  0  0  0
  -29.9655  -20.8185   19.3510 H   0  0  0  0  0  0
  1 25  1  0  0  0
  1 30  2  0  0  0
  1 83  1  0  0  0
  2  3  1  0  0  0
  2 25  1  0  0  0
  2 87  1  0  0  0
  2 88  1  0  0  0
  3  4  1  0  0  0
  3 89  1  0  0  0
  3 90  1  0  0  0
  4  5  1  0  0  0
  4 91  1  0  0  0
  4 92  1  0  0  0
  5  6  1  0  0  0
  5 26  1  0  0  0
  5 93  1  0  0  0
  6 25  1  0  0  0
  6 94  1  0  0  0
  6 95  1  0  0  0
  7  8  2  0  0  0
  7 26  1  0  0  0
  7 29  1  0  0  0
  8  9  1  0  0  0
  8 22  1  0  0  0
  9 10  1  0  0  0
  9 27  2  0  0  0
 10 11  2  0  0  0
 10 15  1  0  0  0
 11 12  1  0  0  0
 11 96  1  0  0  0
 12 13  2  0  0  0
 12 97  1  0  0  0
 13 14  1  0  0  0
 13 31  1  0  0  0
 14 15  2  0  0  0
 14 98  1  0  0  0
 15 99  1  0  0  0
 16 17  2  0  0  0
 16 21  1  0  0  0
 16 31  1  0  0  0
 17 18  1  0  0  0
 17100  1  0  0  0
 18 19  2  0  0  0
 18101  1  0  0  0
 19 20  1  0  0  0
 19 24  1  0  0  0
 20 21  2  0  0  0
 20102  1  0  0  0
 21 23  1  0  0  0
 22 28  1  0  0  0
 22 32  2  0  0  0
 26 27  1  0  0  0
 28103  1  0  0  0
 28104  1  0  0  0
 29105  1  0  0  0
 29106  1  0  0  0
 33 34  1  0  0  0
 33 66  1  0  0  0
 33 70  2  0  0  0
 34 36  1  0  0  0
 34 59  1  0  0  0
 34107  1  0  0  0
 35 44  2  0  0  0
 35 45  1  0  0  0
 35 68  1  0  0  0
 36 56  1  0  0  0
 36108  1  0  0  0
 37 39  1  0  0  0
 37 47  1  0  0  0
 37 66  1  0  0  0
 37109  1  0  0  0
 38 43  2  0  0  0
 38 46  1  0  0  0
 38 47  1  0  0  0
 39 64  1  0  0  0
 39 67  2  0  0  0
 40 52  1  0  0  0
 40 53  2  0  0  0
 40 58  1  0  0  0
 41110  1  0  0  0
 41111  1  0  0  0
 41112  1  0  0  0
 41 48  1  0  0  0
 42 43  1  0  0  0
 42 66  1  0  0  0
 42113  1  0  0  0
 42114  1  0  0  0
 43 44  1  0  0  0
 44115  1  0  0  0
 45 46  2  0  0  0
 45116  1  0  0  0
 46117  1  0  0  0
 47118  1  0  0  0
 47119  1  0  0  0
 48 56  1  0  0  0
 48 65  1  0  0  0
 48120  1  0  0  0
 49 50  1  0  0  0
 49 53  1  0  0  0
 49 64  1  0  0  0
 49121  1  0  0  0
 50 51  1  0  0  0
 50122  1  0  0  0
 50123  1  0  0  0
 51 52  1  0  0  0
 51124  1  0  0  0
 51125  1  0  0  0
 52126  1  0  0  0
 52127  1  0  0  0
 53 54  1  0  0  0
 54 55  2  0  0  0
 54128  1  0  0  0
 55 57  1  0  0  0
 55129  1  0  0  0
 56 69  2  0  0  0
 57 58  2  0  0  0
 57130  1  0  0  0
 58131  1  0  0  0
 59 60  1  0  0  0
 59 61  1  0  0  0
 59 62  1  0  0  0
 60132  1  0  0  0
 60133  1  0  0  0
 60134  1  0  0  0
 61135  1  0  0  0
 61136  1  0  0  0
 61137  1  0  0  0
 62138  1  0  0  0
 62139  1  0  0  0
 62140  1  0  0  0
 63 65  1  0  0  0
 63141  1  0  0  0
 63142  1  0  0  0
 63143  1  0  0  0
 64144  1  0  0  0
 65145  1  0  0  0
 68 82  1  0  0  0
 71 73  1  0  0  0
 71 74  2  0  0  0
 71146  1  0  0  0
 72 73  2  0  0  0
 72 86  1  0  0  0
 72147  1  0  0  0
 73 83  1  0  0  0
 74 84  1  0  0  0
 74 86  1  0  0  0
 75 76  2  0  0  0
 75 82  1  0  0  0
 75148  1  0  0  0
 76 78  1  0  0  0
 76 81  1  0  0  0
 77 81  1  0  0  0
 77 84  1  0  0  0
 77 85  2  0  0  0
 78149  1  0  0  0
 78150  1  0  0  0
 78151  1  0  0  0
 79152  1  0  0  0
 79153  1  0  0  0
 79154  1  0  0  0
 79 82  1  0  0  0
 80 82  1  0  0  0
 80155  1  0  0  0
 80156  1  0  0  0
 80157  1  0  0  0
 81158  1  0  0  0
 81159  1  0  0  0
 83160  1  0  0  0
 84161  1  0  0  0
M  ISO  4   1 100  68 101  82 101  83 100
M  END
> <chiral flag>
0

> <version>
0

> <s_m_source_file>
/data/baiqing/PycharmProjects/Reinvent-master-3.2/result/LINK_invent/BTK/process_docking_weight1_custom_product_contain_oxygen_bond_distance_aromatic_linkinvent_7_9_3/rearranged_h_0141.sdf

> <i_m_source_file_index>
41

> <r_mmod_Potential_Energy-OPLS-2005>
-35.7739868164062

> <r_mmod_Stretch_Energy-OPLS-2005>
34.3710594177246

> <r_mmod_Bend_Energy-OPLS-2005>
144.729629516602

> <r_mmod_Torsional_Energy-OPLS-2005>
236.220687866211

> <r_mmod_Improper_Torsional_Energy-OPLS-2005>
5.21269178390503

> <r_mmod_Van_der_Waal_Energy-OPLS-2005>
150.578842163086

> <r_mmod_Electrostatic_Energy-OPLS-2005>
-404.821441650391

> <r_mmod_Solvation_Energy-OPLS-2005>
-213.788299560547

> <b_mmod_Minimization_Converged-OPLS-2005>
0

> <r_mmod_RMS_Derivative-OPLS-2005>
2.2131028175354

$$$$
41
                    3D
 Structure written by MMmdl.
171181  0  0  1  0            999 V2000
  -30.7600  -14.3486   20.7045 C   0  0  0  0  0  0
  -30.4201  -12.2894   19.3854 C   0  0  0  0  0  0
  -29.4821  -12.5303   18.1878 C   0  0  0  0  0  0
  -28.0063  -12.3846   18.6044 C   0  0  0  0  0  0
  -27.6674  -13.1981   19.8805 C   0  0  2  0  0  0
  -28.7030  -12.9182   20.9911 C   0  0  0  0  0  0
  -25.2617  -13.8148   20.5673 C   0  0  0  0  0  0
  -24.1848  -13.0440   20.9162 C   0  0  0  0  0  0
  -24.6382  -11.6902   20.8712 C   0  0  0  0  0  0
  -23.9043  -10.4293   21.0394 C   0  0  0  0  0  0
  -24.3600   -9.4216   21.9175 C   0  0  0  0  0  0
  -23.6286   -8.2248   22.0751 C   0  0  0  0  0  0
  -22.4266   -8.0281   21.3543 C   0  0  0  0  0  0
  -21.9894   -9.0247   20.4644 C   0  0  0  0  0  0
  -22.7214  -10.2132   20.3048 C   0  0  0  0  0  0
  -21.6849   -6.0734   22.5281 C   0  0  0  0  0  0
  -21.4009   -6.5638   23.8212 C   0  0  0  0  0  0
  -21.3662   -5.6790   24.9173 C   0  0  0  0  0  0
  -21.6045   -4.3055   24.7223 C   0  0  0  0  0  0
  -21.8819   -3.8143   23.4346 C   0  0  0  0  0  0
  -21.9192   -4.6961   22.3403 C   0  0  0  0  0  0
  -22.7874  -13.5248   21.1839 C   0  0  0  0  0  0
  -22.1661   -4.2146   21.0982 F   0  0  0  0  0  0
  -21.5632   -3.4542   25.7738 F   0  0  0  0  0  0
  -30.0501  -13.2165   20.4642 N   0  0  0  0  0  0
  -26.3046  -12.9301   20.3367 N   0  0  0  0  0  0
  -25.9305  -11.6464   20.5738 N   0  0  0  0  0  0
  -22.0505  -12.8240   22.0392 N   0  0  0  0  0  0
  -25.4378  -15.1865   20.4104 N   0  0  0  0  0  0
  -31.7650  -14.6664   20.0591 O   0  0  0  0  0  0
  -21.6636   -6.8874   21.4244 O   0  0  0  0  0  0
  -22.3558  -14.5561   20.6700 O   0  0  0  0  0  0
  -24.6104  -31.8705   23.2131 C   0  0  0  0  0  0
  -25.9012  -32.4838   23.8411 C   0  0  1  0  0  0
  -27.2419  -27.4597   20.1064 C   0  0  0  0  0  0
  -25.5886  -33.8639   24.2342 N   0  0  0  0  0  0
  -23.3980  -30.4923   21.5527 C   0  0  2  0  0  0
  -24.8470  -28.9551   20.1269 C   0  0  0  0  0  0
  -22.7389  -29.4663   22.5021 C   0  0  0  0  0  0
  -18.0266  -28.1377   22.8489 C   0  0  0  0  0  0
  -24.1489  -36.7316   23.2643 C   0  0  0  0  0  0
  -25.9225  -30.8406   21.3658 C   0  0  0  0  0  0
  -26.0018  -29.4716   20.7274 C   0  0  0  0  0  0
  -27.2020  -28.7287   20.7203 C   0  0  0  0  0  0
  -26.0766  -26.9579   19.4886 C   0  0  0  0  0  0
  -24.8756  -27.6923   19.5095 C   0  0  0  0  0  0
  -23.6078  -29.8203   20.1694 C   0  0  0  0  0  0
  -25.4110  -36.3119   24.0342 C   0  0  1  0  0  0
  -20.5852  -28.3654   23.1333 C   0  0  2  0  0  0
  -20.6764  -26.9397   22.5419 C   0  0  0  0  0  0
  -19.5744  -26.6385   21.5209 C   0  0  0  0  0  0
  -18.1916  -26.7919   22.1617 C   0  0  0  0  0  0
  -19.1518  -28.8829   23.2905 C   0  0  0  0  0  0
  -18.9451  -30.1434   23.8914 C   0  0  0  0  0  0
  -17.6457  -30.6585   24.0565 C   0  0  0  0  0  0
  -25.9033  -34.9483   23.5139 C   0  0  0  0  0  0
  -16.5347  -29.9092   23.6326 C   0  0  0  0  0  0
  -16.7257  -28.6511   23.0340 C   0  0  0  0  0  0
  -26.4456  -31.6606   25.0719 C   0  0  0  0  0  0
  -25.3744  -31.3717   26.1489 C   0  0  0  0  0  0
  -27.0281  -30.3059   24.6051 C   0  0  0  0  0  0
  -27.6047  -32.4322   25.7463 C   0  0  0  0  0  0
  -27.5580  -37.1812   24.8470 C   0  0  0  0  0  0
  -21.4122  -29.3027   22.3752 N   0  0  0  0  0  0
  -26.4305  -37.3793   23.9401 N   0  0  0  0  0  0
  -24.6610  -31.0825   22.1027 N   0  0  0  0  0  0
  -23.4172  -28.8208   23.3056 O   0  0  0  0  0  0
  -28.4357  -26.7878   19.9838 O   0  0  0  0  0  0
  -26.5591  -34.8923   22.4695 O   0  0  0  0  0  0
  -23.5302  -32.1453   23.7537 O   0  0  0  0  0  0
  -29.3834  -23.9810   23.7177 C   0  0  0  0  0  0
  -31.5789  -17.1931   21.5858 C   0  0  0  0  0  0
  -29.8456  -25.1729   23.0888 C   0  0  0  0  0  0
  -30.4806  -23.3282   24.2036 C   0  0  0  0  0  0
  -31.1943  -25.2041   23.3349 C   0  0  0  0  0  0
  -30.6759  -16.3100   22.1433 C   0  0  0  0  0  0
  -30.8316  -18.5011   23.2801 C   0  0  0  0  0  0
  -29.4635  -21.2708   25.3358 C   0  0  0  0  0  0
  -29.8502  -19.7978   25.2551 C   0  0  0  0  0  0
  -31.2096  -20.9655   23.7464 C   0  0  0  0  0  0
  -30.7015  -21.9688   24.7896 C   0  0  1  0  0  0
  -32.2891  -26.1565   22.9860 C   0  0  0  0  0  0
  -27.6208  -24.5913   20.7946 C   0  0  0  0  0  0
  -29.9905  -25.0754   20.1545 C   0  0  0  0  0  0
  -29.0194  -26.1501   22.2731 C   0  0  0  0  0  0
  -28.7316  -25.6634   20.8237 C   0  0  0  0  0  0
  -31.6495  -18.4316   22.2319 N   0  0  0  0  0  0
  -30.6740  -19.6420   24.0605 N   0  0  0  0  0  0
  -30.3173  -15.0591   21.7530 N   0  0  0  0  0  0
  -31.5914  -24.0797   23.9920 O   0  0  0  0  0  0
  -29.9193  -17.0224   23.5500 S   0  0  0  0  0  0
  -31.4611  -12.4036   19.0775 H   0  0  0  0  0  0
  -30.3300  -11.2614   19.7391 H   0  0  0  0  0  0
  -29.7129  -11.8313   17.3830 H   0  0  0  0  0  0
  -29.6508  -13.5298   17.7834 H   0  0  0  0  0  0
  -27.8092  -11.3255   18.7756 H   0  0  0  0  0  0
  -27.3533  -12.6856   17.7843 H   0  0  0  0  0  0
  -27.7317  -14.2550   19.6199 H   0  0  0  0  0  0
  -28.6627  -11.8674   21.2822 H   0  0  0  0  0  0
  -28.4407  -13.4704   21.8936 H   0  0  0  0  0  0
  -25.2744   -9.5699   22.4750 H   0  0  0  0  0  0
  -24.0001   -7.4637   22.7470 H   0  0  0  0  0  0
  -21.0826   -8.8760   19.8943 H   0  0  0  0  0  0
  -22.3668  -10.9672   19.6160 H   0  0  0  0  0  0
  -21.1998   -7.6144   23.9715 H   0  0  0  0  0  0
  -21.1485   -6.0519   25.9076 H   0  0  0  0  0  0
  -22.0595   -2.7607   23.2847 H   0  0  0  0  0  0
  -22.4116  -11.9896   22.4773 H   0  0  0  0  0  0
  -21.1130  -13.1277   22.2603 H   0  0  0  0  0  0
  -24.6797  -15.8501   20.5278 H   0  0  0  0  0  0
  -26.3024  -15.6226   20.1140 H   0  0  0  0  0  0
  -26.7080  -32.5576   23.1179 H   0  0  0  0  0  0
  -25.0053  -33.9808   25.0497 H   0  0  0  0  0  0
  -22.6861  -31.3078   21.4111 H   0  0  0  0  0  0
  -23.3755  -35.9646   23.3312 H   0  0  0  0  0  0
  -24.3584  -36.8924   22.2057 H   0  0  0  0  0  0
  -23.7239  -37.6523   23.6651 H   0  0  0  0  0  0
  -26.0272  -31.6013   20.5909 H   0  0  0  0  0  0
  -26.8142  -30.9035   21.9772 H   0  0  0  0  0  0
  -28.1005  -29.1324   21.1647 H   0  0  0  0  0  0
  -26.1031  -26.0110   18.9702 H   0  0  0  0  0  0
  -23.9920  -27.2922   19.0321 H   0  0  0  0  0  0
  -23.7168  -30.5930   19.4071 H   0  0  0  0  0  0
  -22.7339  -29.2377   19.8729 H   0  0  0  0  0  0
  -25.1291  -36.1994   25.0839 H   0  0  0  0  0  0
  -20.9937  -28.3214   24.1458 H   0  0  0  0  0  0
  -20.5677  -26.2258   23.3600 H   0  0  0  0  0  0
  -21.6635  -26.7448   22.1204 H   0  0  0  0  0  0
  -19.6914  -25.6303   21.1228 H   0  0  0  0  0  0
  -19.6691  -27.3206   20.6753 H   0  0  0  0  0  0
  -17.4188  -26.6665   21.4015 H   0  0  0  0  0  0
  -18.0312  -26.0052   22.9004 H   0  0  0  0  0  0
  -19.7934  -30.7238   24.2295 H   0  0  0  0  0  0
  -17.5020  -31.6270   24.5160 H   0  0  0  0  0  0
  -15.5352  -30.3002   23.7649 H   0  0  0  0  0  0
  -15.8650  -28.0850   22.7041 H   0  0  0  0  0  0
  -24.5876  -30.7107   25.7834 H   0  0  0  0  0  0
  -24.8982  -32.2884   26.4982 H   0  0  0  0  0  0
  -25.8100  -30.8846   27.0220 H   0  0  0  0  0  0
  -26.2798  -29.6820   24.1146 H   0  0  0  0  0  0
  -27.4130  -29.7289   25.4468 H   0  0  0  0  0  0
  -27.8597  -30.4401   23.9128 H   0  0  0  0  0  0
  -27.2690  -33.3644   26.2014 H   0  0  0  0  0  0
  -28.3856  -32.6842   25.0278 H   0  0  0  0  0  0
  -28.0695  -31.8455   26.5391 H   0  0  0  0  0  0
  -28.2620  -38.0084   24.7492 H   0  0  0  0  0  0
  -28.1051  -36.2617   24.6336 H   0  0  0  0  0  0
  -27.2289  -37.1527   25.8870 H   0  0  0  0  0  0
  -20.9281  -29.8764   21.6991 H   0  0  0  0  0  0
  -26.0203  -38.2880   24.1387 H   0  0  0  0  0  0
  -28.3719  -23.6001   23.7322 H   0  0  0  0  0  0
  -32.2021  -17.0432   20.7158 H   0  0  0  0  0  0
  -29.1980  -21.5939   26.3430 H   0  0  0  0  0  0
  -28.6030  -21.4429   24.6890 H   0  0  0  0  0  0
  -28.9628  -19.1650   25.2261 H   0  0  0  0  0  0
  -30.4345  -19.5036   26.1289 H   0  0  0  0  0  0
  -32.2988  -20.9634   23.6828 H   0  0  0  0  0  0
  -30.8324  -21.2357   22.7587 H   0  0  0  0  0  0
  -31.4377  -22.0353   25.5931 H   0  0  0  0  0  0
  -31.8949  -27.0888   22.5831 H   0  0  0  0  0  0
  -32.9557  -25.7239   22.2398 H   0  0  0  0  0  0
  -32.8840  -26.4007   23.8657 H   0  0  0  0  0  0
  -27.9266  -23.6907   21.3271 H   0  0  0  0  0  0
  -27.3861  -24.2865   19.7750 H   0  0  0  0  0  0
  -26.7049  -24.9428   21.2691 H   0  0  0  0  0  0
  -30.3179  -24.1502   20.6310 H   0  0  0  0  0  0
  -30.8223  -25.7789   20.1930 H   0  0  0  0  0  0
  -29.8069  -24.8442   19.1046 H   0  0  0  0  0  0
  -29.5654  -27.0930   22.2350 H   0  0  0  0  0  0
  -28.0894  -26.3680   22.7990 H   0  0  0  0  0  0
  -29.5522  -14.6355   22.2569 H   0  0  0  0  0  0
  1 25  1  0  0  0
  1 30  2  0  0  0
  1 89  1  0  0  0
  2  3  1  0  0  0
  2 25  1  0  0  0
  2 92  1  0  0  0
  2 93  1  0  0  0
  3  4  1  0  0  0
  3 94  1  0  0  0
  3 95  1  0  0  0
  4  5  1  0  0  0
  4 96  1  0  0  0
  4 97  1  0  0  0
  5  6  1  0  0  0
  5 26  1  0  0  0
  5 98  1  0  0  0
  6 25  1  0  0  0
  6 99  1  0  0  0
  6100  1  0  0  0
  7  8  2  0  0  0
  7 26  1  0  0  0
  7 29  1  0  0  0
  8  9  1  0  0  0
  8 22  1  0  0  0
  9 10  1  0  0  0
  9 27  2  0  0  0
 10 11  2  0  0  0
 10 15  1  0  0  0
 11 12  1  0  0  0
 11101  1  0  0  0
 12 13  2  0  0  0
 12102  1  0  0  0
 13 14  1  0  0  0
 13 31  1  0  0  0
 14 15  2  0  0  0
 14103  1  0  0  0
 15104  1  0  0  0
 16 17  2  0  0  0
 16 21  1  0  0  0
 16 31  1  0  0  0
 17 18  1  0  0  0
 17105  1  0  0  0
 18 19  2  0  0  0
 18106  1  0  0  0
 19 20  1  0  0  0
 19 24  1  0  0  0
 20 21  2  0  0  0
 20107  1  0  0  0
 21 23  1  0  0  0
 22 28  1  0  0  0
 22 32  2  0  0  0
 26 27  1  0  0  0
 28108  1  0  0  0
 28109  1  0  0  0
 29110  1  0  0  0
 29111  1  0  0  0
 33 34  1  0  0  0
 33 66  1  0  0  0
 33 70  2  0  0  0
 34 36  1  0  0  0
 34 59  1  0  0  0
 34112  1  0  0  0
 35 44  2  0  0  0
 35 45  1  0  0  0
 35 68  1  0  0  0
 36 56  1  0  0  0
 36113  1  0  0  0
 37 39  1  0  0  0
 37 47  1  0  0  0
 37 66  1  0  0  0
 37114  1  0  0  0
 38 43  2  0  0  0
 38 46  1  0  0  0
 38 47  1  0  0  0
 39 64  1  0  0  0
 39 67  2  0  0  0
 40 52  1  0  0  0
 40 53  2  0  0  0
 40 58  1  0  0  0
 41115  1  0  0  0
 41116  1  0  0  0
 41117  1  0  0  0
 41 48  1  0  0  0
 42 43  1  0  0  0
 42 66  1  0  0  0
 42118  1  0  0  0
 42119  1  0  0  0
 43 44  1  0  0  0
 44120  1  0  0  0
 45 46  2  0  0  0
 45121  1  0  0  0
 46122  1  0  0  0
 47123  1  0  0  0
 47124  1  0  0  0
 48 56  1  0  0  0
 48 65  1  0  0  0
 48125  1  0  0  0
 49 50  1  0  0  0
 49 53  1  0  0  0
 49 64  1  0  0  0
 49126  1  0  0  0
 50 51  1  0  0  0
 50127  1  0  0  0
 50128  1  0  0  0
 51 52  1  0  0  0
 51129  1  0  0  0
 51130  1  0  0  0
 52131  1  0  0  0
 52132  1  0  0  0
 53 54  1  0  0  0
 54 55  2  0  0  0
 54133  1  0  0  0
 55 57  1  0  0  0
 55134  1  0  0  0
 56 69  2  0  0  0
 57 58  2  0  0  0
 57135  1  0  0  0
 58136  1  0  0  0
 59 60  1  0  0  0
 59 61  1  0  0  0
 59 62  1  0  0  0
 60137  1  0  0  0
 60138  1  0  0  0
 60139  1  0  0  0
 61140  1  0  0  0
 61141  1  0  0  0
 61142  1  0  0  0
 62143  1  0  0  0
 62144  1  0  0  0
 62145  1  0  0  0
 63 65  1  0  0  0
 63146  1  0  0  0
 63147  1  0  0  0
 63148  1  0  0  0
 64149  1  0  0  0
 65150  1  0  0  0
 68 86  1  0  0  0
 71 73  1  0  0  0
 71 74  2  0  0  0
 71151  1  0  0  0
 72 76  2  0  0  0
 72 87  1  0  0  0
 72152  1  0  0  0
 73 75  2  0  0  0
 73 85  1  0  0  0
 74 90  1  0  0  0
 74 81  1  0  0  0
 75 82  1  0  0  0
 75 90  1  0  0  0
 76 89  1  0  0  0
 76 91  1  0  0  0
 77 87  2  0  0  0
 77 88  1  0  0  0
 77 91  1  0  0  0
 78 79  1  0  0  0
 78 81  1  0  0  0
 78153  1  0  0  0
 78154  1  0  0  0
 79 88  1  0  0  0
 79155  1  0  0  0
 79156  1  0  0  0
 80 81  1  0  0  0
 80 88  1  0  0  0
 80157  1  0  0  0
 80158  1  0  0  0
 81159  1  0  0  0
 82160  1  0  0  0
 82161  1  0  0  0
 82162  1  0  0  0
 83163  1  0  0  0
 83164  1  0  0  0
 83165  1  0  0  0
 83 86  1  0  0  0
 84 86  1  0  0  0
 84166  1  0  0  0
 84167  1  0  0  0
 84168  1  0  0  0
 85 86  1  0  0  0
 85169  1  0  0  0
 85170  1  0  0  0
 89171  1  0  0  0
M  ISO  4   1 100  68 101  86 101  89 100
M  END
> <chiral flag>
0

> <version>
0

> <s_m_source_file>
/data/baiqing/PycharmProjects/Reinvent-master-3.2/result/LINK_invent/BTK/process_docking_weight1_custom_product_contain_oxygen_bond_distance_aromatic_linkinvent_7_9_3/rearranged_h_0141.sdf

> <i_m_source_file_index>
42

> <r_mmod_Potential_Energy-OPLS-2005>
-62.5580368041992

> <r_mmod_Stretch_Energy-OPLS-2005>
32.2418098449707

> <r_mmod_Bend_Energy-OPLS-2005>
129.823989868164

> <r_mmod_Torsional_Energy-OPLS-2005>
275.551483154297

> <r_mmod_Improper_Torsional_Energy-OPLS-2005>
3.44074726104736

> <r_mmod_Van_der_Waal_Energy-OPLS-2005>
125.40357208252

> <r_mmod_Electrostatic_Energy-OPLS-2005>
-411.481262207031

> <r_mmod_Solvation_Energy-OPLS-2005>
-224.385620117188

> <b_mmod_Minimization_Converged-OPLS-2005>
0

> <r_mmod_RMS_Derivative-OPLS-2005>
1.30812036991119

$$$$
42
                    3D
 Structure written by MMmdl.
160168  0  0  1  0            999 V2000
  -30.6849  -14.4927   20.5108 C   0  0  0  0  0  0
  -30.4170  -12.2991   19.4356 C   0  0  0  0  0  0
  -29.4955  -12.4953   18.2130 C   0  0  0  0  0  0
  -28.0159  -12.3651   18.6209 C   0  0  0  0  0  0
  -27.6605  -13.2098   19.8739 C   0  0  2  0  0  0
  -28.7026  -13.0152   21.0008 C   0  0  0  0  0  0
  -25.2605  -13.8180   20.5694 C   0  0  0  0  0  0
  -24.1848  -13.0438   20.9168 C   0  0  0  0  0  0
  -24.6401  -11.6913   20.8730 C   0  0  0  0  0  0
  -23.9058  -10.4301   21.0403 C   0  0  0  0  0  0
  -24.3614   -9.4229   21.9187 C   0  0  0  0  0  0
  -23.6298   -8.2268   22.0769 C   0  0  0  0  0  0
  -22.4279   -8.0289   21.3561 C   0  0  0  0  0  0
  -21.9904   -9.0260   20.4661 C   0  0  0  0  0  0
  -22.7225  -10.2143   20.3065 C   0  0  0  0  0  0
  -21.6867   -6.0730   22.5280 C   0  0  0  0  0  0
  -21.4018   -6.5646   23.8198 C   0  0  0  0  0  0
  -21.3661   -5.6813   24.9172 C   0  0  0  0  0  0
  -21.6035   -4.3066   24.7236 C   0  0  0  0  0  0
  -21.8828   -3.8148   23.4359 C   0  0  0  0  0  0
  -21.9201   -4.6962   22.3401 C   0  0  0  0  0  0
  -22.7876  -13.5243   21.1836 C   0  0  0  0  0  0
  -22.1676   -4.2148   21.0980 F   0  0  0  0  0  0
  -21.5622   -3.4541   25.7741 F   0  0  0  0  0  0
  -30.0342  -13.3005   20.4449 N   0  0  0  0  0  0
  -26.3027  -12.9352   20.3359 N   0  0  0  0  0  0
  -25.9330  -11.6505   20.5761 N   0  0  0  0  0  0
  -22.0530  -12.8229   22.0392 N   0  0  0  0  0  0
  -25.4334  -15.1892   20.4118 N   0  0  0  0  0  0
  -31.8423  -14.6448   20.1072 O   0  0  0  0  0  0
  -21.6659   -6.8868   21.4241 O   0  0  0  0  0  0
  -22.3563  -14.5550   20.6692 O   0  0  0  0  0  0
  -24.6138  -31.8697   23.2089 C   0  0  0  0  0  0
  -25.9012  -32.4839   23.8408 C   0  0  1  0  0  0
  -27.2322  -27.4292   20.1063 C   0  0  0  0  0  0
  -25.5879  -33.8639   24.2345 N   0  0  0  0  0  0
  -23.4049  -30.4919   21.5487 C   0  0  2  0  0  0
  -24.8560  -28.9641   20.1100 C   0  0  0  0  0  0
  -22.7425  -29.4646   22.4956 C   0  0  0  0  0  0
  -18.0276  -28.1372   22.8491 C   0  0  0  0  0  0
  -24.1485  -36.7316   23.2642 C   0  0  0  0  0  0
  -25.9352  -30.8350   21.3640 C   0  0  0  0  0  0
  -26.0151  -29.4694   20.7111 C   0  0  0  0  0  0
  -27.2111  -28.7117   20.7028 C   0  0  0  0  0  0
  -26.0595  -26.9499   19.4830 C   0  0  0  0  0  0
  -24.8755  -27.7064   19.4851 C   0  0  0  0  0  0
  -23.6158  -29.8263   20.1625 C   0  0  0  0  0  0
  -25.4104  -36.3122   24.0351 C   0  0  1  0  0  0
  -20.5867  -28.3667   23.1310 C   0  0  2  0  0  0
  -20.6757  -26.9398   22.5408 C   0  0  0  0  0  0
  -19.5733  -26.6379   21.5204 C   0  0  0  0  0  0
  -18.1915  -26.7922   22.1614 C   0  0  0  0  0  0
  -19.1523  -28.8829   23.2905 C   0  0  0  0  0  0
  -18.9448  -30.1435   23.8916 C   0  0  0  0  0  0
  -17.6448  -30.6580   24.0563 C   0  0  0  0  0  0
  -25.9032  -34.9488   23.5142 C   0  0  0  0  0  0
  -16.5341  -29.9079   23.6330 C   0  0  0  0  0  0
  -16.7263  -28.6497   23.0344 C   0  0  0  0  0  0
  -26.4456  -31.6610   25.0730 C   0  0  0  0  0  0
  -25.3733  -31.3678   26.1483 C   0  0  0  0  0  0
  -27.0294  -30.3065   24.6090 C   0  0  0  0  0  0
  -27.6048  -32.4323   25.7478 C   0  0  0  0  0  0
  -27.5589  -37.1806   24.8470 C   0  0  0  0  0  0
  -21.4146  -29.3035   22.3717 N   0  0  0  0  0  0
  -26.4295  -37.3803   23.9424 N   0  0  0  0  0  0
  -24.6695  -31.0800   22.0986 N   0  0  0  0  0  0
  -23.4209  -28.8178   23.2979 O   0  0  0  0  0  0
  -28.3659  -26.6426   20.1362 O   0  0  0  0  0  0
  -26.5599  -34.8943   22.4705 O   0  0  0  0  0  0
  -23.5325  -32.1419   23.7478 O   0  0  0  0  0  0
  -29.5968  -18.0331   20.8843 C   0  0  0  0  0  0
  -29.8325  -19.3171   18.8166 C   0  0  0  0  0  0
  -30.2239  -16.9155   18.8054 C   0  0  0  0  0  0
  -29.5317  -19.2796   20.1976 C   0  0  0  0  0  0
  -29.9388  -16.8355   20.1923 C   0  0  0  0  0  0
  -30.1804  -18.1458   18.1268 C   0  0  0  0  0  0
  -28.3675  -21.4476   20.4276 C   0  0  0  0  0  0
  -30.1546  -24.1905   19.8090 C   0  0  0  0  0  0
  -27.8850  -24.0236   18.7962 C   0  0  0  0  0  0
  -28.3758  -22.8608   21.0698 C   0  0  0  0  0  0
  -28.2143  -25.4084   20.8776 C   0  0  0  0  0  0
  -28.6513  -24.1056   20.1328 C   0  0  0  0  0  0
  -29.2254  -20.5042   20.8753 N   0  0  0  0  0  0
  -29.9299  -15.5592   20.8572 N   0  0  0  0  0  0
  -27.5120  -21.1791   19.5799 O   0  0  0  0  0  0
  -30.4671  -18.2006   16.8044 F   0  0  0  0  0  0
  -31.4637  -12.3805   19.1354 H   0  0  0  0  0  0
  -30.3012  -11.2947   19.8458 H   0  0  0  0  0  0
  -29.7326  -11.7657   17.4376 H   0  0  0  0  0  0
  -29.6721  -13.4768   17.7718 H   0  0  0  0  0  0
  -27.8183  -11.3114   18.8153 H   0  0  0  0  0  0
  -27.3720  -12.6463   17.7871 H   0  0  0  0  0  0
  -27.6958  -14.2536   19.5632 H   0  0  0  0  0  0
  -28.6771  -11.9927   21.3806 H   0  0  0  0  0  0
  -28.4717  -13.6509   21.8570 H   0  0  0  0  0  0
  -25.2766   -9.5704   22.4749 H   0  0  0  0  0  0
  -24.0009   -7.4659   22.7489 H   0  0  0  0  0  0
  -21.0831   -8.8768   19.8959 H   0  0  0  0  0  0
  -22.3677  -10.9683   19.6167 H   0  0  0  0  0  0
  -21.2018   -7.6152   23.9694 H   0  0  0  0  0  0
  -21.1468   -6.0547   25.9073 H   0  0  0  0  0  0
  -22.0602   -2.7607   23.2860 H   0  0  0  0  0  0
  -22.4168  -11.9874   22.4733 H   0  0  0  0  0  0
  -21.1159  -13.1253   22.2622 H   0  0  0  0  0  0
  -24.6660  -15.8444   20.5147 H   0  0  0  0  0  0
  -26.2892  -15.6308   20.1004 H   0  0  0  0  0  0
  -26.7092  -32.5563   23.1190 H   0  0  0  0  0  0
  -25.0034  -33.9836   25.0490 H   0  0  0  0  0  0
  -22.6919  -31.3077   21.4094 H   0  0  0  0  0  0
  -23.3764  -35.9630   23.3279 H   0  0  0  0  0  0
  -24.3578  -36.8951   22.2061 H   0  0  0  0  0  0
  -23.7217  -37.6508   23.6666 H   0  0  0  0  0  0
  -26.0477  -31.5987   20.5945 H   0  0  0  0  0  0
  -26.8241  -30.8911   21.9803 H   0  0  0  0  0  0
  -28.1045  -29.0960   21.1757 H   0  0  0  0  0  0
  -26.0531  -25.9878   18.9972 H   0  0  0  0  0  0
  -23.9898  -27.3184   19.0016 H   0  0  0  0  0  0
  -23.7187  -30.6034   19.4050 H   0  0  0  0  0  0
  -22.7437  -29.2429   19.8639 H   0  0  0  0  0  0
  -25.1270  -36.2001   25.0845 H   0  0  0  0  0  0
  -20.9967  -28.3218   24.1427 H   0  0  0  0  0  0
  -20.5638  -26.2269   23.3593 H   0  0  0  0  0  0
  -21.6625  -26.7417   22.1202 H   0  0  0  0  0  0
  -19.6894  -25.6297   21.1210 H   0  0  0  0  0  0
  -19.6670  -27.3207   20.6744 H   0  0  0  0  0  0
  -17.4181  -26.6665   21.4024 H   0  0  0  0  0  0
  -18.0327  -26.0071   22.9014 H   0  0  0  0  0  0
  -19.7919  -30.7246   24.2297 H   0  0  0  0  0  0
  -17.5004  -31.6270   24.5143 H   0  0  0  0  0  0
  -15.5338  -30.2979   23.7658 H   0  0  0  0  0  0
  -15.8663  -28.0834   22.7035 H   0  0  0  0  0  0
  -24.5912  -30.7031   25.7803 H   0  0  0  0  0  0
  -24.8917  -32.2805   26.5000 H   0  0  0  0  0  0
  -25.8099  -30.8798   27.0202 H   0  0  0  0  0  0
  -26.2816  -29.6813   24.1203 H   0  0  0  0  0  0
  -27.4139  -29.7335   25.4536 H   0  0  0  0  0  0
  -27.8622  -30.4407   23.9184 H   0  0  0  0  0  0
  -27.2695  -33.3634   26.2067 H   0  0  0  0  0  0
  -28.3839  -32.6855   25.0273 H   0  0  0  0  0  0
  -28.0738  -31.8432   26.5375 H   0  0  0  0  0  0
  -28.2590  -38.0124   24.7556 H   0  0  0  0  0  0
  -28.1097  -36.2653   24.6232 H   0  0  0  0  0  0
  -27.2323  -37.1402   25.8881 H   0  0  0  0  0  0
  -20.9300  -29.8789   21.6975 H   0  0  0  0  0  0
  -26.0187  -38.2881   24.1441 H   0  0  0  0  0  0
  -29.3771  -17.9966   21.9422 H   0  0  0  0  0  0
  -29.8020  -20.2480   18.2701 H   0  0  0  0  0  0
  -30.4760  -16.0360   18.2312 H   0  0  0  0  0  0
  -30.4990  -23.3132   19.2606 H   0  0  0  0  0  0
  -30.7553  -24.2667   20.7154 H   0  0  0  0  0  0
  -30.3744  -25.0660   19.1975 H   0  0  0  0  0  0
  -28.2312  -23.2010   18.1714 H   0  0  0  0  0  0
  -28.0275  -24.9286   18.2078 H   0  0  0  0  0  0
  -26.8146  -23.8908   18.9565 H   0  0  0  0  0  0
  -29.0878  -22.8737   21.8971 H   0  0  0  0  0  0
  -27.4003  -22.9808   21.5438 H   0  0  0  0  0  0
  -28.8057  -25.5165   21.7880 H   0  0  0  0  0  0
  -27.1865  -25.2838   21.2262 H   0  0  0  0  0  0
  -29.7452  -20.7047   21.7201 H   0  0  0  0  0  0
  -29.0938  -15.3421   21.3802 H   0  0  0  0  0  0
  1 25  1  0  0  0
  1 30  2  0  0  0
  1 84  1  0  0  0
  2  3  1  0  0  0
  2 25  1  0  0  0
  2 87  1  0  0  0
  2 88  1  0  0  0
  3  4  1  0  0  0
  3 89  1  0  0  0
  3 90  1  0  0  0
  4  5  1  0  0  0
  4 91  1  0  0  0
  4 92  1  0  0  0
  5  6  1  0  0  0
  5 26  1  0  0  0
  5 93  1  0  0  0
  6 25  1  0  0  0
  6 94  1  0  0  0
  6 95  1  0  0  0
  7  8  2  0  0  0
  7 26  1  0  0  0
  7 29  1  0  0  0
  8  9  1  0  0  0
  8 22  1  0  0  0
  9 10  1  0  0  0
  9 27  2  0  0  0
 10 11  2  0  0  0
 10 15  1  0  0  0
 11 12  1  0  0  0
 11 96  1  0  0  0
 12 13  2  0  0  0
 12 97  1  0  0  0
 13 14  1  0  0  0
 13 31  1  0  0  0
 14 15  2  0  0  0
 14 98  1  0  0  0
 15 99  1  0  0  0
 16 17  2  0  0  0
 16 21  1  0  0  0
 16 31  1  0  0  0
 17 18  1  0  0  0
 17100  1  0  0  0
 18 19  2  0  0  0
 18101  1  0  0  0
 19 20  1  0  0  0
 19 24  1  0  0  0
 20 21  2  0  0  0
 20102  1  0  0  0
 21 23  1  0  0  0
 22 28  1  0  0  0
 22 32  2  0  0  0
 26 27  1  0  0  0
 28103  1  0  0  0
 28104  1  0  0  0
 29105  1  0  0  0
 29106  1  0  0  0
 33 34  1  0  0  0
 33 66  1  0  0  0
 33 70  2  0  0  0
 34 36  1  0  0  0
 34 59  1  0  0  0
 34107  1  0  0  0
 35 44  2  0  0  0
 35 45  1  0  0  0
 35 68  1  0  0  0
 36 56  1  0  0  0
 36108  1  0  0  0
 37 39  1  0  0  0
 37 47  1  0  0  0
 37 66  1  0  0  0
 37109  1  0  0  0
 38 43  2  0  0  0
 38 46  1  0  0  0
 38 47  1  0  0  0
 39 64  1  0  0  0
 39 67  2  0  0  0
 40 52  1  0  0  0
 40 53  2  0  0  0
 40 58  1  0  0  0
 41110  1  0  0  0
 41111  1  0  0  0
 41112  1  0  0  0
 41 48  1  0  0  0
 42 43  1  0  0  0
 42 66  1  0  0  0
 42113  1  0  0  0
 42114  1  0  0  0
 43 44  1  0  0  0
 44115  1  0  0  0
 45 46  2  0  0  0
 45116  1  0  0  0
 46117  1  0  0  0
 47118  1  0  0  0
 47119  1  0  0  0
 48 56  1  0  0  0
 48 65  1  0  0  0
 48120  1  0  0  0
 49 50  1  0  0  0
 49 53  1  0  0  0
 49 64  1  0  0  0
 49121  1  0  0  0
 50 51  1  0  0  0
 50122  1  0  0  0
 50123  1  0  0  0
 51 52  1  0  0  0
 51124  1  0  0  0
 51125  1  0  0  0
 52126  1  0  0  0
 52127  1  0  0  0
 53 54  1  0  0  0
 54 55  2  0  0  0
 54128  1  0  0  0
 55 57  1  0  0  0
 55129  1  0  0  0
 56 69  2  0  0  0
 57 58  2  0  0  0
 57130  1  0  0  0
 58131  1  0  0  0
 59 60  1  0  0  0
 59 61  1  0  0  0
 59 62  1  0  0  0
 60132  1  0  0  0
 60133  1  0  0  0
 60134  1  0  0  0
 61135  1  0  0  0
 61136  1  0  0  0
 61137  1  0  0  0
 62138  1  0  0  0
 62139  1  0  0  0
 62140  1  0  0  0
 63 65  1  0  0  0
 63141  1  0  0  0
 63142  1  0  0  0
 63143  1  0  0  0
 64144  1  0  0  0
 65145  1  0  0  0
 68 81  1  0  0  0
 71 74  2  0  0  0
 71 75  1  0  0  0
 71146  1  0  0  0
 72 74  1  0  0  0
 72 76  2  0  0  0
 72147  1  0  0  0
 73 75  2  0  0  0
 73 76  1  0  0  0
 73148  1  0  0  0
 74 83  1  0  0  0
 75 84  1  0  0  0
 76 86  1  0  0  0
 77 80  1  0  0  0
 77 83  1  0  0  0
 77 85  2  0  0  0
 78149  1  0  0  0
 78150  1  0  0  0
 78151  1  0  0  0
 78 82  1  0  0  0
 79 82  1  0  0  0
 79152  1  0  0  0
 79153  1  0  0  0
 79154  1  0  0  0
 80 82  1  0  0  0
 80155  1  0  0  0
 80156  1  0  0  0
 81 82  1  0  0  0
 81157  1  0  0  0
 81158  1  0  0  0
 83159  1  0  0  0
 84160  1  0  0  0
M  ISO  4   1 100  68 101  81 101  84 100
M  END
> <chiral flag>
0

> <version>
0

> <s_m_source_file>
/data/baiqing/PycharmProjects/Reinvent-master-3.2/result/LINK_invent/BTK/process_docking_weight1_custom_product_contain_oxygen_bond_distance_aromatic_linkinvent_7_9_3/rearranged_h_0141.sdf

> <i_m_source_file_index>
43

> <r_mmod_Potential_Energy-OPLS-2005>
29.0157260894775

> <r_mmod_Stretch_Energy-OPLS-2005>
45.527759552002

> <r_mmod_Bend_Energy-OPLS-2005>
99.9290924072266

> <r_mmod_Torsional_Energy-OPLS-2005>
277.807891845703

> <r_mmod_Improper_Torsional_Energy-OPLS-2005>
6.69543743133545

> <r_mmod_Van_der_Waal_Energy-OPLS-2005>
156.465362548828

> <r_mmod_Electrostatic_Energy-OPLS-2005>
-350.271057128906

> <r_mmod_Solvation_Energy-OPLS-2005>
-224.325073242188

> <b_mmod_Minimization_Converged-OPLS-2005>
0

> <r_mmod_RMS_Derivative-OPLS-2005>
3.04667615890503

$$$$
43
                    3D
 Structure written by MMmdl.
163171  0  0  1  0            999 V2000
  -30.7045  -14.4900   20.4729 C   0  0  0  0  0  0
  -30.4139  -12.2862   19.4489 C   0  0  0  0  0  0
  -29.5067  -12.4757   18.2149 C   0  0  0  0  0  0
  -28.0207  -12.3603   18.6145 C   0  0  0  0  0  0
  -27.6576  -13.2154   19.8602 C   0  0  2  0  0  0
  -28.6982  -13.0476   20.9918 C   0  0  0  0  0  0
  -25.2585  -13.8169   20.5664 C   0  0  0  0  0  0
  -24.1836  -13.0444   20.9165 C   0  0  0  0  0  0
  -24.6399  -11.6914   20.8715 C   0  0  0  0  0  0
  -23.9068  -10.4303   21.0394 C   0  0  0  0  0  0
  -24.3620   -9.4218   21.9173 C   0  0  0  0  0  0
  -23.6302   -8.2252   22.0743 C   0  0  0  0  0  0
  -22.4288   -8.0284   21.3538 C   0  0  0  0  0  0
  -21.9921   -9.0256   20.4642 C   0  0  0  0  0  0
  -22.7242  -10.2139   20.3047 C   0  0  0  0  0  0
  -21.6859   -6.0749   22.5274 C   0  0  0  0  0  0
  -21.4024   -6.5645   23.8206 C   0  0  0  0  0  0
  -21.3662   -5.6790   24.9165 C   0  0  0  0  0  0
  -21.6039   -4.3056   24.7214 C   0  0  0  0  0  0
  -21.8820   -3.8152   23.4338 C   0  0  0  0  0  0
  -21.9193   -4.6978   22.3393 C   0  0  0  0  0  0
  -22.7859  -13.5250   21.1818 C   0  0  0  0  0  0
  -22.1657   -4.2167   21.0973 F   0  0  0  0  0  0
  -21.5630   -3.4532   25.7727 F   0  0  0  0  0  0
  -30.0289  -13.3120   20.4289 N   0  0  0  0  0  0
  -26.3014  -12.9359   20.3288 N   0  0  0  0  0  0
  -25.9326  -11.6515   20.5724 N   0  0  0  0  0  0
  -22.0482  -12.8254   22.0373 N   0  0  0  0  0  0
  -25.4312  -15.1893   20.4089 N   0  0  0  0  0  0
  -31.8987  -14.5794   20.1835 O   0  0  0  0  0  0
  -21.6645   -6.8898   21.4238 O   0  0  0  0  0  0
  -22.3547  -14.5558   20.6664 O   0  0  0  0  0  0
  -24.6152  -31.8685   23.2120 C   0  0  0  0  0  0
  -25.9048  -32.4826   23.8399 C   0  0  1  0  0  0
  -27.2289  -27.4365   20.0920 C   0  0  0  0  0  0
  -25.5908  -33.8624   24.2348 N   0  0  0  0  0  0
  -23.4022  -30.4928   21.5525 C   0  0  2  0  0  0
  -24.8482  -28.9612   20.1161 C   0  0  0  0  0  0
  -22.7413  -29.4665   22.5010 C   0  0  0  0  0  0
  -18.0271  -28.1366   22.8492 C   0  0  0  0  0  0
  -24.1487  -36.7307   23.2637 C   0  0  0  0  0  0
  -25.9316  -30.8334   21.3659 C   0  0  0  0  0  0
  -26.0087  -29.4680   20.7146 C   0  0  0  0  0  0
  -27.2020  -28.7079   20.7103 C   0  0  0  0  0  0
  -26.0499  -26.9422   19.5003 C   0  0  0  0  0  0
  -24.8626  -27.6947   19.5093 C   0  0  0  0  0  0
  -23.6104  -29.8264   20.1669 C   0  0  0  0  0  0
  -25.4112  -36.3119   24.0346 C   0  0  1  0  0  0
  -20.5861  -28.3652   23.1325 C   0  0  2  0  0  0
  -20.6760  -26.9391   22.5414 C   0  0  0  0  0  0
  -19.5739  -26.6383   21.5208 C   0  0  0  0  0  0
  -18.1921  -26.7917   22.1623 C   0  0  0  0  0  0
  -19.1521  -28.8827   23.2901 C   0  0  0  0  0  0
  -18.9458  -30.1435   23.8904 C   0  0  0  0  0  0
  -17.6458  -30.6577   24.0566 C   0  0  0  0  0  0
  -25.9038  -34.9479   23.5145 C   0  0  0  0  0  0
  -16.5349  -29.9080   23.6323 C   0  0  0  0  0  0
  -16.7259  -28.6497   23.0346 C   0  0  0  0  0  0
  -26.4476  -31.6607   25.0722 C   0  0  0  0  0  0
  -25.3750  -31.3694   26.1476 C   0  0  0  0  0  0
  -27.0309  -30.3061   24.6075 C   0  0  0  0  0  0
  -27.6064  -32.4311   25.7472 C   0  0  0  0  0  0
  -27.5591  -37.1806   24.8472 C   0  0  0  0  0  0
  -21.4144  -29.3027   22.3747 N   0  0  0  0  0  0
  -26.4301  -37.3807   23.9414 N   0  0  0  0  0  0
  -24.6678  -31.0791   22.1021 N   0  0  0  0  0  0
  -23.4195  -28.8209   23.3051 O   0  0  0  0  0  0
  -28.3623  -26.6541   20.1104 O   0  0  0  0  0  0
  -26.5591  -34.8928   22.4697 O   0  0  0  0  0  0
  -23.5344  -32.1424   23.7521 O   0  0  0  0  0  0
  -29.7056  -18.0791   20.3210 C   0  0  0  0  0  0
  -30.5572  -19.1815   18.3105 C   0  0  0  0  0  0
  -30.7803  -16.7770   18.5603 C   0  0  0  0  0  0
  -29.9324  -19.2710   19.5747 C   0  0  0  0  0  0
  -30.1587  -16.8192   19.8355 C   0  0  0  0  0  0
  -30.9790  -17.9437   17.8063 C   0  0  0  0  0  0
  -30.1771  -21.7037   19.9348 C   0  0  0  0  0  0
  -30.1603  -25.4618   16.9845 C   0  0  0  0  0  0
  -27.9775  -24.6037   17.7538 C   0  0  0  0  0  0
  -29.4027  -23.0429   19.9439 C   0  0  0  0  0  0
  -30.1241  -24.1893   19.1495 C   0  0  0  0  0  0
  -29.1043  -26.6073   18.8950 C   0  0  0  0  0  0
  -29.3106  -25.1955   18.2522 C   0  0  0  0  0  0
  -29.4783  -20.5495   20.0311 N   0  0  0  0  0  0
  -29.9478  -15.6062   20.5863 N   0  0  0  0  0  0
  -31.4087  -21.7124   19.8591 O   0  0  0  0  0  0
  -31.5737  -17.8728   16.5921 F   0  0  0  0  0  0
  -31.4667  -12.3476   19.1645 H   0  0  0  0  0  0
  -30.2766  -11.2931   19.8792 H   0  0  0  0  0  0
  -29.7481  -11.7306   17.4546 H   0  0  0  0  0  0
  -29.6949  -13.4488   17.7577 H   0  0  0  0  0  0
  -27.8129  -11.3090   18.8124 H   0  0  0  0  0  0
  -27.3877  -12.6393   17.7710 H   0  0  0  0  0  0
  -27.6879  -14.2569   19.5359 H   0  0  0  0  0  0
  -28.6615  -12.0359   21.3981 H   0  0  0  0  0  0
  -28.4775  -13.7171   21.8253 H   0  0  0  0  0  0
  -25.2770   -9.5715   22.4732 H   0  0  0  0  0  0
  -24.0018   -7.4659   22.7467 H   0  0  0  0  0  0
  -21.0845   -8.8781   19.8954 H   0  0  0  0  0  0
  -22.3693  -10.9676   19.6152 H   0  0  0  0  0  0
  -21.2018   -7.6153   23.9724 H   0  0  0  0  0  0
  -21.1481   -6.0513   25.9071 H   0  0  0  0  0  0
  -22.0599   -2.7619   23.2818 H   0  0  0  0  0  0
  -22.4101  -11.9947   22.4828 H   0  0  0  0  0  0
  -21.1087  -13.1289   22.2517 H   0  0  0  0  0  0
  -24.6687  -15.8487   20.5228 H   0  0  0  0  0  0
  -26.2808  -15.6248   20.0722 H   0  0  0  0  0  0
  -26.7120  -32.5556   23.1167 H   0  0  0  0  0  0
  -25.0071  -33.9776   25.0500 H   0  0  0  0  0  0
  -22.6894  -31.3085   21.4153 H   0  0  0  0  0  0
  -23.3760  -35.9630   23.3308 H   0  0  0  0  0  0
  -24.3574  -36.8900   22.2047 H   0  0  0  0  0  0
  -23.7227  -37.6509   23.6635 H   0  0  0  0  0  0
  -26.0419  -31.5964   20.5943 H   0  0  0  0  0  0
  -26.8210  -30.8886   21.9818 H   0  0  0  0  0  0
  -28.0953  -29.0894   21.1834 H   0  0  0  0  0  0
  -26.0263  -25.9651   19.0500 H   0  0  0  0  0  0
  -23.9679  -27.2883   19.0601 H   0  0  0  0  0  0
  -23.7194  -30.5989   19.4052 H   0  0  0  0  0  0
  -22.7354  -29.2438   19.8731 H   0  0  0  0  0  0
  -25.1287  -36.1986   25.0842 H   0  0  0  0  0  0
  -20.9944  -28.3210   24.1448 H   0  0  0  0  0  0
  -20.5662  -26.2255   23.3593 H   0  0  0  0  0  0
  -21.6636  -26.7431   22.1214 H   0  0  0  0  0  0
  -19.6895  -25.6304   21.1216 H   0  0  0  0  0  0
  -19.6681  -27.3210   20.6752 H   0  0  0  0  0  0
  -17.4190  -26.6656   21.4028 H   0  0  0  0  0  0
  -18.0330  -26.0053   22.9018 H   0  0  0  0  0  0
  -19.7939  -30.7250   24.2276 H   0  0  0  0  0  0
  -17.5020  -31.6258   24.5167 H   0  0  0  0  0  0
  -15.5353  -30.2991   23.7639 H   0  0  0  0  0  0
  -15.8660  -28.0826   22.7050 H   0  0  0  0  0  0
  -24.5925  -30.7036   25.7816 H   0  0  0  0  0  0
  -24.8934  -32.2838   26.4950 H   0  0  0  0  0  0
  -25.8116  -30.8849   27.0216 H   0  0  0  0  0  0
  -26.2835  -29.6813   24.1166 H   0  0  0  0  0  0
  -27.4140  -29.7311   25.4513 H   0  0  0  0  0  0
  -27.8648  -30.4404   23.9178 H   0  0  0  0  0  0
  -27.2702  -33.3605   26.2077 H   0  0  0  0  0  0
  -28.3853  -32.6867   25.0279 H   0  0  0  0  0  0
  -28.0746  -31.8405   26.5353 H   0  0  0  0  0  0
  -28.2627  -38.0089   24.7532 H   0  0  0  0  0  0
  -28.1067  -36.2625   24.6292 H   0  0  0  0  0  0
  -27.2297  -37.1457   25.8870 H   0  0  0  0  0  0
  -20.9298  -29.8755   21.6978 H   0  0  0  0  0  0
  -26.0198  -38.2886   24.1411 H   0  0  0  0  0  0
  -29.2045  -18.1354   21.2776 H   0  0  0  0  0  0
  -30.7073  -20.0632   17.7043 H   0  0  0  0  0  0
  -31.1148  -15.8474   18.1260 H   0  0  0  0  0  0
  -30.3312  -24.5519   16.4074 H   0  0  0  0  0  0
  -31.1398  -25.8718   17.2371 H   0  0  0  0  0  0
  -29.6767  -26.1740   16.3137 H   0  0  0  0  0  0
  -28.1353  -23.6889   17.1831 H   0  0  0  0  0  0
  -27.4515  -25.3049   17.1033 H   0  0  0  0  0  0
  -27.3044  -24.3597   18.5726 H   0  0  0  0  0  0
  -29.2234  -23.3544   20.9732 H   0  0  0  0  0  0
  -28.4276  -22.8124   19.5258 H   0  0  0  0  0  0
  -30.8583  -23.7168   18.4954 H   0  0  0  0  0  0
  -30.7411  -24.7540   19.8506 H   0  0  0  0  0  0
  -28.6587  -27.2775   18.1556 H   0  0  0  0  0  0
  -30.0774  -27.0467   19.1176 H   0  0  0  0  0  0
  -28.5119  -20.6145   20.3235 H   0  0  0  0  0  0
  -29.0435  -15.4966   21.0202 H   0  0  0  0  0  0
  1 25  1  0  0  0
  1 30  2  0  0  0
  1 85  1  0  0  0
  2  3  1  0  0  0
  2 25  1  0  0  0
  2 88  1  0  0  0
  2 89  1  0  0  0
  3  4  1  0  0  0
  3 90  1  0  0  0
  3 91  1  0  0  0
  4  5  1  0  0  0
  4 92  1  0  0  0
  4 93  1  0  0  0
  5  6  1  0  0  0
  5 26  1  0  0  0
  5 94  1  0  0  0
  6 25  1  0  0  0
  6 95  1  0  0  0
  6 96  1  0  0  0
  7  8  2  0  0  0
  7 26  1  0  0  0
  7 29  1  0  0  0
  8  9  1  0  0  0
  8 22  1  0  0  0
  9 10  1  0  0  0
  9 27  2  0  0  0
 10 11  2  0  0  0
 10 15  1  0  0  0
 11 12  1  0  0  0
 11 97  1  0  0  0
 12 13  2  0  0  0
 12 98  1  0  0  0
 13 14  1  0  0  0
 13 31  1  0  0  0
 14 15  2  0  0  0
 14 99  1  0  0  0
 15100  1  0  0  0
 16 17  2  0  0  0
 16 21  1  0  0  0
 16 31  1  0  0  0
 17 18  1  0  0  0
 17101  1  0  0  0
 18 19  2  0  0  0
 18102  1  0  0  0
 19 20  1  0  0  0
 19 24  1  0  0  0
 20 21  2  0  0  0
 20103  1  0  0  0
 21 23  1  0  0  0
 22 28  1  0  0  0
 22 32  2  0  0  0
 26 27  1  0  0  0
 28104  1  0  0  0
 28105  1  0  0  0
 29106  1  0  0  0
 29107  1  0  0  0
 33 34  1  0  0  0
 33 66  1  0  0  0
 33 70  2  0  0  0
 34 36  1  0  0  0
 34 59  1  0  0  0
 34108  1  0  0  0
 35 44  2  0  0  0
 35 45  1  0  0  0
 35 68  1  0  0  0
 36 56  1  0  0  0
 36109  1  0  0  0
 37 39  1  0  0  0
 37 47  1  0  0  0
 37 66  1  0  0  0
 37110  1  0  0  0
 38 43  2  0  0  0
 38 46  1  0  0  0
 38 47  1  0  0  0
 39 64  1  0  0  0
 39 67  2  0  0  0
 40 52  1  0  0  0
 40 53  2  0  0  0
 40 58  1  0  0  0
 41111  1  0  0  0
 41112  1  0  0  0
 41113  1  0  0  0
 41 48  1  0  0  0
 42 43  1  0  0  0
 42 66  1  0  0  0
 42114  1  0  0  0
 42115  1  0  0  0
 43 44  1  0  0  0
 44116  1  0  0  0
 45 46  2  0  0  0
 45117  1  0  0  0
 46118  1  0  0  0
 47119  1  0  0  0
 47120  1  0  0  0
 48 56  1  0  0  0
 48 65  1  0  0  0
 48121  1  0  0  0
 49 50  1  0  0  0
 49 53  1  0  0  0
 49 64  1  0  0  0
 49122  1  0  0  0
 50 51  1  0  0  0
 50123  1  0  0  0
 50124  1  0  0  0
 51 52  1  0  0  0
 51125  1  0  0  0
 51126  1  0  0  0
 52127  1  0  0  0
 52128  1  0  0  0
 53 54  1  0  0  0
 54 55  2  0  0  0
 54129  1  0  0  0
 55 57  1  0  0  0
 55130  1  0  0  0
 56 69  2  0  0  0
 57 58  2  0  0  0
 57131  1  0  0  0
 58132  1  0  0  0
 59 60  1  0  0  0
 59 61  1  0  0  0
 59 62  1  0  0  0
 60133  1  0  0  0
 60134  1  0  0  0
 60135  1  0  0  0
 61136  1  0  0  0
 61137  1  0  0  0
 61138  1  0  0  0
 62139  1  0  0  0
 62140  1  0  0  0
 62141  1  0  0  0
 63 65  1  0  0  0
 63142  1  0  0  0
 63143  1  0  0  0
 63144  1  0  0  0
 64145  1  0  0  0
 65146  1  0  0  0
 68 82  1  0  0  0
 71 74  2  0  0  0
 71 75  1  0  0  0
 71147  1  0  0  0
 72 74  1  0  0  0
 72 76  2  0  0  0
 72148  1  0  0  0
 73 75  2  0  0  0
 73 76  1  0  0  0
 73149  1  0  0  0
 74 84  1  0  0  0
 75 85  1  0  0  0
 76 87  1  0  0  0
 77 80  1  0  0  0
 77 84  1  0  0  0
 77 86  2  0  0  0
 78150  1  0  0  0
 78151  1  0  0  0
 78152  1  0  0  0
 78 83  1  0  0  0
 79 83  1  0  0  0
 79153  1  0  0  0
 79154  1  0  0  0
 79155  1  0  0  0
 80 81  1  0  0  0
 80156  1  0  0  0
 80157  1  0  0  0
 81 83  1  0  0  0
 81158  1  0  0  0
 81159  1  0  0  0
 82 83  1  0  0  0
 82160  1  0  0  0
 82161  1  0  0  0
 84162  1  0  0  0
 85163  1  0  0  0
M  ISO  4   1 100  68 101  82 101  85 100
M  END
> <chiral flag>
0

> <version>
0

> <s_m_source_file>
/data/baiqing/PycharmProjects/Reinvent-master-3.2/result/LINK_invent/BTK/process_docking_weight1_custom_product_contain_oxygen_bond_distance_aromatic_linkinvent_7_9_3/rearranged_h_0141.sdf

> <i_m_source_file_index>
44

> <r_mmod_Potential_Energy-OPLS-2005>
56.6831169128418

> <r_mmod_Stretch_Energy-OPLS-2005>
44.4460334777832

> <r_mmod_Bend_Energy-OPLS-2005>
110.71215057373

> <r_mmod_Torsional_Energy-OPLS-2005>
314.265686035156

> <r_mmod_Improper_Torsional_Energy-OPLS-2005>
7.60384559631348

> <r_mmod_Van_der_Waal_Energy-OPLS-2005>
165.985595703125

> <r_mmod_Electrostatic_Energy-OPLS-2005>
-378.457672119141

> <r_mmod_Solvation_Energy-OPLS-2005>
-229.40608215332

> <b_mmod_Minimization_Converged-OPLS-2005>
0

> <r_mmod_RMS_Derivative-OPLS-2005>
2.1544075012207

$$$$
44
                    3D
 Structure written by MMmdl.
167175  0  0  1  0            999 V2000
  -30.7350  -14.3855   20.5633 C   0  0  0  0  0  0
  -30.4103  -12.2483   19.4085 C   0  0  0  0  0  0
  -29.4920  -12.4943   18.1955 C   0  0  0  0  0  0
  -28.0108  -12.3745   18.6038 C   0  0  0  0  0  0
  -27.6651  -13.2043   19.8706 C   0  0  2  0  0  0
  -28.7039  -12.9538   20.9880 C   0  0  0  0  0  0
  -25.2584  -13.8171   20.5622 C   0  0  0  0  0  0
  -24.1843  -13.0449   20.9148 C   0  0  0  0  0  0
  -24.6387  -11.6919   20.8689 C   0  0  0  0  0  0
  -23.9051  -10.4302   21.0354 C   0  0  0  0  0  0
  -24.3604   -9.4229   21.9144 C   0  0  0  0  0  0
  -23.6277   -8.2263   22.0743 C   0  0  0  0  0  0
  -22.4261   -8.0275   21.3539 C   0  0  0  0  0  0
  -21.9897   -9.0253   20.4650 C   0  0  0  0  0  0
  -22.7214  -10.2132   20.3022 C   0  0  0  0  0  0
  -21.6870   -6.0713   22.5263 C   0  0  0  0  0  0
  -21.4032   -6.5619   23.8198 C   0  0  0  0  0  0
  -21.3664   -5.6771   24.9157 C   0  0  0  0  0  0
  -21.6040   -4.3038   24.7217 C   0  0  0  0  0  0
  -21.8827   -3.8126   23.4344 C   0  0  0  0  0  0
  -21.9208   -4.6938   22.3395 C   0  0  0  0  0  0
  -22.7860  -13.5250   21.1789 C   0  0  0  0  0  0
  -22.1660   -4.2124   21.0979 F   0  0  0  0  0  0
  -21.5631   -3.4530   25.7735 F   0  0  0  0  0  0
  -30.0455  -13.2254   20.4436 N   0  0  0  0  0  0
  -26.3034  -12.9338   20.3305 N   0  0  0  0  0  0
  -25.9315  -11.6501   20.5710 N   0  0  0  0  0  0
  -22.0500  -12.8271   22.0368 N   0  0  0  0  0  0
  -25.4301  -15.1889   20.3995 N   0  0  0  0  0  0
  -31.8689  -14.5445   20.0996 O   0  0  0  0  0  0
  -21.6642   -6.8856   21.4224 O   0  0  0  0  0  0
  -22.3538  -14.5525   20.6583 O   0  0  0  0  0  0
  -24.6113  -31.8711   23.2152 C   0  0  0  0  0  0
  -25.9015  -32.4845   23.8439 C   0  0  1  0  0  0
  -27.2304  -27.4709   20.0861 C   0  0  0  0  0  0
  -25.5863  -33.8648   24.2355 N   0  0  0  0  0  0
  -23.3978  -30.4953   21.5560 C   0  0  2  0  0  0
  -24.8450  -28.9677   20.1177 C   0  0  0  0  0  0
  -22.7393  -29.4666   22.5015 C   0  0  0  0  0  0
  -18.0266  -28.1380   22.8505 C   0  0  0  0  0  0
  -24.1471  -36.7344   23.2638 C   0  0  0  0  0  0
  -25.9245  -30.8459   21.3651 C   0  0  0  0  0  0
  -26.0037  -29.4829   20.7165 C   0  0  0  0  0  0
  -27.2031  -28.7392   20.7055 C   0  0  0  0  0  0
  -26.0651  -26.9639   19.4830 C   0  0  0  0  0  0
  -24.8685  -27.7034   19.5024 C   0  0  0  0  0  0
  -23.6042  -29.8284   20.1708 C   0  0  0  0  0  0
  -25.4102  -36.3142   24.0331 C   0  0  1  0  0  0
  -20.5856  -28.3650   23.1334 C   0  0  2  0  0  0
  -20.6750  -26.9387   22.5428 C   0  0  0  0  0  0
  -19.5729  -26.6384   21.5224 C   0  0  0  0  0  0
  -18.1907  -26.7933   22.1634 C   0  0  0  0  0  0
  -19.1511  -28.8835   23.2916 C   0  0  0  0  0  0
  -18.9448  -30.1450   23.8919 C   0  0  0  0  0  0
  -17.6450  -30.6589   24.0580 C   0  0  0  0  0  0
  -25.9018  -34.9496   23.5141 C   0  0  0  0  0  0
  -16.5339  -29.9101   23.6325 C   0  0  0  0  0  0
  -16.7257  -28.6514   23.0345 C   0  0  0  0  0  0
  -26.4444  -31.6628   25.0769 C   0  0  0  0  0  0
  -25.3698  -31.3754   26.1506 C   0  0  0  0  0  0
  -27.0286  -30.3072   24.6141 C   0  0  0  0  0  0
  -27.6027  -32.4340   25.7523 C   0  0  0  0  0  0
  -27.5585  -37.1815   24.8451 C   0  0  0  0  0  0
  -21.4123  -29.3020   22.3750 N   0  0  0  0  0  0
  -26.4307  -37.3814   23.9386 N   0  0  0  0  0  0
  -24.6629  -31.0831   22.1049 N   0  0  0  0  0  0
  -23.4177  -28.8201   23.3045 O   0  0  0  0  0  0
  -28.3651  -26.7049   20.0322 O   0  0  0  0  0  0
  -26.5603  -34.8925   22.4718 O   0  0  0  0  0  0
  -23.5305  -32.1462   23.7551 O   0  0  0  0  0  0
  -29.3430  -18.5818   19.2670 C   0  0  0  0  0  0
  -31.6157  -18.6643   20.1333 C   0  0  0  0  0  0
  -29.1482  -17.3315   19.8866 C   0  0  0  0  0  0
  -31.4268  -17.4162   20.7522 C   0  0  0  0  0  0
  -30.5874  -19.2454   19.3634 C   0  0  0  0  0  0
  -30.2051  -16.7268   20.5962 C   0  0  0  0  0  0
  -30.8410  -20.5051   18.6352 C   0  0  0  0  0  0
  -29.5519  -23.9368   20.1224 C   0  0  0  0  0  0
  -27.7921  -25.6189   22.2200 C   0  0  0  0  0  0
  -31.7215  -23.5921   18.9364 C   0  0  0  0  0  0
  -31.2506  -22.3243   21.0853 C   0  0  0  0  0  0
  -29.9605  -21.7037   18.9800 C   0  0  0  0  0  0
  -29.9801  -25.1894   20.9240 C   0  0  0  0  0  0
  -28.8684  -26.2050   21.2735 C   0  0  1  0  0  0
  -30.6344  -22.8778   19.7766 C   0  0  0  0  0  0
  -31.7511  -20.5834   17.7593 N   0  0  0  0  0  0
  -30.0431  -15.4083   21.0836 N   0  0  0  0  0  0
  -28.3898  -23.7972   19.7278 O   0  0  0  0  0  0
  -31.4575  -12.3130   19.1108 H   0  0  0  0  0  0
  -30.2781  -11.2344   19.7884 H   0  0  0  0  0  0
  -29.7183  -11.7792   17.4044 H   0  0  0  0  0  0
  -29.6822  -13.4839   17.7771 H   0  0  0  0  0  0
  -27.8075  -11.3190   18.7886 H   0  0  0  0  0  0
  -27.3682  -12.6635   17.7718 H   0  0  0  0  0  0
  -27.7203  -14.2563   19.5897 H   0  0  0  0  0  0
  -28.6522  -11.9147   21.3157 H   0  0  0  0  0  0
  -28.4785  -13.5489   21.8727 H   0  0  0  0  0  0
  -25.2763   -9.5711   22.4692 H   0  0  0  0  0  0
  -23.9998   -7.4672   22.7481 H   0  0  0  0  0  0
  -21.0821   -8.8761   19.8975 H   0  0  0  0  0  0
  -22.3665  -10.9642   19.6113 H   0  0  0  0  0  0
  -21.2016   -7.6125   23.9696 H   0  0  0  0  0  0
  -21.1475   -6.0496   25.9059 H   0  0  0  0  0  0
  -22.0604   -2.7586   23.2849 H   0  0  0  0  0  0
  -22.4134  -11.9980   22.4819 H   0  0  0  0  0  0
  -21.1098  -13.1282   22.2519 H   0  0  0  0  0  0
  -24.6587  -15.8412   20.4896 H   0  0  0  0  0  0
  -26.2738  -15.6226   20.0511 H   0  0  0  0  0  0
  -26.7098  -32.5583   23.1222 H   0  0  0  0  0  0
  -24.9948  -33.9819   25.0442 H   0  0  0  0  0  0
  -22.6859  -31.3120   21.4197 H   0  0  0  0  0  0
  -23.3717  -35.9689   23.3322 H   0  0  0  0  0  0
  -24.3547  -36.8941   22.2047 H   0  0  0  0  0  0
  -23.7239  -37.6560   23.6644 H   0  0  0  0  0  0
  -26.0306  -31.6116   20.5954 H   0  0  0  0  0  0
  -26.8152  -30.9014   21.9805 H   0  0  0  0  0  0
  -28.0996  -29.1352   21.1615 H   0  0  0  0  0  0
  -26.0820  -25.9918   19.0094 H   0  0  0  0  0  0
  -23.9778  -27.3014   19.0407 H   0  0  0  0  0  0
  -23.7045  -30.6028   19.4097 H   0  0  0  0  0  0
  -22.7315  -29.2410   19.8802 H   0  0  0  0  0  0
  -25.1276  -36.2023   25.0830 H   0  0  0  0  0  0
  -20.9951  -28.3213   24.1453 H   0  0  0  0  0  0
  -20.5655  -26.2251   23.3605 H   0  0  0  0  0  0
  -21.6622  -26.7437   22.1219 H   0  0  0  0  0  0
  -19.6871  -25.6304   21.1238 H   0  0  0  0  0  0
  -19.6669  -27.3212   20.6775 H   0  0  0  0  0  0
  -17.4181  -26.6687   21.4039 H   0  0  0  0  0  0
  -18.0299  -26.0075   22.9031 H   0  0  0  0  0  0
  -19.7931  -30.7261   24.2279 H   0  0  0  0  0  0
  -17.5016  -31.6270   24.5188 H   0  0  0  0  0  0
  -15.5347  -30.3011   23.7646 H   0  0  0  0  0  0
  -15.8659  -28.0860   22.7029 H   0  0  0  0  0  0
  -24.5881  -30.7111   25.7804 H   0  0  0  0  0  0
  -24.8867  -32.2917   26.4931 H   0  0  0  0  0  0
  -25.8018  -30.8915   27.0273 H   0  0  0  0  0  0
  -26.2848  -29.6822   24.1195 H   0  0  0  0  0  0
  -27.4036  -29.7315   25.4610 H   0  0  0  0  0  0
  -27.8659  -30.4380   23.9288 H   0  0  0  0  0  0
  -27.2646  -33.3584   26.2209 H   0  0  0  0  0  0
  -28.3783  -32.7016   25.0345 H   0  0  0  0  0  0
  -28.0784  -31.8416   26.5342 H   0  0  0  0  0  0
  -28.2634  -38.0091   24.7502 H   0  0  0  0  0  0
  -28.1055  -36.2627   24.6277 H   0  0  0  0  0  0
  -27.2289  -37.1466   25.8853 H   0  0  0  0  0  0
  -20.9268  -29.8743   21.6986 H   0  0  0  0  0  0
  -26.0197  -38.2889   24.1398 H   0  0  0  0  0  0
  -28.5436  -19.0103   18.6791 H   0  0  0  0  0  0
  -32.5700  -19.1642   20.2262 H   0  0  0  0  0  0
  -28.2057  -16.8186   19.7597 H   0  0  0  0  0  0
  -32.2461  -16.9702   21.2967 H   0  0  0  0  0  0
  -28.2451  -25.2817   23.1531 H   0  0  0  0  0  0
  -27.2707  -24.7679   21.7852 H   0  0  0  0  0  0
  -27.0361  -26.3555   22.4875 H   0  0  0  0  0  0
  -32.2195  -24.3844   19.4946 H   0  0  0  0  0  0
  -31.2947  -24.0405   18.0377 H   0  0  0  0  0  0
  -32.5145  -22.9175   18.6199 H   0  0  0  0  0  0
  -31.6582  -23.1037   21.7278 H   0  0  0  0  0  0
  -32.0817  -21.6480   20.8802 H   0  0  0  0  0  0
  -30.5110  -21.7647   21.6614 H   0  0  0  0  0  0
  -29.1073  -21.3349   19.5525 H   0  0  0  0  0  0
  -29.5362  -22.0790   18.0481 H   0  0  0  0  0  0
  -30.7476  -25.7107   20.3535 H   0  0  0  0  0  0
  -30.4553  -24.8676   21.8492 H   0  0  0  0  0  0
  -29.3452  -27.0372   21.7928 H   0  0  0  0  0  0
  -32.2321  -19.6961   17.6557 H   0  0  0  0  0  0
  -29.1257  -15.1566   21.4188 H   0  0  0  0  0  0
  1 25  1  0  0  0
  1 30  2  0  0  0
  1 87  1  0  0  0
  2  3  1  0  0  0
  2 25  1  0  0  0
  2 89  1  0  0  0
  2 90  1  0  0  0
  3  4  1  0  0  0
  3 91  1  0  0  0
  3 92  1  0  0  0
  4  5  1  0  0  0
  4 93  1  0  0  0
  4 94  1  0  0  0
  5  6  1  0  0  0
  5 26  1  0  0  0
  5 95  1  0  0  0
  6 25  1  0  0  0
  6 96  1  0  0  0
  6 97  1  0  0  0
  7  8  2  0  0  0
  7 26  1  0  0  0
  7 29  1  0  0  0
  8  9  1  0  0  0
  8 22  1  0  0  0
  9 10  1  0  0  0
  9 27  2  0  0  0
 10 11  2  0  0  0
 10 15  1  0  0  0
 11 12  1  0  0  0
 11 98  1  0  0  0
 12 13  2  0  0  0
 12 99  1  0  0  0
 13 14  1  0  0  0
 13 31  1  0  0  0
 14 15  2  0  0  0
 14100  1  0  0  0
 15101  1  0  0  0
 16 17  2  0  0  0
 16 21  1  0  0  0
 16 31  1  0  0  0
 17 18  1  0  0  0
 17102  1  0  0  0
 18 19  2  0  0  0
 18103  1  0  0  0
 19 20  1  0  0  0
 19 24  1  0  0  0
 20 21  2  0  0  0
 20104  1  0  0  0
 21 23  1  0  0  0
 22 28  1  0  0  0
 22 32  2  0  0  0
 26 27  1  0  0  0
 28105  1  0  0  0
 28106  1  0  0  0
 29107  1  0  0  0
 29108  1  0  0  0
 33 34  1  0  0  0
 33 66  1  0  0  0
 33 70  2  0  0  0
 34 36  1  0  0  0
 34 59  1  0  0  0
 34109  1  0  0  0
 35 44  2  0  0  0
 35 45  1  0  0  0
 35 68  1  0  0  0
 36 56  1  0  0  0
 36110  1  0  0  0
 37 39  1  0  0  0
 37 47  1  0  0  0
 37 66  1  0  0  0
 37111  1  0  0  0
 38 43  2  0  0  0
 38 46  1  0  0  0
 38 47  1  0  0  0
 39 64  1  0  0  0
 39 67  2  0  0  0
 40 52  1  0  0  0
 40 53  2  0  0  0
 40 58  1  0  0  0
 41112  1  0  0  0
 41113  1  0  0  0
 41114  1  0  0  0
 41 48  1  0  0  0
 42 43  1  0  0  0
 42 66  1  0  0  0
 42115  1  0  0  0
 42116  1  0  0  0
 43 44  1  0  0  0
 44117  1  0  0  0
 45 46  2  0  0  0
 45118  1  0  0  0
 46119  1  0  0  0
 47120  1  0  0  0
 47121  1  0  0  0
 48 56  1  0  0  0
 48 65  1  0  0  0
 48122  1  0  0  0
 49 50  1  0  0  0
 49 53  1  0  0  0
 49 64  1  0  0  0
 49123  1  0  0  0
 50 51  1  0  0  0
 50124  1  0  0  0
 50125  1  0  0  0
 51 52  1  0  0  0
 51126  1  0  0  0
 51127  1  0  0  0
 52128  1  0  0  0
 52129  1  0  0  0
 53 54  1  0  0  0
 54 55  2  0  0  0
 54130  1  0  0  0
 55 57  1  0  0  0
 55131  1  0  0  0
 56 69  2  0  0  0
 57 58  2  0  0  0
 57132  1  0  0  0
 58133  1  0  0  0
 59 60  1  0  0  0
 59 61  1  0  0  0
 59 62  1  0  0  0
 60134  1  0  0  0
 60135  1  0  0  0
 60136  1  0  0  0
 61137  1  0  0  0
 61138  1  0  0  0
 61139  1  0  0  0
 62140  1  0  0  0
 62141  1  0  0  0
 62142  1  0  0  0
 63 65  1  0  0  0
 63143  1  0  0  0
 63144  1  0  0  0
 63145  1  0  0  0
 64146  1  0  0  0
 65147  1  0  0  0
 68 84  1  0  0  0
 71 73  2  0  0  0
 71 75  1  0  0  0
 71148  1  0  0  0
 72 74  1  0  0  0
 72 75  2  0  0  0
 72149  1  0  0  0
 73 76  1  0  0  0
 73150  1  0  0  0
 74 76  2  0  0  0
 74151  1  0  0  0
 75 77  1  0  0  0
 76 87  1  0  0  0
 77 82  1  0  0  0
 77 86  2  0  0  0
 78 83  1  0  0  0
 78 85  1  0  0  0
 78 88  2  0  0  0
 79152  1  0  0  0
 79153  1  0  0  0
 79154  1  0  0  0
 79 84  1  0  0  0
 80155  1  0  0  0
 80156  1  0  0  0
 80157  1  0  0  0
 80 85  1  0  0  0
 81 85  1  0  0  0
 81158  1  0  0  0
 81159  1  0  0  0
 81160  1  0  0  0
 82 85  1  0  0  0
 82161  1  0  0  0
 82162  1  0  0  0
 83 84  1  0  0  0
 83163  1  0  0  0
 83164  1  0  0  0
 84165  1  0  0  0
 86166  1  0  0  0
 87167  1  0  0  0
M  ISO  4   1 100  68 101  84 101  87 100
M  END
> <chiral flag>
0

> <version>
0

> <s_m_source_file>
/data/baiqing/PycharmProjects/Reinvent-master-3.2/result/LINK_invent/BTK/process_docking_weight1_custom_product_contain_oxygen_bond_distance_aromatic_linkinvent_7_9_3/rearranged_h_0141.sdf

> <i_m_source_file_index>
45

> <r_mmod_Potential_Energy-OPLS-2005>
-25.0200004577637

> <r_mmod_Stretch_Energy-OPLS-2005>
36.3856239318848

> <r_mmod_Bend_Energy-OPLS-2005>
98.4551849365234

> <r_mmod_Torsional_Energy-OPLS-2005>
259.684722900391

> <r_mmod_Improper_Torsional_Energy-OPLS-2005>
6.41543817520142

> <r_mmod_Van_der_Waal_Energy-OPLS-2005>
165.396713256836

> <r_mmod_Electrostatic_Energy-OPLS-2005>
-381.093322753906

> <r_mmod_Solvation_Energy-OPLS-2005>
-220.63591003418

> <b_mmod_Minimization_Converged-OPLS-2005>
0

> <r_mmod_RMS_Derivative-OPLS-2005>
3.11479377746582

$$$$
45
                    3D
 Structure written by MMmdl.
163171  0  0  1  0            999 V2000
  -30.6483  -14.7196   20.4352 C   0  0  0  0  0  0
  -30.4204  -12.4332   19.4747 C   0  0  0  0  0  0
  -29.5030  -12.4902   18.2351 C   0  0  0  0  0  0
  -28.0303  -12.3213   18.6530 C   0  0  0  0  0  0
  -27.6382  -13.2329   19.8462 C   0  0  2  0  0  0
  -28.6847  -13.1868   20.9815 C   0  0  0  0  0  0
  -25.2491  -13.8168   20.5709 C   0  0  0  0  0  0
  -24.1790  -13.0420   20.9226 C   0  0  0  0  0  0
  -24.6388  -11.6903   20.8763 C   0  0  0  0  0  0
  -23.9065  -10.4279   21.0416 C   0  0  0  0  0  0
  -24.3617   -9.4196   21.9197 C   0  0  0  0  0  0
  -23.6289   -8.2233   22.0756 C   0  0  0  0  0  0
  -22.4277   -8.0272   21.3539 C   0  0  0  0  0  0
  -21.9913   -9.0246   20.4644 C   0  0  0  0  0  0
  -22.7239  -10.2124   20.3062 C   0  0  0  0  0  0
  -21.6850   -6.0729   22.5279 C   0  0  0  0  0  0
  -21.4006   -6.5634   23.8210 C   0  0  0  0  0  0
  -21.3657   -5.6790   24.9171 C   0  0  0  0  0  0
  -21.6052   -4.3052   24.7228 C   0  0  0  0  0  0
  -21.8819   -3.8142   23.4346 C   0  0  0  0  0  0
  -21.9187   -4.6955   22.3400 C   0  0  0  0  0  0
  -22.7814  -13.5211   21.1880 C   0  0  0  0  0  0
  -22.1662   -4.2141   21.0977 F   0  0  0  0  0  0
  -21.5631   -3.4536   25.7741 F   0  0  0  0  0  0
  -29.9864  -13.5141   20.3904 N   0  0  0  0  0  0
  -26.2925  -12.9395   20.3288 N   0  0  0  0  0  0
  -25.9323  -11.6537   20.5777 N   0  0  0  0  0  0
  -22.0447  -12.8197   22.0422 N   0  0  0  0  0  0
  -25.4153  -15.1877   20.4113 N   0  0  0  0  0  0
  -31.8486  -14.7323   20.1614 O   0  0  0  0  0  0
  -21.6635   -6.8876   21.4242 O   0  0  0  0  0  0
  -22.3499  -14.5516   20.6718 O   0  0  0  0  0  0
  -24.6311  -31.8547   23.1961 C   0  0  0  0  0  0
  -25.9141  -32.4739   23.8310 C   0  0  1  0  0  0
  -27.2179  -27.2667   20.1241 C   0  0  0  0  0  0
  -25.5943  -33.8540   24.2235 N   0  0  0  0  0  0
  -23.4255  -30.4755   21.5407 C   0  0  2  0  0  0
  -24.8693  -28.9198   20.1079 C   0  0  0  0  0  0
  -22.7496  -29.4584   22.4921 C   0  0  0  0  0  0
  -18.0283  -28.1375   22.8468 C   0  0  0  0  0  0
  -24.1499  -36.7278   23.2636 C   0  0  0  0  0  0
  -25.9680  -30.7698   21.3699 C   0  0  0  0  0  0
  -26.0394  -29.3919   20.7147 C   0  0  0  0  0  0
  -27.2127  -28.5761   20.7121 C   0  0  0  0  0  0
  -26.0192  -26.8510   19.5030 C   0  0  0  0  0  0
  -24.8644  -27.6579   19.4924 C   0  0  0  0  0  0
  -23.6403  -29.8053   20.1575 C   0  0  0  0  0  0
  -25.4119  -36.3049   24.0328 C   0  0  1  0  0  0
  -20.5889  -28.3663   23.1269 C   0  0  2  0  0  0
  -20.6767  -26.9386   22.5404 C   0  0  0  0  0  0
  -19.5751  -26.6366   21.5198 C   0  0  0  0  0  0
  -18.1925  -26.7911   22.1609 C   0  0  0  0  0  0
  -19.1543  -28.8839   23.2851 C   0  0  0  0  0  0
  -18.9475  -30.1440   23.8858 C   0  0  0  0  0  0
  -17.6475  -30.6572   24.0553 C   0  0  0  0  0  0
  -25.9068  -34.9428   23.5079 C   0  0  0  0  0  0
  -16.5356  -29.9070   23.6333 C   0  0  0  0  0  0
  -16.7276  -28.6499   23.0331 C   0  0  0  0  0  0
  -26.4510  -31.6571   25.0706 C   0  0  0  0  0  0
  -25.3731  -31.3740   26.1432 C   0  0  0  0  0  0
  -27.0370  -30.2999   24.6170 C   0  0  0  0  0  0
  -27.6057  -32.4310   25.7488 C   0  0  0  0  0  0
  -27.5579  -37.1786   24.8462 C   0  0  0  0  0  0
  -21.4202  -29.3019   22.3677 N   0  0  0  0  0  0
  -26.4284  -37.3761   23.9427 N   0  0  0  0  0  0
  -24.6941  -31.0509   22.0926 N   0  0  0  0  0  0
  -23.4209  -28.8129   23.3008 O   0  0  0  0  0  0
  -28.3457  -26.4233   20.2043 O   0  0  0  0  0  0
  -26.5637  -34.8903   22.4645 O   0  0  0  0  0  0
  -23.5468  -32.1381   23.7260 O   0  0  0  0  0  0
  -31.1614  -20.0605   19.9229 C   0  0  0  0  0  0
  -31.6194  -17.6619   19.9724 C   0  0  0  0  0  0
  -29.3928  -18.4839   20.5173 C   0  0  0  0  0  0
  -29.8105  -19.8732   20.2930 C   0  0  0  0  0  0
  -30.2964  -17.3366   20.3672 C   0  0  0  0  0  0
  -32.0399  -18.9823   19.7541 C   0  0  0  0  0  0
  -29.1228  -22.3725   19.9540 C   0  0  0  0  0  0
  -27.0637  -18.0614   19.6351 C   0  0  0  0  0  0
  -29.2926  -24.0365   21.8424 C   0  0  0  0  0  0
  -27.0055  -23.3725   21.0210 C   0  0  0  0  0  0
  -27.9407  -18.2205   20.8838 C   0  0  0  0  0  0
  -28.4288  -25.0261   19.6562 C   0  0  0  0  0  0
  -28.4531  -23.6943   20.5945 C   0  0  0  0  0  0
  -28.9830  -21.0979   20.4984 N   0  0  0  0  0  0
  -29.9172  -15.8989   20.5760 N   0  0  0  0  0  0
  -29.7776  -22.5271   18.9208 O   0  0  0  0  0  0
  -33.3213  -19.2196   19.3828 F   0  0  0  0  0  0
  -31.4639  -12.5295   19.1694 H   0  0  0  0  0  0
  -30.3453  -11.4629   19.9683 H   0  0  0  0  0  0
  -29.7808  -11.7119   17.5229 H   0  0  0  0  0  0
  -29.6357  -13.4419   17.7176 H   0  0  0  0  0  0
  -27.8897  -11.2754   18.9287 H   0  0  0  0  0  0
  -27.3711  -12.5020   17.8031 H   0  0  0  0  0  0
  -27.6279  -14.2505   19.4538 H   0  0  0  0  0  0
  -28.7137  -12.2000   21.4465 H   0  0  0  0  0  0
  -28.4282  -13.8922   21.7738 H   0  0  0  0  0  0
  -25.2757   -9.5665   22.4773 H   0  0  0  0  0  0
  -23.9988   -7.4622   22.7474 H   0  0  0  0  0  0
  -21.0845   -8.8772   19.8947 H   0  0  0  0  0  0
  -22.3708  -10.9669   19.6170 H   0  0  0  0  0  0
  -21.1998   -7.6142   23.9710 H   0  0  0  0  0  0
  -21.1484   -6.0520   25.9075 H   0  0  0  0  0  0
  -22.0601   -2.7605   23.2851 H   0  0  0  0  0  0
  -22.4058  -11.9860   22.4820 H   0  0  0  0  0  0
  -21.1066  -13.1224   22.2626 H   0  0  0  0  0  0
  -24.6391  -15.8327   20.5087 H   0  0  0  0  0  0
  -26.2496  -15.6234   20.0440 H   0  0  0  0  0  0
  -26.7197  -32.5400   23.1045 H   0  0  0  0  0  0
  -25.0112  -33.9671   25.0394 H   0  0  0  0  0  0
  -22.7218  -31.2973   21.3919 H   0  0  0  0  0  0
  -23.3759  -35.9614   23.3290 H   0  0  0  0  0  0
  -24.3587  -36.8923   22.2054 H   0  0  0  0  0  0
  -23.7262  -37.6477   23.6677 H   0  0  0  0  0  0
  -26.1022  -31.5272   20.5961 H   0  0  0  0  0  0
  -26.8486  -30.8200   21.9990 H   0  0  0  0  0  0
  -28.1109  -28.9300   21.1987 H   0  0  0  0  0  0
  -25.9300  -25.8780   19.0458 H   0  0  0  0  0  0
  -23.9632  -27.2861   19.0223 H   0  0  0  0  0  0
  -23.7586  -30.5792   19.3979 H   0  0  0  0  0  0
  -22.7589  -29.2354   19.8560 H   0  0  0  0  0  0
  -25.1288  -36.1886   25.0822 H   0  0  0  0  0  0
  -20.9962  -28.3238   24.1399 H   0  0  0  0  0  0
  -20.5670  -26.2263   23.3607 H   0  0  0  0  0  0
  -21.6632  -26.7420   22.1199 H   0  0  0  0  0  0
  -19.6929  -25.6278   21.1224 H   0  0  0  0  0  0
  -19.6704  -27.3170   20.6734 H   0  0  0  0  0  0
  -17.4200  -26.6651   21.4005 H   0  0  0  0  0  0
  -18.0331  -26.0055   22.9018 H   0  0  0  0  0  0
  -19.7960  -30.7254   24.2218 H   0  0  0  0  0  0
  -17.5040  -31.6253   24.5151 H   0  0  0  0  0  0
  -15.5359  -30.2956   23.7689 H   0  0  0  0  0  0
  -15.8677  -28.0818   22.7045 H   0  0  0  0  0  0
  -24.5902  -30.7071   25.7789 H   0  0  0  0  0  0
  -24.8909  -32.2916   26.4810 H   0  0  0  0  0  0
  -25.8037  -30.8970   27.0241 H   0  0  0  0  0  0
  -26.2954  -29.6732   24.1196 H   0  0  0  0  0  0
  -27.4092  -29.7266   25.4668 H   0  0  0  0  0  0
  -27.8804  -30.4302   23.9383 H   0  0  0  0  0  0
  -27.2669  -33.3635   26.2013 H   0  0  0  0  0  0
  -28.3904  -32.6833   25.0339 H   0  0  0  0  0  0
  -28.0679  -31.8462   26.5455 H   0  0  0  0  0  0
  -28.2557  -38.0113   24.7517 H   0  0  0  0  0  0
  -28.1101  -36.2641   24.6258 H   0  0  0  0  0  0
  -27.2292  -37.1386   25.8858 H   0  0  0  0  0  0
  -20.9396  -29.8793   21.6924 H   0  0  0  0  0  0
  -26.0159  -38.2832   24.1434 H   0  0  0  0  0  0
  -31.5660  -21.0492   19.7719 H   0  0  0  0  0  0
  -32.3791  -16.9180   19.8112 H   0  0  0  0  0  0
  -26.0235  -17.8884   19.9094 H   0  0  0  0  0  0
  -27.3950  -17.2240   19.0188 H   0  0  0  0  0  0
  -27.0928  -18.9592   19.0168 H   0  0  0  0  0  0
  -29.3930  -23.1848   22.5174 H   0  0  0  0  0  0
  -28.8434  -24.8507   22.4113 H   0  0  0  0  0  0
  -30.2994  -24.3538   21.5670 H   0  0  0  0  0  0
  -26.9642  -22.5884   21.7781 H   0  0  0  0  0  0
  -26.4029  -23.0465   20.1722 H   0  0  0  0  0  0
  -26.5166  -24.2513   21.4432 H   0  0  0  0  0  0
  -27.5586  -19.0363   21.4962 H   0  0  0  0  0  0
  -27.8686  -17.3325   21.5121 H   0  0  0  0  0  0
  -27.7217  -24.8719   18.8446 H   0  0  0  0  0  0
  -29.3832  -25.0486   19.1318 H   0  0  0  0  0  0
  -28.2715  -21.0233   21.2115 H   0  0  0  0  0  0
  -28.9457  -15.7406   20.7901 H   0  0  0  0  0  0
  1 25  1  0  0  0
  1 30  2  0  0  0
  1 85  1  0  0  0
  2  3  1  0  0  0
  2 25  1  0  0  0
  2 88  1  0  0  0
  2 89  1  0  0  0
  3  4  1  0  0  0
  3 90  1  0  0  0
  3 91  1  0  0  0
  4  5  1  0  0  0
  4 92  1  0  0  0
  4 93  1  0  0  0
  5  6  1  0  0  0
  5 26  1  0  0  0
  5 94  1  0  0  0
  6 25  1  0  0  0
  6 95  1  0  0  0
  6 96  1  0  0  0
  7  8  2  0  0  0
  7 26  1  0  0  0
  7 29  1  0  0  0
  8  9  1  0  0  0
  8 22  1  0  0  0
  9 10  1  0  0  0
  9 27  2  0  0  0
 10 11  2  0  0  0
 10 15  1  0  0  0
 11 12  1  0  0  0
 11 97  1  0  0  0
 12 13  2  0  0  0
 12 98  1  0  0  0
 13 14  1  0  0  0
 13 31  1  0  0  0
 14 15  2  0  0  0
 14 99  1  0  0  0
 15100  1  0  0  0
 16 17  2  0  0  0
 16 21  1  0  0  0
 16 31  1  0  0  0
 17 18  1  0  0  0
 17101  1  0  0  0
 18 19  2  0  0  0
 18102  1  0  0  0
 19 20  1  0  0  0
 19 24  1  0  0  0
 20 21  2  0  0  0
 20103  1  0  0  0
 21 23  1  0  0  0
 22 28  1  0  0  0
 22 32  2  0  0  0
 26 27  1  0  0  0
 28104  1  0  0  0
 28105  1  0  0  0
 29106  1  0  0  0
 29107  1  0  0  0
 33 34  1  0  0  0
 33 66  1  0  0  0
 33 70  2  0  0  0
 34 36  1  0  0  0
 34 59  1  0  0  0
 34108  1  0  0  0
 35 44  2  0  0  0
 35 45  1  0  0  0
 35 68  1  0  0  0
 36 56  1  0  0  0
 36109  1  0  0  0
 37 39  1  0  0  0
 37 47  1  0  0  0
 37 66  1  0  0  0
 37110  1  0  0  0
 38 43  2  0  0  0
 38 46  1  0  0  0
 38 47  1  0  0  0
 39 64  1  0  0  0
 39 67  2  0  0  0
 40 52  1  0  0  0
 40 53  2  0  0  0
 40 58  1  0  0  0
 41111  1  0  0  0
 41112  1  0  0  0
 41113  1  0  0  0
 41 48  1  0  0  0
 42 43  1  0  0  0
 42 66  1  0  0  0
 42114  1  0  0  0
 42115  1  0  0  0
 43 44  1  0  0  0
 44116  1  0  0  0
 45 46  2  0  0  0
 45117  1  0  0  0
 46118  1  0  0  0
 47119  1  0  0  0
 47120  1  0  0  0
 48 56  1  0  0  0
 48 65  1  0  0  0
 48121  1  0  0  0
 49 50  1  0  0  0
 49 53  1  0  0  0
 49 64  1  0  0  0
 49122  1  0  0  0
 50 51  1  0  0  0
 50123  1  0  0  0
 50124  1  0  0  0
 51 52  1  0  0  0
 51125  1  0  0  0
 51126  1  0  0  0
 52127  1  0  0  0
 52128  1  0  0  0
 53 54  1  0  0  0
 54 55  2  0  0  0
 54129  1  0  0  0
 55 57  1  0  0  0
 55130  1  0  0  0
 56 69  2  0  0  0
 57 58  2  0  0  0
 57131  1  0  0  0
 58132  1  0  0  0
 59 60  1  0  0  0
 59 61  1  0  0  0
 59 62  1  0  0  0
 60133  1  0  0  0
 60134  1  0  0  0
 60135  1  0  0  0
 61136  1  0  0  0
 61137  1  0  0  0
 61138  1  0  0  0
 62139  1  0  0  0
 62140  1  0  0  0
 62141  1  0  0  0
 63 65  1  0  0  0
 63142  1  0  0  0
 63143  1  0  0  0
 63144  1  0  0  0
 64145  1  0  0  0
 65146  1  0  0  0
 68 82  1  0  0  0
 71 74  2  0  0  0
 71 76  1  0  0  0
 71147  1  0  0  0
 72 75  1  0  0  0
 72 76  2  0  0  0
 72148  1  0  0  0
 73 74  1  0  0  0
 73 75  2  0  0  0
 73 81  1  0  0  0
 74 84  1  0  0  0
 75 85  1  0  0  0
 76 87  1  0  0  0
 77 83  1  0  0  0
 77 84  1  0  0  0
 77 86  2  0  0  0
 78 81  1  0  0  0
 78149  1  0  0  0
 78150  1  0  0  0
 78151  1  0  0  0
 79152  1  0  0  0
 79153  1  0  0  0
 79154  1  0  0  0
 79 83  1  0  0  0
 80 83  1  0  0  0
 80155  1  0  0  0
 80156  1  0  0  0
 80157  1  0  0  0
 81158  1  0  0  0
 81159  1  0  0  0
 82 83  1  0  0  0
 82160  1  0  0  0
 82161  1  0  0  0
 84162  1  0  0  0
 85163  1  0  0  0
M  ISO  4   1 100  68 101  82 101  85 100
M  END
> <chiral flag>
0

> <version>
0

> <s_m_source_file>
/data/baiqing/PycharmProjects/Reinvent-master-3.2/result/LINK_invent/BTK/process_docking_weight1_custom_product_contain_oxygen_bond_distance_aromatic_linkinvent_7_9_3/rearranged_h_0141.sdf

> <i_m_source_file_index>
46

> <r_mmod_Potential_Energy-OPLS-2005>
192.954193115234

> <r_mmod_Stretch_Energy-OPLS-2005>
135.14176940918

> <r_mmod_Bend_Energy-OPLS-2005>
177.256011962891

> <r_mmod_Torsional_Energy-OPLS-2005>
251.165725708008

> <r_mmod_Improper_Torsional_Energy-OPLS-2005>
5.15036678314209

> <r_mmod_Van_der_Waal_Energy-OPLS-2005>
145.082275390625

> <r_mmod_Electrostatic_Energy-OPLS-2005>
-380.353363037109

> <r_mmod_Solvation_Energy-OPLS-2005>
-218.80583190918

> <b_mmod_Minimization_Converged-OPLS-2005>
0

> <r_mmod_RMS_Derivative-OPLS-2005>
2.00044178962708

$$$$
46
                    3D
 Structure written by MMmdl.
164172  0  0  1  0            999 V2000
  -30.7181  -14.4728   20.5995 C   0  0  0  0  0  0
  -30.4224  -12.3192   19.4221 C   0  0  0  0  0  0
  -29.4969  -12.5255   18.2046 C   0  0  0  0  0  0
  -28.0161  -12.3819   18.6110 C   0  0  0  0  0  0
  -27.6616  -13.2089   19.8756 C   0  0  2  0  0  0
  -28.7044  -12.9951   20.9973 C   0  0  0  0  0  0
  -25.2565  -13.8163   20.5661 C   0  0  0  0  0  0
  -24.1828  -13.0439   20.9160 C   0  0  0  0  0  0
  -24.6394  -11.6901   20.8730 C   0  0  0  0  0  0
  -23.9053  -10.4289   21.0397 C   0  0  0  0  0  0
  -24.3610   -9.4208   21.9173 C   0  0  0  0  0  0
  -23.6280   -8.2251   22.0752 C   0  0  0  0  0  0
  -22.4264   -8.0286   21.3540 C   0  0  0  0  0  0
  -21.9892   -9.0270   20.4646 C   0  0  0  0  0  0
  -22.7227  -10.2144   20.3046 C   0  0  0  0  0  0
  -21.6862   -6.0714   22.5277 C   0  0  0  0  0  0
  -21.4027   -6.5622   23.8214 C   0  0  0  0  0  0
  -21.3674   -5.6780   24.9181 C   0  0  0  0  0  0
  -21.6044   -4.3044   24.7235 C   0  0  0  0  0  0
  -21.8825   -3.8125   23.4364 C   0  0  0  0  0  0
  -21.9198   -4.6932   22.3409 C   0  0  0  0  0  0
  -22.7842  -13.5226   21.1842 C   0  0  0  0  0  0
  -22.1657   -4.2107   21.0983 F   0  0  0  0  0  0
  -21.5631   -3.4541   25.7756 F   0  0  0  0  0  0
  -30.0351  -13.3027   20.4454 N   0  0  0  0  0  0
  -26.3021  -12.9343   20.3385 N   0  0  0  0  0  0
  -25.9329  -11.6491   20.5770 N   0  0  0  0  0  0
  -22.0477  -12.8246   22.0407 N   0  0  0  0  0  0
  -25.4224  -15.1888   20.4023 N   0  0  0  0  0  0
  -31.8416  -14.6498   20.1184 O   0  0  0  0  0  0
  -21.6639   -6.8878   21.4242 O   0  0  0  0  0  0
  -22.3528  -14.5520   20.6666 O   0  0  0  0  0  0
  -24.6168  -31.8691   23.2112 C   0  0  0  0  0  0
  -25.9059  -32.4828   23.8407 C   0  0  1  0  0  0
  -27.2275  -27.4244   20.0949 C   0  0  0  0  0  0
  -25.5906  -33.8624   24.2336 N   0  0  0  0  0  0
  -23.4025  -30.4979   21.5518 C   0  0  2  0  0  0
  -24.8490  -28.9628   20.1177 C   0  0  0  0  0  0
  -22.7433  -29.4695   22.4992 C   0  0  0  0  0  0
  -18.0284  -28.1325   22.8469 C   0  0  0  0  0  0
  -24.1480  -36.7311   23.2634 C   0  0  0  0  0  0
  -25.9361  -30.8308   21.3702 C   0  0  0  0  0  0
  -26.0136  -29.4657   20.7147 C   0  0  0  0  0  0
  -27.2085  -28.7043   20.6995 C   0  0  0  0  0  0
  -26.0550  -26.9600   19.4689 C   0  0  0  0  0  0
  -24.8659  -27.7081   19.4915 C   0  0  0  0  0  0
  -23.6137  -29.8342   20.1650 C   0  0  0  0  0  0
  -25.4100  -36.3109   24.0340 C   0  0  1  0  0  0
  -20.5865  -28.3669   23.1322 C   0  0  2  0  0  0
  -20.6792  -26.9399   22.5400 C   0  0  0  0  0  0
  -19.5825  -26.6433   21.5128 C   0  0  0  0  0  0
  -18.1996  -26.7906   22.1551 C   0  0  0  0  0  0
  -19.1519  -28.8804   23.2913 C   0  0  0  0  0  0
  -18.9414  -30.1393   23.8948 C   0  0  0  0  0  0
  -17.6411  -30.6529   24.0553 C   0  0  0  0  0  0
  -25.9024  -34.9477   23.5130 C   0  0  0  0  0  0
  -16.5318  -29.9015   23.6304 C   0  0  0  0  0  0
  -16.7266  -28.6435   23.0335 C   0  0  0  0  0  0
  -26.4496  -31.6603   25.0728 C   0  0  0  0  0  0
  -25.3771  -31.3715   26.1474 C   0  0  0  0  0  0
  -27.0322  -30.3035   24.6139 C   0  0  0  0  0  0
  -27.6069  -32.4318   25.7495 C   0  0  0  0  0  0
  -27.5582  -37.1802   24.8469 C   0  0  0  0  0  0
  -21.4150  -29.3085   22.3778 N   0  0  0  0  0  0
  -26.4294  -37.3787   23.9404 N   0  0  0  0  0  0
  -24.6692  -31.0809   22.1013 N   0  0  0  0  0  0
  -23.4211  -28.8223   23.3008 O   0  0  0  0  0  0
  -28.3785  -26.6636   20.0517 O   0  0  0  0  0  0
  -26.5600  -34.8952   22.4692 O   0  0  0  0  0  0
  -23.5364  -32.1447   23.7504 O   0  0  0  0  0  0
  -31.1708  -19.5594   21.7201 C   0  0  0  0  0  0
  -29.4913  -17.8858   21.1571 C   0  0  0  0  0  0
  -31.7403  -17.1817   21.7714 C   0  0  0  0  0  0
  -29.8525  -19.2513   21.3200 C   0  0  0  0  0  0
  -32.1055  -18.5313   21.9583 C   0  0  0  0  0  0
  -30.4308  -16.8406   21.3570 C   0  0  0  0  0  0
  -28.8454  -20.3384   21.1278 C   0  0  0  0  0  0
  -28.8866  -24.2086   18.6637 C   0  0  0  0  0  0
  -26.7952  -23.6244   19.9802 C   0  0  0  0  0  0
  -29.1743  -21.5415   20.2260 C   0  0  0  0  0  0
  -29.0312  -22.9551   20.8926 C   0  0  0  0  0  0
  -28.3948  -25.4478   20.8355 C   0  0  0  0  0  0
  -28.2777  -24.0685   20.0779 C   0  0  0  0  0  0
  -27.6984  -20.2568   21.6521 N   0  0  0  0  0  0
  -33.3937  -18.8502   22.3915 N   0  0  0  0  0  0
  -30.0256  -15.4749   21.1855 N   0  0  0  0  0  0
  -31.4690  -12.4112   19.1262 H   0  0  0  0  0  0
  -30.3163  -11.3086   19.8210 H   0  0  0  0  0  0
  -29.7451  -11.8122   17.4175 H   0  0  0  0  0  0
  -29.6634  -13.5171   17.7779 H   0  0  0  0  0  0
  -27.8159  -11.3249   18.7882 H   0  0  0  0  0  0
  -27.3734  -12.6763   17.7810 H   0  0  0  0  0  0
  -27.7060  -14.2585   19.5855 H   0  0  0  0  0  0
  -28.6821  -11.9609   21.3447 H   0  0  0  0  0  0
  -28.4626  -13.5979   21.8733 H   0  0  0  0  0  0
  -25.2772   -9.5692   22.4742 H   0  0  0  0  0  0
  -23.9990   -7.4648   22.7488 H   0  0  0  0  0  0
  -21.0825   -8.8826   19.8955 H   0  0  0  0  0  0
  -22.3712  -10.9693   19.6157 H   0  0  0  0  0  0
  -21.2023   -7.6131   23.9718 H   0  0  0  0  0  0
  -21.1483   -6.0498   25.9086 H   0  0  0  0  0  0
  -22.0578   -2.7576   23.2888 H   0  0  0  0  0  0
  -22.4073  -11.9926   22.4831 H   0  0  0  0  0  0
  -21.1092  -13.1293   22.2608 H   0  0  0  0  0  0
  -24.6451  -15.8331   20.5035 H   0  0  0  0  0  0
  -26.2564  -15.6319   20.0374 H   0  0  0  0  0  0
  -26.7137  -32.5538   23.1176 H   0  0  0  0  0  0
  -25.0050  -33.9754   25.0489 H   0  0  0  0  0  0
  -22.6924  -31.3158   21.4141 H   0  0  0  0  0  0
  -23.3738  -35.9639   23.3318 H   0  0  0  0  0  0
  -24.3598  -36.8915   22.2047 H   0  0  0  0  0  0
  -23.7259  -37.6531   23.6649 H   0  0  0  0  0  0
  -26.0581  -31.6040   20.6090 H   0  0  0  0  0  0
  -26.8172  -30.8724   21.9995 H   0  0  0  0  0  0
  -28.1119  -29.0922   21.1492 H   0  0  0  0  0  0
  -26.0598  -26.0404   18.9177 H   0  0  0  0  0  0
  -23.9792  -27.3236   19.0076 H   0  0  0  0  0  0
  -23.7310  -30.6082   19.4059 H   0  0  0  0  0  0
  -22.7354  -29.2630   19.8620 H   0  0  0  0  0  0
  -25.1274  -36.1967   25.0839 H   0  0  0  0  0  0
  -20.9952  -28.3238   24.1437 H   0  0  0  0  0  0
  -20.5647  -26.2246   23.3567 H   0  0  0  0  0  0
  -21.6675  -26.7442   22.1212 H   0  0  0  0  0  0
  -19.7042  -25.6395   21.1051 H   0  0  0  0  0  0
  -19.6783  -27.3331   20.6736 H   0  0  0  0  0  0
  -17.4288  -26.6664   21.3937 H   0  0  0  0  0  0
  -18.0453  -25.9991   22.8897 H   0  0  0  0  0  0
  -19.7868  -30.7189   24.2393 H   0  0  0  0  0  0
  -17.4944  -31.6245   24.5082 H   0  0  0  0  0  0
  -15.5314  -30.2942   23.7551 H   0  0  0  0  0  0
  -15.8670  -28.0769   22.7008 H   0  0  0  0  0  0
  -24.5926  -30.7088   25.7818 H   0  0  0  0  0  0
  -24.8988  -32.2873   26.4952 H   0  0  0  0  0  0
  -25.8120  -30.8868   27.0221 H   0  0  0  0  0  0
  -26.2869  -29.6795   24.1191 H   0  0  0  0  0  0
  -27.4069  -29.7295   25.4627 H   0  0  0  0  0  0
  -27.8732  -30.4336   23.9318 H   0  0  0  0  0  0
  -27.2677  -33.3595   26.2121 H   0  0  0  0  0  0
  -28.3854  -32.6914   25.0304 H   0  0  0  0  0  0
  -28.0761  -31.8413   26.5379 H   0  0  0  0  0  0
  -28.2590  -38.0096   24.7485 H   0  0  0  0  0  0
  -28.1081  -36.2635   24.6310 H   0  0  0  0  0  0
  -27.2308  -37.1469   25.8872 H   0  0  0  0  0  0
  -20.9321  -29.8918   21.7098 H   0  0  0  0  0  0
  -26.0192  -38.2866   24.1402 H   0  0  0  0  0  0
  -31.4554  -20.5923   21.8641 H   0  0  0  0  0  0
  -28.4842  -17.6415   20.8513 H   0  0  0  0  0  0
  -32.4676  -16.4012   21.9525 H   0  0  0  0  0  0
  -28.7769  -23.3008   18.0748 H   0  0  0  0  0  0
  -29.9489  -24.4446   18.7124 H   0  0  0  0  0  0
  -28.4005  -24.9985   18.0891 H   0  0  0  0  0  0
  -26.6870  -22.5516   19.8279 H   0  0  0  0  0  0
  -26.2775  -24.0624   19.1342 H   0  0  0  0  0  0
  -26.2425  -23.8610   20.8913 H   0  0  0  0  0  0
  -28.5295  -21.4552   19.3518 H   0  0  0  0  0  0
  -30.1856  -21.4386   19.8335 H   0  0  0  0  0  0
  -30.0385  -23.3008   21.1296 H   0  0  0  0  0  0
  -28.5377  -22.8589   21.8625 H   0  0  0  0  0  0
  -29.3568  -25.4786   21.3488 H   0  0  0  0  0  0
  -27.6680  -25.5014   21.6483 H   0  0  0  0  0  0
  -27.6098  -19.4119   22.2067 H   0  0  0  0  0  0
  -33.5694  -19.7663   22.7946 H   0  0  0  0  0  0
  -33.9639  -18.1204   22.8099 H   0  0  0  0  0  0
  -29.0720  -15.2460   21.4217 H   0  0  0  0  0  0
  1 25  1  0  0  0
  1 30  2  0  0  0
  1 86  1  0  0  0
  2  3  1  0  0  0
  2 25  1  0  0  0
  2 87  1  0  0  0
  2 88  1  0  0  0
  3  4  1  0  0  0
  3 89  1  0  0  0
  3 90  1  0  0  0
  4  5  1  0  0  0
  4 91  1  0  0  0
  4 92  1  0  0  0
  5  6  1  0  0  0
  5 26  1  0  0  0
  5 93  1  0  0  0
  6 25  1  0  0  0
  6 94  1  0  0  0
  6 95  1  0  0  0
  7  8  2  0  0  0
  7 26  1  0  0  0
  7 29  1  0  0  0
  8  9  1  0  0  0
  8 22  1  0  0  0
  9 10  1  0  0  0
  9 27  2  0  0  0
 10 11  2  0  0  0
 10 15  1  0  0  0
 11 12  1  0  0  0
 11 96  1  0  0  0
 12 13  2  0  0  0
 12 97  1  0  0  0
 13 14  1  0  0  0
 13 31  1  0  0  0
 14 15  2  0  0  0
 14 98  1  0  0  0
 15 99  1  0  0  0
 16 17  2  0  0  0
 16 21  1  0  0  0
 16 31  1  0  0  0
 17 18  1  0  0  0
 17100  1  0  0  0
 18 19  2  0  0  0
 18101  1  0  0  0
 19 20  1  0  0  0
 19 24  1  0  0  0
 20 21  2  0  0  0
 20102  1  0  0  0
 21 23  1  0  0  0
 22 28  1  0  0  0
 22 32  2  0  0  0
 26 27  1  0  0  0
 28103  1  0  0  0
 28104  1  0  0  0
 29105  1  0  0  0
 29106  1  0  0  0
 33 34  1  0  0  0
 33 66  1  0  0  0
 33 70  2  0  0  0
 34 36  1  0  0  0
 34 59  1  0  0  0
 34107  1  0  0  0
 35 44  2  0  0  0
 35 45  1  0  0  0
 35 68  1  0  0  0
 36 56  1  0  0  0
 36108  1  0  0  0
 37 39  1  0  0  0
 37 47  1  0  0  0
 37 66  1  0  0  0
 37109  1  0  0  0
 38 43  2  0  0  0
 38 46  1  0  0  0
 38 47  1  0  0  0
 39 64  1  0  0  0
 39 67  2  0  0  0
 40 52  1  0  0  0
 40 53  2  0  0  0
 40 58  1  0  0  0
 41110  1  0  0  0
 41111  1  0  0  0
 41112  1  0  0  0
 41 48  1  0  0  0
 42 43  1  0  0  0
 42 66  1  0  0  0
 42113  1  0  0  0
 42114  1  0  0  0
 43 44  1  0  0  0
 44115  1  0  0  0
 45 46  2  0  0  0
 45116  1  0  0  0
 46117  1  0  0  0
 47118  1  0  0  0
 47119  1  0  0  0
 48 56  1  0  0  0
 48 65  1  0  0  0
 48120  1  0  0  0
 49 50  1  0  0  0
 49 53  1  0  0  0
 49 64  1  0  0  0
 49121  1  0  0  0
 50 51  1  0  0  0
 50122  1  0  0  0
 50123  1  0  0  0
 51 52  1  0  0  0
 51124  1  0  0  0
 51125  1  0  0  0
 52126  1  0  0  0
 52127  1  0  0  0
 53 54  1  0  0  0
 54 55  2  0  0  0
 54128  1  0  0  0
 55 57  1  0  0  0
 55129  1  0  0  0
 56 69  2  0  0  0
 57 58  2  0  0  0
 57130  1  0  0  0
 58131  1  0  0  0
 59 60  1  0  0  0
 59 61  1  0  0  0
 59 62  1  0  0  0
 60132  1  0  0  0
 60133  1  0  0  0
 60134  1  0  0  0
 61135  1  0  0  0
 61136  1  0  0  0
 61137  1  0  0  0
 62138  1  0  0  0
 62139  1  0  0  0
 62140  1  0  0  0
 63 65  1  0  0  0
 63141  1  0  0  0
 63142  1  0  0  0
 63143  1  0  0  0
 64144  1  0  0  0
 65145  1  0  0  0
 68 82  1  0  0  0
 71 74  2  0  0  0
 71 75  1  0  0  0
 71146  1  0  0  0
 72 74  1  0  0  0
 72 76  2  0  0  0
 72147  1  0  0  0
 73 75  2  0  0  0
 73 76  1  0  0  0
 73148  1  0  0  0
 74 77  1  0  0  0
 75 85  1  0  0  0
 76 86  1  0  0  0
 77 80  1  0  0  0
 77 84  2  0  0  0
 78149  1  0  0  0
 78150  1  0  0  0
 78151  1  0  0  0
 78 83  1  0  0  0
 79 83  1  0  0  0
 79152  1  0  0  0
 79153  1  0  0  0
 79154  1  0  0  0
 80 81  1  0  0  0
 80155  1  0  0  0
 80156  1  0  0  0
 81 83  1  0  0  0
 81157  1  0  0  0
 81158  1  0  0  0
 82 83  1  0  0  0
 82159  1  0  0  0
 82160  1  0  0  0
 84161  1  0  0  0
 85162  1  0  0  0
 85163  1  0  0  0
 86164  1  0  0  0
M  ISO  4   1 100  68 101  82 101  86 100
M  END
> <chiral flag>
0

> <version>
0

> <s_m_source_file>
/data/baiqing/PycharmProjects/Reinvent-master-3.2/result/LINK_invent/BTK/process_docking_weight1_custom_product_contain_oxygen_bond_distance_aromatic_linkinvent_7_9_3/rearranged_h_0141.sdf

> <i_m_source_file_index>
47

> <r_mmod_Potential_Energy-OPLS-2005>
-8.40135288238525

> <r_mmod_Stretch_Energy-OPLS-2005>
46.8610153198242

> <r_mmod_Bend_Energy-OPLS-2005>
111.651168823242

> <r_mmod_Torsional_Energy-OPLS-2005>
274.375183105469

> <r_mmod_Improper_Torsional_Energy-OPLS-2005>
6.70608949661255

> <r_mmod_Van_der_Waal_Energy-OPLS-2005>
155.113464355469

> <r_mmod_Electrostatic_Energy-OPLS-2005>
-397.059814453125

> <r_mmod_Solvation_Energy-OPLS-2005>
-218.99040222168

> <b_mmod_Minimization_Converged-OPLS-2005>
0

> <r_mmod_RMS_Derivative-OPLS-2005>
3.67133235931396

$$$$
47
                    3D
 Structure written by MMmdl.
165173  0  0  1  0            999 V2000
  -30.7065  -14.4848   20.4889 C   0  0  0  0  0  0
  -30.4188  -12.2867   19.4365 C   0  0  0  0  0  0
  -29.5013  -12.4741   18.2095 C   0  0  0  0  0  0
  -28.0152  -12.3761   18.6071 C   0  0  0  0  0  0
  -27.6593  -13.2193   19.8616 C   0  0  2  0  0  0
  -28.7005  -13.0323   20.9868 C   0  0  0  0  0  0
  -25.2593  -13.8190   20.5698 C   0  0  0  0  0  0
  -24.1837  -13.0463   20.9176 C   0  0  0  0  0  0
  -24.6396  -11.6925   20.8690 C   0  0  0  0  0  0
  -23.9081  -10.4302   21.0401 C   0  0  0  0  0  0
  -24.3626   -9.4217   21.9187 C   0  0  0  0  0  0
  -23.6288   -8.2260   22.0760 C   0  0  0  0  0  0
  -22.4274   -8.0294   21.3554 C   0  0  0  0  0  0
  -21.9926   -9.0270   20.4666 C   0  0  0  0  0  0
  -22.7259  -10.2140   20.3060 C   0  0  0  0  0  0
  -21.6852   -6.0746   22.5276 C   0  0  0  0  0  0
  -21.4013   -6.5650   23.8207 C   0  0  0  0  0  0
  -21.3628   -5.6783   24.9156 C   0  0  0  0  0  0
  -21.6049   -4.3051   24.7206 C   0  0  0  0  0  0
  -21.8816   -3.8160   23.4320 C   0  0  0  0  0  0
  -21.9190   -4.6981   22.3383 C   0  0  0  0  0  0
  -22.7854  -13.5261   21.1819 C   0  0  0  0  0  0
  -22.1671   -4.2186   21.0955 F   0  0  0  0  0  0
  -21.5610   -3.4517   25.7714 F   0  0  0  0  0  0
  -30.0319  -13.3052   20.4248 N   0  0  0  0  0  0
  -26.3008  -12.9391   20.3277 N   0  0  0  0  0  0
  -25.9332  -11.6542   20.5673 N   0  0  0  0  0  0
  -22.0475  -12.8244   22.0359 N   0  0  0  0  0  0
  -25.4363  -15.1914   20.4160 N   0  0  0  0  0  0
  -31.8866  -14.5712   20.1513 O   0  0  0  0  0  0
  -21.6620   -6.8900   21.4254 O   0  0  0  0  0  0
  -22.3546  -14.5553   20.6636 O   0  0  0  0  0  0
  -24.6148  -31.8709   23.2095 C   0  0  0  0  0  0
  -25.9047  -32.4829   23.8401 C   0  0  1  0  0  0
  -27.2314  -27.4248   20.0629 C   0  0  0  0  0  0
  -25.5935  -33.8633   24.2354 N   0  0  0  0  0  0
  -23.4006  -30.4959   21.5538 C   0  0  2  0  0  0
  -24.8398  -28.9589   20.1232 C   0  0  0  0  0  0
  -22.7410  -29.4678   22.5014 C   0  0  0  0  0  0
  -18.0273  -28.1348   22.8480 C   0  0  0  0  0  0
  -24.1497  -36.7317   23.2630 C   0  0  0  0  0  0
  -25.9335  -30.8278   21.3639 C   0  0  0  0  0  0
  -26.0059  -29.4625   20.7088 C   0  0  0  0  0  0
  -27.2004  -28.7035   20.6741 C   0  0  0  0  0  0
  -26.0274  -26.9303   19.5165 C   0  0  0  0  0  0
  -24.8445  -27.6884   19.5304 C   0  0  0  0  0  0
  -23.6064  -29.8288   20.1691 C   0  0  0  0  0  0
  -25.4109  -36.3105   24.0332 C   0  0  1  0  0  0
  -20.5867  -28.3650   23.1314 C   0  0  2  0  0  0
  -20.6785  -26.9394   22.5413 C   0  0  0  0  0  0
  -19.5770  -26.6369   21.5200 C   0  0  0  0  0  0
  -18.1932  -26.7902   22.1597 C   0  0  0  0  0  0
  -19.1518  -28.8811   23.2890 C   0  0  0  0  0  0
  -18.9443  -30.1418   23.8909 C   0  0  0  0  0  0
  -17.6445  -30.6559   24.0548 C   0  0  0  0  0  0
  -25.9046  -34.9474   23.5127 C   0  0  0  0  0  0
  -16.5349  -29.9053   23.6315 C   0  0  0  0  0  0
  -16.7257  -28.6469   23.0339 C   0  0  0  0  0  0
  -26.4477  -31.6578   25.0711 C   0  0  0  0  0  0
  -25.3733  -31.3673   26.1455 C   0  0  0  0  0  0
  -27.0309  -30.3022   24.6067 C   0  0  0  0  0  0
  -27.6064  -32.4282   25.7493 C   0  0  0  0  0  0
  -27.5592  -37.1819   24.8459 C   0  0  0  0  0  0
  -21.4133  -29.3025   22.3738 N   0  0  0  0  0  0
  -26.4307  -37.3786   23.9395 N   0  0  0  0  0  0
  -24.6683  -31.0806   22.1008 N   0  0  0  0  0  0
  -23.4197  -28.8214   23.3032 O   0  0  0  0  0  0
  -28.4474  -26.7561   20.0234 O   0  0  0  0  0  0
  -26.5587  -34.8925   22.4681 O   0  0  0  0  0  0
  -23.5342  -32.1496   23.7483 O   0  0  0  0  0  0
  -31.4904  -18.7529   19.3433 C   0  0  0  0  0  0
  -30.5043  -19.6986   19.6791 C   0  0  0  0  0  0
  -31.3242  -17.3989   19.6833 C   0  0  0  0  0  0
  -29.1761  -17.9226   20.6886 C   0  0  0  0  0  0
  -29.3213  -19.2934   20.3316 C   0  0  0  0  0  0
  -30.1737  -16.9539   20.3839 C   0  0  0  0  0  0
  -28.2149  -20.2755   20.5407 C   0  0  0  0  0  0
  -30.2170  -25.4498   19.3667 C   0  0  0  0  0  0
  -28.1579  -25.2016   18.0564 C   0  0  0  0  0  0
  -28.9419  -24.4797   21.8828 C   0  0  0  0  0  0
  -28.5166  -21.6980   21.0330 C   0  0  0  0  0  0
  -28.3307  -22.8314   19.9780 C   0  0  0  0  0  0
  -28.6769  -25.4199   19.5000 C   0  0  0  0  0  0
  -28.2288  -24.3007   20.5245 C   0  0  2  0  0  0
  -27.0100  -19.9379   20.3690 N   0  0  0  0  0  0
  -29.9507  -15.5776   20.7588 N   0  0  0  0  0  0
  -26.9337  -24.4747   20.7896 F   0  0  0  0  0  0
  -31.4674  -12.3624   19.1395 H   0  0  0  0  0  0
  -30.3020  -11.2865   19.8620 H   0  0  0  0  0  0
  -29.7292  -11.7245   17.4492 H   0  0  0  0  0  0
  -29.6968  -13.4436   17.7498 H   0  0  0  0  0  0
  -27.7860  -11.3243   18.7825 H   0  0  0  0  0  0
  -27.3912  -12.6925   17.7706 H   0  0  0  0  0  0
  -27.6946  -14.2630   19.5491 H   0  0  0  0  0  0
  -28.6630  -12.0141   21.3790 H   0  0  0  0  0  0
  -28.4808  -13.6835   21.8334 H   0  0  0  0  0  0
  -25.2782   -9.5676   22.4733 H   0  0  0  0  0  0
  -24.0006   -7.4651   22.7456 H   0  0  0  0  0  0
  -21.0867   -8.8780   19.8953 H   0  0  0  0  0  0
  -22.3743  -10.9664   19.6129 H   0  0  0  0  0  0
  -21.2023   -7.6155   23.9727 H   0  0  0  0  0  0
  -21.1447   -6.0502   25.9055 H   0  0  0  0  0  0
  -22.0636   -2.7636   23.2789 H   0  0  0  0  0  0
  -22.4074  -11.9897   22.4732 H   0  0  0  0  0  0
  -21.1090  -13.1266   22.2520 H   0  0  0  0  0  0
  -24.6864  -15.8586   20.5668 H   0  0  0  0  0  0
  -26.2798  -15.6196   20.0579 H   0  0  0  0  0  0
  -26.7107  -32.5542   23.1162 H   0  0  0  0  0  0
  -25.0145  -33.9831   25.0537 H   0  0  0  0  0  0
  -22.6861  -31.3099   21.4148 H   0  0  0  0  0  0
  -23.3760  -35.9653   23.3291 H   0  0  0  0  0  0
  -24.3598  -36.8940   22.2045 H   0  0  0  0  0  0
  -23.7268  -37.6526   23.6664 H   0  0  0  0  0  0
  -26.0485  -31.5881   20.5898 H   0  0  0  0  0  0
  -26.8230  -30.8835   21.9787 H   0  0  0  0  0  0
  -28.1046  -29.1013   21.1130 H   0  0  0  0  0  0
  -25.9513  -25.9559   19.0777 H   0  0  0  0  0  0
  -23.9407  -27.2881   19.0921 H   0  0  0  0  0  0
  -23.7210  -30.6037   19.4099 H   0  0  0  0  0  0
  -22.7312  -29.2496   19.8709 H   0  0  0  0  0  0
  -25.1269  -36.1971   25.0827 H   0  0  0  0  0  0
  -20.9940  -28.3212   24.1436 H   0  0  0  0  0  0
  -20.5669  -26.2250   23.3582 H   0  0  0  0  0  0
  -21.6654  -26.7430   22.1216 H   0  0  0  0  0  0
  -19.6932  -25.6271   21.1236 H   0  0  0  0  0  0
  -19.6706  -27.3170   20.6716 H   0  0  0  0  0  0
  -17.4200  -26.6630   21.3992 H   0  0  0  0  0  0
  -18.0342  -26.0029   22.8982 H   0  0  0  0  0  0
  -19.7924  -30.7223   24.2301 H   0  0  0  0  0  0
  -17.5001  -31.6241   24.5159 H   0  0  0  0  0  0
  -15.5341  -30.2948   23.7649 H   0  0  0  0  0  0
  -15.8661  -28.0789   22.7052 H   0  0  0  0  0  0
  -24.5902  -30.7042   25.7772 H   0  0  0  0  0  0
  -24.8930  -32.2825   26.4934 H   0  0  0  0  0  0
  -25.8073  -30.8809   27.0198 H   0  0  0  0  0  0
  -26.2851  -29.6787   24.1133 H   0  0  0  0  0  0
  -27.4105  -29.7244   25.4501 H   0  0  0  0  0  0
  -27.8675  -30.4339   23.9197 H   0  0  0  0  0  0
  -27.2698  -33.3559   26.2142 H   0  0  0  0  0  0
  -28.3871  -32.6881   25.0328 H   0  0  0  0  0  0
  -28.0756  -31.8353   26.5361 H   0  0  0  0  0  0
  -28.2582  -38.0140   24.7514 H   0  0  0  0  0  0
  -28.1112  -36.2668   24.6258 H   0  0  0  0  0  0
  -27.2320  -37.1440   25.8867 H   0  0  0  0  0  0
  -20.9304  -29.8741   21.6956 H   0  0  0  0  0  0
  -26.0182  -38.2876   24.1356 H   0  0  0  0  0  0
  -32.3766  -19.0612   18.8068 H   0  0  0  0  0  0
  -30.6406  -20.7302   19.3880 H   0  0  0  0  0  0
  -32.1140  -16.7312   19.3728 H   0  0  0  0  0  0
  -28.2709  -17.6090   21.1899 H   0  0  0  0  0  0
  -30.6213  -24.4909   19.0460 H   0  0  0  0  0  0
  -30.7112  -25.7122   20.2997 H   0  0  0  0  0  0
  -30.5273  -26.1950   18.6323 H   0  0  0  0  0  0
  -28.7866  -24.4900   17.5183 H   0  0  0  0  0  0
  -28.1710  -26.1296   17.4833 H   0  0  0  0  0  0
  -27.1623  -24.7694   18.0079 H   0  0  0  0  0  0
  -29.9680  -24.1129   21.8533 H   0  0  0  0  0  0
  -28.4234  -23.9505   22.6830 H   0  0  0  0  0  0
  -28.9774  -25.5274   22.1804 H   0  0  0  0  0  0
  -29.5252  -21.7358   21.4448 H   0  0  0  0  0  0
  -27.8448  -21.8850   21.8717 H   0  0  0  0  0  0
  -27.4248  -22.6345   19.4025 H   0  0  0  0  0  0
  -29.1396  -22.7516   19.2572 H   0  0  0  0  0  0
  -26.9410  -18.9738   20.0621 H   0  0  0  0  0  0
  -29.0367  -15.3624   21.1252 H   0  0  0  0  0  0
  1 25  1  0  0  0
  1 30  2  0  0  0
  1 86  1  0  0  0
  2  3  1  0  0  0
  2 25  1  0  0  0
  2 88  1  0  0  0
  2 89  1  0  0  0
  3  4  1  0  0  0
  3 90  1  0  0  0
  3 91  1  0  0  0
  4  5  1  0  0  0
  4 92  1  0  0  0
  4 93  1  0  0  0
  5  6  1  0  0  0
  5 26  1  0  0  0
  5 94  1  0  0  0
  6 25  1  0  0  0
  6 95  1  0  0  0
  6 96  1  0  0  0
  7  8  2  0  0  0
  7 26  1  0  0  0
  7 29  1  0  0  0
  8  9  1  0  0  0
  8 22  1  0  0  0
  9 10  1  0  0  0
  9 27  2  0  0  0
 10 11  2  0  0  0
 10 15  1  0  0  0
 11 12  1  0  0  0
 11 97  1  0  0  0
 12 13  2  0  0  0
 12 98  1  0  0  0
 13 14  1  0  0  0
 13 31  1  0  0  0
 14 15  2  0  0  0
 14 99  1  0  0  0
 15100  1  0  0  0
 16 17  2  0  0  0
 16 21  1  0  0  0
 16 31  1  0  0  0
 17 18  1  0  0  0
 17101  1  0  0  0
 18 19  2  0  0  0
 18102  1  0  0  0
 19 20  1  0  0  0
 19 24  1  0  0  0
 20 21  2  0  0  0
 20103  1  0  0  0
 21 23  1  0  0  0
 22 28  1  0  0  0
 22 32  2  0  0  0
 26 27  1  0  0  0
 28104  1  0  0  0
 28105  1  0  0  0
 29106  1  0  0  0
 29107  1  0  0  0
 33 34  1  0  0  0
 33 66  1  0  0  0
 33 70  2  0  0  0
 34 36  1  0  0  0
 34 59  1  0  0  0
 34108  1  0  0  0
 35 44  2  0  0  0
 35 45  1  0  0  0
 35 68  1  0  0  0
 36 56  1  0  0  0
 36109  1  0  0  0
 37 39  1  0  0  0
 37 47  1  0  0  0
 37 66  1  0  0  0
 37110  1  0  0  0
 38 43  2  0  0  0
 38 46  1  0  0  0
 38 47  1  0  0  0
 39 64  1  0  0  0
 39 67  2  0  0  0
 40 52  1  0  0  0
 40 53  2  0  0  0
 40 58  1  0  0  0
 41111  1  0  0  0
 41112  1  0  0  0
 41113  1  0  0  0
 41 48  1  0  0  0
 42 43  1  0  0  0
 42 66  1  0  0  0
 42114  1  0  0  0
 42115  1  0  0  0
 43 44  1  0  0  0
 44116  1  0  0  0
 45 46  2  0  0  0
 45117  1  0  0  0
 46118  1  0  0  0
 47119  1  0  0  0
 47120  1  0  0  0
 48 56  1  0  0  0
 48 65  1  0  0  0
 48121  1  0  0  0
 49 50  1  0  0  0
 49 53  1  0  0  0
 49 64  1  0  0  0
 49122  1  0  0  0
 50 51  1  0  0  0
 50123  1  0  0  0
 50124  1  0  0  0
 51 52  1  0  0  0
 51125  1  0  0  0
 51126  1  0  0  0
 52127  1  0  0  0
 52128  1  0  0  0
 53 54  1  0  0  0
 54 55  2  0  0  0
 54129  1  0  0  0
 55 57  1  0  0  0
 55130  1  0  0  0
 56 69  2  0  0  0
 57 58  2  0  0  0
 57131  1  0  0  0
 58132  1  0  0  0
 59 60  1  0  0  0
 59 61  1  0  0  0
 59 62  1  0  0  0
 60133  1  0  0  0
 60134  1  0  0  0
 60135  1  0  0  0
 61136  1  0  0  0
 61137  1  0  0  0
 61138  1  0  0  0
 62139  1  0  0  0
 62140  1  0  0  0
 62141  1  0  0  0
 63 65  1  0  0  0
 63142  1  0  0  0
 63143  1  0  0  0
 63144  1  0  0  0
 64145  1  0  0  0
 65146  1  0  0  0
 68 83  1  0  0  0
 71 72  2  0  0  0
 71 73  1  0  0  0
 71147  1  0  0  0
 72 75  1  0  0  0
 72148  1  0  0  0
 73 76  2  0  0  0
 73149  1  0  0  0
 74 75  2  0  0  0
 74 76  1  0  0  0
 74150  1  0  0  0
 75 77  1  0  0  0
 76 86  1  0  0  0
 77 81  1  0  0  0
 77 85  2  0  0  0
 78151  1  0  0  0
 78152  1  0  0  0
 78153  1  0  0  0
 78 83  1  0  0  0
 79 83  1  0  0  0
 79154  1  0  0  0
 79155  1  0  0  0
 79156  1  0  0  0
 80157  1  0  0  0
 80158  1  0  0  0
 80159  1  0  0  0
 80 84  1  0  0  0
 81 82  1  0  0  0
 81160  1  0  0  0
 81161  1  0  0  0
 82 84  1  0  0  0
 82162  1  0  0  0
 82163  1  0  0  0
 83 84  1  0  0  0
 84 87  1  0  0  0
 85164  1  0  0  0
 86165  1  0  0  0
M  ISO  4   1 100  68 101  83 101  86 100
M  END
> <chiral flag>
0

> <version>
0

> <s_m_source_file>
/data/baiqing/PycharmProjects/Reinvent-master-3.2/result/LINK_invent/BTK/process_docking_weight1_custom_product_contain_oxygen_bond_distance_aromatic_linkinvent_7_9_3/rearranged_h_0141.sdf

> <i_m_source_file_index>
48

> <r_mmod_Potential_Energy-OPLS-2005>
-20.4657115936279

> <r_mmod_Stretch_Energy-OPLS-2005>
49.0628204345703

> <r_mmod_Bend_Energy-OPLS-2005>
138.620727539062

> <r_mmod_Torsional_Energy-OPLS-2005>
237.72590637207

> <r_mmod_Improper_Torsional_Energy-OPLS-2005>
5.10515403747559

> <r_mmod_Van_der_Waal_Energy-OPLS-2005>
169.881607055664

> <r_mmod_Electrostatic_Energy-OPLS-2005>
-433.225219726562

> <r_mmod_Solvation_Energy-OPLS-2005>
-206.823699951172

> <b_mmod_Minimization_Converged-OPLS-2005>
0

> <r_mmod_RMS_Derivative-OPLS-2005>
4.29491806030273

$$$$
48
                    3D
 Structure written by MMmdl.
154162  0  0  1  0            999 V2000
  -30.6960  -14.4837   20.5331 C   0  0  0  0  0  0
  -30.4265  -12.2943   19.4453 C   0  0  0  0  0  0
  -29.5106  -12.4807   18.2150 C   0  0  0  0  0  0
  -28.0247  -12.3531   18.6176 C   0  0  0  0  0  0
  -27.6628  -13.2030   19.8643 C   0  0  2  0  0  0
  -28.7001  -13.0163   20.9974 C   0  0  0  0  0  0
  -25.2615  -13.8149   20.5659 C   0  0  0  0  0  0
  -24.1843  -13.0461   20.9179 C   0  0  0  0  0  0
  -24.6394  -11.6921   20.8721 C   0  0  0  0  0  0
  -23.9063  -10.4290   21.0410 C   0  0  0  0  0  0
  -24.3620   -9.4210   21.9206 C   0  0  0  0  0  0
  -23.6285   -8.2253   22.0786 C   0  0  0  0  0  0
  -22.4272   -8.0288   21.3562 C   0  0  0  0  0  0
  -21.9901   -9.0263   20.4674 C   0  0  0  0  0  0
  -22.7228  -10.2141   20.3071 C   0  0  0  0  0  0
  -21.6870   -6.0740   22.5275 C   0  0  0  0  0  0
  -21.4012   -6.5639   23.8202 C   0  0  0  0  0  0
  -21.3663   -5.6807   24.9167 C   0  0  0  0  0  0
  -21.6044   -4.3071   24.7228 C   0  0  0  0  0  0
  -21.8821   -3.8153   23.4352 C   0  0  0  0  0  0
  -21.9187   -4.6964   22.3405 C   0  0  0  0  0  0
  -22.7864  -13.5275   21.1824 C   0  0  0  0  0  0
  -22.1670   -4.2151   21.0982 F   0  0  0  0  0  0
  -21.5619   -3.4556   25.7742 F   0  0  0  0  0  0
  -30.0359  -13.2977   20.4452 N   0  0  0  0  0  0
  -26.3027  -12.9326   20.3274 N   0  0  0  0  0  0
  -25.9316  -11.6501   20.5735 N   0  0  0  0  0  0
  -22.0473  -12.8285   22.0372 N   0  0  0  0  0  0
  -25.4328  -15.1862   20.4075 N   0  0  0  0  0  0
  -31.8548  -14.6450   20.1472 O   0  0  0  0  0  0
  -21.6639   -6.8889   21.4242 O   0  0  0  0  0  0
  -22.3549  -14.5579   20.6652 O   0  0  0  0  0  0
  -24.6198  -31.8668   23.2097 C   0  0  0  0  0  0
  -25.9080  -32.4805   23.8379 C   0  0  1  0  0  0
  -27.2275  -27.4034   20.0843 C   0  0  0  0  0  0
  -25.5952  -33.8618   24.2310 N   0  0  0  0  0  0
  -23.4062  -30.4896   21.5531 C   0  0  2  0  0  0
  -24.8511  -28.9560   20.1144 C   0  0  0  0  0  0
  -22.7422  -29.4634   22.5021 C   0  0  0  0  0  0
  -18.0272  -28.1358   22.8487 C   0  0  0  0  0  0
  -24.1487  -36.7297   23.2627 C   0  0  0  0  0  0
  -25.9393  -30.8170   21.3714 C   0  0  0  0  0  0
  -26.0150  -29.4504   20.7152 C   0  0  0  0  0  0
  -27.2070  -28.6811   20.6976 C   0  0  0  0  0  0
  -26.0373  -26.9376   19.4728 C   0  0  0  0  0  0
  -24.8587  -27.6993   19.4899 C   0  0  0  0  0  0
  -23.6146  -29.8260   20.1657 C   0  0  0  0  0  0
  -25.4114  -36.3112   24.0328 C   0  0  1  0  0  0
  -20.5844  -28.3622   23.1323 C   0  0  2  0  0  0
  -20.6769  -26.9378   22.5385 C   0  0  0  0  0  0
  -19.5731  -26.6337   21.5219 C   0  0  0  0  0  0
  -18.1911  -26.7902   22.1626 C   0  0  0  0  0  0
  -19.1511  -28.8820   23.2904 C   0  0  0  0  0  0
  -18.9440  -30.1412   23.8938 C   0  0  0  0  0  0
  -17.6449  -30.6544   24.0598 C   0  0  0  0  0  0
  -25.9063  -34.9473   23.5102 C   0  0  0  0  0  0
  -16.5332  -29.9060   23.6322 C   0  0  0  0  0  0
  -16.7249  -28.6478   23.0324 C   0  0  0  0  0  0
  -26.4509  -31.6614   25.0722 C   0  0  0  0  0  0
  -25.3718  -31.3774   26.1420 C   0  0  0  0  0  0
  -27.0352  -30.3055   24.6131 C   0  0  0  0  0  0
  -27.6083  -32.4321   25.7483 C   0  0  0  0  0  0
  -27.5587  -37.1802   24.8470 C   0  0  0  0  0  0
  -21.4138  -29.3001   22.3752 N   0  0  0  0  0  0
  -26.4306  -37.3790   23.9404 N   0  0  0  0  0  0
  -24.6724  -31.0729   22.1009 N   0  0  0  0  0  0
  -23.4212  -28.8177   23.3047 O   0  0  0  0  0  0
  -28.3808  -26.6320   20.1011 O   0  0  0  0  0  0
  -26.5583  -34.8929   22.4645 O   0  0  0  0  0  0
  -23.5373  -32.1471   23.7447 O   0  0  0  0  0  0
  -29.6719  -16.6427   18.7179 C   0  0  0  0  0  0
  -29.4109  -17.7838   17.9492 C   0  0  0  0  0  0
  -29.7587  -18.0276   20.7251 C   0  0  0  0  0  0
  -29.8267  -16.7405   20.1181 C   0  0  0  0  0  0
  -29.5202  -19.1995   19.9492 C   0  0  0  0  0  0
  -29.3073  -19.0446   18.5550 C   0  0  0  0  0  0
  -29.6252  -21.7246   20.1089 C   0  0  0  0  0  0
  -29.1026  -22.9084   20.9559 C   0  0  0  0  0  0
  -29.4310  -24.3715   20.4934 C   0  0  0  0  0  0
  -28.1914  -25.1957   20.0558 C   0  0  0  0  0  0
  -29.3916  -20.4794   20.5964 N   0  0  0  0  0  0
  -29.9290  -15.5374   20.8861 N   0  0  0  0  0  0
  -30.2736  -21.9441   19.0817 O   0  0  0  0  0  0
  -28.9267  -20.0830   17.7775 F   0  0  0  0  0  0
  -31.4769  -12.3839   19.1595 H   0  0  0  0  0  0
  -30.3123  -11.2903   19.8571 H   0  0  0  0  0  0
  -29.7515  -11.7372   17.4527 H   0  0  0  0  0  0
  -29.6972  -13.4507   17.7526 H   0  0  0  0  0  0
  -27.8286  -11.2970   18.8165 H   0  0  0  0  0  0
  -27.3850  -12.6233   17.7753 H   0  0  0  0  0  0
  -27.6969  -14.2434   19.5428 H   0  0  0  0  0  0
  -28.6659  -11.9999   21.3875 H   0  0  0  0  0  0
  -28.4611  -13.6576   21.8467 H   0  0  0  0  0  0
  -25.2783   -9.5686   22.4751 H   0  0  0  0  0  0
  -23.9998   -7.4666   22.7531 H   0  0  0  0  0  0
  -21.0822   -8.8782   19.8991 H   0  0  0  0  0  0
  -22.3703  -10.9671   19.6153 H   0  0  0  0  0  0
  -21.2001   -7.6153   23.9696 H   0  0  0  0  0  0
  -21.1486   -6.0544   25.9066 H   0  0  0  0  0  0
  -22.0584   -2.7608   23.2856 H   0  0  0  0  0  0
  -22.4082  -11.9976   22.4816 H   0  0  0  0  0  0
  -21.1066  -13.1313   22.2482 H   0  0  0  0  0  0
  -24.6667  -15.8414   20.5151 H   0  0  0  0  0  0
  -26.2849  -15.6234   20.0820 H   0  0  0  0  0  0
  -26.7145  -32.5524   23.1122 H   0  0  0  0  0  0
  -25.0228  -33.9798   25.0547 H   0  0  0  0  0  0
  -22.6939  -31.3066   21.4169 H   0  0  0  0  0  0
  -23.3761  -35.9628   23.3312 H   0  0  0  0  0  0
  -24.3594  -36.8901   22.2051 H   0  0  0  0  0  0
  -23.7244  -37.6503   23.6620 H   0  0  0  0  0  0
  -26.0617  -31.5788   20.6008 H   0  0  0  0  0  0
  -26.8254  -30.8678   21.9920 H   0  0  0  0  0  0
  -28.1040  -29.0522   21.1746 H   0  0  0  0  0  0
  -26.0008  -25.9870   18.9655 H   0  0  0  0  0  0
  -23.9663  -27.3193   19.0121 H   0  0  0  0  0  0
  -23.7224  -30.6052   19.4094 H   0  0  0  0  0  0
  -22.7346  -29.2493   19.8700 H   0  0  0  0  0  0
  -25.1284  -36.1969   25.0823 H   0  0  0  0  0  0
  -20.9945  -28.3137   24.1444 H   0  0  0  0  0  0
  -20.5708  -26.2260   23.3600 H   0  0  0  0  0  0
  -21.6640  -26.7459   22.1110 H   0  0  0  0  0  0
  -19.6915  -25.6233   21.1286 H   0  0  0  0  0  0
  -19.6693  -27.3131   20.6733 H   0  0  0  0  0  0
  -17.4196  -26.6692   21.3998 H   0  0  0  0  0  0
  -18.0240  -26.0039   22.9006 H   0  0  0  0  0  0
  -19.7918  -30.7188   24.2372 H   0  0  0  0  0  0
  -17.4991  -31.6212   24.5218 H   0  0  0  0  0  0
  -15.5326  -30.2961   23.7627 H   0  0  0  0  0  0
  -15.8646  -28.0795   22.7025 H   0  0  0  0  0  0
  -24.5847  -30.7201   25.7717 H   0  0  0  0  0  0
  -24.8944  -32.2957   26.4829 H   0  0  0  0  0  0
  -25.7977  -30.8915   27.0197 H   0  0  0  0  0  0
  -26.2928  -29.6798   24.1146 H   0  0  0  0  0  0
  -27.4113  -29.7311   25.4616 H   0  0  0  0  0  0
  -27.8760  -30.4404   23.9317 H   0  0  0  0  0  0
  -27.2722  -33.3597   26.2105 H   0  0  0  0  0  0
  -28.3853  -32.6915   25.0289 H   0  0  0  0  0  0
  -28.0770  -31.8411   26.5352 H   0  0  0  0  0  0
  -28.2592  -38.0096   24.7506 H   0  0  0  0  0  0
  -28.1077  -36.2637   24.6284 H   0  0  0  0  0  0
  -27.2303  -37.1450   25.8866 H   0  0  0  0  0  0
  -20.9293  -29.8752   21.7012 H   0  0  0  0  0  0
  -26.0193  -38.2868   24.1391 H   0  0  0  0  0  0
  -29.7016  -15.6842   18.2204 H   0  0  0  0  0  0
  -29.2503  -17.6925   16.8858 H   0  0  0  0  0  0
  -29.8723  -18.1112   21.7970 H   0  0  0  0  0  0
  -29.4908  -22.7742   21.9632 H   0  0  0  0  0  0
  -28.0242  -22.7853   21.0470 H   0  0  0  0  0  0
  -30.1839  -24.3891   19.7028 H   0  0  0  0  0  0
  -29.8893  -24.8891   21.3348 H   0  0  0  0  0  0
  -27.3704  -24.9441   20.7305 H   0  0  0  0  0  0
  -27.8961  -24.8798   19.0532 H   0  0  0  0  0  0
  -29.0491  -20.4404   21.5420 H   0  0  0  0  0  0
  -29.0655  -15.2494   21.3226 H   0  0  0  0  0  0
  1 25  1  0  0  0
  1 30  2  0  0  0
  1 82  1  0  0  0
  2  3  1  0  0  0
  2 25  1  0  0  0
  2 85  1  0  0  0
  2 86  1  0  0  0
  3  4  1  0  0  0
  3 87  1  0  0  0
  3 88  1  0  0  0
  4  5  1  0  0  0
  4 89  1  0  0  0
  4 90  1  0  0  0
  5  6  1  0  0  0
  5 26  1  0  0  0
  5 91  1  0  0  0
  6 25  1  0  0  0
  6 92  1  0  0  0
  6 93  1  0  0  0
  7  8  2  0  0  0
  7 26  1  0  0  0
  7 29  1  0  0  0
  8  9  1  0  0  0
  8 22  1  0  0  0
  9 10  1  0  0  0
  9 27  2  0  0  0
 10 11  2  0  0  0
 10 15  1  0  0  0
 11 12  1  0  0  0
 11 94  1  0  0  0
 12 13  2  0  0  0
 12 95  1  0  0  0
 13 14  1  0  0  0
 13 31  1  0  0  0
 14 15  2  0  0  0
 14 96  1  0  0  0
 15 97  1  0  0  0
 16 17  2  0  0  0
 16 21  1  0  0  0
 16 31  1  0  0  0
 17 18  1  0  0  0
 17 98  1  0  0  0
 18 19  2  0  0  0
 18 99  1  0  0  0
 19 20  1  0  0  0
 19 24  1  0  0  0
 20 21  2  0  0  0
 20100  1  0  0  0
 21 23  1  0  0  0
 22 28  1  0  0  0
 22 32  2  0  0  0
 26 27  1  0  0  0
 28101  1  0  0  0
 28102  1  0  0  0
 29103  1  0  0  0
 29104  1  0  0  0
 33 34  1  0  0  0
 33 66  1  0  0  0
 33 70  2  0  0  0
 34 36  1  0  0  0
 34 59  1  0  0  0
 34105  1  0  0  0
 35 44  2  0  0  0
 35 45  1  0  0  0
 35 68  1  0  0  0
 36 56  1  0  0  0
 36106  1  0  0  0
 37 39  1  0  0  0
 37 47  1  0  0  0
 37 66  1  0  0  0
 37107  1  0  0  0
 38 43  2  0  0  0
 38 46  1  0  0  0
 38 47  1  0  0  0
 39 64  1  0  0  0
 39 67  2  0  0  0
 40 52  1  0  0  0
 40 53  2  0  0  0
 40 58  1  0  0  0
 41108  1  0  0  0
 41109  1  0  0  0
 41110  1  0  0  0
 41 48  1  0  0  0
 42 43  1  0  0  0
 42 66  1  0  0  0
 42111  1  0  0  0
 42112  1  0  0  0
 43 44  1  0  0  0
 44113  1  0  0  0
 45 46  2  0  0  0
 45114  1  0  0  0
 46115  1  0  0  0
 47116  1  0  0  0
 47117  1  0  0  0
 48 56  1  0  0  0
 48 65  1  0  0  0
 48118  1  0  0  0
 49 50  1  0  0  0
 49 53  1  0  0  0
 49 64  1  0  0  0
 49119  1  0  0  0
 50 51  1  0  0  0
 50120  1  0  0  0
 50121  1  0  0  0
 51 52  1  0  0  0
 51122  1  0  0  0
 51123  1  0  0  0
 52124  1  0  0  0
 52125  1  0  0  0
 53 54  1  0  0  0
 54 55  2  0  0  0
 54126  1  0  0  0
 55 57  1  0  0  0
 55127  1  0  0  0
 56 69  2  0  0  0
 57 58  2  0  0  0
 57128  1  0  0  0
 58129  1  0  0  0
 59 60  1  0  0  0
 59 61  1  0  0  0
 59 62  1  0  0  0
 60130  1  0  0  0
 60131  1  0  0  0
 60132  1  0  0  0
 61133  1  0  0  0
 61134  1  0  0  0
 61135  1  0  0  0
 62136  1  0  0  0
 62137  1  0  0  0
 62138  1  0  0  0
 63 65  1  0  0  0
 63139  1  0  0  0
 63140  1  0  0  0
 63141  1  0  0  0
 64142  1  0  0  0
 65143  1  0  0  0
 68 80  1  0  0  0
 71 72  2  0  0  0
 71 74  1  0  0  0
 71144  1  0  0  0
 72 76  1  0  0  0
 72145  1  0  0  0
 73 74  2  0  0  0
 73 75  1  0  0  0
 73146  1  0  0  0
 74 82  1  0  0  0
 75 76  2  0  0  0
 75 81  1  0  0  0
 76 84  1  0  0  0
 77 78  1  0  0  0
 77 81  1  0  0  0
 77 83  2  0  0  0
 78 79  1  0  0  0
 78147  1  0  0  0
 78148  1  0  0  0
 79 80  1  0  0  0
 79149  1  0  0  0
 79150  1  0  0  0
 80151  1  0  0  0
 80152  1  0  0  0
 81153  1  0  0  0
 82154  1  0  0  0
M  ISO  4   1 100  68 101  80 101  82 100
M  END
> <chiral flag>
0

> <version>
0

> <s_m_source_file>
/data/baiqing/PycharmProjects/Reinvent-master-3.2/result/LINK_invent/BTK/process_docking_weight1_custom_product_contain_oxygen_bond_distance_aromatic_linkinvent_7_9_3/rearranged_h_0141.sdf

> <i_m_source_file_index>
49

> <r_mmod_Potential_Energy-OPLS-2005>
-66.9000549316406

> <r_mmod_Stretch_Energy-OPLS-2005>
44.5951385498047

> <r_mmod_Bend_Energy-OPLS-2005>
102.115333557129

> <r_mmod_Torsional_Energy-OPLS-2005>
270.050994873047

> <r_mmod_Improper_Torsional_Energy-OPLS-2005>
8.49621772766113

> <r_mmod_Van_der_Waal_Energy-OPLS-2005>
159.895477294922

> <r_mmod_Electrostatic_Energy-OPLS-2005>
-426.204162597656

> <r_mmod_Solvation_Energy-OPLS-2005>
-244.664138793945

> <b_mmod_Minimization_Converged-OPLS-2005>
0

> <r_mmod_RMS_Derivative-OPLS-2005>
6.34159278869629

$$$$
49
                    3D
 Structure written by MMmdl.
168176  0  0  1  0            999 V2000
  -30.6508  -14.4640   20.4717 C   0  0  0  0  0  0
  -30.4335  -12.2623   19.4300 C   0  0  0  0  0  0
  -29.5046  -12.4370   18.2076 C   0  0  0  0  0  0
  -28.0176  -12.3304   18.6209 C   0  0  0  0  0  0
  -27.6574  -13.1689   19.8796 C   0  0  2  0  0  0
  -28.7065  -12.9617   20.9964 C   0  0  0  0  0  0
  -25.2618  -13.8030   20.5671 C   0  0  0  0  0  0
  -24.1823  -13.0383   20.9175 C   0  0  0  0  0  0
  -24.6316  -11.6825   20.8756 C   0  0  0  0  0  0
  -23.8976  -10.4249   21.0439 C   0  0  0  0  0  0
  -24.3552   -9.4172   21.9217 C   0  0  0  0  0  0
  -23.6239   -8.2193   22.0787 C   0  0  0  0  0  0
  -22.4222   -8.0242   21.3572 C   0  0  0  0  0  0
  -21.9832   -9.0200   20.4670 C   0  0  0  0  0  0
  -22.7160  -10.2088   20.3085 C   0  0  0  0  0  0
  -21.6818   -6.0717   22.5277 C   0  0  0  0  0  0
  -21.3992   -6.5630   23.8210 C   0  0  0  0  0  0
  -21.3668   -5.6785   24.9175 C   0  0  0  0  0  0
  -21.6042   -4.3042   24.7234 C   0  0  0  0  0  0
  -21.8810   -3.8146   23.4347 C   0  0  0  0  0  0
  -21.9178   -4.6960   22.3406 C   0  0  0  0  0  0
  -22.7859  -13.5242   21.1807 C   0  0  0  0  0  0
  -22.1652   -4.2166   21.0981 F   0  0  0  0  0  0
  -21.5649   -3.4525   25.7745 F   0  0  0  0  0  0
  -30.0370  -13.2568   20.4317 N   0  0  0  0  0  0
  -26.2986  -12.9097   20.3375 N   0  0  0  0  0  0
  -25.9228  -11.6296   20.5786 N   0  0  0  0  0  0
  -22.0445  -12.8295   22.0365 N   0  0  0  0  0  0
  -25.4406  -15.1736   20.4106 N   0  0  0  0  0  0
  -31.8270  -14.6521   20.1356 O   0  0  0  0  0  0
  -21.6606   -6.8835   21.4233 O   0  0  0  0  0  0
  -22.3590  -14.5580   20.6672 O   0  0  0  0  0  0
  -24.6122  -31.8694   23.2120 C   0  0  0  0  0  0
  -25.9019  -32.4831   23.8407 C   0  0  1  0  0  0
  -27.2386  -27.4623   20.0777 C   0  0  0  0  0  0
  -25.5885  -33.8637   24.2342 N   0  0  0  0  0  0
  -23.3969  -30.4960   21.5512 C   0  0  2  0  0  0
  -24.8437  -28.9642   20.1163 C   0  0  0  0  0  0
  -22.7379  -29.4687   22.4997 C   0  0  0  0  0  0
  -18.0269  -28.1377   22.8479 C   0  0  0  0  0  0
  -24.1483  -36.7311   23.2638 C   0  0  0  0  0  0
  -25.9248  -30.8474   21.3566 C   0  0  0  0  0  0
  -26.0065  -29.4858   20.6984 C   0  0  0  0  0  0
  -27.2076  -28.7466   20.6654 C   0  0  0  0  0  0
  -26.0560  -26.9471   19.4978 C   0  0  0  0  0  0
  -24.8629  -27.6944   19.5160 C   0  0  0  0  0  0
  -23.6035  -29.8259   20.1677 C   0  0  0  0  0  0
  -25.4099  -36.3111   24.0338 C   0  0  1  0  0  0
  -20.5851  -28.3669   23.1313 C   0  0  2  0  0  0
  -20.6752  -26.9406   22.5413 C   0  0  0  0  0  0
  -19.5740  -26.6391   21.5200 C   0  0  0  0  0  0
  -18.1916  -26.7923   22.1607 C   0  0  0  0  0  0
  -19.1510  -28.8840   23.2900 C   0  0  0  0  0  0
  -18.9451  -30.1441   23.8922 C   0  0  0  0  0  0
  -17.6456  -30.6584   24.0571 C   0  0  0  0  0  0
  -25.9037  -34.9478   23.5132 C   0  0  0  0  0  0
  -16.5347  -29.9083   23.6332 C   0  0  0  0  0  0
  -16.7262  -28.6500   23.0348 C   0  0  0  0  0  0
  -26.4473  -31.6604   25.0720 C   0  0  0  0  0  0
  -25.3758  -31.3701   26.1475 C   0  0  0  0  0  0
  -27.0296  -30.3045   24.6086 C   0  0  0  0  0  0
  -27.6072  -32.4306   25.7451 C   0  0  0  0  0  0
  -27.5580  -37.1792   24.8455 C   0  0  0  0  0  0
  -21.4111  -29.3041   22.3718 N   0  0  0  0  0  0
  -26.4280  -37.3798   23.9424 N   0  0  0  0  0  0
  -24.6635  -31.0822   22.0999 N   0  0  0  0  0  0
  -23.4171  -28.8217   23.3008 O   0  0  0  0  0  0
  -28.4274  -26.7668   20.0647 O   0  0  0  0  0  0
  -26.5604  -34.8921   22.4703 O   0  0  0  0  0  0
  -23.5335  -32.1442   23.7540 O   0  0  0  0  0  0
  -29.0390  -17.2389   17.4256 C   0  0  0  0  0  0
  -29.1068  -16.2451   18.4094 C   0  0  0  0  0  0
  -30.1159  -17.8299   19.9512 C   0  0  0  0  0  0
  -29.5533  -18.5315   17.6645 C   0  0  0  0  0  0
  -29.6926  -16.5170   19.6633 C   0  0  0  0  0  0
  -30.0245  -18.8519   18.9726 C   0  0  0  0  0  0
  -29.5251  -19.4699   16.5034 C   0  0  0  0  0  0
  -29.1203  -22.1861   20.0126 C   0  0  0  0  0  0
  -30.7577  -20.3428   16.2769 C   0  0  0  0  0  0
  -30.6213  -24.8353   19.1824 C   0  0  0  0  0  0
  -30.4731  -25.5464   21.5701 C   0  0  0  0  0  0
  -29.6615  -23.2647   20.9644 C   0  0  0  0  0  0
  -29.4579  -20.7321   20.3477 C   0  0  0  0  0  0
  -28.3519  -25.3471   20.2162 C   0  0  0  0  0  0
  -29.7600  -24.7392   20.4618 C   0  0  0  0  0  0
  -29.7994  -15.4873   20.6366 N   0  0  0  0  0  0
  -30.3634  -20.1602   19.3527 N   0  0  0  0  0  0
  -28.6262  -19.4818   15.6561 O   0  0  0  0  0  0
  -28.4815  -22.4482   18.9899 O   0  0  0  0  0  0
  -31.4840  -12.3531   19.1405 H   0  0  0  0  0  0
  -30.3276  -11.2636   19.8500 H   0  0  0  0  0  0
  -29.7295  -11.6751   17.4605 H   0  0  0  0  0  0
  -29.7016  -13.3874   17.7137 H   0  0  0  0  0  0
  -27.8137  -11.2766   18.8203 H   0  0  0  0  0  0
  -27.3713  -12.6153   17.7901 H   0  0  0  0  0  0
  -27.6762  -14.2105   19.5880 H   0  0  0  0  0  0
  -28.6820  -11.9327   21.3536 H   0  0  0  0  0  0
  -28.4829  -13.5776   21.8713 H   0  0  0  0  0  0
  -25.2707   -9.5676   22.4765 H   0  0  0  0  0  0
  -23.9995   -7.4576   22.7472 H   0  0  0  0  0  0
  -21.0779   -8.8685   19.8937 H   0  0  0  0  0  0
  -22.3624  -10.9616   19.6181 H   0  0  0  0  0  0
  -21.1971   -7.6135   23.9725 H   0  0  0  0  0  0
  -21.1507   -6.0518   25.9081 H   0  0  0  0  0  0
  -22.0592   -2.7610   23.2836 H   0  0  0  0  0  0
  -22.3994  -11.9970   22.4832 H   0  0  0  0  0  0
  -21.1070  -13.1381   22.2522 H   0  0  0  0  0  0
  -24.6746  -15.8297   20.5254 H   0  0  0  0  0  0
  -26.2911  -15.6131   20.0855 H   0  0  0  0  0  0
  -26.7071  -32.5556   23.1165 H   0  0  0  0  0  0
  -24.9982  -33.9802   25.0446 H   0  0  0  0  0  0
  -22.6843  -31.3125   21.4125 H   0  0  0  0  0  0
  -23.3747  -35.9636   23.3287 H   0  0  0  0  0  0
  -24.3593  -36.8961   22.2058 H   0  0  0  0  0  0
  -23.7232  -37.6507   23.6673 H   0  0  0  0  0  0
  -26.0341  -31.6242   20.5980 H   0  0  0  0  0  0
  -26.8131  -30.8994   21.9742 H   0  0  0  0  0  0
  -28.1099  -29.1584   21.0973 H   0  0  0  0  0  0
  -26.0430  -25.9824   19.0105 H   0  0  0  0  0  0
  -23.9653  -27.2900   19.0688 H   0  0  0  0  0  0
  -23.7058  -30.6000   19.4067 H   0  0  0  0  0  0
  -22.7284  -29.2431   19.8734 H   0  0  0  0  0  0
  -25.1269  -36.1969   25.0829 H   0  0  0  0  0  0
  -20.9962  -28.3241   24.1423 H   0  0  0  0  0  0
  -20.5633  -26.2282   23.3601 H   0  0  0  0  0  0
  -21.6633  -26.7422   22.1238 H   0  0  0  0  0  0
  -19.6906  -25.6305   21.1231 H   0  0  0  0  0  0
  -19.6682  -27.3205   20.6735 H   0  0  0  0  0  0
  -17.4184  -26.6678   21.4011 H   0  0  0  0  0  0
  -18.0314  -26.0060   22.8999 H   0  0  0  0  0  0
  -19.7928  -30.7245   24.2308 H   0  0  0  0  0  0
  -17.5012  -31.6263   24.5160 H   0  0  0  0  0  0
  -15.5349  -30.2996   23.7639 H   0  0  0  0  0  0
  -15.8657  -28.0831   22.7057 H   0  0  0  0  0  0
  -24.5908  -30.7080   25.7797 H   0  0  0  0  0  0
  -24.8973  -32.2862   26.4945 H   0  0  0  0  0  0
  -25.8117  -30.8832   27.0209 H   0  0  0  0  0  0
  -26.2816  -29.6777   24.1210 H   0  0  0  0  0  0
  -27.4149  -29.7306   25.4527 H   0  0  0  0  0  0
  -27.8618  -30.4348   23.9159 H   0  0  0  0  0  0
  -27.2730  -33.3614   26.2031 H   0  0  0  0  0  0
  -28.3860  -32.6859   25.0252 H   0  0  0  0  0  0
  -28.0756  -31.8432   26.5358 H   0  0  0  0  0  0
  -28.2583  -38.0105   24.7537 H   0  0  0  0  0  0
  -28.1094  -36.2649   24.6214 H   0  0  0  0  0  0
  -27.2315  -37.1353   25.8862 H   0  0  0  0  0  0
  -20.9256  -29.8751   21.6940 H   0  0  0  0  0  0
  -26.0169  -38.2869   24.1462 H   0  0  0  0  0  0
  -28.6157  -16.9863   16.4614 H   0  0  0  0  0  0
  -28.7259  -15.2722   18.1540 H   0  0  0  0  0  0
  -30.5168  -18.0549   20.9290 H   0  0  0  0  0  0
  -31.6413  -19.7139   16.1543 H   0  0  0  0  0  0
  -30.9361  -21.0310   17.0989 H   0  0  0  0  0  0
  -30.6299  -20.9376   15.3738 H   0  0  0  0  0  0
  -31.6137  -24.4107   19.3410 H   0  0  0  0  0  0
  -30.7551  -25.8723   18.8718 H   0  0  0  0  0  0
  -30.1738  -24.3078   18.3408 H   0  0  0  0  0  0
  -31.4809  -25.1694   21.7559 H   0  0  0  0  0  0
  -29.9257  -25.4975   22.5132 H   0  0  0  0  0  0
  -30.5703  -26.6021   21.3080 H   0  0  0  0  0  0
  -30.6518  -22.9301   21.2732 H   0  0  0  0  0  0
  -29.0450  -23.2302   21.8633 H   0  0  0  0  0  0
  -28.5190  -20.1749   20.3819 H   0  0  0  0  0  0
  -29.9008  -20.6711   21.3420 H   0  0  0  0  0  0
  -27.7036  -25.1177   21.0632 H   0  0  0  0  0  0
  -27.9031  -24.9096   19.3251 H   0  0  0  0  0  0
  -28.9105  -15.1735   20.9979 H   0  0  0  0  0  0
  -30.4534  -20.8154   18.5824 H   0  0  0  0  0  0
  1 25  1  0  0  0
  1 30  2  0  0  0
  1 86  1  0  0  0
  2  3  1  0  0  0
  2 25  1  0  0  0
  2 90  1  0  0  0
  2 91  1  0  0  0
  3  4  1  0  0  0
  3 92  1  0  0  0
  3 93  1  0  0  0
  4  5  1  0  0  0
  4 94  1  0  0  0
  4 95  1  0  0  0
  5  6  1  0  0  0
  5 26  1  0  0  0
  5 96  1  0  0  0
  6 25  1  0  0  0
  6 97  1  0  0  0
  6 98  1  0  0  0
  7  8  2  0  0  0
  7 26  1  0  0  0
  7 29  1  0  0  0
  8  9  1  0  0  0
  8 22  1  0  0  0
  9 10  1  0  0  0
  9 27  2  0  0  0
 10 11  2  0  0  0
 10 15  1  0  0  0
 11 12  1  0  0  0
 11 99  1  0  0  0
 12 13  2  0  0  0
 12100  1  0  0  0
 13 14  1  0  0  0
 13 31  1  0  0  0
 14 15  2  0  0  0
 14101  1  0  0  0
 15102  1  0  0  0
 16 17  2  0  0  0
 16 21  1  0  0  0
 16 31  1  0  0  0
 17 18  1  0  0  0
 17103  1  0  0  0
 18 19  2  0  0  0
 18104  1  0  0  0
 19 20  1  0  0  0
 19 24  1  0  0  0
 20 21  2  0  0  0
 20105  1  0  0  0
 21 23  1  0  0  0
 22 28  1  0  0  0
 22 32  2  0  0  0
 26 27  1  0  0  0
 28106  1  0  0  0
 28107  1  0  0  0
 29108  1  0  0  0
 29109  1  0  0  0
 33 34  1  0  0  0
 33 66  1  0  0  0
 33 70  2  0  0  0
 34 36  1  0  0  0
 34 59  1  0  0  0
 34110  1  0  0  0
 35 44  2  0  0  0
 35 45  1  0  0  0
 35 68  1  0  0  0
 36 56  1  0  0  0
 36111  1  0  0  0
 37 39  1  0  0  0
 37 47  1  0  0  0
 37 66  1  0  0  0
 37112  1  0  0  0
 38 43  2  0  0  0
 38 46  1  0  0  0
 38 47  1  0  0  0
 39 64  1  0  0  0
 39 67  2  0  0  0
 40 52  1  0  0  0
 40 53  2  0  0  0
 40 58  1  0  0  0
 41113  1  0  0  0
 41114  1  0  0  0
 41115  1  0  0  0
 41 48  1  0  0  0
 42 43  1  0  0  0
 42 66  1  0  0  0
 42116  1  0  0  0
 42117  1  0  0  0
 43 44  1  0  0  0
 44118  1  0  0  0
 45 46  2  0  0  0
 45119  1  0  0  0
 46120  1  0  0  0
 47121  1  0  0  0
 47122  1  0  0  0
 48 56  1  0  0  0
 48 65  1  0  0  0
 48123  1  0  0  0
 49 50  1  0  0  0
 49 53  1  0  0  0
 49 64  1  0  0  0
 49124  1  0  0  0
 50 51  1  0  0  0
 50125  1  0  0  0
 50126  1  0  0  0
 51 52  1  0  0  0
 51127  1  0  0  0
 51128  1  0  0  0
 52129  1  0  0  0
 52130  1  0  0  0
 53 54  1  0  0  0
 54 55  2  0  0  0
 54131  1  0  0  0
 55 57  1  0  0  0
 55132  1  0  0  0
 56 69  2  0  0  0
 57 58  2  0  0  0
 57133  1  0  0  0
 58134  1  0  0  0
 59 60  1  0  0  0
 59 61  1  0  0  0
 59 62  1  0  0  0
 60135  1  0  0  0
 60136  1  0  0  0
 60137  1  0  0  0
 61138  1  0  0  0
 61139  1  0  0  0
 61140  1  0  0  0
 62141  1  0  0  0
 62142  1  0  0  0
 62143  1  0  0  0
 63 65  1  0  0  0
 63144  1  0  0  0
 63145  1  0  0  0
 63146  1  0  0  0
 64147  1  0  0  0
 65148  1  0  0  0
 68 84  1  0  0  0
 71 72  2  0  0  0
 71 74  1  0  0  0
 71149  1  0  0  0
 72 75  1  0  0  0
 72150  1  0  0  0
 73 75  2  0  0  0
 73 76  1  0  0  0
 73151  1  0  0  0
 74 76  2  0  0  0
 74 77  1  0  0  0
 75 86  1  0  0  0
 76 87  1  0  0  0
 77 79  1  0  0  0
 77 88  2  0  0  0
 78 82  1  0  0  0
 78 83  1  0  0  0
 78 89  2  0  0  0
 79152  1  0  0  0
 79153  1  0  0  0
 79154  1  0  0  0
 80155  1  0  0  0
 80156  1  0  0  0
 80157  1  0  0  0
 80 85  1  0  0  0
 81 85  1  0  0  0
 81158  1  0  0  0
 81159  1  0  0  0
 81160  1  0  0  0
 82 85  1  0  0  0
 82161  1  0  0  0
 82162  1  0  0  0
 83 87  1  0  0  0
 83163  1  0  0  0
 83164  1  0  0  0
 84 85  1  0  0  0
 84165  1  0  0  0
 84166  1  0  0  0
 86167  1  0  0  0
 87168  1  0  0  0
M  ISO  4   1 100  68 101  84 101  86 100
M  END
> <chiral flag>
0

> <version>
0

> <s_m_source_file>
/data/baiqing/PycharmProjects/Reinvent-master-3.2/result/LINK_invent/BTK/process_docking_weight1_custom_product_contain_oxygen_bond_distance_aromatic_linkinvent_7_9_3/rearranged_h_0141.sdf

> <i_m_source_file_index>
50

> <r_mmod_Potential_Energy-OPLS-2005>
114.556831359863

> <r_mmod_Stretch_Energy-OPLS-2005>
36.8845710754395

> <r_mmod_Bend_Energy-OPLS-2005>
106.180107116699

> <r_mmod_Torsional_Energy-OPLS-2005>
301.970184326172

> <r_mmod_Improper_Torsional_Energy-OPLS-2005>
17.7016315460205

> <r_mmod_Van_der_Waal_Energy-OPLS-2005>
158.821319580078

> <r_mmod_Electrostatic_Energy-OPLS-2005>
-289.877075195312

> <r_mmod_Solvation_Energy-OPLS-2005>
-233.598648071289

> <b_mmod_Minimization_Converged-OPLS-2005>
0

> <r_mmod_RMS_Derivative-OPLS-2005>
4.78434658050537

$$$$
50
                    3D
 Structure written by MMmdl.
162170  0  0  1  0            999 V2000
  -30.6415  -14.7402   20.3854 C   0  0  0  0  0  0
  -30.4354  -12.4516   19.4646 C   0  0  0  0  0  0
  -29.5026  -12.4940   18.2383 C   0  0  0  0  0  0
  -28.0417  -12.2990   18.6833 C   0  0  0  0  0  0
  -27.6449  -13.2318   19.8576 C   0  0  2  0  0  0
  -28.6986  -13.2043   20.9889 C   0  0  0  0  0  0
  -25.2560  -13.8219   20.5770 C   0  0  0  0  0  0
  -24.1796  -13.0440   20.9229 C   0  0  0  0  0  0
  -24.6405  -11.6948   20.8781 C   0  0  0  0  0  0
  -23.9066  -10.4313   21.0419 C   0  0  0  0  0  0
  -24.3604   -9.4215   21.9192 C   0  0  0  0  0  0
  -23.6278   -8.2231   22.0749 C   0  0  0  0  0  0
  -22.4266   -8.0282   21.3524 C   0  0  0  0  0  0
  -21.9910   -9.0263   20.4641 C   0  0  0  0  0  0
  -22.7240  -10.2138   20.3082 C   0  0  0  0  0  0
  -21.6860   -6.0704   22.5264 C   0  0  0  0  0  0
  -21.3989   -6.5620   23.8179 C   0  0  0  0  0  0
  -21.3644   -5.6786   24.9157 C   0  0  0  0  0  0
  -21.6061   -4.3056   24.7229 C   0  0  0  0  0  0
  -21.8836   -3.8120   23.4370 C   0  0  0  0  0  0
  -21.9201   -4.6932   22.3401 C   0  0  0  0  0  0
  -22.7844  -13.5213   21.1836 C   0  0  0  0  0  0
  -22.1662   -4.2128   21.0982 F   0  0  0  0  0  0
  -21.5664   -3.4536   25.7740 F   0  0  0  0  0  0
  -30.0021  -13.5211   20.3896 N   0  0  0  0  0  0
  -26.2981  -12.9406   20.3383 N   0  0  0  0  0  0
  -25.9347  -11.6564   20.5845 N   0  0  0  0  0  0
  -22.0457  -12.8215   22.0401 N   0  0  0  0  0  0
  -25.4288  -15.1922   20.4313 N   0  0  0  0  0  0
  -31.8334  -14.8092   20.0783 O   0  0  0  0  0  0
  -21.6650   -6.8868   21.4235 O   0  0  0  0  0  0
  -22.3529  -14.5482   20.6674 O   0  0  0  0  0  0
  -24.6365  -31.8511   23.1940 C   0  0  0  0  0  0
  -25.9193  -32.4702   23.8278 C   0  0  1  0  0  0
  -27.2258  -27.2459   20.0685 C   0  0  0  0  0  0
  -25.5963  -33.8509   24.2198 N   0  0  0  0  0  0
  -23.4276  -30.4809   21.5424 C   0  0  2  0  0  0
  -24.8646  -28.9144   20.1107 C   0  0  0  0  0  0
  -22.7457  -29.4657   22.4874 C   0  0  0  0  0  0
  -18.0314  -28.1441   22.8543 C   0  0  0  0  0  0
  -24.1508  -36.7273   23.2640 C   0  0  0  0  0  0
  -25.9778  -30.7536   21.3733 C   0  0  0  0  0  0
  -26.0442  -29.3736   20.7117 C   0  0  0  0  0  0
  -27.2220  -28.5537   20.6777 C   0  0  0  0  0  0
  -26.0015  -26.8435   19.4874 C   0  0  0  0  0  0
  -24.8506  -27.6572   19.4914 C   0  0  0  0  0  0
  -23.6379  -29.8116   20.1602 C   0  0  0  0  0  0
  -25.4129  -36.3007   24.0299 C   0  0  1  0  0  0
  -20.5932  -28.3655   23.1197 C   0  0  2  0  0  0
  -20.6724  -26.9378   22.5313 C   0  0  0  0  0  0
  -19.5646  -26.6399   21.5149 C   0  0  0  0  0  0
  -18.1846  -26.8023   22.1618 C   0  0  0  0  0  0
  -19.1628  -28.8843   23.2890 C   0  0  0  0  0  0
  -18.9666  -30.1461   23.8899 C   0  0  0  0  0  0
  -17.6706  -30.6699   24.0563 C   0  0  0  0  0  0
  -25.9067  -34.9378   23.5039 C   0  0  0  0  0  0
  -16.5518  -29.9273   23.6356 C   0  0  0  0  0  0
  -16.7342  -28.6644   23.0443 C   0  0  0  0  0  0
  -26.4553  -31.6525   25.0683 C   0  0  0  0  0  0
  -25.3775  -31.3654   26.1404 C   0  0  0  0  0  0
  -27.0388  -30.2922   24.6185 C   0  0  0  0  0  0
  -27.6090  -32.4244   25.7480 C   0  0  0  0  0  0
  -27.5574  -37.1798   24.8457 C   0  0  0  0  0  0
  -21.4196  -29.3009   22.3520 N   0  0  0  0  0  0
  -26.4291  -37.3717   23.9382 N   0  0  0  0  0  0
  -24.7013  -31.0472   22.0911 N   0  0  0  0  0  0
  -23.4132  -28.8236   23.3031 O   0  0  0  0  0  0
  -28.3552  -26.3757   20.0764 O   0  0  0  0  0  0
  -26.5669  -34.8867   22.4629 O   0  0  0  0  0  0
  -23.5503  -32.1323   23.7250 O   0  0  0  0  0  0
  -27.7347  -18.1625   19.4633 C   0  0  0  0  0  0
  -27.3771  -17.3281   18.3840 C   0  0  0  0  0  0
  -29.6766  -16.5326   18.2242 C   0  0  0  0  0  0
  -29.1059  -18.2775   19.7771 C   0  0  0  0  0  0
  -29.8768  -17.0509   19.5252 C   0  0  0  0  0  0
  -28.3674  -16.5943   17.6987 C   0  0  0  0  0  0
  -29.5263  -19.7077   19.3692 C   0  0  0  0  0  0
  -30.4086  -23.6102   20.2193 C   0  0  0  0  0  0
  -28.1408  -23.5227   21.3432 C   0  0  0  0  0  0
  -28.6099  -22.2551   19.1604 C   0  0  0  0  0  0
  -28.4500  -25.0535   19.3242 C   0  0  0  0  0  0
  -28.8837  -23.6209   20.0023 C   0  0  0  0  0  0
  -30.4631  -19.8321   18.4215 N   0  0  0  0  0  0
  -29.8839  -15.8999   20.4707 N   0  0  0  0  0  0
  -28.8730  -20.8624   19.7941 N   0  3  0  0  0  0
  -28.0466  -15.8806   16.5952 F   0  0  0  0  0  0
  -31.4740  -12.5682   19.1465 H   0  0  0  0  0  0
  -30.3765  -11.4828   19.9634 H   0  0  0  0  0  0
  -29.7793  -11.7179   17.5240 H   0  0  0  0  0  0
  -29.6058  -13.4450   17.7145 H   0  0  0  0  0  0
  -27.9425  -11.2613   18.9944 H   0  0  0  0  0  0
  -27.3587  -12.4223   17.8413 H   0  0  0  0  0  0
  -27.6258  -14.2423   19.4468 H   0  0  0  0  0  0
  -28.7367  -12.2329   21.4818 H   0  0  0  0  0  0
  -28.4427  -13.9325   21.7624 H   0  0  0  0  0  0
  -25.2745   -9.5698   22.4762 H   0  0  0  0  0  0
  -23.9997   -7.4653   22.7488 H   0  0  0  0  0  0
  -21.0824   -8.8792   19.8955 H   0  0  0  0  0  0
  -22.3692  -10.9683   19.6186 H   0  0  0  0  0  0
  -21.1936   -7.6130   23.9678 H   0  0  0  0  0  0
  -21.1438   -6.0505   25.9047 H   0  0  0  0  0  0
  -22.0627   -2.7603   23.2872 H   0  0  0  0  0  0
  -22.4050  -11.9877   22.4846 H   0  0  0  0  0  0
  -21.1052  -13.1252   22.2551 H   0  0  0  0  0  0
  -24.6712  -15.8491   20.5773 H   0  0  0  0  0  0
  -26.3043  -15.6437   20.2042 H   0  0  0  0  0  0
  -26.7235  -32.5316   23.0990 H   0  0  0  0  0  0
  -25.0045  -33.9616   25.0297 H   0  0  0  0  0  0
  -22.7268  -31.3094   21.4045 H   0  0  0  0  0  0
  -23.3724  -35.9660   23.3281 H   0  0  0  0  0  0
  -24.3615  -36.8934   22.2065 H   0  0  0  0  0  0
  -23.7327  -37.6489   23.6687 H   0  0  0  0  0  0
  -26.1210  -31.5156   20.6094 H   0  0  0  0  0  0
  -26.8580  -30.7915   22.0066 H   0  0  0  0  0  0
  -28.1355  -28.9144   21.1304 H   0  0  0  0  0  0
  -25.8898  -25.8710   19.0405 H   0  0  0  0  0  0
  -23.9433  -27.2915   19.0310 H   0  0  0  0  0  0
  -23.7495  -30.5954   19.4097 H   0  0  0  0  0  0
  -22.7487  -29.2547   19.8505 H   0  0  0  0  0  0
  -25.1332  -36.1835   25.0795 H   0  0  0  0  0  0
  -21.0097  -28.3181   24.1289 H   0  0  0  0  0  0
  -20.5609  -26.2285   23.3506 H   0  0  0  0  0  0
  -21.6549  -26.7315   22.1049 H   0  0  0  0  0  0
  -19.6669  -25.6296   21.1166 H   0  0  0  0  0  0
  -19.6571  -27.3232   20.6699 H   0  0  0  0  0  0
  -17.4043  -26.6913   21.4071 H   0  0  0  0  0  0
  -18.0178  -26.0178   22.9010 H   0  0  0  0  0  0
  -19.8220  -30.7225   24.2184 H   0  0  0  0  0  0
  -17.5407  -31.6461   24.5092 H   0  0  0  0  0  0
  -15.5564  -30.3320   23.7673 H   0  0  0  0  0  0
  -15.8690  -28.1062   22.7153 H   0  0  0  0  0  0
  -24.5994  -30.6945   25.7714 H   0  0  0  0  0  0
  -24.8927  -32.2800   26.4802 H   0  0  0  0  0  0
  -25.8137  -30.8854   27.0175 H   0  0  0  0  0  0
  -26.2924  -29.6672   24.1254 H   0  0  0  0  0  0
  -27.4070  -29.7195   25.4707 H   0  0  0  0  0  0
  -27.8812  -30.4137   23.9383 H   0  0  0  0  0  0
  -27.2694  -33.3541   26.2060 H   0  0  0  0  0  0
  -28.3950  -32.6821   25.0356 H   0  0  0  0  0  0
  -28.0708  -31.8357   26.5426 H   0  0  0  0  0  0
  -28.2591  -38.0095   24.7486 H   0  0  0  0  0  0
  -28.1085  -36.2628   24.6307 H   0  0  0  0  0  0
  -27.2292  -37.1451   25.8864 H   0  0  0  0  0  0
  -20.9335  -29.8621   21.6667 H   0  0  0  0  0  0
  -26.0152  -38.2788   24.1361 H   0  0  0  0  0  0
  -27.0252  -18.9310   19.7330 H   0  0  0  0  0  0
  -26.3680  -17.3442   18.0050 H   0  0  0  0  0  0
  -30.3427  -15.7990   17.7994 H   0  0  0  0  0  0
  -30.7835  -24.5834   20.5398 H   0  0  0  0  0  0
  -30.9294  -23.3599   19.2957 H   0  0  0  0  0  0
  -30.7036  -22.8457   20.9403 H   0  0  0  0  0  0
  -28.4633  -24.3010   22.0333 H   0  0  0  0  0  0
  -28.3353  -22.5712   21.8367 H   0  0  0  0  0  0
  -27.0604  -23.6347   21.2092 H   0  0  0  0  0  0
  -29.1254  -22.3069   18.2012 H   0  0  0  0  0  0
  -27.5512  -22.2448   18.8829 H   0  0  0  0  0  0
  -29.2289  -25.2572   18.5873 H   0  0  0  0  0  0
  -27.5863  -24.8625   18.6969 H   0  0  0  0  0  0
  -30.8029  -19.0202   17.9281 H   0  0  0  0  0  0
  -30.8789  -20.7119   18.1700 H   0  0  0  0  0  0
  -29.0353  -15.8045   21.0136 H   0  0  0  0  0  0
  -28.2260  -20.6615   20.5449 H   0  0  0  0  0  0
  1 25  1  0  0  0
  1 30  2  0  0  0
  1 84  1  0  0  0
  2  3  1  0  0  0
  2 25  1  0  0  0
  2 87  1  0  0  0
  2 88  1  0  0  0
  3  4  1  0  0  0
  3 89  1  0  0  0
  3 90  1  0  0  0
  4  5  1  0  0  0
  4 91  1  0  0  0
  4 92  1  0  0  0
  5  6  1  0  0  0
  5 26  1  0  0  0
  5 93  1  0  0  0
  6 25  1  0  0  0
  6 94  1  0  0  0
  6 95  1  0  0  0
  7  8  2  0  0  0
  7 26  1  0  0  0
  7 29  1  0  0  0
  8  9  1  0  0  0
  8 22  1  0  0  0
  9 10  1  0  0  0
  9 27  2  0  0  0
 10 11  2  0  0  0
 10 15  1  0  0  0
 11 12  1  0  0  0
 11 96  1  0  0  0
 12 13  2  0  0  0
 12 97  1  0  0  0
 13 14  1  0  0  0
 13 31  1  0  0  0
 14 15  2  0  0  0
 14 98  1  0  0  0
 15 99  1  0  0  0
 16 17  2  0  0  0
 16 21  1  0  0  0
 16 31  1  0  0  0
 17 18  1  0  0  0
 17100  1  0  0  0
 18 19  2  0  0  0
 18101  1  0  0  0
 19 20  1  0  0  0
 19 24  1  0  0  0
 20 21  2  0  0  0
 20102  1  0  0  0
 21 23  1  0  0  0
 22 28  1  0  0  0
 22 32  2  0  0  0
 26 27  1  0  0  0
 28103  1  0  0  0
 28104  1  0  0  0
 29105  1  0  0  0
 29106  1  0  0  0
 33 34  1  0  0  0
 33 66  1  0  0  0
 33 70  2  0  0  0
 34 36  1  0  0  0
 34 59  1  0  0  0
 34107  1  0  0  0
 35 44  2  0  0  0
 35 45  1  0  0  0
 35 68  1  0  0  0
 36 56  1  0  0  0
 36108  1  0  0  0
 37 39  1  0  0  0
 37 47  1  0  0  0
 37 66  1  0  0  0
 37109  1  0  0  0
 38 43  2  0  0  0
 38 46  1  0  0  0
 38 47  1  0  0  0
 39 64  1  0  0  0
 39 67  2  0  0  0
 40 52  1  0  0  0
 40 53  2  0  0  0
 40 58  1  0  0  0
 41110  1  0  0  0
 41111  1  0  0  0
 41112  1  0  0  0
 41 48  1  0  0  0
 42 43  1  0  0  0
 42 66  1  0  0  0
 42113  1  0  0  0
 42114  1  0  0  0
 43 44  1  0  0  0
 44115  1  0  0  0
 45 46  2  0  0  0
 45116  1  0  0  0
 46117  1  0  0  0
 47118  1  0  0  0
 47119  1  0  0  0
 48 56  1  0  0  0
 48 65  1  0  0  0
 48120  1  0  0  0
 49 50  1  0  0  0
 49 53  1  0  0  0
 49 64  1  0  0  0
 49121  1  0  0  0
 50 51  1  0  0  0
 50122  1  0  0  0
 50123  1  0  0  0
 51 52  1  0  0  0
 51124  1  0  0  0
 51125  1  0  0  0
 52126  1  0  0  0
 52127  1  0  0  0
 53 54  1  0  0  0
 54 55  2  0  0  0
 54128  1  0  0  0
 55 57  1  0  0  0
 55129  1  0  0  0
 56 69  2  0  0  0
 57 58  2  0  0  0
 57130  1  0  0  0
 58131  1  0  0  0
 59 60  1  0  0  0
 59 61  1  0  0  0
 59 62  1  0  0  0
 60132  1  0  0  0
 60133  1  0  0  0
 60134  1  0  0  0
 61135  1  0  0  0
 61136  1  0  0  0
 61137  1  0  0  0
 62138  1  0  0  0
 62139  1  0  0  0
 62140  1  0  0  0
 63 65  1  0  0  0
 63141  1  0  0  0
 63142  1  0  0  0
 63143  1  0  0  0
 64144  1  0  0  0
 65145  1  0  0  0
 68 81  1  0  0  0
 71 72  2  0  0  0
 71 74  1  0  0  0
 71146  1  0  0  0
 72 76  1  0  0  0
 72147  1  0  0  0
 73 75  1  0  0  0
 73 76  2  0  0  0
 73148  1  0  0  0
 74 75  2  0  0  0
 74 77  1  0  0  0
 75 84  1  0  0  0
 76 86  1  0  0  0
 77 83  1  0  0  0
 77 85  2  0  0  0
 78149  1  0  0  0
 78150  1  0  0  0
 78151  1  0  0  0
 78 82  1  0  0  0
 79 82  1  0  0  0
 79152  1  0  0  0
 79153  1  0  0  0
 79154  1  0  0  0
 80 82  1  0  0  0
 80 85  1  0  0  0
 80155  1  0  0  0
 80156  1  0  0  0
 81 82  1  0  0  0
 81157  1  0  0  0
 81158  1  0  0  0
 83159  1  0  0  0
 83160  1  0  0  0
 84161  1  0  0  0
 85162  1  0  0  0
M  CHG  1  85   1
M  ISO  4   1 100  68 101  81 101  84 100
M  END
> <chiral flag>
0

> <version>
0

> <s_m_source_file>
/data/baiqing/PycharmProjects/Reinvent-master-3.2/result/LINK_invent/BTK/process_docking_weight1_custom_product_contain_oxygen_bond_distance_aromatic_linkinvent_7_9_3/rearranged_h_0141.sdf

> <i_m_source_file_index>
51

> <r_mmod_Potential_Energy-OPLS-2005>
414.879913330078

> <r_mmod_Stretch_Energy-OPLS-2005>
146.742599487305

> <r_mmod_Bend_Energy-OPLS-2005>
218.139892578125

> <r_mmod_Torsional_Energy-OPLS-2005>
498.469451904297

> <r_mmod_Improper_Torsional_Energy-OPLS-2005>
46.6295967102051

> <r_mmod_Van_der_Waal_Energy-OPLS-2005>
140.228485107422

> <r_mmod_Electrostatic_Energy-OPLS-2005>
-287.673828125

> <r_mmod_Solvation_Energy-OPLS-2005>
-437.251678466797

> <b_mmod_Minimization_Converged-OPLS-2005>
0

> <r_mmod_RMS_Derivative-OPLS-2005>
8.20253086090088

$$$$
51
                    3D
 Structure written by MMmdl.
156164  0  0  1  0            999 V2000
  -30.8036  -14.4391   20.5796 C   0  0  0  0  0  0
  -30.3932  -12.2915   19.4429 C   0  0  0  0  0  0
  -29.4960  -12.4872   18.2076 C   0  0  0  0  0  0
  -28.0144  -12.3687   18.6092 C   0  0  0  0  0  0
  -27.6521  -13.2288   19.8534 C   0  0  2  0  0  0
  -28.6927  -13.0847   20.9896 C   0  0  0  0  0  0
  -25.2530  -13.8192   20.5676 C   0  0  0  0  0  0
  -24.1814  -13.0440   20.9197 C   0  0  0  0  0  0
  -24.6371  -11.6924   20.8704 C   0  0  0  0  0  0
  -23.9045  -10.4312   21.0356 C   0  0  0  0  0  0
  -24.3609   -9.4243   21.9133 C   0  0  0  0  0  0
  -23.6319   -8.2259   22.0716 C   0  0  0  0  0  0
  -22.4301   -8.0272   21.3520 C   0  0  0  0  0  0
  -21.9913   -9.0237   20.4634 C   0  0  0  0  0  0
  -22.7207  -10.2124   20.3024 C   0  0  0  0  0  0
  -21.6876   -6.0732   22.5282 C   0  0  0  0  0  0
  -21.4030   -6.5626   23.8213 C   0  0  0  0  0  0
  -21.3675   -5.6764   24.9171 C   0  0  0  0  0  0
  -21.6039   -4.3030   24.7231 C   0  0  0  0  0  0
  -21.8807   -3.8128   23.4355 C   0  0  0  0  0  0
  -21.9198   -4.6953   22.3412 C   0  0  0  0  0  0
  -22.7841  -13.5270   21.1837 C   0  0  0  0  0  0
  -22.1653   -4.2137   21.0987 F   0  0  0  0  0  0
  -21.5641   -3.4517   25.7738 F   0  0  0  0  0  0
  -30.0275  -13.3250   20.4307 N   0  0  0  0  0  0
  -26.2974  -12.9425   20.3237 N   0  0  0  0  0  0
  -25.9308  -11.6567   20.5676 N   0  0  0  0  0  0
  -22.0444  -12.8313   22.0414 N   0  0  0  0  0  0
  -25.4182  -15.1934   20.4151 N   0  0  0  0  0  0
  -31.9358  -14.4851   20.1000 O   0  0  0  0  0  0
  -21.6659   -6.8874   21.4236 O   0  0  0  0  0  0
  -22.3546  -14.5566   20.6629 O   0  0  0  0  0  0
  -24.6245  -31.8652   23.2062 C   0  0  0  0  0  0
  -25.9128  -32.4778   23.8362 C   0  0  1  0  0  0
  -27.2144  -27.3837   20.0994 C   0  0  0  0  0  0
  -25.5954  -33.8583   24.2280 N   0  0  0  0  0  0
  -23.4117  -30.4942   21.5460 C   0  0  2  0  0  0
  -24.8504  -28.9540   20.1115 C   0  0  0  0  0  0
  -22.7441  -29.4706   22.4910 C   0  0  0  0  0  0
  -18.0296  -28.1435   22.8457 C   0  0  0  0  0  0
  -24.1489  -36.7308   23.2640 C   0  0  0  0  0  0
  -25.9478  -30.8116   21.3731 C   0  0  0  0  0  0
  -26.0147  -29.4470   20.7131 C   0  0  0  0  0  0
  -27.1975  -28.6647   20.7067 C   0  0  0  0  0  0
  -26.0264  -26.9240   19.4848 C   0  0  0  0  0  0
  -24.8503  -27.6947   19.4964 C   0  0  0  0  0  0
  -23.6226  -29.8315   20.1586 C   0  0  0  0  0  0
  -25.4110  -36.3103   24.0331 C   0  0  1  0  0  0
  -20.5897  -28.3757   23.1264 C   0  0  2  0  0  0
  -20.6831  -26.9486   22.5407 C   0  0  0  0  0  0
  -19.5802  -26.6424   21.5214 C   0  0  0  0  0  0
  -18.1968  -26.7978   22.1594 C   0  0  0  0  0  0
  -19.1544  -28.8900   23.2869 C   0  0  0  0  0  0
  -18.9488  -30.1488   23.8905 C   0  0  0  0  0  0
  -17.6500  -30.6628   24.0576 C   0  0  0  0  0  0
  -25.9032  -34.9467   23.5089 C   0  0  0  0  0  0
  -16.5384  -29.9142   23.6330 C   0  0  0  0  0  0
  -16.7292  -28.6565   23.0341 C   0  0  0  0  0  0
  -26.4554  -31.6612   25.0722 C   0  0  0  0  0  0
  -25.3815  -31.3794   26.1464 C   0  0  0  0  0  0
  -27.0406  -30.3026   24.6198 C   0  0  0  0  0  0
  -27.6057  -32.4414   25.7500 C   0  0  0  0  0  0
  -27.5572  -37.1799   24.8441 C   0  0  0  0  0  0
  -21.4169  -29.3087   22.3622 N   0  0  0  0  0  0
  -26.4270  -37.3800   23.9413 N   0  0  0  0  0  0
  -24.6780  -31.0741   22.0979 N   0  0  0  0  0  0
  -23.4167  -28.8270   23.3009 O   0  0  0  0  0  0
  -28.3709  -26.6170   20.1456 O   0  0  0  0  0  0
  -26.5591  -34.8937   22.4637 O   0  0  0  0  0  0
  -23.5408  -32.1407   23.7434 O   0  0  0  0  0  0
  -29.7832  -18.7985   21.5902 C   0  0  0  0  0  0
  -30.9047  -17.9932   21.9737 C   0  0  0  0  0  0
  -31.9668  -18.7273   22.4545 C   0  0  0  0  0  0
  -30.0135  -20.1545   21.7233 C   0  0  0  0  0  0
  -31.0559  -16.5446   21.7065 C   0  0  0  0  0  0
  -30.2113  -15.6742   21.0979 C   0  0  0  0  0  0
  -29.4541  -22.4839   21.2400 C   0  0  0  0  0  0
  -33.3428  -18.2733   22.8353 C   0  0  0  0  0  0
  -28.3234  -23.5022   21.4699 C   0  0  0  0  0  0
  -27.6780  -24.1372   20.2101 C   0  0  0  0  0  0
  -28.4239  -25.3174   19.5121 C   0  0  0  0  0  0
  -29.1572  -21.1745   21.4064 N   0  0  0  0  0  0
  -30.5706  -22.8951   20.9174 O   0  0  0  0  0  0
  -31.5820  -20.4221   22.4678 S   0  0  0  0  0  0
  -31.4443  -12.3220   19.1486 H   0  0  0  0  0  0
  -30.2440  -11.2964   19.8695 H   0  0  0  0  0  0
  -29.7347  -11.7473   17.4419 H   0  0  0  0  0  0
  -29.6864  -13.4640   17.7643 H   0  0  0  0  0  0
  -27.8089  -11.3181   18.8135 H   0  0  0  0  0  0
  -27.3756  -12.6344   17.7665 H   0  0  0  0  0  0
  -27.6792  -14.2670   19.5236 H   0  0  0  0  0  0
  -28.6515  -12.0861   21.4276 H   0  0  0  0  0  0
  -28.4678  -13.7751   21.8035 H   0  0  0  0  0  0
  -25.2725   -9.5778   22.4704 H   0  0  0  0  0  0
  -24.0024   -7.4686   22.7455 H   0  0  0  0  0  0
  -21.0806   -8.8767   19.8990 H   0  0  0  0  0  0
  -22.3604  -10.9669   19.6152 H   0  0  0  0  0  0
  -21.2023   -7.6123   23.9733 H   0  0  0  0  0  0
  -21.1504   -6.0474   25.9063 H   0  0  0  0  0  0
  -22.0581   -2.7600   23.2848 H   0  0  0  0  0  0
  -22.4017  -12.0031   22.4952 H   0  0  0  0  0  0
  -21.1035  -13.1335   22.2487 H   0  0  0  0  0  0
  -24.6477  -15.8436   20.5298 H   0  0  0  0  0  0
  -26.2730  -15.6472   20.1212 H   0  0  0  0  0  0
  -26.7208  -32.5467   23.1122 H   0  0  0  0  0  0
  -25.0185  -33.9724   25.0491 H   0  0  0  0  0  0
  -22.7078  -31.3168   21.4018 H   0  0  0  0  0  0
  -23.3736  -35.9637   23.3275 H   0  0  0  0  0  0
  -24.3589  -36.8932   22.2044 H   0  0  0  0  0  0
  -23.7234  -37.6502   23.6678 H   0  0  0  0  0  0
  -26.0869  -31.5811   20.6123 H   0  0  0  0  0  0
  -26.8314  -30.8466   22.0014 H   0  0  0  0  0  0
  -28.0942  -29.0315   21.1847 H   0  0  0  0  0  0
  -25.9668  -25.9627   19.0002 H   0  0  0  0  0  0
  -23.9515  -27.3004   19.0413 H   0  0  0  0  0  0
  -23.7593  -30.6058   19.4031 H   0  0  0  0  0  0
  -22.7435  -29.2655   19.8458 H   0  0  0  0  0  0
  -25.1300  -36.1926   25.0822 H   0  0  0  0  0  0
  -21.0014  -28.3398   24.1376 H   0  0  0  0  0  0
  -20.5807  -26.2384   23.3624 H   0  0  0  0  0  0
  -21.6710  -26.7601   22.1169 H   0  0  0  0  0  0
  -19.7001  -25.6336   21.1260 H   0  0  0  0  0  0
  -19.6761  -27.3230   20.6744 H   0  0  0  0  0  0
  -17.4274  -26.6744   21.3960 H   0  0  0  0  0  0
  -18.0330  -26.0134   22.9001 H   0  0  0  0  0  0
  -19.7986  -30.7271   24.2298 H   0  0  0  0  0  0
  -17.5095  -31.6291   24.5211 H   0  0  0  0  0  0
  -15.5410  -30.3076   23.7669 H   0  0  0  0  0  0
  -15.8681  -28.0906   22.7066 H   0  0  0  0  0  0
  -24.5893  -30.7255   25.7813 H   0  0  0  0  0  0
  -24.9165  -32.3012   26.4963 H   0  0  0  0  0  0
  -25.8152  -30.8893   27.0182 H   0  0  0  0  0  0
  -26.2972  -29.6718   24.1295 H   0  0  0  0  0  0
  -27.4163  -29.7345   25.4717 H   0  0  0  0  0  0
  -27.8830  -30.4280   23.9385 H   0  0  0  0  0  0
  -27.2567  -33.3658   26.2113 H   0  0  0  0  0  0
  -28.3850  -32.7078   25.0358 H   0  0  0  0  0  0
  -28.0771  -31.8573   26.5401 H   0  0  0  0  0  0
  -28.2586  -38.0114   24.7543 H   0  0  0  0  0  0
  -28.1101  -36.2644   24.6229 H   0  0  0  0  0  0
  -27.2310  -37.1387   25.8855 H   0  0  0  0  0  0
  -20.9355  -29.8676   21.6708 H   0  0  0  0  0  0
  -26.0142  -38.2856   24.1455 H   0  0  0  0  0  0
  -28.8875  -18.3532   21.1818 H   0  0  0  0  0  0
  -32.0300  -16.1612   21.9751 H   0  0  0  0  0  0
  -29.1867  -15.9271   20.8804 H   0  0  0  0  0  0
  -33.3216  -17.4711   23.5744 H   0  0  0  0  0  0
  -33.9330  -19.0940   23.2470 H   0  0  0  0  0  0
  -33.8756  -17.9072   21.9573 H   0  0  0  0  0  0
  -28.7008  -24.2888   22.1238 H   0  0  0  0  0  0
  -27.5482  -22.9968   22.0448 H   0  0  0  0  0  0
  -26.6730  -24.4506   20.4883 H   0  0  0  0  0  0
  -27.5285  -23.3426   19.4782 H   0  0  0  0  0  0
  -28.0638  -25.4091   18.4838 H   0  0  0  0  0  0
  -29.4718  -25.0449   19.3965 H   0  0  0  0  0  0
  -28.1754  -20.9374   21.3924 H   0  0  0  0  0  0
  1 25  1  0  0  0
  1 30  2  0  0  0
  1 76  1  0  0  0
  2  3  1  0  0  0
  2 25  1  0  0  0
  2 85  1  0  0  0
  2 86  1  0  0  0
  3  4  1  0  0  0
  3 87  1  0  0  0
  3 88  1  0  0  0
  4  5  1  0  0  0
  4 89  1  0  0  0
  4 90  1  0  0  0
  5  6  1  0  0  0
  5 26  1  0  0  0
  5 91  1  0  0  0
  6 25  1  0  0  0
  6 92  1  0  0  0
  6 93  1  0  0  0
  7  8  2  0  0  0
  7 26  1  0  0  0
  7 29  1  0  0  0
  8  9  1  0  0  0
  8 22  1  0  0  0
  9 10  1  0  0  0
  9 27  2  0  0  0
 10 11  2  0  0  0
 10 15  1  0  0  0
 11 12  1  0  0  0
 11 94  1  0  0  0
 12 13  2  0  0  0
 12 95  1  0  0  0
 13 14  1  0  0  0
 13 31  1  0  0  0
 14 15  2  0  0  0
 14 96  1  0  0  0
 15 97  1  0  0  0
 16 17  2  0  0  0
 16 21  1  0  0  0
 16 31  1  0  0  0
 17 18  1  0  0  0
 17 98  1  0  0  0
 18 19  2  0  0  0
 18 99  1  0  0  0
 19 20  1  0  0  0
 19 24  1  0  0  0
 20 21  2  0  0  0
 20100  1  0  0  0
 21 23  1  0  0  0
 22 28  1  0  0  0
 22 32  2  0  0  0
 26 27  1  0  0  0
 28101  1  0  0  0
 28102  1  0  0  0
 29103  1  0  0  0
 29104  1  0  0  0
 33 34  1  0  0  0
 33 66  1  0  0  0
 33 70  2  0  0  0
 34 36  1  0  0  0
 34 59  1  0  0  0
 34105  1  0  0  0
 35 44  2  0  0  0
 35 45  1  0  0  0
 35 68  1  0  0  0
 36 56  1  0  0  0
 36106  1  0  0  0
 37 39  1  0  0  0
 37 47  1  0  0  0
 37 66  1  0  0  0
 37107  1  0  0  0
 38 43  2  0  0  0
 38 46  1  0  0  0
 38 47  1  0  0  0
 39 64  1  0  0  0
 39 67  2  0  0  0
 40 52  1  0  0  0
 40 53  2  0  0  0
 40 58  1  0  0  0
 41108  1  0  0  0
 41109  1  0  0  0
 41110  1  0  0  0
 41 48  1  0  0  0
 42 43  1  0  0  0
 42 66  1  0  0  0
 42111  1  0  0  0
 42112  1  0  0  0
 43 44  1  0  0  0
 44113  1  0  0  0
 45 46  2  0  0  0
 45114  1  0  0  0
 46115  1  0  0  0
 47116  1  0  0  0
 47117  1  0  0  0
 48 56  1  0  0  0
 48 65  1  0  0  0
 48118  1  0  0  0
 49 50  1  0  0  0
 49 53  1  0  0  0
 49 64  1  0  0  0
 49119  1  0  0  0
 50 51  1  0  0  0
 50120  1  0  0  0
 50121  1  0  0  0
 51 52  1  0  0  0
 51122  1  0  0  0
 51123  1  0  0  0
 52124  1  0  0  0
 52125  1  0  0  0
 53 54  1  0  0  0
 54 55  2  0  0  0
 54126  1  0  0  0
 55 57  1  0  0  0
 55127  1  0  0  0
 56 69  2  0  0  0
 57 58  2  0  0  0
 57128  1  0  0  0
 58129  1  0  0  0
 59 60  1  0  0  0
 59 61  1  0  0  0
 59 62  1  0  0  0
 60130  1  0  0  0
 60131  1  0  0  0
 60132  1  0  0  0
 61133  1  0  0  0
 61134  1  0  0  0
 61135  1  0  0  0
 62136  1  0  0  0
 62137  1  0  0  0
 62138  1  0  0  0
 63 65  1  0  0  0
 63139  1  0  0  0
 63140  1  0  0  0
 63141  1  0  0  0
 64142  1  0  0  0
 65143  1  0  0  0
 68 81  1  0  0  0
 71 72  1  0  0  0
 71 74  2  0  0  0
 71144  1  0  0  0
 72 73  2  0  0  0
 72 75  1  0  0  0
 73 78  1  0  0  0
 73 84  1  0  0  0
 74 82  1  0  0  0
 74 84  1  0  0  0
 75 76  2  0  0  0
 75145  1  0  0  0
 76146  1  0  0  0
 77 79  1  0  0  0
 77 82  1  0  0  0
 77 83  2  0  0  0
 78147  1  0  0  0
 78148  1  0  0  0
 78149  1  0  0  0
 79 80  1  0  0  0
 79150  1  0  0  0
 79151  1  0  0  0
 80 81  1  0  0  0
 80152  1  0  0  0
 80153  1  0  0  0
 81154  1  0  0  0
 81155  1  0  0  0
 82156  1  0  0  0
M  ISO  4   1 100  68 101  76 100  81 101
M  END
> <chiral flag>
0

> <version>
0

> <s_m_source_file>
/data/baiqing/PycharmProjects/Reinvent-master-3.2/result/LINK_invent/BTK/process_docking_weight1_custom_product_contain_oxygen_bond_distance_aromatic_linkinvent_7_9_3/rearranged_h_0141.sdf

> <i_m_source_file_index>
52

> <r_mmod_Potential_Energy-OPLS-2005>
-76.9549942016602

> <r_mmod_Stretch_Energy-OPLS-2005>
39.7411079406738

> <r_mmod_Bend_Energy-OPLS-2005>
128.449234008789

> <r_mmod_Torsional_Energy-OPLS-2005>
202.516510009766

> <r_mmod_Improper_Torsional_Energy-OPLS-2005>
9.72153282165527

> <r_mmod_Van_der_Waal_Energy-OPLS-2005>
139.442749023438

> <r_mmod_Electrostatic_Energy-OPLS-2005>
-394.756103515625

> <r_mmod_Solvation_Energy-OPLS-2005>
-227.993591308594

> <b_mmod_Minimization_Converged-OPLS-2005>
0

> <r_mmod_RMS_Derivative-OPLS-2005>
6.11985301971436

$$$$
52
                    3D
 Structure written by MMmdl.
164172  0  0  1  0            999 V2000
  -30.7359  -14.3783   20.6889 C   0  0  0  0  0  0
  -30.4381  -12.3044   19.3814 C   0  0  0  0  0  0
  -29.4882  -12.5281   18.1885 C   0  0  0  0  0  0
  -28.0124  -12.3915   18.6074 C   0  0  0  0  0  0
  -27.6731  -13.1972   19.8832 C   0  0  2  0  0  0
  -28.7130  -12.9178   20.9889 C   0  0  0  0  0  0
  -25.2656  -13.8143   20.5683 C   0  0  0  0  0  0
  -24.1873  -13.0441   20.9191 C   0  0  0  0  0  0
  -24.6405  -11.6909   20.8731 C   0  0  0  0  0  0
  -23.9058  -10.4314   21.0410 C   0  0  0  0  0  0
  -24.3615   -9.4229   21.9183 C   0  0  0  0  0  0
  -23.6288   -8.2275   22.0758 C   0  0  0  0  0  0
  -22.4281   -8.0310   21.3548 C   0  0  0  0  0  0
  -21.9903   -9.0284   20.4655 C   0  0  0  0  0  0
  -22.7228  -10.2161   20.3059 C   0  0  0  0  0  0
  -21.6843   -6.0747   22.5273 C   0  0  0  0  0  0
  -21.4013   -6.5646   23.8213 C   0  0  0  0  0  0
  -21.3662   -5.6797   24.9166 C   0  0  0  0  0  0
  -21.6052   -4.3067   24.7225 C   0  0  0  0  0  0
  -21.8812   -3.8160   23.4346 C   0  0  0  0  0  0
  -21.9198   -4.6978   22.3397 C   0  0  0  0  0  0
  -22.7901  -13.5268   21.1816 C   0  0  0  0  0  0
  -22.1666   -4.2157   21.0967 F   0  0  0  0  0  0
  -21.5632   -3.4544   25.7731 F   0  0  0  0  0  0
  -30.0627  -13.2219   20.4629 N   0  0  0  0  0  0
  -26.3089  -12.9279   20.3417 N   0  0  0  0  0  0
  -25.9341  -11.6454   20.5822 N   0  0  0  0  0  0
  -22.0528  -12.8308   22.0386 N   0  0  0  0  0  0
  -25.4424  -15.1856   20.4102 N   0  0  0  0  0  0
  -31.7024  -14.7579   20.0248 O   0  0  0  0  0  0
  -21.6646   -6.8903   21.4246 O   0  0  0  0  0  0
  -22.3604  -14.5580   20.6679 O   0  0  0  0  0  0
  -24.6150  -31.8638   23.2060 C   0  0  0  0  0  0
  -25.9016  -32.4803   23.8420 C   0  0  1  0  0  0
  -27.2379  -27.4326   20.0940 C   0  0  0  0  0  0
  -25.5867  -33.8606   24.2333 N   0  0  0  0  0  0
  -23.4157  -30.4802   21.5449 C   0  0  2  0  0  0
  -24.8645  -28.9549   20.1181 C   0  0  0  0  0  0
  -22.7461  -29.4578   22.4930 C   0  0  0  0  0  0
  -18.0259  -28.1405   22.8436 C   0  0  0  0  0  0
  -24.1515  -36.7343   23.2619 C   0  0  0  0  0  0
  -25.9441  -30.8322   21.3684 C   0  0  0  0  0  0
  -26.0252  -29.4710   20.7037 C   0  0  0  0  0  0
  -27.2248  -28.7212   20.6725 C   0  0  0  0  0  0
  -26.0540  -26.9181   19.5263 C   0  0  0  0  0  0
  -24.8708  -27.6809   19.5253 C   0  0  0  0  0  0
  -23.6302  -29.8195   20.1583 C   0  0  0  0  0  0
  -25.4127  -36.3098   24.0306 C   0  0  1  0  0  0
  -20.5848  -28.3665   23.1286 C   0  0  2  0  0  0
  -20.6725  -26.9405   22.5370 C   0  0  0  0  0  0
  -19.5737  -26.6395   21.5134 C   0  0  0  0  0  0
  -18.1923  -26.7950   22.1565 C   0  0  0  0  0  0
  -19.1508  -28.8860   23.2866 C   0  0  0  0  0  0
  -18.9428  -30.1453   23.8912 C   0  0  0  0  0  0
  -17.6428  -30.6597   24.0554 C   0  0  0  0  0  0
  -25.9040  -34.9448   23.5130 C   0  0  0  0  0  0
  -16.5321  -29.9107   23.6293 C   0  0  0  0  0  0
  -16.7244  -28.6516   23.0329 C   0  0  0  0  0  0
  -26.4482  -31.6611   25.0764 C   0  0  0  0  0  0
  -25.3737  -31.3704   26.1499 C   0  0  0  0  0  0
  -27.0286  -30.3021   24.6196 C   0  0  0  0  0  0
  -27.6090  -32.4326   25.7526 C   0  0  0  0  0  0
  -27.5613  -37.1819   24.8453 C   0  0  0  0  0  0
  -21.4183  -29.3010   22.3704 N   0  0  0  0  0  0
  -26.4338  -37.3758   23.9373 N   0  0  0  0  0  0
  -24.6772  -31.0694   22.0997 N   0  0  0  0  0  0
  -23.4212  -28.8091   23.2977 O   0  0  0  0  0  0
  -28.3969  -26.6886   20.0838 O   0  0  0  0  0  0
  -26.5600  -34.8881   22.4689 O   0  0  0  0  0  0
  -23.5298  -32.1418   23.7333 O   0  0  0  0  0  0
  -30.5315  -17.4607   21.2959 C   0  0  0  0  0  0
  -30.2423  -18.9855   23.1781 C   0  0  0  0  0  0
  -30.1489  -16.5911   23.5520 C   0  0  0  0  0  0
  -30.4504  -18.7951   21.7847 C   0  0  0  0  0  0
  -30.3739  -16.3589   22.1838 C   0  0  0  0  0  0
  -30.0951  -17.8973   24.0533 C   0  0  0  0  0  0
  -30.2477  -21.1908   21.0348 C   0  0  0  0  0  0
  -28.7307  -24.5572   18.2785 C   0  0  0  0  0  0
  -27.6264  -23.0675   19.9293 C   0  0  0  0  0  0
  -30.5496  -22.1970   19.9019 C   0  0  0  0  0  0
  -30.1403  -23.6784   20.2024 C   0  0  0  0  0  0
  -28.2836  -25.3860   20.6778 C   0  0  0  0  0  0
  -28.7092  -24.1692   19.7770 C   0  0  0  0  0  0
  -30.6138  -19.8955   20.8715 N   0  0  0  0  0  0
  -30.3329  -14.9952   21.8045 N   0  0  0  0  0  0
  -29.6880  -21.6050   22.0514 O   0  0  0  0  0  0
  -29.8980  -18.1000   25.3880 O   0  0  0  0  0  0
  -31.4742  -12.4431   19.0669 H   0  0  0  0  0  0
  -30.3683  -11.2773   19.7396 H   0  0  0  0  0  0
  -29.7179  -11.8209   17.3898 H   0  0  0  0  0  0
  -29.6581  -13.5209   17.7721 H   0  0  0  0  0  0
  -27.8015  -11.3355   18.7645 H   0  0  0  0  0  0
  -27.3601  -12.7019   17.7925 H   0  0  0  0  0  0
  -27.7384  -14.2548   19.6318 H   0  0  0  0  0  0
  -28.6841  -11.8707   21.2847 H   0  0  0  0  0  0
  -28.4434  -13.4673   21.8901 H   0  0  0  0  0  0
  -25.2772   -9.5698   22.4749 H   0  0  0  0  0  0
  -24.0006   -7.4653   22.7464 H   0  0  0  0  0  0
  -21.0841   -8.8792   19.8958 H   0  0  0  0  0  0
  -22.3682  -10.9701   19.6179 H   0  0  0  0  0  0
  -21.2000   -7.6143   23.9705 H   0  0  0  0  0  0
  -21.1486   -6.0527   25.9064 H   0  0  0  0  0  0
  -22.0595   -2.7618   23.2826 H   0  0  0  0  0  0
  -22.4165  -11.9965   22.4745 H   0  0  0  0  0  0
  -21.1150  -13.1353   22.2601 H   0  0  0  0  0  0
  -24.6811  -15.8483   20.5266 H   0  0  0  0  0  0
  -26.3102  -15.6216   20.1160 H   0  0  0  0  0  0
  -26.7075  -32.5554   23.1185 H   0  0  0  0  0  0
  -24.9952  -33.9818   25.0427 H   0  0  0  0  0  0
  -22.7119  -31.3002   21.3986 H   0  0  0  0  0  0
  -23.3745  -35.9726   23.3301 H   0  0  0  0  0  0
  -24.3574  -36.8941   22.2031 H   0  0  0  0  0  0
  -23.7358  -37.6569   23.6659 H   0  0  0  0  0  0
  -26.0652  -31.6133   20.6164 H   0  0  0  0  0  0
  -26.8196  -30.8696   22.0054 H   0  0  0  0  0  0
  -28.1371  -29.1119   21.1016 H   0  0  0  0  0  0
  -26.0303  -25.9275   19.0932 H   0  0  0  0  0  0
  -23.9732  -27.2844   19.0767 H   0  0  0  0  0  0
  -23.7525  -30.5961   19.4014 H   0  0  0  0  0  0
  -22.7659  -29.2320   19.8478 H   0  0  0  0  0  0
  -25.1310  -36.1965   25.0799 H   0  0  0  0  0  0
  -20.9878  -28.3159   24.1433 H   0  0  0  0  0  0
  -20.5495  -26.2270   23.3527 H   0  0  0  0  0  0
  -21.6621  -26.7388   22.1249 H   0  0  0  0  0  0
  -19.6896  -25.6285   21.1208 H   0  0  0  0  0  0
  -19.6720  -27.3153   20.6621 H   0  0  0  0  0  0
  -17.4161  -26.6605   21.4011 H   0  0  0  0  0  0
  -18.0436  -26.0132   22.9016 H   0  0  0  0  0  0
  -19.7898  -30.7254   24.2335 H   0  0  0  0  0  0
  -17.4973  -31.6262   24.5190 H   0  0  0  0  0  0
  -15.5324  -30.3018   23.7618 H   0  0  0  0  0  0
  -15.8634  -28.0820   22.7096 H   0  0  0  0  0  0
  -24.5928  -30.7060   25.7788 H   0  0  0  0  0  0
  -24.8918  -32.2839   26.4989 H   0  0  0  0  0  0
  -25.8033  -30.8826   27.0261 H   0  0  0  0  0  0
  -26.2814  -29.6827   24.1208 H   0  0  0  0  0  0
  -27.3933  -29.7230   25.4701 H   0  0  0  0  0  0
  -27.8748  -30.4267   23.9427 H   0  0  0  0  0  0
  -27.2731  -33.3579   26.2234 H   0  0  0  0  0  0
  -28.3840  -32.6957   25.0315 H   0  0  0  0  0  0
  -28.0891  -31.8407   26.5340 H   0  0  0  0  0  0
  -28.2597  -38.0132   24.7429 H   0  0  0  0  0  0
  -28.1135  -36.2640   24.6368 H   0  0  0  0  0  0
  -27.2303  -37.1564   25.8845 H   0  0  0  0  0  0
  -20.9372  -29.8829   21.6991 H   0  0  0  0  0  0
  -26.0225  -38.2845   24.1326 H   0  0  0  0  0  0
  -30.6868  -17.2833   20.2406 H   0  0  0  0  0  0
  -30.2078  -19.9661   23.6177 H   0  0  0  0  0  0
  -30.0178  -15.7554   24.2250 H   0  0  0  0  0  0
  -29.0543  -23.7242   17.6542 H   0  0  0  0  0  0
  -29.4028  -25.3904   18.0690 H   0  0  0  0  0  0
  -27.7401  -24.8425   17.9237 H   0  0  0  0  0  0
  -27.8242  -22.1841   19.3185 H   0  0  0  0  0  0
  -26.6442  -23.4221   19.6099 H   0  0  0  0  0  0
  -27.5158  -22.7599   20.9691 H   0  0  0  0  0  0
  -30.1278  -21.8655   18.9538 H   0  0  0  0  0  0
  -31.6322  -22.1730   19.7643 H   0  0  0  0  0  0
  -30.8722  -24.3275   19.7200 H   0  0  0  0  0  0
  -30.3090  -23.8658   21.2655 H   0  0  0  0  0  0
  -28.8904  -25.4482   21.5809 H   0  0  0  0  0  0
  -27.2898  -25.2127   21.0956 H   0  0  0  0  0  0
  -31.0355  -19.6694   19.9804 H   0  0  0  0  0  0
  -29.7559  -14.4058   22.3854 H   0  0  0  0  0  0
  -29.8318  -19.0212   25.6280 H   0  0  0  0  0  0
  1 25  1  0  0  0
  1 30  2  0  0  0
  1 85  1  0  0  0
  2  3  1  0  0  0
  2 25  1  0  0  0
  2 88  1  0  0  0
  2 89  1  0  0  0
  3  4  1  0  0  0
  3 90  1  0  0  0
  3 91  1  0  0  0
  4  5  1  0  0  0
  4 92  1  0  0  0
  4 93  1  0  0  0
  5  6  1  0  0  0
  5 26  1  0  0  0
  5 94  1  0  0  0
  6 25  1  0  0  0
  6 95  1  0  0  0
  6 96  1  0  0  0
  7  8  2  0  0  0
  7 26  1  0  0  0
  7 29  1  0  0  0
  8  9  1  0  0  0
  8 22  1  0  0  0
  9 10  1  0  0  0
  9 27  2  0  0  0
 10 11  2  0  0  0
 10 15  1  0  0  0
 11 12  1  0  0  0
 11 97  1  0  0  0
 12 13  2  0  0  0
 12 98  1  0  0  0
 13 14  1  0  0  0
 13 31  1  0  0  0
 14 15  2  0  0  0
 14 99  1  0  0  0
 15100  1  0  0  0
 16 17  2  0  0  0
 16 21  1  0  0  0
 16 31  1  0  0  0
 17 18  1  0  0  0
 17101  1  0  0  0
 18 19  2  0  0  0
 18102  1  0  0  0
 19 20  1  0  0  0
 19 24  1  0  0  0
 20 21  2  0  0  0
 20103  1  0  0  0
 21 23  1  0  0  0
 22 28  1  0  0  0
 22 32  2  0  0  0
 26 27  1  0  0  0
 28104  1  0  0  0
 28105  1  0  0  0
 29106  1  0  0  0
 29107  1  0  0  0
 33 34  1  0  0  0
 33 66  1  0  0  0
 33 70  2  0  0  0
 34 36  1  0  0  0
 34 59  1  0  0  0
 34108  1  0  0  0
 35 44  2  0  0  0
 35 45  1  0  0  0
 35 68  1  0  0  0
 36 56  1  0  0  0
 36109  1  0  0  0
 37 39  1  0  0  0
 37 47  1  0  0  0
 37 66  1  0  0  0
 37110  1  0  0  0
 38 43  2  0  0  0
 38 46  1  0  0  0
 38 47  1  0  0  0
 39 64  1  0  0  0
 39 67  2  0  0  0
 40 52  1  0  0  0
 40 53  2  0  0  0
 40 58  1  0  0  0
 41111  1  0  0  0
 41112  1  0  0  0
 41113  1  0  0  0
 41 48  1  0  0  0
 42 43  1  0  0  0
 42 66  1  0  0  0
 42114  1  0  0  0
 42115  1  0  0  0
 43 44  1  0  0  0
 44116  1  0  0  0
 45 46  2  0  0  0
 45117  1  0  0  0
 46118  1  0  0  0
 47119  1  0  0  0
 47120  1  0  0  0
 48 56  1  0  0  0
 48 65  1  0  0  0
 48121  1  0  0  0
 49 50  1  0  0  0
 49 53  1  0  0  0
 49 64  1  0  0  0
 49122  1  0  0  0
 50 51  1  0  0  0
 50123  1  0  0  0
 50124  1  0  0  0
 51 52  1  0  0  0
 51125  1  0  0  0
 51126  1  0  0  0
 52127  1  0  0  0
 52128  1  0  0  0
 53 54  1  0  0  0
 54 55  2  0  0  0
 54129  1  0  0  0
 55 57  1  0  0  0
 55130  1  0  0  0
 56 69  2  0  0  0
 57 58  2  0  0  0
 57131  1  0  0  0
 58132  1  0  0  0
 59 60  1  0  0  0
 59 61  1  0  0  0
 59 62  1  0  0  0
 60133  1  0  0  0
 60134  1  0  0  0
 60135  1  0  0  0
 61136  1  0  0  0
 61137  1  0  0  0
 61138  1  0  0  0
 62139  1  0  0  0
 62140  1  0  0  0
 62141  1  0  0  0
 63 65  1  0  0  0
 63142  1  0  0  0
 63143  1  0  0  0
 63144  1  0  0  0
 64145  1  0  0  0
 65146  1  0  0  0
 68 82  1  0  0  0
 71 74  2  0  0  0
 71 75  1  0  0  0
 71147  1  0  0  0
 72 74  1  0  0  0
 72 76  2  0  0  0
 72148  1  0  0  0
 73 75  2  0  0  0
 73 76  1  0  0  0
 73149  1  0  0  0
 74 84  1  0  0  0
 75 85  1  0  0  0
 76 87  1  0  0  0
 77 80  1  0  0  0
 77 84  1  0  0  0
 77 86  2  0  0  0
 78150  1  0  0  0
 78151  1  0  0  0
 78152  1  0  0  0
 78 83  1  0  0  0
 79 83  1  0  0  0
 79153  1  0  0  0
 79154  1  0  0  0
 79155  1  0  0  0
 80 81  1  0  0  0
 80156  1  0  0  0
 80157  1  0  0  0
 81 83  1  0  0  0
 81158  1  0  0  0
 81159  1  0  0  0
 82 83  1  0  0  0
 82160  1  0  0  0
 82161  1  0  0  0
 84162  1  0  0  0
 85163  1  0  0  0
 87164  1  0  0  0
M  ISO  4   1 100  68 101  82 101  85 100
M  END
> <chiral flag>
0

> <version>
0

> <s_m_source_file>
/data/baiqing/PycharmProjects/Reinvent-master-3.2/result/LINK_invent/BTK/process_docking_weight1_custom_product_contain_oxygen_bond_distance_aromatic_linkinvent_7_9_3/rearranged_h_0141.sdf

> <i_m_source_file_index>
53

> <r_mmod_Potential_Energy-OPLS-2005>
-14.2396907806396

> <r_mmod_Stretch_Energy-OPLS-2005>
44.219856262207

> <r_mmod_Bend_Energy-OPLS-2005>
120.415451049805

> <r_mmod_Torsional_Energy-OPLS-2005>
263.376007080078

> <r_mmod_Improper_Torsional_Energy-OPLS-2005>
3.79787349700928

> <r_mmod_Van_der_Waal_Energy-OPLS-2005>
167.905151367188

> <r_mmod_Electrostatic_Energy-OPLS-2005>
-389.588439941406

> <r_mmod_Solvation_Energy-OPLS-2005>
-235.367477416992

> <b_mmod_Minimization_Converged-OPLS-2005>
0

> <r_mmod_RMS_Derivative-OPLS-2005>
6.11717081069946

$$$$
53
                    3D
 Structure written by MMmdl.
169177  0  0  1  0            999 V2000
  -30.6991  -14.4587   20.5018 C   0  0  0  0  0  0
  -30.4107  -12.2772   19.4213 C   0  0  0  0  0  0
  -29.4924  -12.4983   18.2013 C   0  0  0  0  0  0
  -28.0121  -12.3672   18.6112 C   0  0  0  0  0  0
  -27.6589  -13.2081   19.8686 C   0  0  2  0  0  0
  -28.7016  -13.0001   20.9916 C   0  0  0  0  0  0
  -25.2590  -13.8163   20.5682 C   0  0  0  0  0  0
  -24.1835  -13.0436   20.9178 C   0  0  0  0  0  0
  -24.6388  -11.6901   20.8727 C   0  0  0  0  0  0
  -23.9054  -10.4286   21.0401 C   0  0  0  0  0  0
  -24.3605   -9.4202   21.9179 C   0  0  0  0  0  0
  -23.6280   -8.2241   22.0754 C   0  0  0  0  0  0
  -22.4267   -8.0274   21.3543 C   0  0  0  0  0  0
  -21.9894   -9.0252   20.4654 C   0  0  0  0  0  0
  -22.7222  -10.2133   20.3057 C   0  0  0  0  0  0
  -21.6853   -6.0729   22.5276 C   0  0  0  0  0  0
  -21.4019   -6.5634   23.8212 C   0  0  0  0  0  0
  -21.3661   -5.6783   24.9173 C   0  0  0  0  0  0
  -21.6046   -4.3049   24.7220 C   0  0  0  0  0  0
  -21.8817   -3.8140   23.4342 C   0  0  0  0  0  0
  -21.9191   -4.6958   22.3398 C   0  0  0  0  0  0
  -22.7863  -13.5243   21.1828 C   0  0  0  0  0  0
  -22.1660   -4.2142   21.0977 F   0  0  0  0  0  0
  -21.5625   -3.4531   25.7734 F   0  0  0  0  0  0
  -30.0330  -13.2765   20.4322 N   0  0  0  0  0  0
  -26.3014  -12.9330   20.3338 N   0  0  0  0  0  0
  -25.9310  -11.6488   20.5734 N   0  0  0  0  0  0
  -22.0500  -12.8253   22.0401 N   0  0  0  0  0  0
  -25.4328  -15.1877   20.4103 N   0  0  0  0  0  0
  -31.8712  -14.5810   20.1406 O   0  0  0  0  0  0
  -21.6639   -6.8867   21.4233 O   0  0  0  0  0  0
  -22.3545  -14.5544   20.6665 O   0  0  0  0  0  0
  -24.6097  -31.8717   23.2132 C   0  0  0  0  0  0
  -25.9015  -32.4838   23.8401 C   0  0  1  0  0  0
  -27.2356  -27.4653   20.0995 C   0  0  0  0  0  0
  -25.5895  -33.8631   24.2352 N   0  0  0  0  0  0
  -23.3948  -30.4972   21.5510 C   0  0  2  0  0  0
  -24.8433  -28.9645   20.1159 C   0  0  0  0  0  0
  -22.7371  -29.4704   22.4994 C   0  0  0  0  0  0
  -18.0274  -28.1375   22.8498 C   0  0  0  0  0  0
  -24.1477  -36.7312   23.2641 C   0  0  0  0  0  0
  -25.9180  -30.8490   21.3587 C   0  0  0  0  0  0
  -25.9979  -29.4830   20.7134 C   0  0  0  0  0  0
  -27.1972  -28.7417   20.7071 C   0  0  0  0  0  0
  -26.0731  -26.9669   19.4773 C   0  0  0  0  0  0
  -24.8728  -27.7025   19.4967 C   0  0  0  0  0  0
  -23.6031  -29.8279   20.1649 C   0  0  0  0  0  0
  -25.4093  -36.3114   24.0353 C   0  0  1  0  0  0
  -20.5862  -28.3679   23.1320 C   0  0  2  0  0  0
  -20.6762  -26.9417   22.5419 C   0  0  0  0  0  0
  -19.5746  -26.6396   21.5202 C   0  0  0  0  0  0
  -18.1926  -26.7924   22.1617 C   0  0  0  0  0  0
  -19.1519  -28.8840   23.2917 C   0  0  0  0  0  0
  -18.9454  -30.1446   23.8928 C   0  0  0  0  0  0
  -17.6459  -30.6589   24.0576 C   0  0  0  0  0  0
  -25.9019  -34.9484   23.5140 C   0  0  0  0  0  0
  -16.5351  -29.9097   23.6327 C   0  0  0  0  0  0
  -16.7268  -28.6512   23.0354 C   0  0  0  0  0  0
  -26.4479  -31.6587   25.0693 C   0  0  0  0  0  0
  -25.3782  -31.3667   26.1465 C   0  0  0  0  0  0
  -27.0303  -30.3038   24.6020 C   0  0  0  0  0  0
  -27.6062  -32.4296   25.7457 C   0  0  0  0  0  0
  -27.5577  -37.1808   24.8475 C   0  0  0  0  0  0
  -21.4102  -29.3051   22.3721 N   0  0  0  0  0  0
  -26.4281  -37.3796   23.9425 N   0  0  0  0  0  0
  -24.6594  -31.0846   22.1015 N   0  0  0  0  0  0
  -23.4146  -28.8270   23.3047 O   0  0  0  0  0  0
  -28.3599  -26.6720   20.0738 O   0  0  0  0  0  0
  -26.5570  -34.8939   22.4694 O   0  0  0  0  0  0
  -23.5312  -32.1456   23.7572 O   0  0  0  0  0  0
  -31.1373  -18.4829   18.7823 C   0  0  0  0  0  0
  -30.8538  -17.1623   19.1645 C   0  0  0  0  0  0
  -29.7376  -17.9732   21.1693 C   0  0  0  0  0  0
  -30.7349  -19.5636   19.5878 C   0  0  0  0  0  0
  -30.1954  -16.8843   20.3857 C   0  0  0  0  0  0
  -29.9754  -19.3137   20.7646 C   0  0  0  0  0  0
  -28.7037  -21.3850   21.1725 C   0  0  0  0  0  0
  -31.1694  -20.9587   19.1594 C   0  0  0  0  0  0
  -30.8190  -25.1864   23.5186 C   0  0  0  0  0  0
  -27.0628  -25.3558   22.4116 C   0  0  0  0  0  0
  -28.5491  -22.5965   22.1010 C   0  0  0  0  0  0
  -29.2839  -25.2809   23.5273 C   0  0  0  0  0  0
  -28.8780  -23.9306   21.3720 C   0  0  0  0  0  0
  -29.0614  -26.4827   21.3086 C   0  0  0  0  0  0
  -28.5799  -25.2512   22.1433 C   0  0  2  0  0  0
  -29.5007  -20.3809   21.5806 N   0  0  0  0  0  0
  -29.9431  -15.5360   20.8010 N   0  0  0  0  0  0
  -28.0921  -21.3601   20.1007 O   0  0  0  0  0  0
  -31.4586  -12.3485   19.1262 H   0  0  0  0  0  0
  -30.2817  -11.2674   19.8166 H   0  0  0  0  0  0
  -29.7272  -11.7808   17.4139 H   0  0  0  0  0  0
  -29.6720  -13.4875   17.7747 H   0  0  0  0  0  0
  -27.8157  -11.3120   18.8050 H   0  0  0  0  0  0
  -27.3664  -12.6494   17.7782 H   0  0  0  0  0  0
  -27.7004  -14.2538   19.5632 H   0  0  0  0  0  0
  -28.6663  -11.9734   21.3582 H   0  0  0  0  0  0
  -28.4828  -13.6306   21.8545 H   0  0  0  0  0  0
  -25.2755   -9.5676   22.4747 H   0  0  0  0  0  0
  -23.9995   -7.4629   22.7476 H   0  0  0  0  0  0
  -21.0822   -8.8771   19.8962 H   0  0  0  0  0  0
  -22.3683  -10.9669   19.6167 H   0  0  0  0  0  0
  -21.2022   -7.6144   23.9714 H   0  0  0  0  0  0
  -21.1488   -6.0519   25.9079 H   0  0  0  0  0  0
  -22.0597   -2.7604   23.2846 H   0  0  0  0  0  0
  -22.4102  -11.9927   22.4812 H   0  0  0  0  0  0
  -21.1117  -13.1297   22.2577 H   0  0  0  0  0  0
  -24.6659  -15.8425   20.5163 H   0  0  0  0  0  0
  -26.2808  -15.6268   20.0735 H   0  0  0  0  0  0
  -26.7077  -32.5571   23.1167 H   0  0  0  0  0  0
  -25.0062  -33.9787   25.0507 H   0  0  0  0  0  0
  -22.6826  -31.3146   21.4132 H   0  0  0  0  0  0
  -23.3730  -35.9651   23.3318 H   0  0  0  0  0  0
  -24.3575  -36.8898   22.2050 H   0  0  0  0  0  0
  -23.7243  -37.6535   23.6628 H   0  0  0  0  0  0
  -26.0146  -31.6139   20.5875 H   0  0  0  0  0  0
  -26.8104  -30.9110   21.9690 H   0  0  0  0  0  0
  -28.0841  -29.1652   21.1548 H   0  0  0  0  0  0
  -26.0944  -25.9978   18.9994 H   0  0  0  0  0  0
  -23.9856  -27.2972   19.0304 H   0  0  0  0  0  0
  -23.7128  -30.6041   19.4063 H   0  0  0  0  0  0
  -22.7268  -29.2498   19.8667 H   0  0  0  0  0  0
  -25.1270  -36.1978   25.0848 H   0  0  0  0  0  0
  -20.9968  -28.3245   24.1435 H   0  0  0  0  0  0
  -20.5640  -26.2294   23.3607 H   0  0  0  0  0  0
  -21.6642  -26.7451   22.1233 H   0  0  0  0  0  0
  -19.6905  -25.6308   21.1236 H   0  0  0  0  0  0
  -19.6677  -27.3203   20.6727 H   0  0  0  0  0  0
  -17.4193  -26.6684   21.4023 H   0  0  0  0  0  0
  -18.0344  -26.0043   22.8997 H   0  0  0  0  0  0
  -19.7936  -30.7260   24.2295 H   0  0  0  0  0  0
  -17.5024  -31.6270   24.5178 H   0  0  0  0  0  0
  -15.5361  -30.3026   23.7624 H   0  0  0  0  0  0
  -15.8663  -28.0854   22.7046 H   0  0  0  0  0  0
  -24.5948  -30.7018   25.7815 H   0  0  0  0  0  0
  -24.8987  -32.2815   26.4960 H   0  0  0  0  0  0
  -25.8188  -30.8813   27.0184 H   0  0  0  0  0  0
  -26.2817  -29.6786   24.1138 H   0  0  0  0  0  0
  -27.4161  -29.7289   25.4451 H   0  0  0  0  0  0
  -27.8618  -30.4361   23.9089 H   0  0  0  0  0  0
  -27.2667  -33.3565   26.2093 H   0  0  0  0  0  0
  -28.3850  -32.6901   25.0276 H   0  0  0  0  0  0
  -28.0741  -31.8368   26.5329 H   0  0  0  0  0  0
  -28.2620  -38.0085   24.7506 H   0  0  0  0  0  0
  -28.1052  -36.2622   24.6305 H   0  0  0  0  0  0
  -27.2302  -37.1469   25.8882 H   0  0  0  0  0  0
  -20.9243  -29.8750   21.6942 H   0  0  0  0  0  0
  -26.0175  -38.2880   24.1423 H   0  0  0  0  0  0
  -31.6797  -18.6622   17.8643 H   0  0  0  0  0  0
  -31.1725  -16.3663   18.5077 H   0  0  0  0  0  0
  -29.2050  -17.7859   22.0901 H   0  0  0  0  0  0
  -32.1447  -20.9214   18.6740 H   0  0  0  0  0  0
  -31.2719  -21.6382   20.0048 H   0  0  0  0  0  0
  -30.4578  -21.3859   18.4535 H   0  0  0  0  0  0
  -31.1749  -24.2820   23.0268 H   0  0  0  0  0  0
  -31.2015  -25.1626   24.5391 H   0  0  0  0  0  0
  -31.2778  -26.0458   23.0309 H   0  0  0  0  0  0
  -26.7869  -26.3440   22.7832 H   0  0  0  0  0  0
  -26.7262  -24.6312   23.1515 H   0  0  0  0  0  0
  -26.4804  -25.1675   21.5104 H   0  0  0  0  0  0
  -29.1966  -22.4726   22.9692 H   0  0  0  0  0  0
  -27.5245  -22.5915   22.4726 H   0  0  0  0  0  0
  -29.0097  -26.2029   24.0434 H   0  0  0  0  0  0
  -28.8947  -24.4807   24.1567 H   0  0  0  0  0  0
  -28.3314  -23.9623   20.4285 H   0  0  0  0  0  0
  -29.9296  -23.9126   21.0820 H   0  0  0  0  0  0
  -30.1071  -26.3477   21.0333 H   0  0  0  0  0  0
  -29.0540  -27.3791   21.9274 H   0  0  0  0  0  0
  -29.8027  -20.3921   22.5453 H   0  0  0  0  0  0
  -29.0399  -15.3477   21.2081 H   0  0  0  0  0  0
  1 25  1  0  0  0
  1 30  2  0  0  0
  1 87  1  0  0  0
  2  3  1  0  0  0
  2 25  1  0  0  0
  2 89  1  0  0  0
  2 90  1  0  0  0
  3  4  1  0  0  0
  3 91  1  0  0  0
  3 92  1  0  0  0
  4  5  1  0  0  0
  4 93  1  0  0  0
  4 94  1  0  0  0
  5  6  1  0  0  0
  5 26  1  0  0  0
  5 95  1  0  0  0
  6 25  1  0  0  0
  6 96  1  0  0  0
  6 97  1  0  0  0
  7  8  2  0  0  0
  7 26  1  0  0  0
  7 29  1  0  0  0
  8  9  1  0  0  0
  8 22  1  0  0  0
  9 10  1  0  0  0
  9 27  2  0  0  0
 10 11  2  0  0  0
 10 15  1  0  0  0
 11 12  1  0  0  0
 11 98  1  0  0  0
 12 13  2  0  0  0
 12 99  1  0  0  0
 13 14  1  0  0  0
 13 31  1  0  0  0
 14 15  2  0  0  0
 14100  1  0  0  0
 15101  1  0  0  0
 16 17  2  0  0  0
 16 21  1  0  0  0
 16 31  1  0  0  0
 17 18  1  0  0  0
 17102  1  0  0  0
 18 19  2  0  0  0
 18103  1  0  0  0
 19 20  1  0  0  0
 19 24  1  0  0  0
 20 21  2  0  0  0
 20104  1  0  0  0
 21 23  1  0  0  0
 22 28  1  0  0  0
 22 32  2  0  0  0
 26 27  1  0  0  0
 28105  1  0  0  0
 28106  1  0  0  0
 29107  1  0  0  0
 29108  1  0  0  0
 33 34  1  0  0  0
 33 66  1  0  0  0
 33 70  2  0  0  0
 34 36  1  0  0  0
 34 59  1  0  0  0
 34109  1  0  0  0
 35 44  2  0  0  0
 35 45  1  0  0  0
 35 68  1  0  0  0
 36 56  1  0  0  0
 36110  1  0  0  0
 37 39  1  0  0  0
 37 47  1  0  0  0
 37 66  1  0  0  0
 37111  1  0  0  0
 38 43  2  0  0  0
 38 46  1  0  0  0
 38 47  1  0  0  0
 39 64  1  0  0  0
 39 67  2  0  0  0
 40 52  1  0  0  0
 40 53  2  0  0  0
 40 58  1  0  0  0
 41112  1  0  0  0
 41113  1  0  0  0
 41114  1  0  0  0
 41 48  1  0  0  0
 42 43  1  0  0  0
 42 66  1  0  0  0
 42115  1  0  0  0
 42116  1  0  0  0
 43 44  1  0  0  0
 44117  1  0  0  0
 45 46  2  0  0  0
 45118  1  0  0  0
 46119  1  0  0  0
 47120  1  0  0  0
 47121  1  0  0  0
 48 56  1  0  0  0
 48 65  1  0  0  0
 48122  1  0  0  0
 49 50  1  0  0  0
 49 53  1  0  0  0
 49 64  1  0  0  0
 49123  1  0  0  0
 50 51  1  0  0  0
 50124  1  0  0  0
 50125  1  0  0  0
 51 52  1  0  0  0
 51126  1  0  0  0
 51127  1  0  0  0
 52128  1  0  0  0
 52129  1  0  0  0
 53 54  1  0  0  0
 54 55  2  0  0  0
 54130  1  0  0  0
 55 57  1  0  0  0
 55131  1  0  0  0
 56 69  2  0  0  0
 57 58  2  0  0  0
 57132  1  0  0  0
 58133  1  0  0  0
 59 60  1  0  0  0
 59 61  1  0  0  0
 59 62  1  0  0  0
 60134  1  0  0  0
 60135  1  0  0  0
 60136  1  0  0  0
 61137  1  0  0  0
 61138  1  0  0  0
 61139  1  0  0  0
 62140  1  0  0  0
 62141  1  0  0  0
 62142  1  0  0  0
 63 65  1  0  0  0
 63143  1  0  0  0
 63144  1  0  0  0
 63145  1  0  0  0
 64146  1  0  0  0
 65147  1  0  0  0
 68 84  1  0  0  0
 71 72  2  0  0  0
 71 74  1  0  0  0
 71148  1  0  0  0
 72 75  1  0  0  0
 72149  1  0  0  0
 73 75  2  0  0  0
 73 76  1  0  0  0
 73150  1  0  0  0
 74 76  2  0  0  0
 74 78  1  0  0  0
 75 87  1  0  0  0
 76 86  1  0  0  0
 77 81  1  0  0  0
 77 86  1  0  0  0
 77 88  2  0  0  0
 78151  1  0  0  0
 78152  1  0  0  0
 78153  1  0  0  0
 79 82  1  0  0  0
 79154  1  0  0  0
 79155  1  0  0  0
 79156  1  0  0  0
 80157  1  0  0  0
 80158  1  0  0  0
 80159  1  0  0  0
 80 85  1  0  0  0
 81 83  1  0  0  0
 81160  1  0  0  0
 81161  1  0  0  0
 82 85  1  0  0  0
 82162  1  0  0  0
 82163  1  0  0  0
 83 85  1  0  0  0
 83164  1  0  0  0
 83165  1  0  0  0
 84 85  1  0  0  0
 84166  1  0  0  0
 84167  1  0  0  0
 86168  1  0  0  0
 87169  1  0  0  0
M  ISO  4   1 100  68 101  84 101  87 100
M  END
> <chiral flag>
0

> <version>
0

> <s_m_source_file>
/data/baiqing/PycharmProjects/Reinvent-master-3.2/result/LINK_invent/BTK/process_docking_weight1_custom_product_contain_oxygen_bond_distance_aromatic_linkinvent_7_9_3/rearranged_h_0141.sdf

> <i_m_source_file_index>
54

> <r_mmod_Potential_Energy-OPLS-2005>
-33.6771812438965

> <r_mmod_Stretch_Energy-OPLS-2005>
39.2762680053711

> <r_mmod_Bend_Energy-OPLS-2005>
103.836372375488

> <r_mmod_Torsional_Energy-OPLS-2005>
287.023162841797

> <r_mmod_Improper_Torsional_Energy-OPLS-2005>
5.09369039535522

> <r_mmod_Van_der_Waal_Energy-OPLS-2005>
160.230316162109

> <r_mmod_Electrostatic_Energy-OPLS-2005>
-420.091522216797

> <r_mmod_Solvation_Energy-OPLS-2005>
-223.325927734375

> <b_mmod_Minimization_Converged-OPLS-2005>
0

> <r_mmod_RMS_Derivative-OPLS-2005>
2.41972422599792

$$$$
54
                    3D
 Structure written by MMmdl.
160168  0  0  1  0            999 V2000
  -30.5461  -14.7851   20.5047 C   0  0  0  0  0  0
  -30.4664  -12.4880   19.4765 C   0  0  0  0  0  0
  -29.5318  -12.5234   18.2418 C   0  0  0  0  0  0
  -28.0567  -12.3318   18.6505 C   0  0  0  0  0  0
  -27.6544  -13.2194   19.8577 C   0  0  2  0  0  0
  -28.6974  -13.1107   20.9931 C   0  0  0  0  0  0
  -25.2552  -13.8132   20.5642 C   0  0  0  0  0  0
  -24.1820  -13.0414   20.9178 C   0  0  0  0  0  0
  -24.6393  -11.6886   20.8714 C   0  0  0  0  0  0
  -23.9043  -10.4281   21.0400 C   0  0  0  0  0  0
  -24.3597   -9.4210   21.9200 C   0  0  0  0  0  0
  -23.6267   -8.2246   22.0778 C   0  0  0  0  0  0
  -22.4261   -8.0282   21.3552 C   0  0  0  0  0  0
  -21.9879   -9.0256   20.4667 C   0  0  0  0  0  0
  -22.7202  -10.2134   20.3064 C   0  0  0  0  0  0
  -21.6854   -6.0727   22.5275 C   0  0  0  0  0  0
  -21.4015   -6.5640   23.8206 C   0  0  0  0  0  0
  -21.3651   -5.6795   24.9172 C   0  0  0  0  0  0
  -21.6040   -4.3056   24.7224 C   0  0  0  0  0  0
  -21.8820   -3.8142   23.4344 C   0  0  0  0  0  0
  -21.9191   -4.6955   22.3395 C   0  0  0  0  0  0
  -22.7843  -13.5241   21.1836 C   0  0  0  0  0  0
  -22.1661   -4.2139   21.0970 F   0  0  0  0  0  0
  -21.5621   -3.4544   25.7737 F   0  0  0  0  0  0
  -30.0022  -13.5153   20.4387 N   0  0  0  0  0  0
  -26.2999  -12.9330   20.3274 N   0  0  0  0  0  0
  -25.9333  -11.6489   20.5732 N   0  0  0  0  0  0
  -22.0454  -12.8284   22.0407 N   0  0  0  0  0  0
  -25.4189  -15.1842   20.4003 N   0  0  0  0  0  0
  -31.6938  -14.9953   20.1008 O   0  0  0  0  0  0
  -21.6633   -6.8878   21.4245 O   0  0  0  0  0  0
  -22.3544  -14.5542   20.6667 O   0  0  0  0  0  0
  -24.6355  -31.8513   23.1949 C   0  0  0  0  0  0
  -25.9161  -32.4734   23.8327 C   0  0  1  0  0  0
  -27.2449  -27.2372   20.1218 C   0  0  0  0  0  0
  -25.5929  -33.8536   24.2251 N   0  0  0  0  0  0
  -23.4346  -30.4735   21.5368 C   0  0  2  0  0  0
  -24.8838  -28.9101   20.1187 C   0  0  0  0  0  0
  -22.7518  -29.4593   22.4870 C   0  0  0  0  0  0
  -18.0301  -28.1395   22.8486 C   0  0  0  0  0  0
  -24.1482  -36.7281   23.2637 C   0  0  0  0  0  0
  -25.9829  -30.7617   21.3733 C   0  0  0  0  0  0
  -26.0579  -29.3783   20.7185 C   0  0  0  0  0  0
  -27.2335  -28.5554   20.7055 C   0  0  0  0  0  0
  -26.0245  -26.8284   19.5380 C   0  0  0  0  0  0
  -24.8714  -27.6405   19.5238 C   0  0  0  0  0  0
  -23.6584  -29.8032   20.1559 C   0  0  0  0  0  0
  -25.4096  -36.3041   24.0325 C   0  0  1  0  0  0
  -20.5911  -28.3711   23.1245 C   0  0  2  0  0  0
  -20.6785  -26.9422   22.5386 C   0  0  0  0  0  0
  -19.5754  -26.6390   21.5196 C   0  0  0  0  0  0
  -18.1940  -26.7941   22.1623 C   0  0  0  0  0  0
  -19.1558  -28.8864   23.2873 C   0  0  0  0  0  0
  -18.9477  -30.1455   23.8902 C   0  0  0  0  0  0
  -17.6479  -30.6591   24.0564 C   0  0  0  0  0  0
  -25.9044  -34.9415   23.5085 C   0  0  0  0  0  0
  -16.5367  -29.9096   23.6326 C   0  0  0  0  0  0
  -16.7286  -28.6510   23.0358 C   0  0  0  0  0  0
  -26.4523  -31.6565   25.0720 C   0  0  0  0  0  0
  -25.3759  -31.3743   26.1455 C   0  0  0  0  0  0
  -27.0360  -30.2974   24.6216 C   0  0  0  0  0  0
  -27.6081  -32.4296   25.7508 C   0  0  0  0  0  0
  -27.5566  -37.1773   24.8451 C   0  0  0  0  0  0
  -21.4217  -29.3062   22.3624 N   0  0  0  0  0  0
  -26.4262  -37.3745   23.9420 N   0  0  0  0  0  0
  -24.7042  -31.0474   22.0920 N   0  0  0  0  0  0
  -23.4198  -28.8122   23.2978 O   0  0  0  0  0  0
  -28.4027  -26.4048   20.1595 O   0  0  0  0  0  0
  -26.5619  -34.8897   22.4657 O   0  0  0  0  0  0
  -23.5491  -32.1327   23.7224 O   0  0  0  0  0  0
  -29.9963  -18.4049   20.5643 C   0  0  0  0  0  0
  -29.1334  -19.6124   20.7674 C   0  0  0  0  0  0
  -27.9139  -19.2392   21.2872 C   0  0  0  0  0  0
  -29.4046  -17.1555   20.8913 C   0  0  0  0  0  0
  -28.6838  -22.1293   20.1798 C   0  0  0  0  0  0
  -26.7641  -20.0723   21.7674 C   0  0  0  0  0  0
  -27.9064  -24.6412   18.3296 C   0  0  0  0  0  0
  -27.6873  -23.8444   21.7409 C   0  0  0  0  0  0
  -30.1622  -23.8748   21.4029 C   0  0  0  0  0  0
  -28.5975  -24.9713   19.6645 C   0  0  2  0  0  0
  -28.8027  -23.6853   20.6884 C   0  0  0  0  0  0
  -29.4741  -21.0692   20.6376 N   0  0  0  0  0  0
  -29.6786  -15.7681   20.9616 N   0  0  0  0  0  0
  -27.8038  -21.8662   19.3582 O   0  0  0  0  0  0
  -27.7825  -17.5060   21.4446 S   0  0  0  0  0  0
  -31.5007  -12.6600   19.1746 H   0  0  0  0  0  0
  -30.4512  -11.5040   19.9465 H   0  0  0  0  0  0
  -29.8235  -11.7529   17.5267 H   0  0  0  0  0  0
  -29.6456  -13.4766   17.7233 H   0  0  0  0  0  0
  -27.9240  -11.2812   18.9094 H   0  0  0  0  0  0
  -27.4004  -12.5232   17.8012 H   0  0  0  0  0  0
  -27.6568  -14.2474   19.4952 H   0  0  0  0  0  0
  -28.7448  -12.0877   21.3678 H   0  0  0  0  0  0
  -28.4087  -13.7225   21.8488 H   0  0  0  0  0  0
  -25.2747   -9.5677   22.4779 H   0  0  0  0  0  0
  -23.9966   -7.4647   22.7505 H   0  0  0  0  0  0
  -21.0806   -8.8770   19.8985 H   0  0  0  0  0  0
  -22.3659  -10.9676   19.6168 H   0  0  0  0  0  0
  -21.2018   -7.6153   23.9704 H   0  0  0  0  0  0
  -21.1465   -6.0532   25.9072 H   0  0  0  0  0  0
  -22.0600   -2.7602   23.2853 H   0  0  0  0  0  0
  -22.4032  -11.9953   22.4825 H   0  0  0  0  0  0
  -21.1077  -13.1367   22.2576 H   0  0  0  0  0  0
  -24.6478  -15.8324   20.5145 H   0  0  0  0  0  0
  -26.2600  -15.6253   20.0506 H   0  0  0  0  0  0
  -26.7243  -32.5392   23.1089 H   0  0  0  0  0  0
  -25.0049  -33.9681   25.0376 H   0  0  0  0  0  0
  -22.7330  -31.2960   21.3828 H   0  0  0  0  0  0
  -23.3732  -35.9625   23.3265 H   0  0  0  0  0  0
  -24.3587  -36.8941   22.2059 H   0  0  0  0  0  0
  -23.7251  -37.6477   23.6692 H   0  0  0  0  0  0
  -26.1152  -31.5207   20.6006 H   0  0  0  0  0  0
  -26.8634  -30.8199   22.0022 H   0  0  0  0  0  0
  -28.1357  -28.9182   21.1781 H   0  0  0  0  0  0
  -25.9072  -25.8524   19.1104 H   0  0  0  0  0  0
  -23.9644  -27.2643   19.0707 H   0  0  0  0  0  0
  -23.7954  -30.5785   19.4013 H   0  0  0  0  0  0
  -22.7777  -29.2420   19.8398 H   0  0  0  0  0  0
  -25.1269  -36.1873   25.0816 H   0  0  0  0  0  0
  -21.0025  -28.3298   24.1357 H   0  0  0  0  0  0
  -20.5658  -26.2322   23.3592 H   0  0  0  0  0  0
  -21.6653  -26.7406   22.1191 H   0  0  0  0  0  0
  -19.6910  -25.6294   21.1237 H   0  0  0  0  0  0
  -19.6702  -27.3190   20.6720 H   0  0  0  0  0  0
  -17.4192  -26.6664   21.4052 H   0  0  0  0  0  0
  -18.0365  -26.0092   22.9028 H   0  0  0  0  0  0
  -19.7951  -30.7267   24.2291 H   0  0  0  0  0  0
  -17.5029  -31.6281   24.5152 H   0  0  0  0  0  0
  -15.5370  -30.3005   23.7632 H   0  0  0  0  0  0
  -15.8688  -28.0822   22.7088 H   0  0  0  0  0  0
  -24.5929  -30.7084   25.7813 H   0  0  0  0  0  0
  -24.8968  -32.2924   26.4863 H   0  0  0  0  0  0
  -25.8089  -30.8948   27.0243 H   0  0  0  0  0  0
  -26.2940  -29.6725   24.1234 H   0  0  0  0  0  0
  -27.4022  -29.7233   25.4738 H   0  0  0  0  0  0
  -27.8829  -30.4232   23.9468 H   0  0  0  0  0  0
  -27.2697  -33.3592   26.2098 H   0  0  0  0  0  0
  -28.3913  -32.6858   25.0360 H   0  0  0  0  0  0
  -28.0735  -31.8410   26.5427 H   0  0  0  0  0  0
  -28.2535  -38.0112   24.7510 H   0  0  0  0  0  0
  -28.1102  -36.2636   24.6232 H   0  0  0  0  0  0
  -27.2297  -37.1364   25.8857 H   0  0  0  0  0  0
  -20.9379  -29.8825   21.6878 H   0  0  0  0  0  0
  -26.0127  -38.2799   24.1480 H   0  0  0  0  0  0
  -31.0113  -18.5044   20.2052 H   0  0  0  0  0  0
  -27.1077  -20.9712   22.2731 H   0  0  0  0  0  0
  -26.1614  -19.5204   22.4906 H   0  0  0  0  0  0
  -26.1122  -20.3617   20.9425 H   0  0  0  0  0  0
  -28.5038  -23.9326   17.7555 H   0  0  0  0  0  0
  -27.7851  -25.5235   17.7011 H   0  0  0  0  0  0
  -26.9380  -24.1668   18.4804 H   0  0  0  0  0  0
  -27.8110  -23.1431   22.5663 H   0  0  0  0  0  0
  -26.7013  -23.6772   21.3049 H   0  0  0  0  0  0
  -27.6832  -24.8449   22.1751 H   0  0  0  0  0  0
  -30.2985  -23.1793   22.2321 H   0  0  0  0  0  0
  -30.2494  -24.8808   21.8182 H   0  0  0  0  0  0
  -30.9983  -23.7390   20.7150 H   0  0  0  0  0  0
  -29.6153  -25.1121   19.2979 H   0  0  0  0  0  0
  -30.3349  -21.3474   21.0879 H   0  0  0  0  0  0
  -28.8823  -15.2837   21.3460 H   0  0  0  0  0  0
  1 25  1  0  0  0
  1 30  2  0  0  0
  1 83  1  0  0  0
  2  3  1  0  0  0
  2 25  1  0  0  0
  2 86  1  0  0  0
  2 87  1  0  0  0
  3  4  1  0  0  0
  3 88  1  0  0  0
  3 89  1  0  0  0
  4  5  1  0  0  0
  4 90  1  0  0  0
  4 91  1  0  0  0
  5  6  1  0  0  0
  5 26  1  0  0  0
  5 92  1  0  0  0
  6 25  1  0  0  0
  6 93  1  0  0  0
  6 94  1  0  0  0
  7  8  2  0  0  0
  7 26  1  0  0  0
  7 29  1  0  0  0
  8  9  1  0  0  0
  8 22  1  0  0  0
  9 10  1  0  0  0
  9 27  2  0  0  0
 10 11  2  0  0  0
 10 15  1  0  0  0
 11 12  1  0  0  0
 11 95  1  0  0  0
 12 13  2  0  0  0
 12 96  1  0  0  0
 13 14  1  0  0  0
 13 31  1  0  0  0
 14 15  2  0  0  0
 14 97  1  0  0  0
 15 98  1  0  0  0
 16 17  2  0  0  0
 16 21  1  0  0  0
 16 31  1  0  0  0
 17 18  1  0  0  0
 17 99  1  0  0  0
 18 19  2  0  0  0
 18100  1  0  0  0
 19 20  1  0  0  0
 19 24  1  0  0  0
 20 21  2  0  0  0
 20101  1  0  0  0
 21 23  1  0  0  0
 22 28  1  0  0  0
 22 32  2  0  0  0
 26 27  1  0  0  0
 28102  1  0  0  0
 28103  1  0  0  0
 29104  1  0  0  0
 29105  1  0  0  0
 33 34  1  0  0  0
 33 66  1  0  0  0
 33 70  2  0  0  0
 34 36  1  0  0  0
 34 59  1  0  0  0
 34106  1  0  0  0
 35 44  2  0  0  0
 35 45  1  0  0  0
 35 68  1  0  0  0
 36 56  1  0  0  0
 36107  1  0  0  0
 37 39  1  0  0  0
 37 47  1  0  0  0
 37 66  1  0  0  0
 37108  1  0  0  0
 38 43  2  0  0  0
 38 46  1  0  0  0
 38 47  1  0  0  0
 39 64  1  0  0  0
 39 67  2  0  0  0
 40 52  1  0  0  0
 40 53  2  0  0  0
 40 58  1  0  0  0
 41109  1  0  0  0
 41110  1  0  0  0
 41111  1  0  0  0
 41 48  1  0  0  0
 42 43  1  0  0  0
 42 66  1  0  0  0
 42112  1  0  0  0
 42113  1  0  0  0
 43 44  1  0  0  0
 44114  1  0  0  0
 45 46  2  0  0  0
 45115  1  0  0  0
 46116  1  0  0  0
 47117  1  0  0  0
 47118  1  0  0  0
 48 56  1  0  0  0
 48 65  1  0  0  0
 48119  1  0  0  0
 49 50  1  0  0  0
 49 53  1  0  0  0
 49 64  1  0  0  0
 49120  1  0  0  0
 50 51  1  0  0  0
 50121  1  0  0  0
 50122  1  0  0  0
 51 52  1  0  0  0
 51123  1  0  0  0
 51124  1  0  0  0
 52125  1  0  0  0
 52126  1  0  0  0
 53 54  1  0  0  0
 54 55  2  0  0  0
 54127  1  0  0  0
 55 57  1  0  0  0
 55128  1  0  0  0
 56 69  2  0  0  0
 57 58  2  0  0  0
 57129  1  0  0  0
 58130  1  0  0  0
 59 60  1  0  0  0
 59 61  1  0  0  0
 59 62  1  0  0  0
 60131  1  0  0  0
 60132  1  0  0  0
 60133  1  0  0  0
 61134  1  0  0  0
 61135  1  0  0  0
 61136  1  0  0  0
 62137  1  0  0  0
 62138  1  0  0  0
 62139  1  0  0  0
 63 65  1  0  0  0
 63140  1  0  0  0
 63141  1  0  0  0
 63142  1  0  0  0
 64143  1  0  0  0
 65144  1  0  0  0
 68 80  1  0  0  0
 71 72  1  0  0  0
 71 74  2  0  0  0
 71145  1  0  0  0
 72 73  2  0  0  0
 72 82  1  0  0  0
 73 76  1  0  0  0
 73 85  1  0  0  0
 74 83  1  0  0  0
 74 85  1  0  0  0
 75 81  1  0  0  0
 75 82  1  0  0  0
 75 84  2  0  0  0
 76146  1  0  0  0
 76147  1  0  0  0
 76148  1  0  0  0
 77149  1  0  0  0
 77150  1  0  0  0
 77151  1  0  0  0
 77 80  1  0  0  0
 78152  1  0  0  0
 78153  1  0  0  0
 78154  1  0  0  0
 78 81  1  0  0  0
 79 81  1  0  0  0
 79155  1  0  0  0
 79156  1  0  0  0
 79157  1  0  0  0
 80 81  1  0  0  0
 80158  1  0  0  0
 82159  1  0  0  0
 83160  1  0  0  0
M  ISO  4   1 100  68 101  80 101  83 100
M  END
> <chiral flag>
0

> <version>
0

> <s_m_source_file>
/data/baiqing/PycharmProjects/Reinvent-master-3.2/result/LINK_invent/BTK/process_docking_weight1_custom_product_contain_oxygen_bond_distance_aromatic_linkinvent_7_9_3/rearranged_h_0141.sdf

> <i_m_source_file_index>
55

> <r_mmod_Potential_Energy-OPLS-2005>
307.918823242188

> <r_mmod_Stretch_Energy-OPLS-2005>
159.645538330078

> <r_mmod_Bend_Energy-OPLS-2005>
293.583892822266

> <r_mmod_Torsional_Energy-OPLS-2005>
261.334106445312

> <r_mmod_Improper_Torsional_Energy-OPLS-2005>
4.42150592803955

> <r_mmod_Van_der_Waal_Energy-OPLS-2005>
118.940139770508

> <r_mmod_Electrostatic_Energy-OPLS-2005>
-410.384246826172

> <r_mmod_Solvation_Energy-OPLS-2005>
-216.456680297852

> <b_mmod_Minimization_Converged-OPLS-2005>
0

> <r_mmod_RMS_Derivative-OPLS-2005>
2.68017888069153

$$$$
55
                    3D
 Structure written by MMmdl.
160169  0  0  1  0            999 V2000
  -30.6386  -14.5921   20.5312 C   0  0  0  0  0  0
  -30.4319  -12.3676   19.4484 C   0  0  0  0  0  0
  -29.5051  -12.5209   18.2224 C   0  0  0  0  0  0
  -28.0262  -12.3642   18.6293 C   0  0  0  0  0  0
  -27.6577  -13.2148   19.8738 C   0  0  2  0  0  0
  -28.6995  -13.0364   21.0016 C   0  0  0  0  0  0
  -25.2569  -13.8154   20.5692 C   0  0  0  0  0  0
  -24.1817  -13.0425   20.9174 C   0  0  0  0  0  0
  -24.6385  -11.6892   20.8735 C   0  0  0  0  0  0
  -23.9045  -10.4278   21.0404 C   0  0  0  0  0  0
  -24.3596   -9.4199   21.9185 C   0  0  0  0  0  0
  -23.6280   -8.2226   22.0753 C   0  0  0  0  0  0
  -22.4265   -8.0269   21.3538 C   0  0  0  0  0  0
  -21.9896   -9.0236   20.4647 C   0  0  0  0  0  0
  -22.7216  -10.2121   20.3058 C   0  0  0  0  0  0
  -21.6851   -6.0732   22.5277 C   0  0  0  0  0  0
  -21.4012   -6.5636   23.8215 C   0  0  0  0  0  0
  -21.3663   -5.6794   24.9178 C   0  0  0  0  0  0
  -21.6043   -4.3060   24.7229 C   0  0  0  0  0  0
  -21.8817   -3.8140   23.4350 C   0  0  0  0  0  0
  -21.9185   -4.6958   22.3407 C   0  0  0  0  0  0
  -22.7842  -13.5230   21.1839 C   0  0  0  0  0  0
  -22.1658   -4.2142   21.0985 F   0  0  0  0  0  0
  -21.5624   -3.4545   25.7740 F   0  0  0  0  0  0
  -30.0224  -13.3725   20.4490 N   0  0  0  0  0  0
  -26.3004  -12.9342   20.3359 N   0  0  0  0  0  0
  -25.9320  -11.6493   20.5766 N   0  0  0  0  0  0
  -22.0486  -12.8225   22.0402 N   0  0  0  0  0  0
  -25.4278  -15.1877   20.4122 N   0  0  0  0  0  0
  -31.7683  -14.7804   20.0692 O   0  0  0  0  0  0
  -21.6627   -6.8867   21.4238 O   0  0  0  0  0  0
  -22.3530  -14.5552   20.6707 O   0  0  0  0  0  0
  -24.6248  -31.8627   23.2058 C   0  0  0  0  0  0
  -25.9110  -32.4786   23.8369 C   0  0  1  0  0  0
  -27.2093  -27.3332   20.1050 C   0  0  0  0  0  0
  -25.5922  -33.8582   24.2291 N   0  0  0  0  0  0
  -23.4142  -30.4911   21.5498 C   0  0  2  0  0  0
  -24.8545  -28.9526   20.1114 C   0  0  0  0  0  0
  -22.7449  -29.4657   22.4955 C   0  0  0  0  0  0
  -18.0284  -28.1381   22.8491 C   0  0  0  0  0  0
  -24.1488  -36.7299   23.2641 C   0  0  0  0  0  0
  -25.9571  -30.7956   21.3770 C   0  0  0  0  0  0
  -26.0264  -29.4272   20.7140 C   0  0  0  0  0  0
  -27.2077  -28.6292   20.7026 C   0  0  0  0  0  0
  -26.0159  -26.9181   19.4683 C   0  0  0  0  0  0
  -24.8506  -27.7017   19.4813 C   0  0  0  0  0  0
  -23.6227  -29.8300   20.1640 C   0  0  0  0  0  0
  -25.4110  -36.3087   24.0333 C   0  0  1  0  0  0
  -20.5883  -28.3685   23.1285 C   0  0  2  0  0  0
  -20.6771  -26.9411   22.5407 C   0  0  0  0  0  0
  -19.5740  -26.6385   21.5210 C   0  0  0  0  0  0
  -18.1923  -26.7925   22.1627 C   0  0  0  0  0  0
  -19.1538  -28.8843   23.2886 C   0  0  0  0  0  0
  -18.9463  -30.1450   23.8903 C   0  0  0  0  0  0
  -17.6467  -30.6586   24.0561 C   0  0  0  0  0  0
  -25.9045  -34.9455   23.5110 C   0  0  0  0  0  0
  -16.5353  -29.9087   23.6334 C   0  0  0  0  0  0
  -16.7275  -28.6499   23.0356 C   0  0  0  0  0  0
  -26.4492  -31.6589   25.0736 C   0  0  0  0  0  0
  -25.3730  -31.3727   26.1466 C   0  0  0  0  0  0
  -27.0338  -30.3010   24.6200 C   0  0  0  0  0  0
  -27.6046  -32.4332   25.7501 C   0  0  0  0  0  0
  -27.5576  -37.1800   24.8463 C   0  0  0  0  0  0
  -21.4166  -29.3050   22.3681 N   0  0  0  0  0  0
  -26.4289  -37.3779   23.9407 N   0  0  0  0  0  0
  -24.6842  -31.0659   22.1001 N   0  0  0  0  0  0
  -23.4185  -28.8195   23.3021 O   0  0  0  0  0  0
  -28.3257  -26.4867   20.1399 O   0  0  0  0  0  0
  -26.5613  -34.8921   22.4678 O   0  0  0  0  0  0
  -23.5420  -32.1418   23.7400 O   0  0  0  0  0  0
  -30.1597  -19.3576   21.6900 C   0  0  0  0  0  0
  -29.6516  -19.0126   19.3620 C   0  0  0  0  0  0
  -30.1744  -17.9469   21.8919 C   0  0  0  0  0  0
  -29.6837  -17.6019   19.5575 C   0  0  0  0  0  0
  -29.9141  -19.9334   20.4158 C   0  0  0  0  0  0
  -29.9694  -17.0353   20.8244 C   0  0  0  0  0  0
  -31.1232  -23.2267   18.6041 C   0  0  0  0  0  0
  -30.7145  -21.7562   18.7799 C   0  0  0  0  0  0
  -29.9276  -24.1722   18.7904 C   0  0  0  0  0  0
  -28.9099  -22.4830   20.4147 C   0  0  0  0  0  0
  -30.1077  -21.4767   20.1716 C   0  0  1  0  0  0
  -29.2697  -24.0208   20.1747 C   0  0  2  0  0  0
  -28.0670  -25.0384   20.2932 C   0  0  0  0  0  0
  -29.8990  -15.6056   21.0656 N   0  0  0  0  0  0
  -31.4762  -12.4815   19.1512 H   0  0  0  0  0  0
  -30.3480  -11.3637   19.8672 H   0  0  0  0  0  0
  -29.7628  -11.7846   17.4595 H   0  0  0  0  0  0
  -29.6581  -13.5009   17.7665 H   0  0  0  0  0  0
  -27.8481  -11.3087   18.8355 H   0  0  0  0  0  0
  -27.3762  -12.6230   17.7925 H   0  0  0  0  0  0
  -27.6894  -14.2570   19.5563 H   0  0  0  0  0  0
  -28.6963  -12.0075   21.3664 H   0  0  0  0  0  0
  -28.4448  -13.6519   21.8658 H   0  0  0  0  0  0
  -25.2738   -9.5675   22.4764 H   0  0  0  0  0  0
  -23.9989   -7.4614   22.7474 H   0  0  0  0  0  0
  -21.0827   -8.8747   19.8960 H   0  0  0  0  0  0
  -22.3668  -10.9648   19.6166 H   0  0  0  0  0  0
  -21.2013   -7.6145   23.9714 H   0  0  0  0  0  0
  -21.1497   -6.0527   25.9084 H   0  0  0  0  0  0
  -22.0600   -2.7600   23.2852 H   0  0  0  0  0  0
  -22.4104  -11.9876   22.4777 H   0  0  0  0  0  0
  -21.1119  -13.1271   22.2648 H   0  0  0  0  0  0
  -24.6623  -15.8428   20.5249 H   0  0  0  0  0  0
  -26.2829  -15.6296   20.0984 H   0  0  0  0  0  0
  -26.7174  -32.5456   23.1111 H   0  0  0  0  0  0
  -25.0046  -33.9720   25.0418 H   0  0  0  0  0  0
  -22.7086  -31.3134   21.4127 H   0  0  0  0  0  0
  -23.3743  -35.9638   23.3309 H   0  0  0  0  0  0
  -24.3582  -36.8907   22.2054 H   0  0  0  0  0  0
  -23.7244  -37.6504   23.6658 H   0  0  0  0  0  0
  -26.0957  -31.5641   20.6146 H   0  0  0  0  0  0
  -26.8357  -30.8336   22.0099 H   0  0  0  0  0  0
  -28.1068  -28.9877   21.1830 H   0  0  0  0  0  0
  -25.9438  -25.9832   18.9368 H   0  0  0  0  0  0
  -23.9547  -27.3357   18.9985 H   0  0  0  0  0  0
  -23.7330  -30.6074   19.4074 H   0  0  0  0  0  0
  -22.7418  -29.2572   19.8677 H   0  0  0  0  0  0
  -25.1291  -36.1938   25.0824 H   0  0  0  0  0  0
  -20.9989  -28.3263   24.1398 H   0  0  0  0  0  0
  -20.5666  -26.2299   23.3606 H   0  0  0  0  0  0
  -21.6639  -26.7435   22.1202 H   0  0  0  0  0  0
  -19.6900  -25.6296   21.1233 H   0  0  0  0  0  0
  -19.6672  -27.3200   20.6744 H   0  0  0  0  0  0
  -17.4190  -26.6675   21.4032 H   0  0  0  0  0  0
  -18.0326  -26.0067   22.9023 H   0  0  0  0  0  0
  -19.7940  -30.7259   24.2274 H   0  0  0  0  0  0
  -17.5023  -31.6272   24.5154 H   0  0  0  0  0  0
  -15.5353  -30.2988   23.7659 H   0  0  0  0  0  0
  -15.8672  -28.0820   22.7076 H   0  0  0  0  0  0
  -24.5894  -30.7083   25.7800 H   0  0  0  0  0  0
  -24.8935  -32.2895   26.4911 H   0  0  0  0  0  0
  -25.8060  -30.8890   27.0231 H   0  0  0  0  0  0
  -26.2916  -29.6752   24.1227 H   0  0  0  0  0  0
  -27.4023  -29.7275   25.4717 H   0  0  0  0  0  0
  -27.8797  -30.4284   23.9440 H   0  0  0  0  0  0
  -27.2643  -33.3624   26.2088 H   0  0  0  0  0  0
  -28.3849  -32.6903   25.0325 H   0  0  0  0  0  0
  -28.0728  -31.8456   26.5409 H   0  0  0  0  0  0
  -28.2600  -38.0094   24.7512 H   0  0  0  0  0  0
  -28.1067  -36.2622   24.6289 H   0  0  0  0  0  0
  -27.2299  -37.1454   25.8869 H   0  0  0  0  0  0
  -20.9331  -29.8764   21.6891 H   0  0  0  0  0  0
  -26.0173  -38.2857   24.1395 H   0  0  0  0  0  0
  -30.3658  -20.0048   22.5318 H   0  0  0  0  0  0
  -29.4545  -19.3737   18.3637 H   0  0  0  0  0  0
  -30.3579  -17.5669   22.8870 H   0  0  0  0  0  0
  -29.4761  -16.9531   18.7170 H   0  0  0  0  0  0
  -31.5452  -23.3681   17.6083 H   0  0  0  0  0  0
  -31.9139  -23.4808   19.3109 H   0  0  0  0  0  0
  -31.5905  -21.1241   18.6272 H   0  0  0  0  0  0
  -30.0025  -21.4936   17.9972 H   0  0  0  0  0  0
  -29.1903  -23.9806   18.0091 H   0  0  0  0  0  0
  -30.2557  -25.2030   18.6518 H   0  0  0  0  0  0
  -28.5461  -22.3599   21.4351 H   0  0  0  0  0  0
  -28.0773  -22.2053   19.7671 H   0  0  0  0  0  0
  -30.8745  -21.7647   20.8924 H   0  0  0  0  0  0
  -30.0073  -24.3037   20.9279 H   0  0  0  0  0  0
  -27.5887  -24.8978   21.2627 H   0  0  0  0  0  0
  -27.3518  -24.6849   19.5563 H   0  0  0  0  0  0
  -29.0756  -15.2971   21.5598 H   0  0  0  0  0  0
  1 25  1  0  0  0
  1 30  2  0  0  0
  1 84  1  0  0  0
  2  3  1  0  0  0
  2 25  1  0  0  0
  2 85  1  0  0  0
  2 86  1  0  0  0
  3  4  1  0  0  0
  3 87  1  0  0  0
  3 88  1  0  0  0
  4  5  1  0  0  0
  4 89  1  0  0  0
  4 90  1  0  0  0
  5  6  1  0  0  0
  5 26  1  0  0  0
  5 91  1  0  0  0
  6 25  1  0  0  0
  6 92  1  0  0  0
  6 93  1  0  0  0
  7  8  2  0  0  0
  7 26  1  0  0  0
  7 29  1  0  0  0
  8  9  1  0  0  0
  8 22  1  0  0  0
  9 10  1  0  0  0
  9 27  2  0  0  0
 10 11  2  0  0  0
 10 15  1  0  0  0
 11 12  1  0  0  0
 11 94  1  0  0  0
 12 13  2  0  0  0
 12 95  1  0  0  0
 13 14  1  0  0  0
 13 31  1  0  0  0
 14 15  2  0  0  0
 14 96  1  0  0  0
 15 97  1  0  0  0
 16 17  2  0  0  0
 16 21  1  0  0  0
 16 31  1  0  0  0
 17 18  1  0  0  0
 17 98  1  0  0  0
 18 19  2  0  0  0
 18 99  1  0  0  0
 19 20  1  0  0  0
 19 24  1  0  0  0
 20 21  2  0  0  0
 20100  1  0  0  0
 21 23  1  0  0  0
 22 28  1  0  0  0
 22 32  2  0  0  0
 26 27  1  0  0  0
 28101  1  0  0  0
 28102  1  0  0  0
 29103  1  0  0  0
 29104  1  0  0  0
 33 34  1  0  0  0
 33 66  1  0  0  0
 33 70  2  0  0  0
 34 36  1  0  0  0
 34 59  1  0  0  0
 34105  1  0  0  0
 35 44  2  0  0  0
 35 45  1  0  0  0
 35 68  1  0  0  0
 36 56  1  0  0  0
 36106  1  0  0  0
 37 39  1  0  0  0
 37 47  1  0  0  0
 37 66  1  0  0  0
 37107  1  0  0  0
 38 43  2  0  0  0
 38 46  1  0  0  0
 38 47  1  0  0  0
 39 64  1  0  0  0
 39 67  2  0  0  0
 40 52  1  0  0  0
 40 53  2  0  0  0
 40 58  1  0  0  0
 41108  1  0  0  0
 41109  1  0  0  0
 41110  1  0  0  0
 41 48  1  0  0  0
 42 43  1  0  0  0
 42 66  1  0  0  0
 42111  1  0  0  0
 42112  1  0  0  0
 43 44  1  0  0  0
 44113  1  0  0  0
 45 46  2  0  0  0
 45114  1  0  0  0
 46115  1  0  0  0
 47116  1  0  0  0
 47117  1  0  0  0
 48 56  1  0  0  0
 48 65  1  0  0  0
 48118  1  0  0  0
 49 50  1  0  0  0
 49 53  1  0  0  0
 49 64  1  0  0  0
 49119  1  0  0  0
 50 51  1  0  0  0
 50120  1  0  0  0
 50121  1  0  0  0
 51 52  1  0  0  0
 51122  1  0  0  0
 51123  1  0  0  0
 52124  1  0  0  0
 52125  1  0  0  0
 53 54  1  0  0  0
 54 55  2  0  0  0
 54126  1  0  0  0
 55 57  1  0  0  0
 55127  1  0  0  0
 56 69  2  0  0  0
 57 58  2  0  0  0
 57128  1  0  0  0
 58129  1  0  0  0
 59 60  1  0  0  0
 59 61  1  0  0  0
 59 62  1  0  0  0
 60130  1  0  0  0
 60131  1  0  0  0
 60132  1  0  0  0
 61133  1  0  0  0
 61134  1  0  0  0
 61135  1  0  0  0
 62136  1  0  0  0
 62137  1  0  0  0
 62138  1  0  0  0
 63 65  1  0  0  0
 63139  1  0  0  0
 63140  1  0  0  0
 63141  1  0  0  0
 64142  1  0  0  0
 65143  1  0  0  0
 68 83  1  0  0  0
 71 73  2  0  0  0
 71 75  1  0  0  0
 71144  1  0  0  0
 72 74  1  0  0  0
 72 75  2  0  0  0
 72145  1  0  0  0
 73 76  1  0  0  0
 73146  1  0  0  0
 74 76  2  0  0  0
 74147  1  0  0  0
 75 81  1  0  0  0
 76 84  1  0  0  0
 77 78  1  0  0  0
 77 79  1  0  0  0
 77148  1  0  0  0
 77149  1  0  0  0
 78 81  1  0  0  0
 78150  1  0  0  0
 78151  1  0  0  0
 79 82  1  0  0  0
 79152  1  0  0  0
 79153  1  0  0  0
 80 81  1  0  0  0
 80 82  1  0  0  0
 80154  1  0  0  0
 80155  1  0  0  0
 81156  1  0  0  0
 82 83  1  0  0  0
 82157  1  0  0  0
 83158  1  0  0  0
 83159  1  0  0  0
 84160  1  0  0  0
M  ISO  4   1 100  68 101  83 101  84 100
M  END
> <chiral flag>
0

> <version>
0

> <s_m_source_file>
/data/baiqing/PycharmProjects/Reinvent-master-3.2/result/LINK_invent/BTK/process_docking_weight1_custom_product_contain_oxygen_bond_distance_aromatic_linkinvent_7_9_3/rearranged_h_0141.sdf

> <i_m_source_file_index>
56

> <r_mmod_Potential_Energy-OPLS-2005>
84.6301498413086

> <r_mmod_Stretch_Energy-OPLS-2005>
70.501106262207

> <r_mmod_Bend_Energy-OPLS-2005>
123.397560119629

> <r_mmod_Torsional_Energy-OPLS-2005>
265.373809814453

> <r_mmod_Improper_Torsional_Energy-OPLS-2005>
4.25952911376953

> <r_mmod_Van_der_Waal_Energy-OPLS-2005>
148.856735229492

> <r_mmod_Electrostatic_Energy-OPLS-2005>
-364.579528808594

> <r_mmod_Solvation_Energy-OPLS-2005>
-201.338714599609

> <b_mmod_Minimization_Converged-OPLS-2005>
0

> <r_mmod_RMS_Derivative-OPLS-2005>
1.62662053108215

$$$$
56
                    3D
 Structure written by MMmdl.
164173  0  0  1  0            999 V2000
  -30.6259  -14.5632   20.5526 C   0  0  0  0  0  0
  -30.4440  -12.3564   19.4316 C   0  0  0  0  0  0
  -29.5054  -12.5151   18.2137 C   0  0  0  0  0  0
  -28.0262  -12.3597   18.6242 C   0  0  0  0  0  0
  -27.6626  -13.2029   19.8750 C   0  0  2  0  0  0
  -28.7049  -12.9864   20.9955 C   0  0  0  0  0  0
  -25.2606  -13.8144   20.5678 C   0  0  0  0  0  0
  -24.1850  -13.0432   20.9177 C   0  0  0  0  0  0
  -24.6394  -11.6896   20.8730 C   0  0  0  0  0  0
  -23.9056  -10.4288   21.0403 C   0  0  0  0  0  0
  -24.3610   -9.4205   21.9181 C   0  0  0  0  0  0
  -23.6288   -8.2241   22.0753 C   0  0  0  0  0  0
  -22.4269   -8.0279   21.3544 C   0  0  0  0  0  0
  -21.9902   -9.0252   20.4646 C   0  0  0  0  0  0
  -22.7228  -10.2131   20.3053 C   0  0  0  0  0  0
  -21.6852   -6.0733   22.5279 C   0  0  0  0  0  0
  -21.4012   -6.5638   23.8212 C   0  0  0  0  0  0
  -21.3659   -5.6791   24.9175 C   0  0  0  0  0  0
  -21.6045   -4.3053   24.7225 C   0  0  0  0  0  0
  -21.8820   -3.8145   23.4347 C   0  0  0  0  0  0
  -21.9192   -4.6962   22.3403 C   0  0  0  0  0  0
  -22.7875  -13.5240   21.1842 C   0  0  0  0  0  0
  -22.1662   -4.2148   21.0980 F   0  0  0  0  0  0
  -21.5630   -3.4538   25.7738 F   0  0  0  0  0  0
  -30.0302  -13.3369   20.4510 N   0  0  0  0  0  0
  -26.3029  -12.9299   20.3350 N   0  0  0  0  0  0
  -25.9319  -11.6467   20.5753 N   0  0  0  0  0  0
  -22.0511  -12.8236   22.0399 N   0  0  0  0  0  0
  -25.4350  -15.1862   20.4092 N   0  0  0  0  0  0
  -31.7484  -14.7925   20.0892 O   0  0  0  0  0  0
  -21.6636   -6.8875   21.4240 O   0  0  0  0  0  0
  -22.3568  -14.5551   20.6695 O   0  0  0  0  0  0
  -24.6195  -31.8630   23.2047 C   0  0  0  0  0  0
  -25.9065  -32.4798   23.8362 C   0  0  1  0  0  0
  -27.2357  -27.3745   20.1124 C   0  0  0  0  0  0
  -25.5901  -33.8597   24.2297 N   0  0  0  0  0  0
  -23.4110  -30.4845   21.5461 C   0  0  2  0  0  0
  -24.8582  -28.9394   20.1149 C   0  0  0  0  0  0
  -22.7439  -29.4632   22.4964 C   0  0  0  0  0  0
  -18.0278  -28.1382   22.8495 C   0  0  0  0  0  0
  -24.1487  -36.7301   23.2641 C   0  0  0  0  0  0
  -25.9443  -30.8114   21.3648 C   0  0  0  0  0  0
  -26.0210  -29.4406   20.7122 C   0  0  0  0  0  0
  -27.2116  -28.6689   20.6993 C   0  0  0  0  0  0
  -26.0524  -26.9028   19.5013 C   0  0  0  0  0  0
  -24.8723  -27.6735   19.5036 C   0  0  0  0  0  0
  -23.6227  -29.8133   20.1624 C   0  0  0  0  0  0
  -25.4111  -36.3098   24.0336 C   0  0  1  0  0  0
  -20.5873  -28.3671   23.1309 C   0  0  2  0  0  0
  -20.6766  -26.9403   22.5419 C   0  0  0  0  0  0
  -19.5745  -26.6385   21.5217 C   0  0  0  0  0  0
  -18.1923  -26.7929   22.1627 C   0  0  0  0  0  0
  -19.1529  -28.8843   23.2900 C   0  0  0  0  0  0
  -18.9455  -30.1449   23.8910 C   0  0  0  0  0  0
  -17.6457  -30.6588   24.0566 C   0  0  0  0  0  0
  -25.9039  -34.9463   23.5117 C   0  0  0  0  0  0
  -16.5348  -29.9091   23.6328 C   0  0  0  0  0  0
  -16.7266  -28.6506   23.0351 C   0  0  0  0  0  0
  -26.4480  -31.6595   25.0710 C   0  0  0  0  0  0
  -25.3736  -31.3710   26.1452 C   0  0  0  0  0  0
  -27.0317  -30.3033   24.6111 C   0  0  0  0  0  0
  -27.6049  -32.4322   25.7473 C   0  0  0  0  0  0
  -27.5580  -37.1806   24.8469 C   0  0  0  0  0  0
  -21.4159  -29.3031   22.3708 N   0  0  0  0  0  0
  -26.4296  -37.3786   23.9409 N   0  0  0  0  0  0
  -24.6769  -31.0687   22.0967 N   0  0  0  0  0  0
  -23.4187  -28.8176   23.3026 O   0  0  0  0  0  0
  -28.4046  -26.6196   20.1304 O   0  0  0  0  0  0
  -26.5608  -34.8926   22.4684 O   0  0  0  0  0  0
  -23.5374  -32.1401   23.7413 O   0  0  0  0  0  0
  -30.4192  -19.1958   20.1538 C   0  0  0  0  0  0
  -28.5265  -19.0003   21.6394 C   0  0  0  0  0  0
  -30.6140  -17.7814   20.2126 C   0  0  0  0  0  0
  -28.7166  -17.5979   21.6955 C   0  0  0  0  0  0
  -29.3783  -19.8396   20.8815 C   0  0  0  0  0  0
  -29.7643  -16.9534   20.9955 C   0  0  0  0  0  0
  -29.9608  -23.5866   21.7593 C   0  0  0  0  0  0
  -29.2641  -24.7029   21.3736 C   0  0  0  0  0  0
  -29.1481  -21.3315   20.9291 C   0  0  0  0  0  0
  -30.9519  -23.7304   22.8957 C   0  0  0  0  0  0
  -32.1001  -22.8044   22.5204 C   0  0  0  0  0  0
  -31.4312  -21.7168   21.6853 C   0  0  0  0  0  0
  -28.7922  -24.5954   18.8579 C   0  0  0  0  0  0
  -28.3584  -25.1592   20.2171 C   0  0  2  0  0  0
  -30.1053  -22.2487   21.2872 N   0  0  0  0  0  0
  -29.8414  -15.5142   21.1214 N   0  0  0  0  0  0
  -27.9080  -21.7709   20.7243 N   0  3  0  0  0  0
  -31.4838  -12.4921   19.1286 H   0  0  0  0  0  0
  -30.3815  -11.3447   19.8357 H   0  0  0  0  0  0
  -29.7584  -11.7825   17.4459 H   0  0  0  0  0  0
  -29.6565  -13.4958   17.7598 H   0  0  0  0  0  0
  -27.8486  -11.3031   18.8282 H   0  0  0  0  0  0
  -27.3737  -12.6211   17.7902 H   0  0  0  0  0  0
  -27.7024  -14.2494   19.5724 H   0  0  0  0  0  0
  -28.7031  -11.9431   21.3156 H   0  0  0  0  0  0
  -28.4475  -13.5573   21.8886 H   0  0  0  0  0  0
  -25.2758   -9.5681   22.4751 H   0  0  0  0  0  0
  -23.9999   -7.4632   22.7469 H   0  0  0  0  0  0
  -21.0834   -8.8768   19.8953 H   0  0  0  0  0  0
  -22.3687  -10.9669   19.6161 H   0  0  0  0  0  0
  -21.2003   -7.6146   23.9716 H   0  0  0  0  0  0
  -21.1482   -6.0521   25.9078 H   0  0  0  0  0  0
  -22.0599   -2.7607   23.2847 H   0  0  0  0  0  0
  -22.4118  -11.9892   22.4783 H   0  0  0  0  0  0
  -21.1130  -13.1268   22.2601 H   0  0  0  0  0  0
  -24.6653  -15.8395   20.5067 H   0  0  0  0  0  0
  -26.2796  -15.6206   20.0599 H   0  0  0  0  0  0
  -26.7131  -32.5489   23.1114 H   0  0  0  0  0  0
  -25.0052  -33.9753   25.0442 H   0  0  0  0  0  0
  -22.7023  -31.3027   21.4030 H   0  0  0  0  0  0
  -23.3749  -35.9633   23.3314 H   0  0  0  0  0  0
  -24.3577  -36.8906   22.2053 H   0  0  0  0  0  0
  -23.7238  -37.6508   23.6650 H   0  0  0  0  0  0
  -26.0631  -31.5750   20.5950 H   0  0  0  0  0  0
  -26.8296  -30.8653   21.9866 H   0  0  0  0  0  0
  -28.1100  -29.0544   21.1615 H   0  0  0  0  0  0
  -26.0305  -25.9385   19.0147 H   0  0  0  0  0  0
  -23.9794  -27.2847   19.0336 H   0  0  0  0  0  0
  -23.7357  -30.5867   19.4020 H   0  0  0  0  0  0
  -22.7450  -29.2363   19.8651 H   0  0  0  0  0  0
  -25.1290  -36.1959   25.0828 H   0  0  0  0  0  0
  -20.9966  -28.3239   24.1430 H   0  0  0  0  0  0
  -20.5668  -26.2278   23.3609 H   0  0  0  0  0  0
  -21.6635  -26.7442   22.1211 H   0  0  0  0  0  0
  -19.6906  -25.6299   21.1237 H   0  0  0  0  0  0
  -19.6687  -27.3205   20.6756 H   0  0  0  0  0  0
  -17.4195  -26.6683   21.4026 H   0  0  0  0  0  0
  -18.0320  -26.0069   22.9020 H   0  0  0  0  0  0
  -19.7930  -30.7261   24.2284 H   0  0  0  0  0  0
  -17.5014  -31.6270   24.5163 H   0  0  0  0  0  0
  -15.5349  -30.2997   23.7647 H   0  0  0  0  0  0
  -15.8666  -28.0831   22.7059 H   0  0  0  0  0  0
  -24.5911  -30.7057   25.7785 H   0  0  0  0  0  0
  -24.8924  -32.2868   26.4895 H   0  0  0  0  0  0
  -25.8081  -30.8881   27.0212 H   0  0  0  0  0  0
  -26.2867  -29.6786   24.1166 H   0  0  0  0  0  0
  -27.4081  -29.7279   25.4579 H   0  0  0  0  0  0
  -27.8705  -30.4346   23.9270 H   0  0  0  0  0  0
  -27.2666  -33.3617   26.2064 H   0  0  0  0  0  0
  -28.3850  -32.6890   25.0295 H   0  0  0  0  0  0
  -28.0727  -31.8438   26.5378 H   0  0  0  0  0  0
  -28.2609  -38.0092   24.7508 H   0  0  0  0  0  0
  -28.1066  -36.2624   24.6306 H   0  0  0  0  0  0
  -27.2297  -37.1467   25.8872 H   0  0  0  0  0  0
  -20.9323  -29.8755   21.6930 H   0  0  0  0  0  0
  -26.0184  -38.2864   24.1408 H   0  0  0  0  0  0
  -31.0855  -19.7860   19.5404 H   0  0  0  0  0  0
  -27.7205  -19.4355   22.2150 H   0  0  0  0  0  0
  -31.4223  -17.3433   19.6440 H   0  0  0  0  0  0
  -28.0357  -17.0147   22.3000 H   0  0  0  0  0  0
  -29.4416  -25.5541   22.0165 H   0  0  0  0  0  0
  -30.4752  -23.4211   23.8273 H   0  0  0  0  0  0
  -31.3079  -24.7541   23.0221 H   0  0  0  0  0  0
  -32.6028  -22.4031   23.4010 H   0  0  0  0  0  0
  -32.8435  -23.3303   21.9197 H   0  0  0  0  0  0
  -31.3265  -20.8222   22.3021 H   0  0  0  0  0  0
  -32.0411  -21.4602   20.8184 H   0  0  0  0  0  0
  -28.7650  -23.5076   18.8361 H   0  0  0  0  0  0
  -29.8087  -24.9045   18.6135 H   0  0  0  0  0  0
  -28.1388  -24.9519   18.0617 H   0  0  0  0  0  0
  -27.3536  -24.8160   20.4640 H   0  0  0  0  0  0
  -29.0416  -15.1048   21.5773 H   0  0  0  0  0  0
  -27.1915  -21.1253   20.4311 H   0  0  0  0  0  0
  -27.6746  -22.7288   20.9109 H   0  0  0  0  0  0
  1 25  1  0  0  0
  1 30  2  0  0  0
  1 86  1  0  0  0
  2  3  1  0  0  0
  2 25  1  0  0  0
  2 88  1  0  0  0
  2 89  1  0  0  0
  3  4  1  0  0  0
  3 90  1  0  0  0
  3 91  1  0  0  0
  4  5  1  0  0  0
  4 92  1  0  0  0
  4 93  1  0  0  0
  5  6  1  0  0  0
  5 26  1  0  0  0
  5 94  1  0  0  0
  6 25  1  0  0  0
  6 95  1  0  0  0
  6 96  1  0  0  0
  7  8  2  0  0  0
  7 26  1  0  0  0
  7 29  1  0  0  0
  8  9  1  0  0  0
  8 22  1  0  0  0
  9 10  1  0  0  0
  9 27  2  0  0  0
 10 11  2  0  0  0
 10 15  1  0  0  0
 11 12  1  0  0  0
 11 97  1  0  0  0
 12 13  2  0  0  0
 12 98  1  0  0  0
 13 14  1  0  0  0
 13 31  1  0  0  0
 14 15  2  0  0  0
 14 99  1  0  0  0
 15100  1  0  0  0
 16 17  2  0  0  0
 16 21  1  0  0  0
 16 31  1  0  0  0
 17 18  1  0  0  0
 17101  1  0  0  0
 18 19  2  0  0  0
 18102  1  0  0  0
 19 20  1  0  0  0
 19 24  1  0  0  0
 20 21  2  0  0  0
 20103  1  0  0  0
 21 23  1  0  0  0
 22 28  1  0  0  0
 22 32  2  0  0  0
 26 27  1  0  0  0
 28104  1  0  0  0
 28105  1  0  0  0
 29106  1  0  0  0
 29107  1  0  0  0
 33 34  1  0  0  0
 33 66  1  0  0  0
 33 70  2  0  0  0
 34 36  1  0  0  0
 34 59  1  0  0  0
 34108  1  0  0  0
 35 44  2  0  0  0
 35 45  1  0  0  0
 35 68  1  0  0  0
 36 56  1  0  0  0
 36109  1  0  0  0
 37 39  1  0  0  0
 37 47  1  0  0  0
 37 66  1  0  0  0
 37110  1  0  0  0
 38 43  2  0  0  0
 38 46  1  0  0  0
 38 47  1  0  0  0
 39 64  1  0  0  0
 39 67  2  0  0  0
 40 52  1  0  0  0
 40 53  2  0  0  0
 40 58  1  0  0  0
 41111  1  0  0  0
 41112  1  0  0  0
 41113  1  0  0  0
 41 48  1  0  0  0
 42 43  1  0  0  0
 42 66  1  0  0  0
 42114  1  0  0  0
 42115  1  0  0  0
 43 44  1  0  0  0
 44116  1  0  0  0
 45 46  2  0  0  0
 45117  1  0  0  0
 46118  1  0  0  0
 47119  1  0  0  0
 47120  1  0  0  0
 48 56  1  0  0  0
 48 65  1  0  0  0
 48121  1  0  0  0
 49 50  1  0  0  0
 49 53  1  0  0  0
 49 64  1  0  0  0
 49122  1  0  0  0
 50 51  1  0  0  0
 50123  1  0  0  0
 50124  1  0  0  0
 51 52  1  0  0  0
 51125  1  0  0  0
 51126  1  0  0  0
 52127  1  0  0  0
 52128  1  0  0  0
 53 54  1  0  0  0
 54 55  2  0  0  0
 54129  1  0  0  0
 55 57  1  0  0  0
 55130  1  0  0  0
 56 69  2  0  0  0
 57 58  2  0  0  0
 57131  1  0  0  0
 58132  1  0  0  0
 59 60  1  0  0  0
 59 61  1  0  0  0
 59 62  1  0  0  0
 60133  1  0  0  0
 60134  1  0  0  0
 60135  1  0  0  0
 61136  1  0  0  0
 61137  1  0  0  0
 61138  1  0  0  0
 62139  1  0  0  0
 62140  1  0  0  0
 62141  1  0  0  0
 63 65  1  0  0  0
 63142  1  0  0  0
 63143  1  0  0  0
 63144  1  0  0  0
 64145  1  0  0  0
 65146  1  0  0  0
 68 84  1  0  0  0
 71 73  2  0  0  0
 71 75  1  0  0  0
 71147  1  0  0  0
 72 74  1  0  0  0
 72 75  2  0  0  0
 72148  1  0  0  0
 73 76  1  0  0  0
 73149  1  0  0  0
 74 76  2  0  0  0
 74150  1  0  0  0
 75 79  1  0  0  0
 76 86  1  0  0  0
 77 78  2  0  0  0
 77 80  1  0  0  0
 77 85  1  0  0  0
 78 84  1  0  0  0
 78151  1  0  0  0
 79 85  1  0  0  0
 79 87  2  0  0  0
 80 81  1  0  0  0
 80152  1  0  0  0
 80153  1  0  0  0
 81 82  1  0  0  0
 81154  1  0  0  0
 81155  1  0  0  0
 82 85  1  0  0  0
 82156  1  0  0  0
 82157  1  0  0  0
 83158  1  0  0  0
 83159  1  0  0  0
 83160  1  0  0  0
 83 84  1  0  0  0
 84161  1  0  0  0
 86162  1  0  0  0
 87163  1  0  0  0
 87164  1  0  0  0
M  CHG  1  87   1
M  ISO  4   1 100  68 101  84 101  86 100
M  END
> <chiral flag>
0

> <version>
0

> <s_m_source_file>
/data/baiqing/PycharmProjects/Reinvent-master-3.2/result/LINK_invent/BTK/process_docking_weight1_custom_product_contain_oxygen_bond_distance_aromatic_linkinvent_7_9_3/rearranged_h_0141.sdf

> <i_m_source_file_index>
57

> <r_mmod_Potential_Energy-OPLS-2005>
-9.01523113250732

> <r_mmod_Stretch_Energy-OPLS-2005>
61.3055229187012

> <r_mmod_Bend_Energy-OPLS-2005>
218.882843017578

> <r_mmod_Torsional_Energy-OPLS-2005>
253.300903320312

> <r_mmod_Improper_Torsional_Energy-OPLS-2005>
5.77377510070801

> <r_mmod_Van_der_Waal_Energy-OPLS-2005>
147.929260253906

> <r_mmod_Electrostatic_Energy-OPLS-2005>
-329.093627929688

> <r_mmod_Solvation_Energy-OPLS-2005>
-392.734527587891

> <b_mmod_Minimization_Converged-OPLS-2005>
0

> <r_mmod_RMS_Derivative-OPLS-2005>
0.400752604007721

$$$$
57
                    3D
 Structure written by MMmdl.
168176  0  0  1  0            999 V2000
  -30.6876  -14.4743   20.4735 C   0  0  0  0  0  0
  -30.4185  -12.2711   19.4506 C   0  0  0  0  0  0
  -29.4862  -12.3737   18.2234 C   0  0  0  0  0  0
  -28.0029  -12.3136   18.6325 C   0  0  0  0  0  0
  -27.6503  -13.1968   19.8610 C   0  0  2  0  0  0
  -28.6900  -13.0354   20.9943 C   0  0  0  0  0  0
  -25.2549  -13.8139   20.5643 C   0  0  0  0  0  0
  -24.1809  -13.0455   20.9161 C   0  0  0  0  0  0
  -24.6333  -11.6895   20.8727 C   0  0  0  0  0  0
  -23.9001  -10.4310   21.0429 C   0  0  0  0  0  0
  -24.3568   -9.4243   21.9203 C   0  0  0  0  0  0
  -23.6273   -8.2270   22.0763 C   0  0  0  0  0  0
  -22.4264   -8.0278   21.3548 C   0  0  0  0  0  0
  -21.9871   -9.0248   20.4660 C   0  0  0  0  0  0
  -22.7175  -10.2146   20.3086 C   0  0  0  0  0  0
  -21.6865   -6.0729   22.5277 C   0  0  0  0  0  0
  -21.4043   -6.5642   23.8207 C   0  0  0  0  0  0
  -21.3647   -5.6789   24.9161 C   0  0  0  0  0  0
  -21.6034   -4.3046   24.7221 C   0  0  0  0  0  0
  -21.8822   -3.8140   23.4347 C   0  0  0  0  0  0
  -21.9209   -4.6958   22.3401 C   0  0  0  0  0  0
  -22.7836  -13.5274   21.1827 C   0  0  0  0  0  0
  -22.1658   -4.2143   21.0975 F   0  0  0  0  0  0
  -21.5620   -3.4526   25.7733 F   0  0  0  0  0  0
  -30.0198  -13.2957   20.4272 N   0  0  0  0  0  0
  -26.2956  -12.9283   20.3313 N   0  0  0  0  0  0
  -25.9260  -11.6460   20.5791 N   0  0  0  0  0  0
  -22.0463  -12.8303   22.0376 N   0  0  0  0  0  0
  -25.4262  -15.1877   20.4018 N   0  0  0  0  0  0
  -31.8781  -14.5911   20.1774 O   0  0  0  0  0  0
  -21.6652   -6.8867   21.4241 O   0  0  0  0  0  0
  -22.3542  -14.5577   20.6623 O   0  0  0  0  0  0
  -24.6091  -31.8742   23.2151 C   0  0  0  0  0  0
  -25.9028  -32.4841   23.8442 C   0  0  1  0  0  0
  -27.2450  -27.4919   20.0944 C   0  0  0  0  0  0
  -25.6027  -33.8653   24.2409 N   0  0  0  0  0  0
  -23.3920  -30.4949   21.5537 C   0  0  2  0  0  0
  -24.8400  -28.9597   20.1228 C   0  0  0  0  0  0
  -22.7357  -29.4669   22.5019 C   0  0  0  0  0  0
  -18.0274  -28.1368   22.8474 C   0  0  0  0  0  0
  -24.1508  -36.7275   23.2623 C   0  0  0  0  0  0
  -25.9090  -30.8607   21.3486 C   0  0  0  0  0  0
  -25.9917  -29.4902   20.7136 C   0  0  0  0  0  0
  -27.1966  -28.7642   20.6980 C   0  0  0  0  0  0
  -26.0799  -26.9532   19.5054 C   0  0  0  0  0  0
  -24.8765  -27.6870   19.5174 C   0  0  0  0  0  0
  -23.5991  -29.8213   20.1706 C   0  0  0  0  0  0
  -25.4127  -36.3108   24.0336 C   0  0  1  0  0  0
  -20.5850  -28.3622   23.1343 C   0  0  2  0  0  0
  -20.6778  -26.9376   22.5402 C   0  0  0  0  0  0
  -19.5754  -26.6388   21.5183 C   0  0  0  0  0  0
  -18.1922  -26.7931   22.1575 C   0  0  0  0  0  0
  -19.1527  -28.8797   23.2930 C   0  0  0  0  0  0
  -18.9452  -30.1419   23.8913 C   0  0  0  0  0  0
  -17.6461  -30.6594   24.0546 C   0  0  0  0  0  0
  -25.9055  -34.9459   23.5121 C   0  0  0  0  0  0
  -16.5351  -29.9086   23.6313 C   0  0  0  0  0  0
  -16.7268  -28.6499   23.0341 C   0  0  0  0  0  0
  -26.4469  -31.6571   25.0717 C   0  0  0  0  0  0
  -25.3771  -31.3648   26.1503 C   0  0  0  0  0  0
  -27.0227  -30.3032   24.5924 C   0  0  0  0  0  0
  -27.6068  -32.4223   25.7531 C   0  0  0  0  0  0
  -27.5582  -37.1800   24.8469 C   0  0  0  0  0  0
  -21.4090  -29.3006   22.3757 N   0  0  0  0  0  0
  -26.4303  -37.3803   23.9419 N   0  0  0  0  0  0
  -24.6561  -31.0888   22.1009 N   0  0  0  0  0  0
  -23.4146  -28.8188   23.3031 O   0  0  0  0  0  0
  -28.4571  -26.8552   20.0078 O   0  0  0  0  0  0
  -26.5502  -34.8879   22.4610 O   0  0  0  0  0  0
  -23.5295  -32.1442   23.7592 O   0  0  0  0  0  0
  -29.9638  -17.9603   19.8334 C   0  0  0  0  0  0
  -30.2648  -18.4994   17.4518 C   0  0  0  0  0  0
  -30.1131  -16.1999   18.1548 C   0  0  0  0  0  0
  -30.1683  -18.9091   18.8000 C   0  0  0  0  0  0
  -29.9818  -16.5799   19.5143 C   0  0  0  0  0  0
  -30.2416  -17.1318   17.1152 C   0  0  0  0  0  0
  -30.4343  -20.3186   19.0633 C   0  0  0  0  0  0
  -29.6911  -22.5186   19.9583 C   0  0  0  0  0  0
  -28.3086  -26.1524   22.3590 C   0  0  0  0  0  0
  -30.3151  -25.8175   20.9027 C   0  0  0  0  0  0
  -30.6924  -17.5555   14.7963 C   0  0  0  0  0  0
  -28.6181  -23.1455   20.8558 C   0  0  0  0  0  0
  -28.1102  -24.5222   20.3709 C   0  0  0  0  0  0
  -28.7753  -25.8107   20.9258 C   0  0  0  0  0  0
  -29.9044  -15.5692   20.5247 N   0  0  0  0  0  0
  -29.5759  -21.0959   19.7550 N   0  0  0  0  0  0
  -31.5716  -20.7925   18.5436 N   0  3  0  0  0  0
  -30.5840  -23.1900   19.4265 O   0  0  0  0  0  0
  -30.3792  -16.6383   15.8355 O   0  0  0  0  0  0
  -31.4588  -12.3748   19.1387 H   0  0  0  0  0  0
  -30.3392  -11.2864   19.9142 H   0  0  0  0  0  0
  -29.7069  -11.5591   17.5330 H   0  0  0  0  0  0
  -29.6665  -13.2718   17.6496 H   0  0  0  0  0  0
  -27.7763  -11.2690   18.8466 H   0  0  0  0  0  0
  -27.3694  -12.5825   17.7876 H   0  0  0  0  0  0
  -27.6769  -14.2312   19.5204 H   0  0  0  0  0  0
  -28.6546  -12.0237   21.4038 H   0  0  0  0  0  0
  -28.4646  -13.7041   21.8256 H   0  0  0  0  0  0
  -25.2716   -9.5732   22.4765 H   0  0  0  0  0  0
  -23.9990   -7.4676   22.7491 H   0  0  0  0  0  0
  -21.0800   -8.8762   19.8964 H   0  0  0  0  0  0
  -22.3621  -10.9684   19.6193 H   0  0  0  0  0  0
  -21.2042   -7.6144   23.9702 H   0  0  0  0  0  0
  -21.1455   -6.0518   25.9063 H   0  0  0  0  0  0
  -22.0611   -2.7608   23.2847 H   0  0  0  0  0  0
  -22.4028  -11.9973   22.4814 H   0  0  0  0  0  0
  -21.1092  -13.1383   22.2552 H   0  0  0  0  0  0
  -24.6515  -15.8335   20.5113 H   0  0  0  0  0  0
  -26.2714  -15.6379   20.0738 H   0  0  0  0  0  0
  -26.7067  -32.5553   23.1222 H   0  0  0  0  0  0
  -25.0528  -33.9872   25.0770 H   0  0  0  0  0  0
  -22.6781  -31.3087   21.4109 H   0  0  0  0  0  0
  -23.3795  -35.9595   23.3324 H   0  0  0  0  0  0
  -24.3626  -36.8831   22.2036 H   0  0  0  0  0  0
  -23.7198  -37.6473   23.6575 H   0  0  0  0  0  0
  -25.9860  -31.6168   20.5649 H   0  0  0  0  0  0
  -26.8120  -30.9456   21.9413 H   0  0  0  0  0  0
  -28.0939  -29.1829   21.1318 H   0  0  0  0  0  0
  -26.1074  -25.9854   19.0218 H   0  0  0  0  0  0
  -23.9898  -27.2839   19.0482 H   0  0  0  0  0  0
  -23.7116  -30.5924   19.4079 H   0  0  0  0  0  0
  -22.7234  -29.2404   19.8742 H   0  0  0  0  0  0
  -25.1291  -36.1991   25.0819 H   0  0  0  0  0  0
  -20.9966  -28.3207   24.1469 H   0  0  0  0  0  0
  -20.5674  -26.2237   23.3590 H   0  0  0  0  0  0
  -21.6657  -26.7475   22.1167 H   0  0  0  0  0  0
  -19.6959  -25.6305   21.1216 H   0  0  0  0  0  0
  -19.6728  -27.3194   20.6710 H   0  0  0  0  0  0
  -17.4213  -26.6668   21.3977 H   0  0  0  0  0  0
  -18.0317  -26.0054   22.8942 H   0  0  0  0  0  0
  -19.7939  -30.7223   24.2310 H   0  0  0  0  0  0
  -17.5032  -31.6285   24.5164 H   0  0  0  0  0  0
  -15.5359  -30.3017   23.7645 H   0  0  0  0  0  0
  -15.8650  -28.0853   22.7068 H   0  0  0  0  0  0
  -24.5992  -30.6908   25.7889 H   0  0  0  0  0  0
  -24.8883  -32.2783   26.4900 H   0  0  0  0  0  0
  -25.8226  -30.8884   27.0257 H   0  0  0  0  0  0
  -26.2654  -29.6903   24.1016 H   0  0  0  0  0  0
  -27.4126  -29.7159   25.4249 H   0  0  0  0  0  0
  -27.8439  -30.4412   23.8888 H   0  0  0  0  0  0
  -27.2712  -33.3520   26.2134 H   0  0  0  0  0  0
  -28.3955  -32.6775   25.0441 H   0  0  0  0  0  0
  -28.0659  -31.8273   26.5437 H   0  0  0  0  0  0
  -28.2614  -38.0087   24.7583 H   0  0  0  0  0  0
  -28.1060  -36.2638   24.6255 H   0  0  0  0  0  0
  -27.2297  -37.1403   25.8863 H   0  0  0  0  0  0
  -20.9231  -29.8737   21.6998 H   0  0  0  0  0  0
  -26.0191  -38.2873   24.1486 H   0  0  0  0  0  0
  -29.8931  -18.2793   20.8645 H   0  0  0  0  0  0
  -30.3889  -19.2551   16.6877 H   0  0  0  0  0  0
  -30.1587  -15.1672   17.8832 H   0  0  0  0  0  0
  -28.7078  -27.1149   22.6846 H   0  0  0  0  0  0
  -28.6399  -25.3983   23.0719 H   0  0  0  0  0  0
  -27.2231  -26.2218   22.4331 H   0  0  0  0  0  0
  -30.6967  -26.7634   21.2925 H   0  0  0  0  0  0
  -30.7159  -25.7216   19.8914 H   0  0  0  0  0  0
  -30.7428  -25.0259   21.5184 H   0  0  0  0  0  0
  -30.8339  -17.0181   13.8578 H   0  0  0  0  0  0
  -31.6173  -18.0976   15.0027 H   0  0  0  0  0  0
  -29.8807  -18.2686   14.6477 H   0  0  0  0  0  0
  -28.9776  -23.1944   21.8829 H   0  0  0  0  0  0
  -27.7665  -22.4638   20.8518 H   0  0  0  0  0  0
  -28.1415  -24.5396   19.2790 H   0  0  0  0  0  0
  -27.0499  -24.5726   20.6210 H   0  0  0  0  0  0
  -28.9935  -15.4348   20.9360 H   0  0  0  0  0  0
  -28.8013  -20.5674   20.1293 H   0  0  0  0  0  0
  -31.7838  -21.7765   18.6504 H   0  0  0  0  0  0
  -32.2279  -20.1697   18.0960 H   0  0  0  0  0  0
  1 25  1  0  0  0
  1 30  2  0  0  0
  1 85  1  0  0  0
  2  3  1  0  0  0
  2 25  1  0  0  0
  2 90  1  0  0  0
  2 91  1  0  0  0
  3  4  1  0  0  0
  3 92  1  0  0  0
  3 93  1  0  0  0
  4  5  1  0  0  0
  4 94  1  0  0  0
  4 95  1  0  0  0
  5  6  1  0  0  0
  5 26  1  0  0  0
  5 96  1  0  0  0
  6 25  1  0  0  0
  6 97  1  0  0  0
  6 98  1  0  0  0
  7  8  2  0  0  0
  7 26  1  0  0  0
  7 29  1  0  0  0
  8  9  1  0  0  0
  8 22  1  0  0  0
  9 10  1  0  0  0
  9 27  2  0  0  0
 10 11  2  0  0  0
 10 15  1  0  0  0
 11 12  1  0  0  0
 11 99  1  0  0  0
 12 13  2  0  0  0
 12100  1  0  0  0
 13 14  1  0  0  0
 13 31  1  0  0  0
 14 15  2  0  0  0
 14101  1  0  0  0
 15102  1  0  0  0
 16 17  2  0  0  0
 16 21  1  0  0  0
 16 31  1  0  0  0
 17 18  1  0  0  0
 17103  1  0  0  0
 18 19  2  0  0  0
 18104  1  0  0  0
 19 20  1  0  0  0
 19 24  1  0  0  0
 20 21  2  0  0  0
 20105  1  0  0  0
 21 23  1  0  0  0
 22 28  1  0  0  0
 22 32  2  0  0  0
 26 27  1  0  0  0
 28106  1  0  0  0
 28107  1  0  0  0
 29108  1  0  0  0
 29109  1  0  0  0
 33 34  1  0  0  0
 33 66  1  0  0  0
 33 70  2  0  0  0
 34 36  1  0  0  0
 34 59  1  0  0  0
 34110  1  0  0  0
 35 44  2  0  0  0
 35 45  1  0  0  0
 35 68  1  0  0  0
 36 56  1  0  0  0
 36111  1  0  0  0
 37 39  1  0  0  0
 37 47  1  0  0  0
 37 66  1  0  0  0
 37112  1  0  0  0
 38 43  2  0  0  0
 38 46  1  0  0  0
 38 47  1  0  0  0
 39 64  1  0  0  0
 39 67  2  0  0  0
 40 52  1  0  0  0
 40 53  2  0  0  0
 40 58  1  0  0  0
 41113  1  0  0  0
 41114  1  0  0  0
 41115  1  0  0  0
 41 48  1  0  0  0
 42 43  1  0  0  0
 42 66  1  0  0  0
 42116  1  0  0  0
 42117  1  0  0  0
 43 44  1  0  0  0
 44118  1  0  0  0
 45 46  2  0  0  0
 45119  1  0  0  0
 46120  1  0  0  0
 47121  1  0  0  0
 47122  1  0  0  0
 48 56  1  0  0  0
 48 65  1  0  0  0
 48123  1  0  0  0
 49 50  1  0  0  0
 49 53  1  0  0  0
 49 64  1  0  0  0
 49124  1  0  0  0
 50 51  1  0  0  0
 50125  1  0  0  0
 50126  1  0  0  0
 51 52  1  0  0  0
 51127  1  0  0  0
 51128  1  0  0  0
 52129  1  0  0  0
 52130  1  0  0  0
 53 54  1  0  0  0
 54 55  2  0  0  0
 54131  1  0  0  0
 55 57  1  0  0  0
 55132  1  0  0  0
 56 69  2  0  0  0
 57 58  2  0  0  0
 57133  1  0  0  0
 58134  1  0  0  0
 59 60  1  0  0  0
 59 61  1  0  0  0
 59 62  1  0  0  0
 60135  1  0  0  0
 60136  1  0  0  0
 60137  1  0  0  0
 61138  1  0  0  0
 61139  1  0  0  0
 61140  1  0  0  0
 62141  1  0  0  0
 62142  1  0  0  0
 62143  1  0  0  0
 63 65  1  0  0  0
 63144  1  0  0  0
 63145  1  0  0  0
 63146  1  0  0  0
 64147  1  0  0  0
 65148  1  0  0  0
 68 84  1  0  0  0
 71 74  2  0  0  0
 71 75  1  0  0  0
 71149  1  0  0  0
 72 74  1  0  0  0
 72 76  2  0  0  0
 72150  1  0  0  0
 73 75  2  0  0  0
 73 76  1  0  0  0
 73151  1  0  0  0
 74 77  1  0  0  0
 75 85  1  0  0  0
 76 89  1  0  0  0
 77 86  1  0  0  0
 77 87  2  0  0  0
 78 82  1  0  0  0
 78 86  1  0  0  0
 78 88  2  0  0  0
 79152  1  0  0  0
 79153  1  0  0  0
 79154  1  0  0  0
 79 84  1  0  0  0
 80 84  1  0  0  0
 80155  1  0  0  0
 80156  1  0  0  0
 80157  1  0  0  0
 81 89  1  0  0  0
 81158  1  0  0  0
 81159  1  0  0  0
 81160  1  0  0  0
 82 83  1  0  0  0
 82161  1  0  0  0
 82162  1  0  0  0
 83 84  1  0  0  0
 83163  1  0  0  0
 83164  1  0  0  0
 85165  1  0  0  0
 86166  1  0  0  0
 87167  1  0  0  0
 87168  1  0  0  0
M  CHG  1  87   1
M  ISO  4   1 100  68 101  84 101  85 100
M  END
> <chiral flag>
0

> <version>
0

> <s_m_source_file>
/data/baiqing/PycharmProjects/Reinvent-master-3.2/result/LINK_invent/BTK/process_docking_weight1_custom_product_contain_oxygen_bond_distance_aromatic_linkinvent_7_9_3/rearranged_h_0141.sdf

> <i_m_source_file_index>
58

> <r_mmod_Potential_Energy-OPLS-2005>
-312.862762451172

> <r_mmod_Stretch_Energy-OPLS-2005>
35.3661422729492

> <r_mmod_Bend_Energy-OPLS-2005>
125.331283569336

> <r_mmod_Torsional_Energy-OPLS-2005>
291.279235839844

> <r_mmod_Improper_Torsional_Energy-OPLS-2005>
11.9617595672607

> <r_mmod_Van_der_Waal_Energy-OPLS-2005>
181.782318115234

> <r_mmod_Electrostatic_Energy-OPLS-2005>
-527.076293945312

> <r_mmod_Solvation_Energy-OPLS-2005>
-452.734375

> <b_mmod_Minimization_Converged-OPLS-2005>
0

> <r_mmod_RMS_Derivative-OPLS-2005>
5.50267457962036

$$$$
58
                    3D
 Structure written by MMmdl.
160169  0  0  1  0            999 V2000
  -30.6198  -14.7559   20.4943 C   0  0  0  0  0  0
  -30.4402  -12.4635   19.5023 C   0  0  0  0  0  0
  -29.5200  -12.5106   18.2602 C   0  0  0  0  0  0
  -28.0462  -12.3290   18.6652 C   0  0  0  0  0  0
  -27.6471  -13.2312   19.8621 C   0  0  2  0  0  0
  -28.6862  -13.1657   21.0042 C   0  0  0  0  0  0
  -25.2513  -13.8203   20.5702 C   0  0  0  0  0  0
  -24.1790  -13.0447   20.9199 C   0  0  0  0  0  0
  -24.6378  -11.6927   20.8754 C   0  0  0  0  0  0
  -23.9060  -10.4318   21.0422 C   0  0  0  0  0  0
  -24.3610   -9.4219   21.9194 C   0  0  0  0  0  0
  -23.6292   -8.2252   22.0753 C   0  0  0  0  0  0
  -22.4273   -8.0300   21.3550 C   0  0  0  0  0  0
  -21.9899   -9.0273   20.4648 C   0  0  0  0  0  0
  -22.7225  -10.2166   20.3056 C   0  0  0  0  0  0
  -21.6859   -6.0741   22.5291 C   0  0  0  0  0  0
  -21.4011   -6.5643   23.8224 C   0  0  0  0  0  0
  -21.3662   -5.6786   24.9184 C   0  0  0  0  0  0
  -21.6037   -4.3062   24.7224 C   0  0  0  0  0  0
  -21.8814   -3.8152   23.4358 C   0  0  0  0  0  0
  -21.9187   -4.6966   22.3406 C   0  0  0  0  0  0
  -22.7818  -13.5248   21.1884 C   0  0  0  0  0  0
  -22.1666   -4.2143   21.0989 F   0  0  0  0  0  0
  -21.5623   -3.4547   25.7743 F   0  0  0  0  0  0
  -29.9990  -13.5211   20.4474 N   0  0  0  0  0  0
  -26.2947  -12.9400   20.3323 N   0  0  0  0  0  0
  -25.9309  -11.6537   20.5771 N   0  0  0  0  0  0
  -22.0442  -12.8274   22.0442 N   0  0  0  0  0  0
  -25.4214  -15.1944   20.4165 N   0  0  0  0  0  0
  -31.7658  -14.8774   20.0511 O   0  0  0  0  0  0
  -21.6625   -6.8904   21.4258 O   0  0  0  0  0  0
  -22.3525  -14.5544   20.6711 O   0  0  0  0  0  0
  -24.6355  -31.8537   23.1958 C   0  0  0  0  0  0
  -25.9162  -32.4736   23.8326 C   0  0  1  0  0  0
  -27.2256  -27.2325   20.1418 C   0  0  0  0  0  0
  -25.5934  -33.8539   24.2238 N   0  0  0  0  0  0
  -23.4354  -30.4751   21.5398 C   0  0  2  0  0  0
  -24.8822  -28.9161   20.1147 C   0  0  0  0  0  0
  -22.7535  -29.4597   22.4907 C   0  0  0  0  0  0
  -18.0300  -28.1402   22.8475 C   0  0  0  0  0  0
  -24.1481  -36.7260   23.2645 C   0  0  0  0  0  0
  -25.9858  -30.7555   21.3828 C   0  0  0  0  0  0
  -26.0571  -29.3772   20.7242 C   0  0  0  0  0  0
  -27.2319  -28.5500   20.7225 C   0  0  0  0  0  0
  -26.0240  -26.8512   19.4990 C   0  0  0  0  0  0
  -24.8717  -27.6615   19.4921 C   0  0  0  0  0  0
  -23.6551  -29.8086   20.1579 C   0  0  0  0  0  0
  -25.4109  -36.3048   24.0328 C   0  0  1  0  0  0
  -20.5908  -28.3722   23.1243 C   0  0  2  0  0  0
  -20.6791  -26.9433   22.5402 C   0  0  0  0  0  0
  -19.5757  -26.6386   21.5217 C   0  0  0  0  0  0
  -18.1940  -26.7938   22.1632 C   0  0  0  0  0  0
  -19.1557  -28.8877   23.2858 C   0  0  0  0  0  0
  -18.9491  -30.1471   23.8881 C   0  0  0  0  0  0
  -17.6493  -30.6602   24.0561 C   0  0  0  0  0  0
  -25.9063  -34.9424   23.5086 C   0  0  0  0  0  0
  -16.5379  -29.9103   23.6332 C   0  0  0  0  0  0
  -16.7290  -28.6523   23.0352 C   0  0  0  0  0  0
  -26.4518  -31.6587   25.0740 C   0  0  0  0  0  0
  -25.3719  -31.3803   26.1455 C   0  0  0  0  0  0
  -27.0390  -30.2984   24.6308 C   0  0  0  0  0  0
  -27.6062  -32.4358   25.7512 C   0  0  0  0  0  0
  -27.5581  -37.1755   24.8459 C   0  0  0  0  0  0
  -21.4239  -29.3062   22.3627 N   0  0  0  0  0  0
  -26.4275  -37.3759   23.9436 N   0  0  0  0  0  0
  -24.7041  -31.0478   22.0937 N   0  0  0  0  0  0
  -23.4205  -28.8152   23.3033 O   0  0  0  0  0  0
  -28.3071  -26.3071   20.2246 O   0  0  0  0  0  0
  -26.5667  -34.8907   22.4671 O   0  0  0  0  0  0
  -23.5488  -32.1383   23.7223 O   0  0  0  0  0  0
  -29.7926  -18.4368   21.1568 C   0  0  0  0  0  0
  -29.5628  -19.6440   20.3252 C   0  0  0  0  0  0
  -29.4496  -19.2562   19.0079 C   0  0  0  0  0  0
  -29.8587  -17.1854   20.4998 C   0  0  0  0  0  0
  -30.2981  -23.9033   20.8048 C   0  0  0  0  0  0
  -29.0202  -23.6646   20.4681 C   0  0  0  0  0  0
  -31.2747  -22.8127   21.2440 C   0  0  0  0  0  0
  -28.5300  -22.1491   20.5117 C   0  0  0  0  0  0
  -30.6201  -21.4772   21.6841 C   0  0  0  0  0  0
  -30.3886  -20.0889   16.7985 C   0  0  0  0  0  0
  -29.2267  -20.1109   17.7952 C   0  0  0  0  0  0
  -28.0297  -24.8320   19.9981 C   0  0  0  0  0  0
  -29.5436  -21.0477   20.7920 N   0  0  0  0  0  0
  -29.9208  -15.8565   20.9743 N   0  0  0  0  0  0
  -29.6402  -17.5124   18.7969 S   0  0  0  0  0  0
  -31.4796  -12.5877   19.1956 H   0  0  0  0  0  0
  -30.3949  -11.4864   19.9853 H   0  0  0  0  0  0
  -29.8064  -11.7374   17.5468 H   0  0  0  0  0  0
  -29.6430  -13.4661   17.7497 H   0  0  0  0  0  0
  -27.9073  -11.2818   18.9307 H   0  0  0  0  0  0
  -27.3911  -12.5131   17.8112 H   0  0  0  0  0  0
  -27.6481  -14.2519   19.4802 H   0  0  0  0  0  0
  -28.7179  -12.1611   21.4296 H   0  0  0  0  0  0
  -28.4034  -13.8345   21.8196 H   0  0  0  0  0  0
  -25.2757   -9.5677   22.4755 H   0  0  0  0  0  0
  -23.9992   -7.4635   22.7456 H   0  0  0  0  0  0
  -21.0824   -8.8776   19.8977 H   0  0  0  0  0  0
  -22.3665  -10.9689   19.6164 H   0  0  0  0  0  0
  -21.1999   -7.6146   23.9726 H   0  0  0  0  0  0
  -21.1495   -6.0529   25.9090 H   0  0  0  0  0  0
  -22.0584   -2.7606   23.2855 H   0  0  0  0  0  0
  -22.4030  -11.9970   22.4906 H   0  0  0  0  0  0
  -21.1049  -13.1323   22.2594 H   0  0  0  0  0  0
  -24.6532  -15.8473   20.5314 H   0  0  0  0  0  0
  -26.2719  -15.6422   20.1006 H   0  0  0  0  0  0
  -26.7248  -32.5363   23.1084 H   0  0  0  0  0  0
  -25.0000  -33.9674   25.0330 H   0  0  0  0  0  0
  -22.7341  -31.2990   21.3922 H   0  0  0  0  0  0
  -23.3745  -35.9587   23.3273 H   0  0  0  0  0  0
  -24.3580  -36.8915   22.2069 H   0  0  0  0  0  0
  -23.7215  -37.6441   23.6693 H   0  0  0  0  0  0
  -26.1441  -31.5161   20.6165 H   0  0  0  0  0  0
  -26.8541  -30.7934   22.0283 H   0  0  0  0  0  0
  -28.1255  -28.9005   21.2202 H   0  0  0  0  0  0
  -25.9330  -25.8921   19.0133 H   0  0  0  0  0  0
  -23.9716  -27.2943   19.0168 H   0  0  0  0  0  0
  -23.7908  -30.5871   19.4064 H   0  0  0  0  0  0
  -22.7707  -29.2508   19.8447 H   0  0  0  0  0  0
  -25.1275  -36.1886   25.0818 H   0  0  0  0  0  0
  -21.0012  -28.3317   24.1361 H   0  0  0  0  0  0
  -20.5685  -26.2352   23.3627 H   0  0  0  0  0  0
  -21.6659  -26.7434   22.1200 H   0  0  0  0  0  0
  -19.6921  -25.6300   21.1247 H   0  0  0  0  0  0
  -19.6678  -27.3194   20.6747 H   0  0  0  0  0  0
  -17.4201  -26.6665   21.4048 H   0  0  0  0  0  0
  -18.0341  -26.0101   22.9049 H   0  0  0  0  0  0
  -19.7985  -30.7271   24.2248 H   0  0  0  0  0  0
  -17.5066  -31.6274   24.5183 H   0  0  0  0  0  0
  -15.5384  -30.3008   23.7664 H   0  0  0  0  0  0
  -15.8697  -28.0831   22.7074 H   0  0  0  0  0  0
  -24.5840  -30.7223   25.7790 H   0  0  0  0  0  0
  -24.8980  -32.3006   26.4877 H   0  0  0  0  0  0
  -25.7978  -30.8961   27.0247 H   0  0  0  0  0  0
  -26.3022  -29.6703   24.1288 H   0  0  0  0  0  0
  -27.3996  -29.7290   25.4889 H   0  0  0  0  0  0
  -27.8925  -30.4244   23.9641 H   0  0  0  0  0  0
  -27.2646  -33.3646   26.2104 H   0  0  0  0  0  0
  -28.3848  -32.6950   25.0323 H   0  0  0  0  0  0
  -28.0771  -31.8489   26.5412 H   0  0  0  0  0  0
  -28.2554  -38.0097   24.7550 H   0  0  0  0  0  0
  -28.1101  -36.2612   24.6194 H   0  0  0  0  0  0
  -27.2305  -37.1311   25.8865 H   0  0  0  0  0  0
  -20.9458  -29.8772   21.6801 H   0  0  0  0  0  0
  -26.0124  -38.2811   24.1487 H   0  0  0  0  0  0
  -29.8951  -18.5382   22.2282 H   0  0  0  0  0  0
  -30.6857  -24.9113   20.7507 H   0  0  0  0  0  0
  -31.8806  -23.1929   22.0681 H   0  0  0  0  0  0
  -31.9634  -22.6279   20.4178 H   0  0  0  0  0  0
  -27.9602  -21.9273   19.6124 H   0  0  0  0  0  0
  -27.7954  -22.1015   21.3160 H   0  0  0  0  0  0
  -30.2158  -21.5799   22.6916 H   0  0  0  0  0  0
  -31.3924  -20.7086   21.7511 H   0  0  0  0  0  0
  -30.1711  -20.7281   15.9431 H   0  0  0  0  0  0
  -30.5755  -19.0820   16.4231 H   0  0  0  0  0  0
  -31.3049  -20.4583   17.2613 H   0  0  0  0  0  0
  -29.0756  -21.1505   18.0741 H   0  0  0  0  0  0
  -28.3035  -19.8025   17.3026 H   0  0  0  0  0  0
  -27.0758  -24.5848   20.4635 H   0  0  0  0  0  0
  -27.8989  -24.6947   18.9237 H   0  0  0  0  0  0
  -29.1527  -15.5995   21.5737 H   0  0  0  0  0  0
  1 25  1  0  0  0
  1 30  2  0  0  0
  1 84  1  0  0  0
  2  3  1  0  0  0
  2 25  1  0  0  0
  2 86  1  0  0  0
  2 87  1  0  0  0
  3  4  1  0  0  0
  3 88  1  0  0  0
  3 89  1  0  0  0
  4  5  1  0  0  0
  4 90  1  0  0  0
  4 91  1  0  0  0
  5  6  1  0  0  0
  5 26  1  0  0  0
  5 92  1  0  0  0
  6 25  1  0  0  0
  6 93  1  0  0  0
  6 94  1  0  0  0
  7  8  2  0  0  0
  7 26  1  0  0  0
  7 29  1  0  0  0
  8  9  1  0  0  0
  8 22  1  0  0  0
  9 10  1  0  0  0
  9 27  2  0  0  0
 10 11  2  0  0  0
 10 15  1  0  0  0
 11 12  1  0  0  0
 11 95  1  0  0  0
 12 13  2  0  0  0
 12 96  1  0  0  0
 13 14  1  0  0  0
 13 31  1  0  0  0
 14 15  2  0  0  0
 14 97  1  0  0  0
 15 98  1  0  0  0
 16 17  2  0  0  0
 16 21  1  0  0  0
 16 31  1  0  0  0
 17 18  1  0  0  0
 17 99  1  0  0  0
 18 19  2  0  0  0
 18100  1  0  0  0
 19 20  1  0  0  0
 19 24  1  0  0  0
 20 21  2  0  0  0
 20101  1  0  0  0
 21 23  1  0  0  0
 22 28  1  0  0  0
 22 32  2  0  0  0
 26 27  1  0  0  0
 28102  1  0  0  0
 28103  1  0  0  0
 29104  1  0  0  0
 29105  1  0  0  0
 33 34  1  0  0  0
 33 66  1  0  0  0
 33 70  2  0  0  0
 34 36  1  0  0  0
 34 59  1  0  0  0
 34106  1  0  0  0
 35 44  2  0  0  0
 35 45  1  0  0  0
 35 68  1  0  0  0
 36 56  1  0  0  0
 36107  1  0  0  0
 37 39  1  0  0  0
 37 47  1  0  0  0
 37 66  1  0  0  0
 37108  1  0  0  0
 38 43  2  0  0  0
 38 46  1  0  0  0
 38 47  1  0  0  0
 39 64  1  0  0  0
 39 67  2  0  0  0
 40 52  1  0  0  0
 40 53  2  0  0  0
 40 58  1  0  0  0
 41109  1  0  0  0
 41110  1  0  0  0
 41111  1  0  0  0
 41 48  1  0  0  0
 42 43  1  0  0  0
 42 66  1  0  0  0
 42112  1  0  0  0
 42113  1  0  0  0
 43 44  1  0  0  0
 44114  1  0  0  0
 45 46  2  0  0  0
 45115  1  0  0  0
 46116  1  0  0  0
 47117  1  0  0  0
 47118  1  0  0  0
 48 56  1  0  0  0
 48 65  1  0  0  0
 48119  1  0  0  0
 49 50  1  0  0  0
 49 53  1  0  0  0
 49 64  1  0  0  0
 49120  1  0  0  0
 50 51  1  0  0  0
 50121  1  0  0  0
 50122  1  0  0  0
 51 52  1  0  0  0
 51123  1  0  0  0
 51124  1  0  0  0
 52125  1  0  0  0
 52126  1  0  0  0
 53 54  1  0  0  0
 54 55  2  0  0  0
 54127  1  0  0  0
 55 57  1  0  0  0
 55128  1  0  0  0
 56 69  2  0  0  0
 57 58  2  0  0  0
 57129  1  0  0  0
 58130  1  0  0  0
 59 60  1  0  0  0
 59 61  1  0  0  0
 59 62  1  0  0  0
 60131  1  0  0  0
 60132  1  0  0  0
 60133  1  0  0  0
 61134  1  0  0  0
 61135  1  0  0  0
 61136  1  0  0  0
 62137  1  0  0  0
 62138  1  0  0  0
 62139  1  0  0  0
 63 65  1  0  0  0
 63140  1  0  0  0
 63141  1  0  0  0
 63142  1  0  0  0
 64143  1  0  0  0
 65144  1  0  0  0
 68 82  1  0  0  0
 71 72  1  0  0  0
 71 74  2  0  0  0
 71145  1  0  0  0
 72 73  2  0  0  0
 72 83  1  0  0  0
 73 81  1  0  0  0
 73 85  1  0  0  0
 74 84  1  0  0  0
 74 85  1  0  0  0
 75 76  2  0  0  0
 75 77  1  0  0  0
 75146  1  0  0  0
 76 78  1  0  0  0
 76 82  1  0  0  0
 77 79  1  0  0  0
 77147  1  0  0  0
 77148  1  0  0  0
 78 83  1  0  0  0
 78149  1  0  0  0
 78150  1  0  0  0
 79 83  1  0  0  0
 79151  1  0  0  0
 79152  1  0  0  0
 80 81  1  0  0  0
 80153  1  0  0  0
 80154  1  0  0  0
 80155  1  0  0  0
 81156  1  0  0  0
 81157  1  0  0  0
 82158  1  0  0  0
 82159  1  0  0  0
 84160  1  0  0  0
M  ISO  4   1 100  68 101  82 101  84 100
M  END
> <chiral flag>
0

> <version>
0

> <s_m_source_file>
/data/baiqing/PycharmProjects/Reinvent-master-3.2/result/LINK_invent/BTK/process_docking_weight1_custom_product_contain_oxygen_bond_distance_aromatic_linkinvent_7_9_3/rearranged_h_0141.sdf

> <i_m_source_file_index>
59

> <r_mmod_Potential_Energy-OPLS-2005>
207.29670715332

> <r_mmod_Stretch_Energy-OPLS-2005>
131.637817382812

> <r_mmod_Bend_Energy-OPLS-2005>
173.106201171875

> <r_mmod_Torsional_Energy-OPLS-2005>
244.186111450195

> <r_mmod_Improper_Torsional_Energy-OPLS-2005>
3.82187223434448

> <r_mmod_Van_der_Waal_Energy-OPLS-2005>
120.969055175781

> <r_mmod_Electrostatic_Energy-OPLS-2005>
-343.045227050781

> <r_mmod_Solvation_Energy-OPLS-2005>
-220.915771484375

> <b_mmod_Minimization_Converged-OPLS-2005>
0

> <r_mmod_RMS_Derivative-OPLS-2005>
4.14414978027344

$$$$
59
                    3D
 Structure written by MMmdl.
171179  0  0  1  0            999 V2000
  -30.7331  -14.4963   20.5852 C   0  0  0  0  0  0
  -30.4267  -12.3273   19.4512 C   0  0  0  0  0  0
  -29.4981  -12.5014   18.2299 C   0  0  0  0  0  0
  -28.0143  -12.3866   18.6281 C   0  0  0  0  0  0
  -27.6634  -13.2146   19.8925 C   0  0  2  0  0  0
  -28.7122  -13.0154   21.0160 C   0  0  0  0  0  0
  -25.2568  -13.8147   20.5703 C   0  0  0  0  0  0
  -24.1818  -13.0426   20.9161 C   0  0  0  0  0  0
  -24.6355  -11.6880   20.8712 C   0  0  0  0  0  0
  -23.9008  -10.4259   21.0349 C   0  0  0  0  0  0
  -24.3547   -9.4211   21.9157 C   0  0  0  0  0  0
  -23.6241   -8.2241   22.0736 C   0  0  0  0  0  0
  -22.4231   -8.0247   21.3518 C   0  0  0  0  0  0
  -21.9839   -9.0201   20.4613 C   0  0  0  0  0  0
  -22.7146  -10.2081   20.3024 C   0  0  0  0  0  0
  -21.6854   -6.0690   22.5233 C   0  0  0  0  0  0
  -21.3999   -6.5606   23.8150 C   0  0  0  0  0  0
  -21.3643   -5.6790   24.9121 C   0  0  0  0  0  0
  -21.6054   -4.3052   24.7203 C   0  0  0  0  0  0
  -21.8856   -3.8117   23.4339 C   0  0  0  0  0  0
  -21.9198   -4.6906   22.3379 C   0  0  0  0  0  0
  -22.7839  -13.5211   21.1801 C   0  0  0  0  0  0
  -22.1653   -4.2081   21.0959 F   0  0  0  0  0  0
  -21.5654   -3.4560   25.7741 F   0  0  0  0  0  0
  -30.0434  -13.3220   20.4681 N   0  0  0  0  0  0
  -26.3035  -12.9334   20.3489 N   0  0  0  0  0  0
  -25.9315  -11.6484   20.5833 N   0  0  0  0  0  0
  -22.0503  -12.8196   22.0350 N   0  0  0  0  0  0
  -25.4350  -15.1856   20.4039 N   0  0  0  0  0  0
  -31.8553  -14.6535   20.1010 O   0  0  0  0  0  0
  -21.6637   -6.8823   21.4191 O   0  0  0  0  0  0
  -22.3537  -14.5533   20.6652 O   0  0  0  0  0  0
  -24.6154  -31.8673   23.2109 C   0  0  0  0  0  0
  -25.9037  -32.4836   23.8432 C   0  0  1  0  0  0
  -27.2611  -27.4435   20.1341 C   0  0  0  0  0  0
  -25.5898  -33.8629   24.2382 N   0  0  0  0  0  0
  -23.4056  -30.4897   21.5467 C   0  0  2  0  0  0
  -24.8608  -28.9499   20.1177 C   0  0  0  0  0  0
  -22.7405  -29.4676   22.4981 C   0  0  0  0  0  0
  -18.0265  -28.1361   22.8516 C   0  0  0  0  0  0
  -24.1459  -36.7299   23.2653 C   0  0  0  0  0  0
  -25.9320  -30.8403   21.3609 C   0  0  0  0  0  0
  -26.0151  -29.4741   20.7115 C   0  0  0  0  0  0
  -27.2175  -28.7338   20.7057 C   0  0  0  0  0  0
  -26.0934  -26.9300   19.5239 C   0  0  0  0  0  0
  -24.8957  -27.6783   19.5129 C   0  0  0  0  0  0
  -23.6175  -29.8121   20.1645 C   0  0  0  0  0  0
  -25.4093  -36.3131   24.0362 C   0  0  1  0  0  0
  -20.5857  -28.3665   23.1291 C   0  0  2  0  0  0
  -20.6755  -26.9400   22.5390 C   0  0  0  0  0  0
  -19.5719  -26.6371   21.5212 C   0  0  0  0  0  0
  -18.1899  -26.7916   22.1627 C   0  0  0  0  0  0
  -19.1525  -28.8831   23.2909 C   0  0  0  0  0  0
  -18.9456  -30.1435   23.8922 C   0  0  0  0  0  0
  -17.6461  -30.6579   24.0573 C   0  0  0  0  0  0
  -25.9018  -34.9481   23.5177 C   0  0  0  0  0  0
  -16.5351  -29.9075   23.6353 C   0  0  0  0  0  0
  -16.7259  -28.6476   23.0400 C   0  0  0  0  0  0
  -26.4474  -31.6600   25.0756 C   0  0  0  0  0  0
  -25.3746  -31.3607   26.1496 C   0  0  0  0  0  0
  -27.0361  -30.3075   24.6120 C   0  0  0  0  0  0
  -27.6066  -32.4302   25.7515 C   0  0  0  0  0  0
  -27.5573  -37.1789   24.8481 C   0  0  0  0  0  0
  -21.4127  -29.3039   22.3694 N   0  0  0  0  0  0
  -26.4283  -37.3816   23.9433 N   0  0  0  0  0  0
  -24.6687  -31.0793   22.0993 N   0  0  0  0  0  0
  -23.4170  -28.8224   23.3039 O   0  0  0  0  0  0
  -28.4437  -26.7315   20.1731 O   0  0  0  0  0  0
  -26.5557  -34.8928   22.4718 O   0  0  0  0  0  0
  -23.5339  -32.1411   23.7515 O   0  0  0  0  0  0
  -29.5522  -19.2051   18.9931 C   0  0  0  0  0  0
  -29.4344  -16.7803   19.1388 C   0  0  0  0  0  0
  -30.2691  -18.0716   21.0401 C   0  0  0  0  0  0
  -29.2224  -17.9645   18.4179 C   0  0  0  0  0  0
  -30.0731  -19.2845   20.3014 C   0  0  0  0  0  0
  -29.9613  -16.8061   20.4476 C   0  0  0  0  0  0
  -29.6774  -24.9556   21.3556 C   0  0  0  0  0  0
  -30.9453  -21.1116   21.8350 C   0  0  0  0  0  0
  -28.6163  -17.8760   17.0331 C   0  0  0  0  0  0
  -29.6318  -21.6134   24.4523 C   0  0  0  0  0  0
  -31.4083  -23.8043   19.9815 C   0  0  0  0  0  0
  -32.0744  -23.1476   22.8509 C   0  0  0  0  0  0
  -28.3605  -25.3771   20.6567 C   0  0  0  0  0  0
  -29.6352  -22.6893   23.3458 C   0  0  0  0  0  0
  -30.2918  -23.5611   21.0210 C   0  0  1  0  0  0
  -30.7398  -22.6251   22.2385 C   0  0  2  0  0  0
  -30.2663  -20.6269   20.7789 N   0  0  0  0  0  0
  -30.0763  -15.5459   21.1296 N   0  0  0  0  0  0
  -30.2389  -25.7303   22.1370 O   0  0  0  0  0  0
  -31.7160  -20.4005   22.4875 O   0  0  0  0  0  0
  -31.4640  -12.4338   19.1315 H   0  0  0  0  0  0
  -30.3410  -11.3216   19.8689 H   0  0  0  0  0  0
  -29.7359  -11.7571   17.4681 H   0  0  0  0  0  0
  -29.6697  -13.4742   17.7676 H   0  0  0  0  0  0
  -27.7780  -11.3312   18.7795 H   0  0  0  0  0  0
  -27.3839  -12.7138   17.8003 H   0  0  0  0  0  0
  -27.6893  -14.2626   19.5989 H   0  0  0  0  0  0
  -28.6982  -11.9827   21.3689 H   0  0  0  0  0  0
  -28.4700  -13.6234   21.8884 H   0  0  0  0  0  0
  -25.2673   -9.5730   22.4739 H   0  0  0  0  0  0
  -23.9938   -7.4654   22.7491 H   0  0  0  0  0  0
  -21.0767   -8.8724   19.8916 H   0  0  0  0  0  0
  -22.3582  -10.9627   19.6147 H   0  0  0  0  0  0
  -21.1966   -7.6109   23.9607 H   0  0  0  0  0  0
  -21.1437   -6.0530   25.9012 H   0  0  0  0  0  0
  -22.0650   -2.7582   23.2880 H   0  0  0  0  0  0
  -22.4150  -11.9833   22.4694 H   0  0  0  0  0  0
  -21.1084  -13.1151   22.2508 H   0  0  0  0  0  0
  -24.6788  -15.8519   20.5211 H   0  0  0  0  0  0
  -26.2949  -15.6162   20.0883 H   0  0  0  0  0  0
  -26.7138  -32.5552   23.1229 H   0  0  0  0  0  0
  -25.0147  -33.9799   25.0601 H   0  0  0  0  0  0
  -22.6959  -31.3073   21.4011 H   0  0  0  0  0  0
  -23.3765  -35.9586   23.3330 H   0  0  0  0  0  0
  -24.3534  -36.8896   22.2062 H   0  0  0  0  0  0
  -23.7164  -37.6484   23.6656 H   0  0  0  0  0  0
  -26.0423  -31.6077   20.5934 H   0  0  0  0  0  0
  -26.8191  -30.8971   21.9798 H   0  0  0  0  0  0
  -28.1087  -29.1419   21.1594 H   0  0  0  0  0  0
  -26.1082  -25.9584   19.0503 H   0  0  0  0  0  0
  -24.0099  -27.2718   19.0463 H   0  0  0  0  0  0
  -23.7185  -30.5832   19.4001 H   0  0  0  0  0  0
  -22.7452  -29.2248   19.8744 H   0  0  0  0  0  0
  -25.1269  -36.2017   25.0857 H   0  0  0  0  0  0
  -20.9975  -28.3237   24.1400 H   0  0  0  0  0  0
  -20.5666  -26.2286   23.3591 H   0  0  0  0  0  0
  -21.6618  -26.7408   22.1194 H   0  0  0  0  0  0
  -19.6866  -25.6288   21.1240 H   0  0  0  0  0  0
  -19.6651  -27.3191   20.6748 H   0  0  0  0  0  0
  -17.4178  -26.6737   21.3998 H   0  0  0  0  0  0
  -18.0245  -26.0020   22.8960 H   0  0  0  0  0  0
  -19.7928  -30.7245   24.2309 H   0  0  0  0  0  0
  -17.5011  -31.6255   24.5170 H   0  0  0  0  0  0
  -15.5357  -30.2988   23.7634 H   0  0  0  0  0  0
  -15.8658  -28.0771   22.7152 H   0  0  0  0  0  0
  -24.5947  -30.6953   25.7775 H   0  0  0  0  0  0
  -24.8907  -32.2703   26.5048 H   0  0  0  0  0  0
  -25.8121  -30.8685   27.0193 H   0  0  0  0  0  0
  -26.2901  -29.6736   24.1326 H   0  0  0  0  0  0
  -27.4325  -29.7414   25.4555 H   0  0  0  0  0  0
  -27.8629  -30.4450   23.9152 H   0  0  0  0  0  0
  -27.2735  -33.3588   26.2158 H   0  0  0  0  0  0
  -28.3848  -32.6879   25.0318 H   0  0  0  0  0  0
  -28.0780  -31.8382   26.5363 H   0  0  0  0  0  0
  -28.2611  -38.0081   24.7610 H   0  0  0  0  0  0
  -28.1067  -36.2626   24.6259 H   0  0  0  0  0  0
  -27.2274  -37.1379   25.8878 H   0  0  0  0  0  0
  -20.9295  -29.8744   21.6900 H   0  0  0  0  0  0
  -26.0190  -38.2890   24.1485 H   0  0  0  0  0  0
  -29.3791  -20.1074   18.4257 H   0  0  0  0  0  0
  -29.1686  -15.8379   18.6802 H   0  0  0  0  0  0
  -30.6438  -18.1134   22.0543 H   0  0  0  0  0  0
  -28.0876  -18.7909   16.7688 H   0  0  0  0  0  0
  -27.8999  -17.0523   16.9905 H   0  0  0  0  0  0
  -29.3890  -17.6933   16.2858 H   0  0  0  0  0  0
  -28.8824  -21.8555   25.2058 H   0  0  0  0  0  0
  -30.5948  -21.5373   24.9562 H   0  0  0  0  0  0
  -29.3730  -20.6280   24.0603 H   0  0  0  0  0  0
  -31.0115  -24.3061   19.0958 H   0  0  0  0  0  0
  -31.8816  -22.8817   19.6513 H   0  0  0  0  0  0
  -32.1864  -24.4564   20.3816 H   0  0  0  0  0  0
  -32.3530  -22.6049   23.7556 H   0  0  0  0  0  0
  -32.0228  -24.2016   23.1256 H   0  0  0  0  0  0
  -32.9075  -23.0399   22.1541 H   0  0  0  0  0  0
  -27.5612  -25.2991   21.3966 H   0  0  0  0  0  0
  -28.1258  -24.6959   19.8420 H   0  0  0  0  0  0
  -29.7028  -23.6547   23.8504 H   0  0  0  0  0  0
  -28.6545  -22.6772   22.8678 H   0  0  0  0  0  0
  -29.4854  -23.0418   20.5073 H   0  0  0  0  0  0
  -29.8082  -21.3431   20.2362 H   0  0  0  0  0  0
  -29.2737  -15.2817   21.6830 H   0  0  0  0  0  0
  1 25  1  0  0  0
  1 30  2  0  0  0
  1 88  1  0  0  0
  2  3  1  0  0  0
  2 25  1  0  0  0
  2 91  1  0  0  0
  2 92  1  0  0  0
  3  4  1  0  0  0
  3 93  1  0  0  0
  3 94  1  0  0  0
  4  5  1  0  0  0
  4 95  1  0  0  0
  4 96  1  0  0  0
  5  6  1  0  0  0
  5 26  1  0  0  0
  5 97  1  0  0  0
  6 25  1  0  0  0
  6 98  1  0  0  0
  6 99  1  0  0  0
  7  8  2  0  0  0
  7 26  1  0  0  0
  7 29  1  0  0  0
  8  9  1  0  0  0
  8 22  1  0  0  0
  9 10  1  0  0  0
  9 27  2  0  0  0
 10 11  2  0  0  0
 10 15  1  0  0  0
 11 12  1  0  0  0
 11100  1  0  0  0
 12 13  2  0  0  0
 12101  1  0  0  0
 13 14  1  0  0  0
 13 31  1  0  0  0
 14 15  2  0  0  0
 14102  1  0  0  0
 15103  1  0  0  0
 16 17  2  0  0  0
 16 21  1  0  0  0
 16 31  1  0  0  0
 17 18  1  0  0  0
 17104  1  0  0  0
 18 19  2  0  0  0
 18105  1  0  0  0
 19 20  1  0  0  0
 19 24  1  0  0  0
 20 21  2  0  0  0
 20106  1  0  0  0
 21 23  1  0  0  0
 22 28  1  0  0  0
 22 32  2  0  0  0
 26 27  1  0  0  0
 28107  1  0  0  0
 28108  1  0  0  0
 29109  1  0  0  0
 29110  1  0  0  0
 33 34  1  0  0  0
 33 66  1  0  0  0
 33 70  2  0  0  0
 34 36  1  0  0  0
 34 59  1  0  0  0
 34111  1  0  0  0
 35 44  2  0  0  0
 35 45  1  0  0  0
 35 68  1  0  0  0
 36 56  1  0  0  0
 36112  1  0  0  0
 37 39  1  0  0  0
 37 47  1  0  0  0
 37 66  1  0  0  0
 37113  1  0  0  0
 38 43  2  0  0  0
 38 46  1  0  0  0
 38 47  1  0  0  0
 39 64  1  0  0  0
 39 67  2  0  0  0
 40 52  1  0  0  0
 40 53  2  0  0  0
 40 58  1  0  0  0
 41114  1  0  0  0
 41115  1  0  0  0
 41116  1  0  0  0
 41 48  1  0  0  0
 42 43  1  0  0  0
 42 66  1  0  0  0
 42117  1  0  0  0
 42118  1  0  0  0
 43 44  1  0  0  0
 44119  1  0  0  0
 45 46  2  0  0  0
 45120  1  0  0  0
 46121  1  0  0  0
 47122  1  0  0  0
 47123  1  0  0  0
 48 56  1  0  0  0
 48 65  1  0  0  0
 48124  1  0  0  0
 49 50  1  0  0  0
 49 53  1  0  0  0
 49 64  1  0  0  0
 49125  1  0  0  0
 50 51  1  0  0  0
 50126  1  0  0  0
 50127  1  0  0  0
 51 52  1  0  0  0
 51128  1  0  0  0
 51129  1  0  0  0
 52130  1  0  0  0
 52131  1  0  0  0
 53 54  1  0  0  0
 54 55  2  0  0  0
 54132  1  0  0  0
 55 57  1  0  0  0
 55133  1  0  0  0
 56 69  2  0  0  0
 57 58  2  0  0  0
 57134  1  0  0  0
 58135  1  0  0  0
 59 60  1  0  0  0
 59 61  1  0  0  0
 59 62  1  0  0  0
 60136  1  0  0  0
 60137  1  0  0  0
 60138  1  0  0  0
 61139  1  0  0  0
 61140  1  0  0  0
 61141  1  0  0  0
 62142  1  0  0  0
 62143  1  0  0  0
 62144  1  0  0  0
 63 65  1  0  0  0
 63145  1  0  0  0
 63146  1  0  0  0
 63147  1  0  0  0
 64148  1  0  0  0
 65149  1  0  0  0
 68 83  1  0  0  0
 71 74  2  0  0  0
 71 75  1  0  0  0
 71150  1  0  0  0
 72 74  1  0  0  0
 72 76  2  0  0  0
 72151  1  0  0  0
 73 75  2  0  0  0
 73 76  1  0  0  0
 73152  1  0  0  0
 74 79  1  0  0  0
 75 87  1  0  0  0
 76 88  1  0  0  0
 77 83  1  0  0  0
 77 85  1  0  0  0
 77 89  2  0  0  0
 78 87  1  0  0  0
 78 90  2  0  0  0
 78 86  1  0  0  0
 79153  1  0  0  0
 79154  1  0  0  0
 79155  1  0  0  0
 80 84  1  0  0  0
 80156  1  0  0  0
 80157  1  0  0  0
 80158  1  0  0  0
 81159  1  0  0  0
 81160  1  0  0  0
 81161  1  0  0  0
 81 85  1  0  0  0
 82162  1  0  0  0
 82163  1  0  0  0
 82164  1  0  0  0
 82 86  1  0  0  0
 83165  1  0  0  0
 83166  1  0  0  0
 84 86  1  0  0  0
 84167  1  0  0  0
 84168  1  0  0  0
 85 86  1  0  0  0
 85169  1  0  0  0
 87170  1  0  0  0
 88171  1  0  0  0
M  ISO  4   1 100  68 101  83 101  88 100
M  END
> <chiral flag>
0

> <version>
0

> <s_m_source_file>
/data/baiqing/PycharmProjects/Reinvent-master-3.2/result/LINK_invent/BTK/process_docking_weight1_custom_product_contain_oxygen_bond_distance_aromatic_linkinvent_7_9_3/rearranged_h_0141.sdf

> <i_m_source_file_index>
60

> <r_mmod_Potential_Energy-OPLS-2005>
62.8147659301758

> <r_mmod_Stretch_Energy-OPLS-2005>
57.7902450561523

> <r_mmod_Bend_Energy-OPLS-2005>
127.760757446289

> <r_mmod_Torsional_Energy-OPLS-2005>
283.785705566406

> <r_mmod_Improper_Torsional_Energy-OPLS-2005>
6.37199640274048

> <r_mmod_Van_der_Waal_Energy-OPLS-2005>
153.9453125

> <r_mmod_Electrostatic_Energy-OPLS-2005>
-333.617706298828

> <r_mmod_Solvation_Energy-OPLS-2005>
-248.859313964844

> <b_mmod_Minimization_Converged-OPLS-2005>
0

> <r_mmod_RMS_Derivative-OPLS-2005>
5.04216814041138

$$$$
60
                    3D
 Structure written by MMmdl.
171179  0  0  1  0            999 V2000
  -30.7121  -14.4511   20.4936 C   0  0  0  0  0  0
  -30.4097  -12.2769   19.4221 C   0  0  0  0  0  0
  -29.4939  -12.5093   18.2024 C   0  0  0  0  0  0
  -28.0116  -12.3876   18.6050 C   0  0  0  0  0  0
  -27.6601  -13.2117   19.8719 C   0  0  2  0  0  0
  -28.7034  -13.0034   20.9936 C   0  0  0  0  0  0
  -25.2565  -13.8171   20.5674 C   0  0  0  0  0  0
  -24.1836  -13.0442   20.9137 C   0  0  0  0  0  0
  -24.6391  -11.6904   20.8710 C   0  0  0  0  0  0
  -23.9067  -10.4284   21.0374 C   0  0  0  0  0  0
  -24.3623   -9.4204   21.9155 C   0  0  0  0  0  0
  -23.6305   -8.2238   22.0744 C   0  0  0  0  0  0
  -22.4281   -8.0279   21.3530 C   0  0  0  0  0  0
  -21.9907   -9.0243   20.4630 C   0  0  0  0  0  0
  -22.7230  -10.2118   20.3042 C   0  0  0  0  0  0
  -21.6871   -6.0715   22.5270 C   0  0  0  0  0  0
  -21.4009   -6.5609   23.8202 C   0  0  0  0  0  0
  -21.3674   -5.6764   24.9170 C   0  0  0  0  0  0
  -21.6065   -4.3029   24.7212 C   0  0  0  0  0  0
  -21.8824   -3.8118   23.4331 C   0  0  0  0  0  0
  -21.9190   -4.6941   22.3392 C   0  0  0  0  0  0
  -22.7854  -13.5229   21.1820 C   0  0  0  0  0  0
  -22.1666   -4.2134   21.0974 F   0  0  0  0  0  0
  -21.5662   -3.4524   25.7721 F   0  0  0  0  0  0
  -30.0388  -13.2743   20.4354 N   0  0  0  0  0  0
  -26.3025  -12.9351   20.3351 N   0  0  0  0  0  0
  -25.9328  -11.6503   20.5730 N   0  0  0  0  0  0
  -22.0504  -12.8240   22.0381 N   0  0  0  0  0  0
  -25.4242  -15.1931   20.4117 N   0  0  0  0  0  0
  -31.8907  -14.5493   20.1432 O   0  0  0  0  0  0
  -21.6663   -6.8865   21.4231 O   0  0  0  0  0  0
  -22.3522  -14.5528   20.6663 O   0  0  0  0  0  0
  -24.6135  -31.8699   23.2139 C   0  0  0  0  0  0
  -25.9023  -32.4832   23.8440 C   0  0  1  0  0  0
  -27.2319  -27.4456   20.0956 C   0  0  0  0  0  0
  -25.5911  -33.8638   24.2383 N   0  0  0  0  0  0
  -23.4016  -30.4915   21.5543 C   0  0  2  0  0  0
  -24.8486  -28.9513   20.1242 C   0  0  0  0  0  0
  -22.7424  -29.4662   22.5044 C   0  0  0  0  0  0
  -18.0308  -28.1340   22.8545 C   0  0  0  0  0  0
  -24.1493  -36.7280   23.2638 C   0  0  0  0  0  0
  -25.9306  -30.8344   21.3670 C   0  0  0  0  0  0
  -26.0074  -29.4679   20.7182 C   0  0  0  0  0  0
  -27.2064  -28.7202   20.7009 C   0  0  0  0  0  0
  -26.0568  -26.9344   19.5068 C   0  0  0  0  0  0
  -24.8648  -27.6811   19.5206 C   0  0  0  0  0  0
  -23.6127  -29.8193   20.1703 C   0  0  0  0  0  0
  -25.4106  -36.3109   24.0354 C   0  0  1  0  0  0
  -20.5912  -28.3623   23.1360 C   0  0  2  0  0  0
  -20.6789  -26.9374   22.5413 C   0  0  0  0  0  0
  -19.5724  -26.6325   21.5248 C   0  0  0  0  0  0
  -18.1925  -26.7898   22.1687 C   0  0  0  0  0  0
  -19.1554  -28.8817   23.2940 C   0  0  0  0  0  0
  -18.9455  -30.1467   23.8892 C   0  0  0  0  0  0
  -17.6433  -30.6567   24.0577 C   0  0  0  0  0  0
  -25.9034  -34.9485   23.5149 C   0  0  0  0  0  0
  -16.5347  -29.9045   23.6324 C   0  0  0  0  0  0
  -16.7293  -28.6463   23.0356 C   0  0  0  0  0  0
  -26.4451  -31.6616   25.0766 C   0  0  0  0  0  0
  -25.3720  -31.3692   26.1523 C   0  0  0  0  0  0
  -27.0297  -30.3101   24.6075 C   0  0  0  0  0  0
  -27.6066  -32.4318   25.7480 C   0  0  0  0  0  0
  -27.5572  -37.1803   24.8464 C   0  0  0  0  0  0
  -21.4155  -29.3002   22.3765 N   0  0  0  0  0  0
  -26.4291  -37.3792   23.9391 N   0  0  0  0  0  0
  -24.6664  -31.0787   22.1032 N   0  0  0  0  0  0
  -23.4219  -28.8229   23.3094 O   0  0  0  0  0  0
  -28.3904  -26.7113   20.0603 O   0  0  0  0  0  0
  -26.5586  -34.8928   22.4697 O   0  0  0  0  0  0
  -23.5344  -32.1504   23.7517 O   0  0  0  0  0  0
  -30.0611  -19.4140   18.9922 C   0  0  0  0  0  0
  -28.9164  -17.6847   20.2792 C   0  0  0  0  0  0
  -31.1984  -17.3258   19.5226 C   0  0  0  0  0  0
  -28.9153  -18.9719   19.6892 C   0  0  0  0  0  0
  -31.2062  -18.5972   18.9162 C   0  0  0  0  0  0
  -30.0468  -16.8372   20.1940 C   0  0  0  0  0  0
  -27.9194  -20.9923   20.5666 C   0  0  0  0  0  0
  -27.7420  -19.8545   19.8483 C   0  0  0  0  0  0
  -28.0082  -24.3317   20.6210 C   0  0  0  0  0  0
  -32.4542  -19.0815   18.2005 C   0  0  0  0  0  0
  -25.3069  -20.3225   18.9259 C   0  0  0  0  0  0
  -28.4940  -23.0308   22.7574 C   0  0  0  0  0  0
  -26.2261  -24.0272   22.3815 C   0  0  0  0  0  0
  -26.8915  -22.0325   21.0216 C   0  0  0  0  0  0
  -26.4628  -19.3381   19.1664 C   0  0  0  0  0  0
  -28.4851  -25.7227   21.0932 C   0  0  0  0  0  0
  -27.4292  -23.3475   21.6809 C   0  0  0  0  0  0
  -29.9562  -15.5285   20.7771 N   0  0  0  0  0  0
  -28.0854  -24.0220   19.4290 O   0  0  0  0  0  0
  -31.4550  -12.3513   19.1208 H   0  0  0  0  0  0
  -30.2811  -11.2689   19.8202 H   0  0  0  0  0  0
  -29.7345  -11.8007   17.4087 H   0  0  0  0  0  0
  -29.6785  -13.4992   17.7861 H   0  0  0  0  0  0
  -27.7950  -11.3347   18.7776 H   0  0  0  0  0  0
  -27.3800  -12.6996   17.7708 H   0  0  0  0  0  0
  -27.6967  -14.2587   19.5774 H   0  0  0  0  0  0
  -28.6712  -11.9786   21.3681 H   0  0  0  0  0  0
  -28.4876  -13.6391   21.8520 H   0  0  0  0  0  0
  -25.2774   -9.5732   22.4704 H   0  0  0  0  0  0
  -24.0044   -7.4657   22.7478 H   0  0  0  0  0  0
  -21.0841   -8.8736   19.8959 H   0  0  0  0  0  0
  -22.3664  -10.9652   19.6158 H   0  0  0  0  0  0
  -21.1987   -7.6112   23.9709 H   0  0  0  0  0  0
  -21.1518   -6.0483   25.9075 H   0  0  0  0  0  0
  -22.0599   -2.7581   23.2832 H   0  0  0  0  0  0
  -22.4113  -11.9930   22.4829 H   0  0  0  0  0  0
  -21.1131  -13.1289   22.2575 H   0  0  0  0  0  0
  -24.6484  -15.8398   20.5111 H   0  0  0  0  0  0
  -26.2739  -15.6406   20.0909 H   0  0  0  0  0  0
  -26.7090  -32.5566   23.1210 H   0  0  0  0  0  0
  -25.0110  -33.9815   25.0572 H   0  0  0  0  0  0
  -22.6910  -31.3100   21.4131 H   0  0  0  0  0  0
  -23.3773  -35.9597   23.3323 H   0  0  0  0  0  0
  -24.3618  -36.8867   22.2050 H   0  0  0  0  0  0
  -23.7230  -37.6480   23.6649 H   0  0  0  0  0  0
  -26.0435  -31.5988   20.5975 H   0  0  0  0  0  0
  -26.8171  -30.8907   21.9868 H   0  0  0  0  0  0
  -28.1091  -29.1173   21.1449 H   0  0  0  0  0  0
  -26.0623  -25.9654   19.0324 H   0  0  0  0  0  0
  -23.9683  -27.2778   19.0737 H   0  0  0  0  0  0
  -23.7320  -30.5933   19.4115 H   0  0  0  0  0  0
  -22.7350  -29.2429   19.8729 H   0  0  0  0  0  0
  -25.1295  -36.1964   25.0858 H   0  0  0  0  0  0
  -21.0032  -28.3131   24.1470 H   0  0  0  0  0  0
  -20.5714  -26.2227   23.3601 H   0  0  0  0  0  0
  -21.6656  -26.7421   22.1197 H   0  0  0  0  0  0
  -19.6862  -25.6210   21.1313 H   0  0  0  0  0  0
  -19.6620  -27.3123   20.6776 H   0  0  0  0  0  0
  -17.4193  -26.6709   21.4083 H   0  0  0  0  0  0
  -18.0291  -26.0033   22.9065 H   0  0  0  0  0  0
  -19.7919  -30.7342   24.2192 H   0  0  0  0  0  0
  -17.4981  -31.6260   24.5145 H   0  0  0  0  0  0
  -15.5347  -30.2925   23.7628 H   0  0  0  0  0  0
  -15.8734  -28.0778   22.7011 H   0  0  0  0  0  0
  -24.5913  -30.7010   25.7835 H   0  0  0  0  0  0
  -24.8874  -32.2843   26.4975 H   0  0  0  0  0  0
  -25.8105  -30.8864   27.0273 H   0  0  0  0  0  0
  -26.2845  -29.6858   24.1141 H   0  0  0  0  0  0
  -27.4144  -29.7331   25.4472 H   0  0  0  0  0  0
  -27.8632  -30.4473   23.9189 H   0  0  0  0  0  0
  -27.2750  -33.3639   26.2064 H   0  0  0  0  0  0
  -28.3858  -32.6836   25.0268 H   0  0  0  0  0  0
  -28.0751  -31.8426   26.5373 H   0  0  0  0  0  0
  -28.2604  -38.0090   24.7565 H   0  0  0  0  0  0
  -28.1095  -36.2650   24.6279 H   0  0  0  0  0  0
  -27.2337  -37.1416   25.8885 H   0  0  0  0  0  0
  -20.9319  -29.8700   21.6961 H   0  0  0  0  0  0
  -26.0191  -38.2862   24.1437 H   0  0  0  0  0  0
  -30.0689  -20.3918   18.5278 H   0  0  0  0  0  0
  -28.0377  -17.3532   20.8174 H   0  0  0  0  0  0
  -32.1030  -16.7467   19.4498 H   0  0  0  0  0  0
  -28.9232  -21.1709   20.9216 H   0  0  0  0  0  0
  -32.1997  -19.5746   17.2622 H   0  0  0  0  0  0
  -33.1275  -18.2519   17.9761 H   0  0  0  0  0  0
  -33.0005  -19.7941   18.8206 H   0  0  0  0  0  0
  -25.6317  -21.2127   18.3835 H   0  0  0  0  0  0
  -24.8255  -20.6232   19.8571 H   0  0  0  0  0  0
  -24.5333  -19.8495   18.3210 H   0  0  0  0  0  0
  -28.7281  -23.8993   23.3714 H   0  0  0  0  0  0
  -29.4407  -22.7059   22.3257 H   0  0  0  0  0  0
  -28.1527  -22.2397   23.4259 H   0  0  0  0  0  0
  -26.5416  -24.8363   23.0381 H   0  0  0  0  0  0
  -25.6724  -23.3238   23.0087 H   0  0  0  0  0  0
  -25.5186  -24.4483   21.6642 H   0  0  0  0  0  0
  -26.2426  -21.5093   21.7248 H   0  0  0  0  0  0
  -26.2575  -22.3265   20.1911 H   0  0  0  0  0  0
  -26.0934  -18.4589   19.6972 H   0  0  0  0  0  0
  -26.7605  -18.9798   18.1782 H   0  0  0  0  0  0
  -29.5299  -25.6289   21.3846 H   0  0  0  0  0  0
  -27.9448  -26.0493   21.9807 H   0  0  0  0  0  0
  -29.0627  -15.2970   21.1809 H   0  0  0  0  0  0
  1 25  1  0  0  0
  1 30  2  0  0  0
  1 88  1  0  0  0
  2  3  1  0  0  0
  2 25  1  0  0  0
  2 90  1  0  0  0
  2 91  1  0  0  0
  3  4  1  0  0  0
  3 92  1  0  0  0
  3 93  1  0  0  0
  4  5  1  0  0  0
  4 94  1  0  0  0
  4 95  1  0  0  0
  5  6  1  0  0  0
  5 26  1  0  0  0
  5 96  1  0  0  0
  6 25  1  0  0  0
  6 97  1  0  0  0
  6 98  1  0  0  0
  7  8  2  0  0  0
  7 26  1  0  0  0
  7 29  1  0  0  0
  8  9  1  0  0  0
  8 22  1  0  0  0
  9 10  1  0  0  0
  9 27  2  0  0  0
 10 11  2  0  0  0
 10 15  1  0  0  0
 11 12  1  0  0  0
 11 99  1  0  0  0
 12 13  2  0  0  0
 12100  1  0  0  0
 13 14  1  0  0  0
 13 31  1  0  0  0
 14 15  2  0  0  0
 14101  1  0  0  0
 15102  1  0  0  0
 16 17  2  0  0  0
 16 21  1  0  0  0
 16 31  1  0  0  0
 17 18  1  0  0  0
 17103  1  0  0  0
 18 19  2  0  0  0
 18104  1  0  0  0
 19 20  1  0  0  0
 19 24  1  0  0  0
 20 21  2  0  0  0
 20105  1  0  0  0
 21 23  1  0  0  0
 22 28  1  0  0  0
 22 32  2  0  0  0
 26 27  1  0  0  0
 28106  1  0  0  0
 28107  1  0  0  0
 29108  1  0  0  0
 29109  1  0  0  0
 33 34  1  0  0  0
 33 66  1  0  0  0
 33 70  2  0  0  0
 34 36  1  0  0  0
 34 59  1  0  0  0
 34110  1  0  0  0
 35 44  2  0  0  0
 35 45  1  0  0  0
 35 68  1  0  0  0
 36 56  1  0  0  0
 36111  1  0  0  0
 37 39  1  0  0  0
 37 47  1  0  0  0
 37 66  1  0  0  0
 37112  1  0  0  0
 38 43  2  0  0  0
 38 46  1  0  0  0
 38 47  1  0  0  0
 39 64  1  0  0  0
 39 67  2  0  0  0
 40 52  1  0  0  0
 40 53  2  0  0  0
 40 58  1  0  0  0
 41113  1  0  0  0
 41114  1  0  0  0
 41115  1  0  0  0
 41 48  1  0  0  0
 42 43  1  0  0  0
 42 66  1  0  0  0
 42116  1  0  0  0
 42117  1  0  0  0
 43 44  1  0  0  0
 44118  1  0  0  0
 45 46  2  0  0  0
 45119  1  0  0  0
 46120  1  0  0  0
 47121  1  0  0  0
 47122  1  0  0  0
 48 56  1  0  0  0
 48 65  1  0  0  0
 48123  1  0  0  0
 49 50  1  0  0  0
 49 53  1  0  0  0
 49 64  1  0  0  0
 49124  1  0  0  0
 50 51  1  0  0  0
 50125  1  0  0  0
 50126  1  0  0  0
 51 52  1  0  0  0
 51127  1  0  0  0
 51128  1  0  0  0
 52129  1  0  0  0
 52130  1  0  0  0
 53 54  1  0  0  0
 54 55  2  0  0  0
 54131  1  0  0  0
 55 57  1  0  0  0
 55132  1  0  0  0
 56 69  2  0  0  0
 57 58  2  0  0  0
 57133  1  0  0  0
 58134  1  0  0  0
 59 60  1  0  0  0
 59 61  1  0  0  0
 59 62  1  0  0  0
 60135  1  0  0  0
 60136  1  0  0  0
 60137  1  0  0  0
 61138  1  0  0  0
 61139  1  0  0  0
 61140  1  0  0  0
 62141  1  0  0  0
 62142  1  0  0  0
 62143  1  0  0  0
 63 65  1  0  0  0
 63144  1  0  0  0
 63145  1  0  0  0
 63146  1  0  0  0
 64147  1  0  0  0
 65148  1  0  0  0
 68 86  1  0  0  0
 71 74  2  0  0  0
 71 75  1  0  0  0
 71149  1  0  0  0
 72 74  1  0  0  0
 72 76  2  0  0  0
 72150  1  0  0  0
 73 75  2  0  0  0
 73 76  1  0  0  0
 73151  1  0  0  0
 74 78  1  0  0  0
 75 80  1  0  0  0
 76 88  1  0  0  0
 77 78  2  0  0  0
 77 84  1  0  0  0
 77152  1  0  0  0
 78 85  1  0  0  0
 79 86  1  0  0  0
 79 87  1  0  0  0
 79 89  2  0  0  0
 80153  1  0  0  0
 80154  1  0  0  0
 80155  1  0  0  0
 81 85  1  0  0  0
 81156  1  0  0  0
 81157  1  0  0  0
 81158  1  0  0  0
 82159  1  0  0  0
 82160  1  0  0  0
 82161  1  0  0  0
 82 87  1  0  0  0
 83 87  1  0  0  0
 83162  1  0  0  0
 83163  1  0  0  0
 83164  1  0  0  0
 84 87  1  0  0  0
 84165  1  0  0  0
 84166  1  0  0  0
 85167  1  0  0  0
 85168  1  0  0  0
 86169  1  0  0  0
 86170  1  0  0  0
 88171  1  0  0  0
M  ISO  4   1 100  68 101  86 101  88 100
M  END
> <chiral flag>
0

> <version>
0

> <s_m_source_file>
/data/baiqing/PycharmProjects/Reinvent-master-3.2/result/LINK_invent/BTK/process_docking_weight1_custom_product_contain_oxygen_bond_distance_aromatic_linkinvent_7_9_3/rearranged_h_0141.sdf

> <i_m_source_file_index>
61

> <r_mmod_Potential_Energy-OPLS-2005>
96.3176422119141

> <r_mmod_Stretch_Energy-OPLS-2005>
41.5912475585938

> <r_mmod_Bend_Energy-OPLS-2005>
114.570983886719

> <r_mmod_Torsional_Energy-OPLS-2005>
282.688018798828

> <r_mmod_Improper_Torsional_Energy-OPLS-2005>
6.0870246887207

> <r_mmod_Van_der_Waal_Energy-OPLS-2005>
159.05192565918

> <r_mmod_Electrostatic_Energy-OPLS-2005>
-320.689575195312

> <r_mmod_Solvation_Energy-OPLS-2005>
-202.600860595703

> <b_mmod_Minimization_Converged-OPLS-2005>
0

> <r_mmod_RMS_Derivative-OPLS-2005>
5.0935173034668

$$$$
61
                    3D
 Structure written by MMmdl.
166174  0  0  1  0            999 V2000
  -30.7407  -14.4846   20.5821 C   0  0  0  0  0  0
  -30.4284  -12.3120   19.4513 C   0  0  0  0  0  0
  -29.5038  -12.4703   18.2312 C   0  0  0  0  0  0
  -28.0274  -12.3290   18.6467 C   0  0  0  0  0  0
  -27.6628  -13.2067   19.8725 C   0  0  2  0  0  0
  -28.7031  -13.0433   21.0065 C   0  0  0  0  0  0
  -25.2609  -13.8153   20.5664 C   0  0  0  0  0  0
  -24.1858  -13.0426   20.9187 C   0  0  0  0  0  0
  -24.6409  -11.6885   20.8735 C   0  0  0  0  0  0
  -23.9049  -10.4282   21.0402 C   0  0  0  0  0  0
  -24.3606   -9.4219   21.9177 C   0  0  0  0  0  0
  -23.6296   -8.2248   22.0762 C   0  0  0  0  0  0
  -22.4272   -8.0271   21.3545 C   0  0  0  0  0  0
  -21.9892   -9.0254   20.4650 C   0  0  0  0  0  0
  -22.7218  -10.2146   20.3058 C   0  0  0  0  0  0
  -21.6861   -6.0717   22.5273 C   0  0  0  0  0  0
  -21.4017   -6.5638   23.8200 C   0  0  0  0  0  0
  -21.3668   -5.6804   24.9175 C   0  0  0  0  0  0
  -21.6052   -4.3064   24.7235 C   0  0  0  0  0  0
  -21.8829   -3.8134   23.4361 C   0  0  0  0  0  0
  -21.9208   -4.6943   22.3405 C   0  0  0  0  0  0
  -22.7906  -13.5280   21.1866 C   0  0  0  0  0  0
  -22.1673   -4.2138   21.0990 F   0  0  0  0  0  0
  -21.5645   -3.4557   25.7748 F   0  0  0  0  0  0
  -30.0359  -13.3260   20.4451 N   0  0  0  0  0  0
  -26.3043  -12.9310   20.3370 N   0  0  0  0  0  0
  -25.9358  -11.6479   20.5811 N   0  0  0  0  0  0
  -22.0528  -12.8260   22.0424 N   0  0  0  0  0  0
  -25.4388  -15.1847   20.4039 N   0  0  0  0  0  0
  -31.8731  -14.6205   20.1083 O   0  0  0  0  0  0
  -21.6648   -6.8850   21.4223 O   0  0  0  0  0  0
  -22.3631  -14.5588   20.6706 O   0  0  0  0  0  0
  -24.6171  -31.8643   23.2121 C   0  0  0  0  0  0
  -25.9043  -32.4816   23.8387 C   0  0  1  0  0  0
  -27.2391  -27.4174   20.0746 C   0  0  0  0  0  0
  -25.5860  -33.8614   24.2303 N   0  0  0  0  0  0
  -23.4045  -30.4923   21.5505 C   0  0  2  0  0  0
  -24.8533  -28.9678   20.1033 C   0  0  0  0  0  0
  -22.7423  -29.4633   22.4962 C   0  0  0  0  0  0
  -18.0266  -28.1369   22.8476 C   0  0  0  0  0  0
  -24.1486  -36.7366   23.2634 C   0  0  0  0  0  0
  -25.9361  -30.8218   21.3690 C   0  0  0  0  0  0
  -26.0132  -29.4554   20.7181 C   0  0  0  0  0  0
  -27.1993  -28.6806   20.7180 C   0  0  0  0  0  0
  -26.0635  -26.9777   19.4161 C   0  0  0  0  0  0
  -24.8763  -27.7292   19.4482 C   0  0  0  0  0  0
  -23.6135  -29.8302   20.1629 C   0  0  0  0  0  0
  -25.4104  -36.3120   24.0323 C   0  0  1  0  0  0
  -20.5872  -28.3660   23.1303 C   0  0  2  0  0  0
  -20.6772  -26.9385   22.5431 C   0  0  0  0  0  0
  -19.5754  -26.6373   21.5229 C   0  0  0  0  0  0
  -18.1917  -26.7914   22.1618 C   0  0  0  0  0  0
  -19.1524  -28.8830   23.2894 C   0  0  0  0  0  0
  -18.9444  -30.1437   23.8912 C   0  0  0  0  0  0
  -17.6443  -30.6576   24.0562 C   0  0  0  0  0  0
  -25.9017  -34.9479   23.5116 C   0  0  0  0  0  0
  -16.5334  -29.9074   23.6313 C   0  0  0  0  0  0
  -16.7256  -28.6497   23.0325 C   0  0  0  0  0  0
  -26.4502  -31.6606   25.0714 C   0  0  0  0  0  0
  -25.3784  -31.3721   26.1486 C   0  0  0  0  0  0
  -27.0349  -30.3049   24.6067 C   0  0  0  0  0  0
  -27.6064  -32.4379   25.7432 C   0  0  0  0  0  0
  -27.5585  -37.1837   24.8440 C   0  0  0  0  0  0
  -21.4149  -29.3027   22.3712 N   0  0  0  0  0  0
  -26.4292  -37.3810   23.9382 N   0  0  0  0  0  0
  -24.6713  -31.0719   22.1033 N   0  0  0  0  0  0
  -23.4193  -28.8181   23.3019 O   0  0  0  0  0  0
  -28.4229  -26.6901   20.1056 O   0  0  0  0  0  0
  -26.5607  -34.8931   22.4684 O   0  0  0  0  0  0
  -23.5358  -32.1380   23.7518 O   0  0  0  0  0  0
  -32.3815  -18.3978   22.0045 C   0  0  0  0  0  0
  -31.5484  -19.5042   21.7540 C   0  0  0  0  0  0
  -31.9114  -17.0862   21.7964 C   0  0  0  0  0  0
  -29.7579  -17.9836   21.0977 C   0  0  0  0  0  0
  -30.2209  -19.3101   21.3118 C   0  0  0  0  0  0
  -30.5964  -16.8603   21.3270 C   0  0  0  0  0  0
  -28.7658  -24.2645   20.6437 C   0  0  0  0  0  0
  -27.8424  -23.5992   21.3824 C   0  0  0  0  0  0
  -26.3562  -23.9063   21.2603 C   0  0  0  0  0  0
  -28.5352  -23.3699   23.7269 C   0  0  0  0  0  0
  -27.0004  -21.6286   22.8192 C   0  0  0  0  0  0
  -29.3039  -20.5215   21.0746 C   0  0  0  0  0  0
  -28.5194  -25.3443   19.5777 C   0  0  0  0  0  0
  -29.4316  -21.6269   22.1635 C   0  0  0  0  0  0
  -28.1989  -22.5473   22.4645 C   0  0  0  0  0  0
  -30.0861  -15.5325   21.1267 N   0  0  0  0  0  0
  -31.4731  -12.3966   19.1474 H   0  0  0  0  0  0
  -30.3373  -11.3126   19.8798 H   0  0  0  0  0  0
  -29.7467  -11.7147   17.4857 H   0  0  0  0  0  0
  -29.6800  -13.4383   17.7613 H   0  0  0  0  0  0
  -27.8555  -11.2773   18.8850 H   0  0  0  0  0  0
  -27.3720  -12.5569   17.8052 H   0  0  0  0  0  0
  -27.6936  -14.2430   19.5312 H   0  0  0  0  0  0
  -28.4606  -13.6953   21.8467 H   0  0  0  0  0  0
  -28.6809  -12.0294   21.4098 H   0  0  0  0  0  0
  -25.2751   -9.5738   22.4749 H   0  0  0  0  0  0
  -24.0026   -7.4651   22.7494 H   0  0  0  0  0  0
  -21.0817   -8.8756   19.8952 H   0  0  0  0  0  0
  -22.3645  -10.9686   19.6182 H   0  0  0  0  0  0
  -21.1979   -7.6140   23.9701 H   0  0  0  0  0  0
  -21.1488   -6.0528   25.9083 H   0  0  0  0  0  0
  -22.0585   -2.7598   23.2873 H   0  0  0  0  0  0
  -22.4157  -11.9973   22.4871 H   0  0  0  0  0  0
  -21.1130  -13.1279   22.2554 H   0  0  0  0  0  0
  -26.3013  -15.6137   20.0936 H   0  0  0  0  0  0
  -24.6732  -15.8449   20.4748 H   0  0  0  0  0  0
  -26.7110  -32.5532   23.1153 H   0  0  0  0  0  0
  -24.9944  -33.9752   25.0402 H   0  0  0  0  0  0
  -22.6924  -31.3103   21.4124 H   0  0  0  0  0  0
  -23.3730  -35.9730   23.3306 H   0  0  0  0  0  0
  -24.3598  -36.8984   22.2059 H   0  0  0  0  0  0
  -23.7271  -37.6580   23.6660 H   0  0  0  0  0  0
  -26.0361  -31.5836   20.5957 H   0  0  0  0  0  0
  -26.8306  -30.8873   21.9748 H   0  0  0  0  0  0
  -28.0904  -29.0510   21.2107 H   0  0  0  0  0  0
  -26.0190  -26.0640   18.8472 H   0  0  0  0  0  0
  -23.9978  -27.3660   18.9314 H   0  0  0  0  0  0
  -23.7068  -30.6018   19.3982 H   0  0  0  0  0  0
  -22.7403  -29.2410   19.8766 H   0  0  0  0  0  0
  -25.1299  -36.2004   25.0824 H   0  0  0  0  0  0
  -20.9952  -28.3250   24.1435 H   0  0  0  0  0  0
  -20.5681  -26.2270   23.3636 H   0  0  0  0  0  0
  -21.6635  -26.7429   22.1228 H   0  0  0  0  0  0
  -19.6925  -25.6298   21.1222 H   0  0  0  0  0  0
  -19.6704  -27.3219   20.6793 H   0  0  0  0  0  0
  -17.4203  -26.6662   21.4001 H   0  0  0  0  0  0
  -18.0298  -26.0054   22.9013 H   0  0  0  0  0  0
  -19.7919  -30.7247   24.2285 H   0  0  0  0  0  0
  -17.4992  -31.6246   24.5175 H   0  0  0  0  0  0
  -15.5332  -30.2979   23.7639 H   0  0  0  0  0  0
  -15.8652  -28.0840   22.7001 H   0  0  0  0  0  0
  -24.5905  -30.7118   25.7833 H   0  0  0  0  0  0
  -24.9054  -32.2900   26.4987 H   0  0  0  0  0  0
  -25.8154  -30.8840   27.0200 H   0  0  0  0  0  0
  -26.2881  -29.6795   24.1151 H   0  0  0  0  0  0
  -27.4184  -29.7298   25.4509 H   0  0  0  0  0  0
  -27.8693  -30.4417   23.9177 H   0  0  0  0  0  0
  -27.2629  -33.3649   26.2046 H   0  0  0  0  0  0
  -28.3804  -32.7008   25.0201 H   0  0  0  0  0  0
  -28.0821  -31.8511   26.5301 H   0  0  0  0  0  0
  -28.2598  -38.0134   24.7481 H   0  0  0  0  0  0
  -28.1067  -36.2664   24.6269 H   0  0  0  0  0  0
  -27.2288  -37.1502   25.8832 H   0  0  0  0  0  0
  -20.9319  -29.8767   21.6942 H   0  0  0  0  0  0
  -26.0194  -38.2889   24.1382 H   0  0  0  0  0  0
  -33.3865  -18.5589   22.3664 H   0  0  0  0  0  0
  -31.9332  -20.5019   21.9277 H   0  0  0  0  0  0
  -32.5782  -16.2601   22.0114 H   0  0  0  0  0  0
  -28.7481  -17.8250   20.7485 H   0  0  0  0  0  0
  -29.8107  -24.0367   20.7984 H   0  0  0  0  0  0
  -25.7911  -23.0619   20.8682 H   0  0  0  0  0  0
  -26.1554  -24.7439   20.6119 H   0  0  0  0  0  0
  -25.9563  -24.1794   22.2377 H   0  0  0  0  0  0
  -27.7091  -24.0295   23.9961 H   0  0  0  0  0  0
  -29.4041  -24.0089   23.5659 H   0  0  0  0  0  0
  -28.7482  -22.7348   24.5893 H   0  0  0  0  0  0
  -26.1808  -22.1761   23.2841 H   0  0  0  0  0  0
  -27.2881  -20.8485   23.5248 H   0  0  0  0  0  0
  -26.5877  -21.1335   21.9425 H   0  0  0  0  0  0
  -28.2888  -20.1392   21.0212 H   0  0  0  0  0  0
  -29.5153  -20.9527   20.0960 H   0  0  0  0  0  0
  -27.7229  -25.0358   18.9095 H   0  0  0  0  0  0
  -29.3958  -25.3359   18.9276 H   0  0  0  0  0  0
  -30.3344  -22.2124   21.9887 H   0  0  0  0  0  0
  -29.6377  -21.0953   23.0950 H   0  0  0  0  0  0
  -29.1101  -15.3854   21.3348 H   0  0  0  0  0  0
  1 25  1  0  0  0
  1 30  2  0  0  0
  1 86  1  0  0  0
  2  3  1  0  0  0
  2 25  1  0  0  0
  2 87  1  0  0  0
  2 88  1  0  0  0
  3  4  1  0  0  0
  3 89  1  0  0  0
  3 90  1  0  0  0
  4  5  1  0  0  0
  4 91  1  0  0  0
  4 92  1  0  0  0
  5  6  1  0  0  0
  5 26  1  0  0  0
  5 93  1  0  0  0
  6 25  1  0  0  0
  6 94  1  0  0  0
  6 95  1  0  0  0
  7  8  2  0  0  0
  7 26  1  0  0  0
  7 29  1  0  0  0
  8  9  1  0  0  0
  8 22  1  0  0  0
  9 10  1  0  0  0
  9 27  2  0  0  0
 10 11  2  0  0  0
 10 15  1  0  0  0
 11 12  1  0  0  0
 11 96  1  0  0  0
 12 13  2  0  0  0
 12 97  1  0  0  0
 13 14  1  0  0  0
 13 31  1  0  0  0
 14 15  2  0  0  0
 14 98  1  0  0  0
 15 99  1  0  0  0
 16 17  2  0  0  0
 16 21  1  0  0  0
 16 31  1  0  0  0
 17 18  1  0  0  0
 17100  1  0  0  0
 18 19  2  0  0  0
 18101  1  0  0  0
 19 20  1  0  0  0
 19 24  1  0  0  0
 20 21  2  0  0  0
 20102  1  0  0  0
 21 23  1  0  0  0
 22 28  1  0  0  0
 22 32  2  0  0  0
 26 27  1  0  0  0
 28103  1  0  0  0
 28104  1  0  0  0
 29105  1  0  0  0
 29106  1  0  0  0
 33 34  1  0  0  0
 33 66  1  0  0  0
 33 70  2  0  0  0
 34 36  1  0  0  0
 34 59  1  0  0  0
 34107  1  0  0  0
 35 44  2  0  0  0
 35 45  1  0  0  0
 35 68  1  0  0  0
 36 56  1  0  0  0
 36108  1  0  0  0
 37 39  1  0  0  0
 37 47  1  0  0  0
 37 66  1  0  0  0
 37109  1  0  0  0
 38 43  2  0  0  0
 38 46  1  0  0  0
 38 47  1  0  0  0
 39 64  1  0  0  0
 39 67  2  0  0  0
 40 52  1  0  0  0
 40 53  2  0  0  0
 40 58  1  0  0  0
 41110  1  0  0  0
 41111  1  0  0  0
 41112  1  0  0  0
 41 48  1  0  0  0
 42 43  1  0  0  0
 42 66  1  0  0  0
 42113  1  0  0  0
 42114  1  0  0  0
 43 44  1  0  0  0
 44115  1  0  0  0
 45 46  2  0  0  0
 45116  1  0  0  0
 46117  1  0  0  0
 47118  1  0  0  0
 47119  1  0  0  0
 48 56  1  0  0  0
 48 65  1  0  0  0
 48120  1  0  0  0
 49 50  1  0  0  0
 49 53  1  0  0  0
 49 64  1  0  0  0
 49121  1  0  0  0
 50 51  1  0  0  0
 50122  1  0  0  0
 50123  1  0  0  0
 51 52  1  0  0  0
 51124  1  0  0  0
 51125  1  0  0  0
 52126  1  0  0  0
 52127  1  0  0  0
 53 54  1  0  0  0
 54 55  2  0  0  0
 54128  1  0  0  0
 55 57  1  0  0  0
 55129  1  0  0  0
 56 69  2  0  0  0
 57 58  2  0  0  0
 57130  1  0  0  0
 58131  1  0  0  0
 59 60  1  0  0  0
 59 61  1  0  0  0
 59 62  1  0  0  0
 60132  1  0  0  0
 60133  1  0  0  0
 60134  1  0  0  0
 61135  1  0  0  0
 61136  1  0  0  0
 61137  1  0  0  0
 62138  1  0  0  0
 62139  1  0  0  0
 62140  1  0  0  0
 63 65  1  0  0  0
 63141  1  0  0  0
 63142  1  0  0  0
 63143  1  0  0  0
 64144  1  0  0  0
 65145  1  0  0  0
 68 83  1  0  0  0
 71 72  2  0  0  0
 71 73  1  0  0  0
 71146  1  0  0  0
 72 75  1  0  0  0
 72147  1  0  0  0
 73 76  2  0  0  0
 73148  1  0  0  0
 74 75  2  0  0  0
 74 76  1  0  0  0
 74149  1  0  0  0
 75 82  1  0  0  0
 76 86  1  0  0  0
 77 78  2  0  0  0
 77 83  1  0  0  0
 77150  1  0  0  0
 78 79  1  0  0  0
 78 85  1  0  0  0
 79151  1  0  0  0
 79152  1  0  0  0
 79153  1  0  0  0
 80154  1  0  0  0
 80155  1  0  0  0
 80156  1  0  0  0
 80 85  1  0  0  0
 81 85  1  0  0  0
 81157  1  0  0  0
 81158  1  0  0  0
 81159  1  0  0  0
 82 84  1  0  0  0
 82160  1  0  0  0
 82161  1  0  0  0
 83162  1  0  0  0
 83163  1  0  0  0
 84 85  1  0  0  0
 84164  1  0  0  0
 84165  1  0  0  0
 86166  1  0  0  0
M  ISO  4   1 100  68 101  83 101  86 100
M  END
> <chiral flag>
0

> <version>
0

> <s_m_source_file>
/data/baiqing/PycharmProjects/Reinvent-master-3.2/result/LINK_invent/BTK/process_docking_weight1_custom_product_contain_oxygen_bond_distance_aromatic_linkinvent_7_9_3/rearranged_h_0141.sdf

> <i_m_source_file_index>
62

> <r_mmod_Potential_Energy-OPLS-2005>
9.07580471038818

> <r_mmod_Stretch_Energy-OPLS-2005>
47.3241996765137

> <r_mmod_Bend_Energy-OPLS-2005>
126.514923095703

> <r_mmod_Torsional_Energy-OPLS-2005>
229.440658569336

> <r_mmod_Improper_Torsional_Energy-OPLS-2005>
3.76526880264282

> <r_mmod_Van_der_Waal_Energy-OPLS-2005>
171.003311157227

> <r_mmod_Electrostatic_Energy-OPLS-2005>
-395.099945068359

> <r_mmod_Solvation_Energy-OPLS-2005>
-192.395706176758

> <b_mmod_Minimization_Converged-OPLS-2005>
0

> <r_mmod_RMS_Derivative-OPLS-2005>
4.6408052444458

$$$$
62
                    3D
 Structure written by MMmdl.
165173  0  0  1  0            999 V2000
  -30.7043  -14.4067   20.6080 C   0  0  0  0  0  0
  -30.4236  -12.2756   19.3997 C   0  0  0  0  0  0
  -29.4935  -12.5163   18.1924 C   0  0  0  0  0  0
  -28.0107  -12.3826   18.5993 C   0  0  0  0  0  0
  -27.6655  -13.1895   19.8802 C   0  0  2  0  0  0
  -28.7044  -12.9127   20.9873 C   0  0  0  0  0  0
  -25.2621  -13.8123   20.5662 C   0  0  0  0  0  0
  -24.1840  -13.0434   20.9146 C   0  0  0  0  0  0
  -24.6360  -11.6892   20.8707 C   0  0  0  0  0  0
  -23.9023  -10.4292   21.0388 C   0  0  0  0  0  0
  -24.3590   -9.4216   21.9167 C   0  0  0  0  0  0
  -23.6284   -8.2242   22.0738 C   0  0  0  0  0  0
  -22.4264   -8.0272   21.3534 C   0  0  0  0  0  0
  -21.9885   -9.0236   20.4636 C   0  0  0  0  0  0
  -22.7199  -10.2122   20.3038 C   0  0  0  0  0  0
  -21.6855   -6.0731   22.5281 C   0  0  0  0  0  0
  -21.4016   -6.5634   23.8214 C   0  0  0  0  0  0
  -21.3653   -5.6783   24.9172 C   0  0  0  0  0  0
  -21.6046   -4.3048   24.7227 C   0  0  0  0  0  0
  -21.8818   -3.8143   23.4346 C   0  0  0  0  0  0
  -21.9192   -4.6960   22.3401 C   0  0  0  0  0  0
  -22.7868  -13.5259   21.1819 C   0  0  0  0  0  0
  -22.1661   -4.2146   21.0981 F   0  0  0  0  0  0
  -21.5626   -3.4530   25.7739 F   0  0  0  0  0  0
  -30.0419  -13.2289   20.4496 N   0  0  0  0  0  0
  -26.3034  -12.9250   20.3366 N   0  0  0  0  0  0
  -25.9279  -11.6428   20.5728 N   0  0  0  0  0  0
  -22.0491  -12.8268   22.0377 N   0  0  0  0  0  0
  -25.4413  -15.1838   20.4103 N   0  0  0  0  0  0
  -31.8292  -14.6035   20.1179 O   0  0  0  0  0  0
  -21.6633   -6.8871   21.4239 O   0  0  0  0  0  0
  -22.3565  -14.5567   20.6668 O   0  0  0  0  0  0
  -24.6087  -31.8710   23.2126 C   0  0  0  0  0  0
  -25.9001  -32.4836   23.8408 C   0  0  1  0  0  0
  -27.2433  -27.4858   20.0898 C   0  0  0  0  0  0
  -25.5875  -33.8635   24.2342 N   0  0  0  0  0  0
  -23.3937  -30.4928   21.5527 C   0  0  2  0  0  0
  -24.8403  -28.9542   20.1252 C   0  0  0  0  0  0
  -22.7369  -29.4675   22.5030 C   0  0  0  0  0  0
  -18.0262  -28.1375   22.8499 C   0  0  0  0  0  0
  -24.1485  -36.7328   23.2640 C   0  0  0  0  0  0
  -25.9152  -30.8510   21.3565 C   0  0  0  0  0  0
  -25.9949  -29.4849   20.7132 C   0  0  0  0  0  0
  -27.1994  -28.7568   20.6920 C   0  0  0  0  0  0
  -26.0735  -26.9445   19.5152 C   0  0  0  0  0  0
  -24.8704  -27.6788   19.5297 C   0  0  0  0  0  0
  -23.5998  -29.8167   20.1699 C   0  0  0  0  0  0
  -25.4103  -36.3121   24.0341 C   0  0  1  0  0  0
  -20.5846  -28.3652   23.1344 C   0  0  2  0  0  0
  -20.6755  -26.9397   22.5425 C   0  0  0  0  0  0
  -19.5738  -26.6389   21.5215 C   0  0  0  0  0  0
  -18.1913  -26.7925   22.1624 C   0  0  0  0  0  0
  -19.1509  -28.8829   23.2919 C   0  0  0  0  0  0
  -18.9441  -30.1438   23.8925 C   0  0  0  0  0  0
  -17.6448  -30.6588   24.0568 C   0  0  0  0  0  0
  -25.9024  -34.9484   23.5139 C   0  0  0  0  0  0
  -16.5338  -29.9094   23.6323 C   0  0  0  0  0  0
  -16.7254  -28.6509   23.0346 C   0  0  0  0  0  0
  -26.4453  -31.6603   25.0716 C   0  0  0  0  0  0
  -25.3743  -31.3693   26.1483 C   0  0  0  0  0  0
  -27.0278  -30.3057   24.6045 C   0  0  0  0  0  0
  -27.6040  -32.4315   25.7469 C   0  0  0  0  0  0
  -27.5581  -37.1816   24.8465 C   0  0  0  0  0  0
  -21.4106  -29.3029   22.3761 N   0  0  0  0  0  0
  -26.4294  -37.3800   23.9404 N   0  0  0  0  0  0
  -24.6573  -31.0851   22.1002 N   0  0  0  0  0  0
  -23.4162  -28.8222   23.3059 O   0  0  0  0  0  0
  -28.4507  -26.8477   20.0050 O   0  0  0  0  0  0
  -26.5589  -34.8928   22.4700 O   0  0  0  0  0  0
  -23.5295  -32.1440   23.7554 O   0  0  0  0  0  0
  -29.7602  -19.1701   18.5132 C   0  0  0  0  0  0
  -29.9088  -20.3669   19.2313 C   0  0  0  0  0  0
  -29.7357  -19.1228   21.3061 C   0  0  0  0  0  0
  -29.5959  -17.9045   20.6070 C   0  0  0  0  0  0
  -29.5795  -17.9412   19.1801 C   0  0  0  0  0  0
  -29.8551  -20.3572   20.6426 C   0  0  0  0  0  0
  -29.5130  -16.6855   21.4757 C   0  0  0  0  0  0
  -29.9316  -15.3976   21.3585 C   0  0  0  0  0  0
  -29.3256  -16.7222   18.3083 C   0  0  0  0  0  0
  -31.8330  -23.4441   20.5936 C   0  0  0  0  0  0
  -30.5897  -24.1409   22.6588 C   0  0  0  0  0  0
  -30.0021  -25.1279   20.4004 C   0  0  0  0  0  0
  -28.5402  -25.5679   20.5993 C   0  0  0  0  0  0
  -29.4336  -22.7139   20.9228 C   0  0  0  0  0  0
  -30.4519  -23.8517   21.1504 C   0  0  0  0  0  0
  -29.9413  -21.4813   21.4319 O   0  0  0  0  0  0
  -31.4691  -12.3722   19.1022 H   0  0  0  0  0  0
  -30.3163  -11.2542   19.7661 H   0  0  0  0  0  0
  -29.7268  -11.8128   17.3917 H   0  0  0  0  0  0
  -29.6727  -13.5127   17.7856 H   0  0  0  0  0  0
  -27.8031  -11.3243   18.7609 H   0  0  0  0  0  0
  -27.3661  -12.6934   17.7755 H   0  0  0  0  0  0
  -27.7239  -14.2436   19.6242 H   0  0  0  0  0  0
  -28.6713  -11.8610   21.2739 H   0  0  0  0  0  0
  -28.4585  -13.4567   21.8999 H   0  0  0  0  0  0
  -25.2734   -9.5709   22.4738 H   0  0  0  0  0  0
  -24.0004   -7.4635   22.7452 H   0  0  0  0  0  0
  -21.0815   -8.8744   19.8948 H   0  0  0  0  0  0
  -22.3646  -10.9654   19.6141 H   0  0  0  0  0  0
  -21.2011   -7.6140   23.9722 H   0  0  0  0  0  0
  -21.1474   -6.0507   25.9077 H   0  0  0  0  0  0
  -22.0607   -2.7609   23.2843 H   0  0  0  0  0  0
  -22.4097  -11.9950   22.4811 H   0  0  0  0  0  0
  -21.1096  -13.1297   22.2542 H   0  0  0  0  0  0
  -24.6875  -15.8512   20.5338 H   0  0  0  0  0  0
  -26.3177  -15.6196   20.1527 H   0  0  0  0  0  0
  -26.7072  -32.5571   23.1182 H   0  0  0  0  0  0
  -25.0023  -33.9803   25.0483 H   0  0  0  0  0  0
  -22.6802  -31.3075   21.4127 H   0  0  0  0  0  0
  -23.3735  -35.9675   23.3321 H   0  0  0  0  0  0
  -24.3579  -36.8922   22.2050 H   0  0  0  0  0  0
  -23.7254  -37.6545   23.6640 H   0  0  0  0  0  0
  -26.0139  -31.6139   20.5834 H   0  0  0  0  0  0
  -26.8084  -30.9124   21.9666 H   0  0  0  0  0  0
  -28.0991  -29.1708   21.1253 H   0  0  0  0  0  0
  -26.0965  -25.9782   19.0314 H   0  0  0  0  0  0
  -23.9806  -27.2641   19.0755 H   0  0  0  0  0  0
  -23.7030  -30.5864   19.4044 H   0  0  0  0  0  0
  -22.7255  -29.2310   19.8804 H   0  0  0  0  0  0
  -25.1277  -36.1995   25.0834 H   0  0  0  0  0  0
  -20.9934  -28.3212   24.1465 H   0  0  0  0  0  0
  -20.5666  -26.2255   23.3601 H   0  0  0  0  0  0
  -21.6628  -26.7458   22.1216 H   0  0  0  0  0  0
  -19.6902  -25.6306   21.1231 H   0  0  0  0  0  0
  -19.6683  -27.3211   20.6756 H   0  0  0  0  0  0
  -17.4186  -26.6680   21.4021 H   0  0  0  0  0  0
  -18.0314  -26.0062   22.9015 H   0  0  0  0  0  0
  -19.7918  -30.7245   24.2309 H   0  0  0  0  0  0
  -17.5006  -31.6272   24.5162 H   0  0  0  0  0  0
  -15.5341  -30.3007   23.7634 H   0  0  0  0  0  0
  -15.8652  -28.0841   22.7045 H   0  0  0  0  0  0
  -24.5897  -30.7058   25.7825 H   0  0  0  0  0  0
  -24.8955  -32.2848   26.4972 H   0  0  0  0  0  0
  -25.8115  -30.8833   27.0214 H   0  0  0  0  0  0
  -26.2802  -29.6825   24.1122 H   0  0  0  0  0  0
  -27.4098  -29.7280   25.4471 H   0  0  0  0  0  0
  -27.8612  -30.4397   23.9144 H   0  0  0  0  0  0
  -27.2660  -33.3591   26.2101 H   0  0  0  0  0  0
  -28.3817  -32.6915   25.0276 H   0  0  0  0  0  0
  -28.0746  -31.8410   26.5340 H   0  0  0  0  0  0
  -28.2610  -38.0101   24.7495 H   0  0  0  0  0  0
  -28.1060  -36.2633   24.6305 H   0  0  0  0  0  0
  -27.2298  -37.1490   25.8868 H   0  0  0  0  0  0
  -20.9254  -29.8742   21.6984 H   0  0  0  0  0  0
  -26.0189  -38.2881   24.1395 H   0  0  0  0  0  0
  -29.7750  -19.2052   17.4325 H   0  0  0  0  0  0
  -30.0651  -21.2753   18.6686 H   0  0  0  0  0  0
  -29.7411  -19.1193   22.3872 H   0  0  0  0  0  0
  -28.9861  -16.8729   22.4006 H   0  0  0  0  0  0
  -30.1543  -15.8045   20.4059 H   0  0  0  0  0  0
  -28.9788  -17.0149   17.3174 H   0  0  0  0  0  0
  -28.5495  -16.0935   18.7389 H   0  0  0  0  0  0
  -30.2341  -16.1353   18.1770 H   0  0  0  0  0  0
  -32.5560  -24.2567   20.6814 H   0  0  0  0  0  0
  -31.7721  -23.1735   19.5389 H   0  0  0  0  0  0
  -32.2468  -22.5862   21.1238 H   0  0  0  0  0  0
  -31.2931  -24.9530   22.8478 H   0  0  0  0  0  0
  -30.9514  -23.2653   23.1986 H   0  0  0  0  0  0
  -29.6374  -24.4227   23.1079 H   0  0  0  0  0  0
  -30.6599  -25.9506   20.6856 H   0  0  0  0  0  0
  -30.1584  -24.9905   19.3290 H   0  0  0  0  0  0
  -28.2818  -25.6353   21.6562 H   0  0  0  0  0  0
  -27.8525  -24.8674   20.1240 H   0  0  0  0  0  0
  -29.1342  -22.6891   19.8776 H   0  0  0  0  0  0
  -28.5120  -22.9246   21.4673 H   0  0  0  0  0  0
  1 25  1  0  0  0
  1 30  2  0  0  0
  1 78  1  0  0  0
  2  3  1  0  0  0
  2 25  1  0  0  0
  2 87  1  0  0  0
  2 88  1  0  0  0
  3  4  1  0  0  0
  3 89  1  0  0  0
  3 90  1  0  0  0
  4  5  1  0  0  0
  4 91  1  0  0  0
  4 92  1  0  0  0
  5  6  1  0  0  0
  5 26  1  0  0  0
  5 93  1  0  0  0
  6 25  1  0  0  0
  6 94  1  0  0  0
  6 95  1  0  0  0
  7  8  2  0  0  0
  7 26  1  0  0  0
  7 29  1  0  0  0
  8  9  1  0  0  0
  8 22  1  0  0  0
  9 10  1  0  0  0
  9 27  2  0  0  0
 10 11  2  0  0  0
 10 15  1  0  0  0
 11 12  1  0  0  0
 11 96  1  0  0  0
 12 13  2  0  0  0
 12 97  1  0  0  0
 13 14  1  0  0  0
 13 31  1  0  0  0
 14 15  2  0  0  0
 14 98  1  0  0  0
 15 99  1  0  0  0
 16 17  2  0  0  0
 16 21  1  0  0  0
 16 31  1  0  0  0
 17 18  1  0  0  0
 17100  1  0  0  0
 18 19  2  0  0  0
 18101  1  0  0  0
 19 20  1  0  0  0
 19 24  1  0  0  0
 20 21  2  0  0  0
 20102  1  0  0  0
 21 23  1  0  0  0
 22 28  1  0  0  0
 22 32  2  0  0  0
 26 27  1  0  0  0
 28103  1  0  0  0
 28104  1  0  0  0
 29105  1  0  0  0
 29106  1  0  0  0
 33 34  1  0  0  0
 33 66  1  0  0  0
 33 70  2  0  0  0
 34 36  1  0  0  0
 34 59  1  0  0  0
 34107  1  0  0  0
 35 44  2  0  0  0
 35 45  1  0  0  0
 35 68  1  0  0  0
 36 56  1  0  0  0
 36108  1  0  0  0
 37 39  1  0  0  0
 37 47  1  0  0  0
 37 66  1  0  0  0
 37109  1  0  0  0
 38 43  2  0  0  0
 38 46  1  0  0  0
 38 47  1  0  0  0
 39 64  1  0  0  0
 39 67  2  0  0  0
 40 52  1  0  0  0
 40 53  2  0  0  0
 40 58  1  0  0  0
 41110  1  0  0  0
 41111  1  0  0  0
 41112  1  0  0  0
 41 48  1  0  0  0
 42 43  1  0  0  0
 42 66  1  0  0  0
 42113  1  0  0  0
 42114  1  0  0  0
 43 44  1  0  0  0
 44115  1  0  0  0
 45 46  2  0  0  0
 45116  1  0  0  0
 46117  1  0  0  0
 47118  1  0  0  0
 47119  1  0  0  0
 48 56  1  0  0  0
 48 65  1  0  0  0
 48120  1  0  0  0
 49 50  1  0  0  0
 49 53  1  0  0  0
 49 64  1  0  0  0
 49121  1  0  0  0
 50 51  1  0  0  0
 50122  1  0  0  0
 50123  1  0  0  0
 51 52  1  0  0  0
 51124  1  0  0  0
 51125  1  0  0  0
 52126  1  0  0  0
 52127  1  0  0  0
 53 54  1  0  0  0
 54 55  2  0  0  0
 54128  1  0  0  0
 55 57  1  0  0  0
 55129  1  0  0  0
 56 69  2  0  0  0
 57 58  2  0  0  0
 57130  1  0  0  0
 58131  1  0  0  0
 59 60  1  0  0  0
 59 61  1  0  0  0
 59 62  1  0  0  0
 60132  1  0  0  0
 60133  1  0  0  0
 60134  1  0  0  0
 61135  1  0  0  0
 61136  1  0  0  0
 61137  1  0  0  0
 62138  1  0  0  0
 62139  1  0  0  0
 62140  1  0  0  0
 63 65  1  0  0  0
 63141  1  0  0  0
 63142  1  0  0  0
 63143  1  0  0  0
 64144  1  0  0  0
 65145  1  0  0  0
 68 83  1  0  0  0
 71 72  2  0  0  0
 71 75  1  0  0  0
 71146  1  0  0  0
 72 76  1  0  0  0
 72147  1  0  0  0
 73 74  1  0  0  0
 73 76  2  0  0  0
 73148  1  0  0  0
 74 75  2  0  0  0
 74 77  1  0  0  0
 75 79  1  0  0  0
 76 86  1  0  0  0
 77 78  2  0  0  0
 77149  1  0  0  0
 78150  1  0  0  0
 79151  1  0  0  0
 79152  1  0  0  0
 79153  1  0  0  0
 80154  1  0  0  0
 80155  1  0  0  0
 80156  1  0  0  0
 80 85  1  0  0  0
 81 85  1  0  0  0
 81157  1  0  0  0
 81158  1  0  0  0
 81159  1  0  0  0
 82 83  1  0  0  0
 82 85  1  0  0  0
 82160  1  0  0  0
 82161  1  0  0  0
 83162  1  0  0  0
 83163  1  0  0  0
 84 85  1  0  0  0
 84 86  1  0  0  0
 84164  1  0  0  0
 84165  1  0  0  0
M  ISO  4   1 100  68 101  78 100  83 101
M  END
> <chiral flag>
0

> <version>
0

> <s_m_source_file>
/data/baiqing/PycharmProjects/Reinvent-master-3.2/result/LINK_invent/BTK/process_docking_weight1_custom_product_contain_oxygen_bond_distance_aromatic_linkinvent_7_9_3/rearranged_h_0141.sdf

> <i_m_source_file_index>
63

> <r_mmod_Potential_Energy-OPLS-2005>
313.651580810547

> <r_mmod_Stretch_Energy-OPLS-2005>
37.1035995483398

> <r_mmod_Bend_Energy-OPLS-2005>
382.617828369141

> <r_mmod_Torsional_Energy-OPLS-2005>
236.376251220703

> <r_mmod_Improper_Torsional_Energy-OPLS-2005>
4.76311254501343

> <r_mmod_Van_der_Waal_Energy-OPLS-2005>
182.223297119141

> <r_mmod_Electrostatic_Energy-OPLS-2005>
-352.897613525391

> <r_mmod_Solvation_Energy-OPLS-2005>
-186.088775634766

> <b_mmod_Minimization_Converged-OPLS-2005>
0

> <r_mmod_RMS_Derivative-OPLS-2005>
1.26142358779907

$$$$
63
                    3D
 Structure written by MMmdl.
158166  0  0  1  0            999 V2000
  -30.6348  -14.6041   20.4958 C   0  0  0  0  0  0
  -30.4290  -12.3714   19.4510 C   0  0  0  0  0  0
  -29.5064  -12.4951   18.2182 C   0  0  0  0  0  0
  -28.0254  -12.3468   18.6217 C   0  0  0  0  0  0
  -27.6467  -13.2136   19.8519 C   0  0  2  0  0  0
  -28.6856  -13.0675   20.9790 C   0  0  0  0  0  0
  -25.2556  -13.8179   20.5679 C   0  0  0  0  0  0
  -24.1810  -13.0433   20.9171 C   0  0  0  0  0  0
  -24.6389  -11.6913   20.8738 C   0  0  0  0  0  0
  -23.9061  -10.4283   21.0401 C   0  0  0  0  0  0
  -24.3628   -9.4199   21.9165 C   0  0  0  0  0  0
  -23.6303   -8.2238   22.0736 C   0  0  0  0  0  0
  -22.4269   -8.0285   21.3547 C   0  0  0  0  0  0
  -21.9918   -9.0249   20.4641 C   0  0  0  0  0  0
  -22.7248  -10.2125   20.3048 C   0  0  0  0  0  0
  -21.6849   -6.0737   22.5269 C   0  0  0  0  0  0
  -21.4022   -6.5642   23.8209 C   0  0  0  0  0  0
  -21.3659   -5.6798   24.9171 C   0  0  0  0  0  0
  -21.6050   -4.3060   24.7220 C   0  0  0  0  0  0
  -21.8831   -3.8148   23.4340 C   0  0  0  0  0  0
  -21.9198   -4.6965   22.3397 C   0  0  0  0  0  0
  -22.7837  -13.5228   21.1846 C   0  0  0  0  0  0
  -22.1664   -4.2164   21.0974 F   0  0  0  0  0  0
  -21.5616   -3.4538   25.7725 F   0  0  0  0  0  0
  -29.9966  -13.4008   20.4104 N   0  0  0  0  0  0
  -26.2961  -12.9351   20.3298 N   0  0  0  0  0  0
  -25.9308  -11.6496   20.5699 N   0  0  0  0  0  0
  -22.0518  -12.8206   22.0430 N   0  0  0  0  0  0
  -25.4276  -15.1898   20.4125 N   0  0  0  0  0  0
  -31.8392  -14.7041   20.2527 O   0  0  0  0  0  0
  -21.6645   -6.8882   21.4224 O   0  0  0  0  0  0
  -22.3507  -14.5539   20.6724 O   0  0  0  0  0  0
  -24.6208  -31.8598   23.2034 C   0  0  0  0  0  0
  -25.9080  -32.4793   23.8366 C   0  0  1  0  0  0
  -27.2180  -27.3468   20.1175 C   0  0  0  0  0  0
  -25.5905  -33.8591   24.2295 N   0  0  0  0  0  0
  -23.4146  -30.4861   21.5461 C   0  0  2  0  0  0
  -24.8570  -28.9417   20.1139 C   0  0  0  0  0  0
  -22.7457  -29.4617   22.4956 C   0  0  0  0  0  0
  -18.0300  -28.1370   22.8475 C   0  0  0  0  0  0
  -24.1483  -36.7293   23.2635 C   0  0  0  0  0  0
  -25.9524  -30.7998   21.3725 C   0  0  0  0  0  0
  -26.0230  -29.4307   20.7137 C   0  0  0  0  0  0
  -27.2050  -28.6431   20.7062 C   0  0  0  0  0  0
  -26.0234  -26.8857   19.5207 C   0  0  0  0  0  0
  -24.8556  -27.6725   19.5140 C   0  0  0  0  0  0
  -23.6284  -29.8235   20.1602 C   0  0  0  0  0  0
  -25.4112  -36.3101   24.0338 C   0  0  1  0  0  0
  -20.5869  -28.3682   23.1301 C   0  0  2  0  0  0
  -20.6805  -26.9405   22.5404 C   0  0  0  0  0  0
  -19.5771  -26.6390   21.5180 C   0  0  0  0  0  0
  -18.1922  -26.7950   22.1571 C   0  0  0  0  0  0
  -19.1534  -28.8843   23.2886 C   0  0  0  0  0  0
  -18.9487  -30.1453   23.8895 C   0  0  0  0  0  0
  -17.6477  -30.6608   24.0542 C   0  0  0  0  0  0
  -25.9059  -34.9462   23.5115 C   0  0  0  0  0  0
  -16.5376  -29.9080   23.6317 C   0  0  0  0  0  0
  -16.7291  -28.6490   23.0346 C   0  0  0  0  0  0
  -26.4492  -31.6592   25.0724 C   0  0  0  0  0  0
  -25.3720  -31.3710   26.1459 C   0  0  0  0  0  0
  -27.0330  -30.3005   24.6160 C   0  0  0  0  0  0
  -27.6068  -32.4311   25.7489 C   0  0  0  0  0  0
  -27.5591  -37.1809   24.8473 C   0  0  0  0  0  0
  -21.4163  -29.3104   22.3796 N   0  0  0  0  0  0
  -26.4300  -37.3785   23.9426 N   0  0  0  0  0  0
  -24.6820  -31.0663   22.0962 N   0  0  0  0  0  0
  -23.4226  -28.8076   23.2951 O   0  0  0  0  0  0
  -28.3697  -26.5649   20.1821 O   0  0  0  0  0  0
  -26.5626  -34.8926   22.4679 O   0  0  0  0  0  0
  -23.5385  -32.1407   23.7405 O   0  0  0  0  0  0
  -28.0464  -18.6951   22.7154 C   0  0  0  0  0  0
  -28.8722  -16.4088   22.4234 C   0  0  0  0  0  0
  -29.1891  -18.0830   20.6656 C   0  0  0  0  0  0
  -28.1925  -17.3756   23.1884 C   0  0  0  0  0  0
  -28.5553  -19.0982   21.4625 C   0  0  0  0  0  0
  -29.3377  -16.7238   21.1255 C   0  0  0  0  0  0
  -28.4714  -21.1862   19.6861 C   0  0  0  0  0  0
  -28.8670  -22.6718   19.4332 C   0  0  0  0  0  0
  -27.5712  -17.0045   24.5195 C   0  0  0  0  0  0
  -28.3582  -20.6225   21.1187 C   0  0  0  0  0  0
  -28.2879  -23.8978   20.2231 C   0  0  0  0  0  0
  -28.5010  -25.2869   19.4776 C   0  0  0  0  0  0
  -28.2719  -20.3999   18.7094 N   0  0  0  0  0  0
  -29.8594  -15.6975   20.2466 N   0  0  0  0  0  0
  -29.6313  -22.9038   18.4876 O   0  0  0  0  0  0
  -31.4733  -12.4987   19.1529 H   0  0  0  0  0  0
  -30.3538  -11.3791   19.8983 H   0  0  0  0  0  0
  -29.7698  -11.7384   17.4759 H   0  0  0  0  0  0
  -29.6619  -13.4629   17.7412 H   0  0  0  0  0  0
  -27.8496  -11.2938   18.8453 H   0  0  0  0  0  0
  -27.3785  -12.5946   17.7789 H   0  0  0  0  0  0
  -27.6632  -14.2506   19.5104 H   0  0  0  0  0  0
  -28.6954  -12.0537   21.3786 H   0  0  0  0  0  0
  -28.4259  -13.7114   21.8149 H   0  0  0  0  0  0
  -25.2779   -9.5682   22.4739 H   0  0  0  0  0  0
  -24.0017   -7.4636   22.7470 H   0  0  0  0  0  0
  -21.0848   -8.8785   19.8960 H   0  0  0  0  0  0
  -22.3706  -10.9671   19.6169 H   0  0  0  0  0  0
  -21.2022   -7.6153   23.9724 H   0  0  0  0  0  0
  -21.1465   -6.0516   25.9081 H   0  0  0  0  0  0
  -22.0609   -2.7609   23.2832 H   0  0  0  0  0  0
  -22.4155  -11.9854   22.4797 H   0  0  0  0  0  0
  -21.1135  -13.1221   22.2677 H   0  0  0  0  0  0
  -24.6765  -15.8553   20.5517 H   0  0  0  0  0  0
  -26.3054  -15.6282   20.1631 H   0  0  0  0  0  0
  -26.7139  -32.5463   23.1125 H   0  0  0  0  0  0
  -25.0043  -33.9745   25.0434 H   0  0  0  0  0  0
  -22.7035  -31.3034   21.4078 H   0  0  0  0  0  0
  -23.3763  -35.9606   23.3297 H   0  0  0  0  0  0
  -24.3586  -36.8917   22.2053 H   0  0  0  0  0  0
  -23.7231  -37.6491   23.6651 H   0  0  0  0  0  0
  -26.0886  -31.5674   20.6096 H   0  0  0  0  0  0
  -26.8305  -30.8421   22.0052 H   0  0  0  0  0  0
  -28.1052  -29.0156   21.1755 H   0  0  0  0  0  0
  -25.9546  -25.8981   19.0882 H   0  0  0  0  0  0
  -23.9540  -27.2825   19.0620 H   0  0  0  0  0  0
  -23.7632  -30.6034   19.4099 H   0  0  0  0  0  0
  -22.7457  -29.2616   19.8460 H   0  0  0  0  0  0
  -25.1294  -36.1961   25.0832 H   0  0  0  0  0  0
  -20.9917  -28.3227   24.1430 H   0  0  0  0  0  0
  -20.5664  -26.2271   23.3591 H   0  0  0  0  0  0
  -21.6692  -26.7395   22.1270 H   0  0  0  0  0  0
  -19.6932  -25.6302   21.1197 H   0  0  0  0  0  0
  -19.6766  -27.3188   20.6709 H   0  0  0  0  0  0
  -17.4197  -26.6735   21.3957 H   0  0  0  0  0  0
  -18.0306  -26.0103   22.8929 H   0  0  0  0  0  0
  -19.7979  -30.7238   24.2238 H   0  0  0  0  0  0
  -17.5077  -31.6295   24.5131 H   0  0  0  0  0  0
  -15.5354  -30.2979   23.7647 H   0  0  0  0  0  0
  -15.8719  -28.0771   22.7072 H   0  0  0  0  0  0
  -24.5915  -30.7051   25.7792 H   0  0  0  0  0  0
  -24.8898  -32.2856   26.4885 H   0  0  0  0  0  0
  -25.8051  -30.8898   27.0231 H   0  0  0  0  0  0
  -26.2893  -29.6777   24.1185 H   0  0  0  0  0  0
  -27.4034  -29.7264   25.4674 H   0  0  0  0  0  0
  -27.8759  -30.4323   23.9374 H   0  0  0  0  0  0
  -27.2694  -33.3609   26.2070 H   0  0  0  0  0  0
  -28.3851  -32.6868   25.0285 H   0  0  0  0  0  0
  -28.0740  -31.8422   26.5394 H   0  0  0  0  0  0
  -28.2614  -38.0099   24.7528 H   0  0  0  0  0  0
  -28.1080  -36.2647   24.6281 H   0  0  0  0  0  0
  -27.2309  -37.1427   25.8870 H   0  0  0  0  0  0
  -20.9313  -29.9002   21.7150 H   0  0  0  0  0  0
  -26.0193  -38.2861   24.1410 H   0  0  0  0  0  0
  -27.5248  -19.4078   23.3421 H   0  0  0  0  0  0
  -28.9840  -15.4177   22.8373 H   0  0  0  0  0  0
  -29.5656  -18.3372   19.6845 H   0  0  0  0  0  0
  -27.6227  -15.9286   24.6964 H   0  0  0  0  0  0
  -26.5220  -17.3006   24.5467 H   0  0  0  0  0  0
  -28.0916  -17.5084   25.3378 H   0  0  0  0  0  0
  -29.0283  -21.1938   21.7628 H   0  0  0  0  0  0
  -27.3547  -20.8949   21.4536 H   0  0  0  0  0  0
  -28.7726  -23.9251   21.1986 H   0  0  0  0  0  0
  -27.2283  -23.7291   20.4047 H   0  0  0  0  0  0
  -27.9347  -25.2949   18.5499 H   0  0  0  0  0  0
  -29.5391  -25.3198   19.1478 H   0  0  0  0  0  0
  -28.4179  -20.8971   17.8378 H   0  0  0  0  0  0
  -30.1299  -16.0936   19.3555 H   0  0  0  0  0  0
  1 25  1  0  0  0
  1 30  2  0  0  0
  1 84  1  0  0  0
  2  3  1  0  0  0
  2 25  1  0  0  0
  2 86  1  0  0  0
  2 87  1  0  0  0
  3  4  1  0  0  0
  3 88  1  0  0  0
  3 89  1  0  0  0
  4  5  1  0  0  0
  4 90  1  0  0  0
  4 91  1  0  0  0
  5  6  1  0  0  0
  5 26  1  0  0  0
  5 92  1  0  0  0
  6 25  1  0  0  0
  6 93  1  0  0  0
  6 94  1  0  0  0
  7  8  2  0  0  0
  7 26  1  0  0  0
  7 29  1  0  0  0
  8  9  1  0  0  0
  8 22  1  0  0  0
  9 10  1  0  0  0
  9 27  2  0  0  0
 10 11  2  0  0  0
 10 15  1  0  0  0
 11 12  1  0  0  0
 11 95  1  0  0  0
 12 13  2  0  0  0
 12 96  1  0  0  0
 13 14  1  0  0  0
 13 31  1  0  0  0
 14 15  2  0  0  0
 14 97  1  0  0  0
 15 98  1  0  0  0
 16 17  2  0  0  0
 16 21  1  0  0  0
 16 31  1  0  0  0
 17 18  1  0  0  0
 17 99  1  0  0  0
 18 19  2  0  0  0
 18100  1  0  0  0
 19 20  1  0  0  0
 19 24  1  0  0  0
 20 21  2  0  0  0
 20101  1  0  0  0
 21 23  1  0  0  0
 22 28  1  0  0  0
 22 32  2  0  0  0
 26 27  1  0  0  0
 28102  1  0  0  0
 28103  1  0  0  0
 29104  1  0  0  0
 29105  1  0  0  0
 33 34  1  0  0  0
 33 66  1  0  0  0
 33 70  2  0  0  0
 34 36  1  0  0  0
 34 59  1  0  0  0
 34106  1  0  0  0
 35 44  2  0  0  0
 35 45  1  0  0  0
 35 68  1  0  0  0
 36 56  1  0  0  0
 36107  1  0  0  0
 37 39  1  0  0  0
 37 47  1  0  0  0
 37 66  1  0  0  0
 37108  1  0  0  0
 38 43  2  0  0  0
 38 46  1  0  0  0
 38 47  1  0  0  0
 39 64  1  0  0  0
 39 67  2  0  0  0
 40 52  1  0  0  0
 40 53  2  0  0  0
 40 58  1  0  0  0
 41109  1  0  0  0
 41110  1  0  0  0
 41111  1  0  0  0
 41 48  1  0  0  0
 42 43  1  0  0  0
 42 66  1  0  0  0
 42112  1  0  0  0
 42113  1  0  0  0
 43 44  1  0  0  0
 44114  1  0  0  0
 45 46  2  0  0  0
 45115  1  0  0  0
 46116  1  0  0  0
 47117  1  0  0  0
 47118  1  0  0  0
 48 56  1  0  0  0
 48 65  1  0  0  0
 48119  1  0  0  0
 49 50  1  0  0  0
 49 53  1  0  0  0
 49 64  1  0  0  0
 49120  1  0  0  0
 50 51  1  0  0  0
 50121  1  0  0  0
 50122  1  0  0  0
 51 52  1  0  0  0
 51123  1  0  0  0
 51124  1  0  0  0
 52125  1  0  0  0
 52126  1  0  0  0
 53 54  1  0  0  0
 54 55  2  0  0  0
 54127  1  0  0  0
 55 57  1  0  0  0
 55128  1  0  0  0
 56 69  2  0  0  0
 57 58  2  0  0  0
 57129  1  0  0  0
 58130  1  0  0  0
 59 60  1  0  0  0
 59 61  1  0  0  0
 59 62  1  0  0  0
 60131  1  0  0  0
 60132  1  0  0  0
 60133  1  0  0  0
 61134  1  0  0  0
 61135  1  0  0  0
 61136  1  0  0  0
 62137  1  0  0  0
 62138  1  0  0  0
 62139  1  0  0  0
 63 65  1  0  0  0
 63140  1  0  0  0
 63141  1  0  0  0
 63142  1  0  0  0
 64143  1  0  0  0
 65144  1  0  0  0
 68 82  1  0  0  0
 71 74  2  0  0  0
 71 75  1  0  0  0
 71145  1  0  0  0
 72 74  1  0  0  0
 72 76  2  0  0  0
 72146  1  0  0  0
 73 75  2  0  0  0
 73 76  1  0  0  0
 73147  1  0  0  0
 74 79  1  0  0  0
 75 80  1  0  0  0
 76 84  1  0  0  0
 77 78  1  0  0  0
 77 80  1  0  0  0
 77 83  2  0  0  0
 78 81  1  0  0  0
 78 85  2  0  0  0
 79148  1  0  0  0
 79149  1  0  0  0
 79150  1  0  0  0
 80151  1  0  0  0
 80152  1  0  0  0
 81 82  1  0  0  0
 81153  1  0  0  0
 81154  1  0  0  0
 82155  1  0  0  0
 82156  1  0  0  0
 83157  1  0  0  0
 84158  1  0  0  0
M  ISO  4   1 100  68 101  82 101  84 100
M  END
> <chiral flag>
0

> <version>
0

> <s_m_source_file>
/data/baiqing/PycharmProjects/Reinvent-master-3.2/result/LINK_invent/BTK/process_docking_weight1_custom_product_contain_oxygen_bond_distance_aromatic_linkinvent_7_9_3/rearranged_h_0141.sdf

> <i_m_source_file_index>
64

> <r_mmod_Potential_Energy-OPLS-2005>
148.557891845703

> <r_mmod_Stretch_Energy-OPLS-2005>
68.5243835449219

> <r_mmod_Bend_Energy-OPLS-2005>
166.175918579102

> <r_mmod_Torsional_Energy-OPLS-2005>
275.404022216797

> <r_mmod_Improper_Torsional_Energy-OPLS-2005>
24.8165721893311

> <r_mmod_Van_der_Waal_Energy-OPLS-2005>
142.046600341797

> <r_mmod_Electrostatic_Energy-OPLS-2005>
-346.25634765625

> <r_mmod_Solvation_Energy-OPLS-2005>
-224.05241394043

> <b_mmod_Minimization_Converged-OPLS-2005>
0

> <r_mmod_RMS_Derivative-OPLS-2005>
5.86166667938232

$$$$
64
                    3D
 Structure written by MMmdl.
170178  0  0  1  0            999 V2000
  -30.6881  -14.5498   20.5405 C   0  0  0  0  0  0
  -30.4221  -12.3493   19.4309 C   0  0  0  0  0  0
  -29.4971  -12.5041   18.2071 C   0  0  0  0  0  0
  -28.0207  -12.3463   18.6221 C   0  0  0  0  0  0
  -27.6529  -13.2124   19.8565 C   0  0  2  0  0  0
  -28.6951  -13.0636   20.9858 C   0  0  0  0  0  0
  -25.2573  -13.8171   20.5663 C   0  0  0  0  0  0
  -24.1844  -13.0442   20.9202 C   0  0  0  0  0  0
  -24.6411  -11.6916   20.8748 C   0  0  0  0  0  0
  -23.9077  -10.4299   21.0416 C   0  0  0  0  0  0
  -24.3639   -9.4219   21.9195 C   0  0  0  0  0  0
  -23.6311   -8.2261   22.0792 C   0  0  0  0  0  0
  -22.4285   -8.0305   21.3585 C   0  0  0  0  0  0
  -21.9916   -9.0276   20.4686 C   0  0  0  0  0  0
  -22.7245  -10.2151   20.3075 C   0  0  0  0  0  0
  -21.6844   -6.0767   22.5293 C   0  0  0  0  0  0
  -21.4007   -6.5668   23.8228 C   0  0  0  0  0  0
  -21.3652   -5.6829   24.9190 C   0  0  0  0  0  0
  -21.6035   -4.3091   24.7230 C   0  0  0  0  0  0
  -21.8813   -3.8182   23.4347 C   0  0  0  0  0  0
  -21.9195   -4.6999   22.3410 C   0  0  0  0  0  0
  -22.7865  -13.5251   21.1856 C   0  0  0  0  0  0
  -22.1658   -4.2184   21.0980 F   0  0  0  0  0  0
  -21.5620   -3.4569   25.7738 F   0  0  0  0  0  0
  -30.0162  -13.3681   20.4166 N   0  0  0  0  0  0
  -26.2997  -12.9349   20.3300 N   0  0  0  0  0  0
  -25.9333  -11.6507   20.5754 N   0  0  0  0  0  0
  -22.0487  -12.8263   22.0401 N   0  0  0  0  0  0
  -25.4288  -15.1889   20.4027 N   0  0  0  0  0  0
  -31.8550  -14.6754   20.1609 O   0  0  0  0  0  0
  -21.6656   -6.8896   21.4251 O   0  0  0  0  0  0
  -22.3559  -14.5553   20.6684 O   0  0  0  0  0  0
  -24.6219  -31.8655   23.2115 C   0  0  0  0  0  0
  -25.9108  -32.4799   23.8411 C   0  0  1  0  0  0
  -27.2003  -27.3511   20.1180 C   0  0  0  0  0  0
  -25.5936  -33.8604   24.2326 N   0  0  0  0  0  0
  -23.4137  -30.4963   21.5491 C   0  0  2  0  0  0
  -24.8593  -28.9630   20.1112 C   0  0  0  0  0  0
  -22.7451  -29.4681   22.4932 C   0  0  0  0  0  0
  -18.0316  -28.1386   22.8492 C   0  0  0  0  0  0
  -24.1494  -36.7297   23.2639 C   0  0  0  0  0  0
  -25.9553  -30.7990   21.3910 C   0  0  0  0  0  0
  -26.0228  -29.4291   20.7396 C   0  0  0  0  0  0
  -27.1960  -28.6241   20.7540 C   0  0  0  0  0  0
  -26.0556  -26.9852   19.3931 C   0  0  0  0  0  0
  -24.8734  -27.7389   19.4306 C   0  0  0  0  0  0
  -23.6293  -29.8424   20.1611 C   0  0  0  0  0  0
  -25.4113  -36.3089   24.0332 C   0  0  1  0  0  0
  -20.5904  -28.3716   23.1321 C   0  0  2  0  0  0
  -20.6818  -26.9410   22.5472 C   0  0  0  0  0  0
  -19.5809  -26.6319   21.5288 C   0  0  0  0  0  0
  -18.1993  -26.7890   22.1693 C   0  0  0  0  0  0
  -19.1548  -28.8882   23.2882 C   0  0  0  0  0  0
  -18.9442  -30.1508   23.8827 C   0  0  0  0  0  0
  -17.6446  -30.6629   24.0472 C   0  0  0  0  0  0
  -25.9054  -34.9459   23.5119 C   0  0  0  0  0  0
  -16.5348  -29.9070   23.6313 C   0  0  0  0  0  0
  -16.7294  -28.6491   23.0342 C   0  0  0  0  0  0
  -26.4491  -31.6603   25.0768 C   0  0  0  0  0  0
  -25.3739  -31.3734   26.1506 C   0  0  0  0  0  0
  -27.0339  -30.3032   24.6218 C   0  0  0  0  0  0
  -27.6053  -32.4337   25.7522 C   0  0  0  0  0  0
  -27.5582  -37.1791   24.8461 C   0  0  0  0  0  0
  -21.4185  -29.3034   22.3651 N   0  0  0  0  0  0
  -26.4291  -37.3776   23.9412 N   0  0  0  0  0  0
  -24.6800  -31.0728   22.1037 N   0  0  0  0  0  0
  -23.4185  -28.8266   23.3043 O   0  0  0  0  0  0
  -28.2820  -26.4783   20.1236 O   0  0  0  0  0  0
  -26.5610  -34.8905   22.4679 O   0  0  0  0  0  0
  -23.5398  -32.1441   23.7470 O   0  0  0  0  0  0
  -31.9792  -18.5186   22.2176 C   0  0  0  0  0  0
  -31.5604  -17.2103   21.9060 C   0  0  0  0  0  0
  -31.2410  -19.6357   21.7793 C   0  0  0  0  0  0
  -29.6418  -18.1332   20.7237 C   0  0  0  0  0  0
  -30.3908  -16.9874   21.1471 C   0  0  0  0  0  0
  -30.0589  -19.4694   21.0261 C   0  0  0  0  0  0
  -26.4491  -23.5719   23.5062 C   0  0  0  0  0  0
  -28.1694  -23.5937   19.0876 C   0  0  0  0  0  0
  -26.0393  -24.0573   20.3139 C   0  0  0  0  0  0
  -26.8471  -21.4096   21.3019 C   0  0  0  0  0  0
  -27.7864  -23.0179   22.9710 C   0  0  0  0  0  0
  -29.3030  -21.8933   21.3043 C   0  0  0  0  0  0
  -28.2076  -25.2748   20.9786 C   0  0  0  0  0  0
  -27.5825  -23.8708   20.4916 C   0  0  0  0  0  0
  -27.8701  -22.5867   21.4697 C   0  0  1  0  0  0
  -29.9413  -15.6360   20.8855 N   0  0  0  0  0  0
  -29.3296  -20.5985   20.5660 N   0  0  0  0  0  0
  -31.4648  -12.4521   19.1249 H   0  0  0  0  0  0
  -30.3311  -11.3491   19.8582 H   0  0  0  0  0  0
  -29.7504  -11.7659   17.4440 H   0  0  0  0  0  0
  -29.6523  -13.4831   17.7497 H   0  0  0  0  0  0
  -27.8477  -11.2915   18.8426 H   0  0  0  0  0  0
  -27.3672  -12.5864   17.7830 H   0  0  0  0  0  0
  -27.6751  -14.2475   19.5151 H   0  0  0  0  0  0
  -28.6852  -12.0520   21.3932 H   0  0  0  0  0  0
  -28.4554  -13.7227   21.8212 H   0  0  0  0  0  0
  -25.2769   -9.5718   22.4786 H   0  0  0  0  0  0
  -24.0028   -7.4652   22.7515 H   0  0  0  0  0  0
  -21.0854   -8.8794   19.8985 H   0  0  0  0  0  0
  -22.3690  -10.9714   19.6221 H   0  0  0  0  0  0
  -21.1987   -7.6177   23.9727 H   0  0  0  0  0  0
  -21.1480   -6.0570   25.9096 H   0  0  0  0  0  0
  -22.0587   -2.7643   23.2846 H   0  0  0  0  0  0
  -22.4061  -11.9903   22.4794 H   0  0  0  0  0  0
  -21.1132  -13.1363   22.2601 H   0  0  0  0  0  0
  -24.6584  -15.8397   20.5043 H   0  0  0  0  0  0
  -26.2727  -15.6283   20.0597 H   0  0  0  0  0  0
  -26.7194  -32.5484   23.1186 H   0  0  0  0  0  0
  -25.0042  -33.9739   25.0439 H   0  0  0  0  0  0
  -22.7040  -31.3147   21.4115 H   0  0  0  0  0  0
  -23.3743  -35.9641   23.3302 H   0  0  0  0  0  0
  -24.3593  -36.8915   22.2055 H   0  0  0  0  0  0
  -23.7265  -37.6511   23.6654 H   0  0  0  0  0  0
  -26.0976  -31.5606   20.6216 H   0  0  0  0  0  0
  -26.8332  -30.8389   22.0263 H   0  0  0  0  0  0
  -28.0852  -28.9641   21.2667 H   0  0  0  0  0  0
  -26.0797  -26.1138   18.7655 H   0  0  0  0  0  0
  -24.0005  -27.4016   18.8904 H   0  0  0  0  0  0
  -23.7489  -30.6232   19.4071 H   0  0  0  0  0  0
  -22.7475  -29.2749   19.8583 H   0  0  0  0  0  0
  -25.1295  -36.1930   25.0820 H   0  0  0  0  0  0
  -21.0016  -28.3326   24.1450 H   0  0  0  0  0  0
  -20.5683  -26.2298   23.3655 H   0  0  0  0  0  0
  -21.6709  -26.7431   22.1306 H   0  0  0  0  0  0
  -19.6983  -25.6179   21.1445 H   0  0  0  0  0  0
  -19.6741  -27.3016   20.6740 H   0  0  0  0  0  0
  -17.4256  -26.6587   21.4107 H   0  0  0  0  0  0
  -18.0401  -26.0104   22.9153 H   0  0  0  0  0  0
  -19.7902  -30.7391   24.2132 H   0  0  0  0  0  0
  -17.4969  -31.6369   24.4968 H   0  0  0  0  0  0
  -15.5332  -30.2935   23.7655 H   0  0  0  0  0  0
  -15.8694  -28.0806   22.7049 H   0  0  0  0  0  0
  -24.5895  -30.7093   25.7857 H   0  0  0  0  0  0
  -24.8934  -32.2893   26.4951 H   0  0  0  0  0  0
  -25.8069  -30.8912   27.0282 H   0  0  0  0  0  0
  -26.2923  -29.6785   24.1221 H   0  0  0  0  0  0
  -27.4035  -29.7285   25.4721 H   0  0  0  0  0  0
  -27.8800  -30.4337   23.9468 H   0  0  0  0  0  0
  -27.2667  -33.3626   26.2132 H   0  0  0  0  0  0
  -28.3842  -32.6922   25.0335 H   0  0  0  0  0  0
  -28.0758  -31.8452   26.5415 H   0  0  0  0  0  0
  -28.2591  -38.0092   24.7502 H   0  0  0  0  0  0
  -28.1088  -36.2618   24.6293 H   0  0  0  0  0  0
  -27.2302  -37.1462   25.8865 H   0  0  0  0  0  0
  -20.9339  -29.8682   21.6815 H   0  0  0  0  0  0
  -26.0173  -38.2856   24.1389 H   0  0  0  0  0  0
  -32.8796  -18.6678   22.7961 H   0  0  0  0  0  0
  -32.1465  -16.3784   22.2681 H   0  0  0  0  0  0
  -31.6123  -20.6214   22.0232 H   0  0  0  0  0  0
  -28.7414  -17.9805   20.1476 H   0  0  0  0  0  0
  -26.1847  -24.5318   23.0689 H   0  0  0  0  0  0
  -26.5212  -23.7300   24.5825 H   0  0  0  0  0  0
  -25.6107  -22.8940   23.3536 H   0  0  0  0  0  0
  -27.9239  -24.3930   18.3882 H   0  0  0  0  0  0
  -27.7853  -22.6670   18.6650 H   0  0  0  0  0  0
  -29.2564  -23.5281   19.1002 H   0  0  0  0  0  0
  -25.7688  -24.2116   19.2736 H   0  0  0  0  0  0
  -25.6589  -24.8887   20.9049 H   0  0  0  0  0  0
  -25.3961  -23.2302   20.5777 H   0  0  0  0  0  0
  -27.1540  -20.5338   21.8767 H   0  0  0  0  0  0
  -26.7418  -21.1081   20.2598 H   0  0  0  0  0  0
  -25.8454  -21.5996   21.6752 H   0  0  0  0  0  0
  -28.0200  -22.1538   23.5965 H   0  0  0  0  0  0
  -28.5761  -23.7372   23.1894 H   0  0  0  0  0  0
  -29.6981  -21.6896   22.3007 H   0  0  0  0  0  0
  -30.0266  -22.5814   20.8672 H   0  0  0  0  0  0
  -29.2451  -25.0696   21.2460 H   0  0  0  0  0  0
  -27.7416  -25.5900   21.9124 H   0  0  0  0  0  0
  -28.9491  -15.4739   20.9438 H   0  0  0  0  0  0
  -28.4623  -20.3930   20.0795 H   0  0  0  0  0  0
  1 25  1  0  0  0
  1 30  2  0  0  0
  1 86  1  0  0  0
  2  3  1  0  0  0
  2 25  1  0  0  0
  2 88  1  0  0  0
  2 89  1  0  0  0
  3  4  1  0  0  0
  3 90  1  0  0  0
  3 91  1  0  0  0
  4  5  1  0  0  0
  4 92  1  0  0  0
  4 93  1  0  0  0
  5  6  1  0  0  0
  5 26  1  0  0  0
  5 94  1  0  0  0
  6 25  1  0  0  0
  6 95  1  0  0  0
  6 96  1  0  0  0
  7  8  2  0  0  0
  7 26  1  0  0  0
  7 29  1  0  0  0
  8  9  1  0  0  0
  8 22  1  0  0  0
  9 10  1  0  0  0
  9 27  2  0  0  0
 10 11  2  0  0  0
 10 15  1  0  0  0
 11 12  1  0  0  0
 11 97  1  0  0  0
 12 13  2  0  0  0
 12 98  1  0  0  0
 13 14  1  0  0  0
 13 31  1  0  0  0
 14 15  2  0  0  0
 14 99  1  0  0  0
 15100  1  0  0  0
 16 17  2  0  0  0
 16 21  1  0  0  0
 16 31  1  0  0  0
 17 18  1  0  0  0
 17101  1  0  0  0
 18 19  2  0  0  0
 18102  1  0  0  0
 19 20  1  0  0  0
 19 24  1  0  0  0
 20 21  2  0  0  0
 20103  1  0  0  0
 21 23  1  0  0  0
 22 28  1  0  0  0
 22 32  2  0  0  0
 26 27  1  0  0  0
 28104  1  0  0  0
 28105  1  0  0  0
 29106  1  0  0  0
 29107  1  0  0  0
 33 34  1  0  0  0
 33 66  1  0  0  0
 33 70  2  0  0  0
 34 36  1  0  0  0
 34 59  1  0  0  0
 34108  1  0  0  0
 35 44  2  0  0  0
 35 45  1  0  0  0
 35 68  1  0  0  0
 36 56  1  0  0  0
 36109  1  0  0  0
 37 39  1  0  0  0
 37 47  1  0  0  0
 37 66  1  0  0  0
 37110  1  0  0  0
 38 43  2  0  0  0
 38 46  1  0  0  0
 38 47  1  0  0  0
 39 64  1  0  0  0
 39 67  2  0  0  0
 40 52  1  0  0  0
 40 53  2  0  0  0
 40 58  1  0  0  0
 41111  1  0  0  0
 41112  1  0  0  0
 41113  1  0  0  0
 41 48  1  0  0  0
 42 43  1  0  0  0
 42 66  1  0  0  0
 42114  1  0  0  0
 42115  1  0  0  0
 43 44  1  0  0  0
 44116  1  0  0  0
 45 46  2  0  0  0
 45117  1  0  0  0
 46118  1  0  0  0
 47119  1  0  0  0
 47120  1  0  0  0
 48 56  1  0  0  0
 48 65  1  0  0  0
 48121  1  0  0  0
 49 50  1  0  0  0
 49 53  1  0  0  0
 49 64  1  0  0  0
 49122  1  0  0  0
 50 51  1  0  0  0
 50123  1  0  0  0
 50124  1  0  0  0
 51 52  1  0  0  0
 51125  1  0  0  0
 51126  1  0  0  0
 52127  1  0  0  0
 52128  1  0  0  0
 53 54  1  0  0  0
 54 55  2  0  0  0
 54129  1  0  0  0
 55 57  1  0  0  0
 55130  1  0  0  0
 56 69  2  0  0  0
 57 58  2  0  0  0
 57131  1  0  0  0
 58132  1  0  0  0
 59 60  1  0  0  0
 59 61  1  0  0  0
 59 62  1  0  0  0
 60133  1  0  0  0
 60134  1  0  0  0
 60135  1  0  0  0
 61136  1  0  0  0
 61137  1  0  0  0
 61138  1  0  0  0
 62139  1  0  0  0
 62140  1  0  0  0
 62141  1  0  0  0
 63 65  1  0  0  0
 63142  1  0  0  0
 63143  1  0  0  0
 63144  1  0  0  0
 64145  1  0  0  0
 65146  1  0  0  0
 68 83  1  0  0  0
 71 72  2  0  0  0
 71 73  1  0  0  0
 71147  1  0  0  0
 72 75  1  0  0  0
 72148  1  0  0  0
 73 76  2  0  0  0
 73149  1  0  0  0
 74 75  2  0  0  0
 74 76  1  0  0  0
 74150  1  0  0  0
 75 86  1  0  0  0
 76 87  1  0  0  0
 77 81  1  0  0  0
 77151  1  0  0  0
 77152  1  0  0  0
 77153  1  0  0  0
 78154  1  0  0  0
 78155  1  0  0  0
 78156  1  0  0  0
 78 84  1  0  0  0
 79 84  1  0  0  0
 79157  1  0  0  0
 79158  1  0  0  0
 79159  1  0  0  0
 80160  1  0  0  0
 80161  1  0  0  0
 80162  1  0  0  0
 80 85  1  0  0  0
 81 85  1  0  0  0
 81163  1  0  0  0
 81164  1  0  0  0
 82 85  1  0  0  0
 82 87  1  0  0  0
 82165  1  0  0  0
 82166  1  0  0  0
 83 84  1  0  0  0
 83167  1  0  0  0
 83168  1  0  0  0
 84 85  1  0  0  0
 86169  1  0  0  0
 87170  1  0  0  0
M  ISO  4   1 100  68 101  83 101  86 100
M  END
> <chiral flag>
0

> <version>
0

> <s_m_source_file>
/data/baiqing/PycharmProjects/Reinvent-master-3.2/result/LINK_invent/BTK/process_docking_weight1_custom_product_contain_oxygen_bond_distance_aromatic_linkinvent_7_9_3/rearranged_h_0141.sdf

> <i_m_source_file_index>
65

> <r_mmod_Potential_Energy-OPLS-2005>
201.653564453125

> <r_mmod_Stretch_Energy-OPLS-2005>
84.778190612793

> <r_mmod_Bend_Energy-OPLS-2005>
157.792236328125

> <r_mmod_Torsional_Energy-OPLS-2005>
312.6376953125

> <r_mmod_Improper_Torsional_Energy-OPLS-2005>
7.81235647201538

> <r_mmod_Van_der_Waal_Energy-OPLS-2005>
186.434600830078

> <r_mmod_Electrostatic_Energy-OPLS-2005>
-386.412750244141

> <r_mmod_Solvation_Energy-OPLS-2005>
-198.763122558594

> <b_mmod_Minimization_Converged-OPLS-2005>
0

> <r_mmod_RMS_Derivative-OPLS-2005>
3.41123557090759

$$$$
65
                    3D
 Structure written by MMmdl.
179188  0  0  1  0            999 V2000
  -30.7331  -14.3371   20.6941 C   0  0  0  0  0  0
  -30.4261  -12.2696   19.3867 C   0  0  0  0  0  0
  -29.4887  -12.5279   18.1905 C   0  0  0  0  0  0
  -28.0106  -12.3826   18.6059 C   0  0  0  0  0  0
  -27.6739  -13.1894   19.8874 C   0  0  2  0  0  0
  -28.7060  -12.8817   20.9924 C   0  0  0  0  0  0
  -25.2635  -13.8122   20.5676 C   0  0  0  0  0  0
  -24.1856  -13.0426   20.9156 C   0  0  0  0  0  0
  -24.6374  -11.6880   20.8704 C   0  0  0  0  0  0
  -23.9020  -10.4285   21.0400 C   0  0  0  0  0  0
  -24.3590   -9.4204   21.9176 C   0  0  0  0  0  0
  -23.6286   -8.2227   22.0746 C   0  0  0  0  0  0
  -22.4261   -8.0253   21.3548 C   0  0  0  0  0  0
  -21.9884   -9.0225   20.4649 C   0  0  0  0  0  0
  -22.7193  -10.2112   20.3048 C   0  0  0  0  0  0
  -21.6846   -6.0721   22.5285 C   0  0  0  0  0  0
  -21.4014   -6.5627   23.8220 C   0  0  0  0  0  0
  -21.3658   -5.6775   24.9181 C   0  0  0  0  0  0
  -21.6044   -4.3039   24.7231 C   0  0  0  0  0  0
  -21.8812   -3.8129   23.4352 C   0  0  0  0  0  0
  -21.9202   -4.6951   22.3403 C   0  0  0  0  0  0
  -22.7874  -13.5261   21.1844 C   0  0  0  0  0  0
  -22.1663   -4.2136   21.0983 F   0  0  0  0  0  0
  -21.5643   -3.4514   25.7750 F   0  0  0  0  0  0
  -30.0532  -13.1883   20.4679 N   0  0  0  0  0  0
  -26.3070  -12.9262   20.3381 N   0  0  0  0  0  0
  -25.9302  -11.6434   20.5728 N   0  0  0  0  0  0
  -22.0523  -12.8249   22.0399 N   0  0  0  0  0  0
  -25.4392  -15.1843   20.4148 N   0  0  0  0  0  0
  -31.7565  -14.6581   20.0759 O   0  0  0  0  0  0
  -21.6623   -6.8855   21.4239 O   0  0  0  0  0  0
  -22.3552  -14.5581   20.6715 O   0  0  0  0  0  0
  -24.6036  -31.8744   23.2165 C   0  0  0  0  0  0
  -25.8978  -32.4840   23.8438 C   0  0  1  0  0  0
  -27.2430  -27.5025   20.0782 C   0  0  0  0  0  0
  -25.5869  -33.8640   24.2344 N   0  0  0  0  0  0
  -23.3878  -30.4964   21.5565 C   0  0  2  0  0  0
  -24.8366  -28.9586   20.1298 C   0  0  0  0  0  0
  -22.7349  -29.4696   22.5067 C   0  0  0  0  0  0
  -18.0248  -28.1366   22.8499 C   0  0  0  0  0  0
  -24.1495  -36.7330   23.2643 C   0  0  0  0  0  0
  -25.9113  -30.8498   21.3700 C   0  0  0  0  0  0
  -25.9874  -29.4820   20.7330 C   0  0  0  0  0  0
  -27.1867  -28.7483   20.7306 C   0  0  0  0  0  0
  -26.0795  -26.9621   19.4961 C   0  0  0  0  0  0
  -24.8720  -27.6886   19.5211 C   0  0  0  0  0  0
  -23.5968  -29.8212   20.1729 C   0  0  0  0  0  0
  -25.4110  -36.3113   24.0339 C   0  0  1  0  0  0
  -20.5821  -28.3649   23.1355 C   0  0  2  0  0  0
  -20.6742  -26.9396   22.5440 C   0  0  0  0  0  0
  -19.5731  -26.6394   21.5213 C   0  0  0  0  0  0
  -18.1900  -26.7926   22.1610 C   0  0  0  0  0  0
  -19.1492  -28.8822   23.2924 C   0  0  0  0  0  0
  -18.9439  -30.1435   23.8918 C   0  0  0  0  0  0
  -17.6454  -30.6588   24.0566 C   0  0  0  0  0  0
  -25.9035  -34.9481   23.5136 C   0  0  0  0  0  0
  -16.5340  -29.9097   23.6315 C   0  0  0  0  0  0
  -16.7249  -28.6510   23.0333 C   0  0  0  0  0  0
  -26.4433  -31.6605   25.0739 C   0  0  0  0  0  0
  -25.3707  -31.3757   26.1503 C   0  0  0  0  0  0
  -27.0251  -30.3034   24.6121 C   0  0  0  0  0  0
  -27.6065  -32.4282   25.7452 C   0  0  0  0  0  0
  -27.5589  -37.1800   24.8451 C   0  0  0  0  0  0
  -21.4088  -29.3029   22.3783 N   0  0  0  0  0  0
  -26.4287  -37.3803   23.9416 N   0  0  0  0  0  0
  -24.6516  -31.0875   22.1067 N   0  0  0  0  0  0
  -23.4153  -28.8243   23.3093 O   0  0  0  0  0  0
  -28.4514  -26.8758   19.9381 O   0  0  0  0  0  0
  -26.5608  -34.8929   22.4702 O   0  0  0  0  0  0
  -23.5248  -32.1504   23.7570 O   0  0  0  0  0  0
  -28.4077  -20.8077   18.0605 C   0  0  0  0  0  0
  -29.2475  -20.0772   18.9218 C   0  0  0  0  0  0
  -28.5138  -22.2078   17.9945 C   0  0  0  0  0  0
  -30.2402  -22.1420   19.7108 C   0  0  0  0  0  0
  -30.9485  -17.3612   21.2005 C   0  0  0  0  0  0
  -29.1596  -18.7134   21.7476 C   0  0  0  0  0  0
  -30.1704  -20.7333   19.7778 C   0  0  0  0  0  0
  -30.4233  -18.6903   21.2031 C   0  0  0  0  0  0
  -29.4587  -22.8763   18.7965 C   0  0  0  0  0  0
  -30.0766  -16.4091   21.6599 C   0  0  0  0  0  0
  -30.6677  -25.0452   18.8800 C   0  0  0  0  0  0
  -33.0643  -20.6080   18.9630 C   0  0  0  0  0  0
  -32.8041  -19.9712   22.7052 C   0  0  0  0  0  0
  -30.6835  -21.2965   22.8555 C   0  0  0  0  0  0
  -29.1038  -28.5718   18.2214 C   0  0  0  0  0  0
  -30.5182  -26.5589   18.7267 C   0  0  0  0  0  0
  -32.3095  -19.4834   19.7012 C   0  0  0  0  0  0
  -31.7438  -20.7327   21.8799 C   0  0  0  0  0  0
  -29.0727  -27.0891   18.6558 C   0  0  1  0  0  0
  -31.1508  -19.9187   20.6594 C   0  0  1  0  0  0
  -29.5795  -24.2805   18.6748 N   0  0  0  0  0  0
  -30.2230  -15.0694   21.6900 N   0  0  0  0  0  0
  -31.7872  -24.5981   19.1439 O   0  0  0  0  0  0
  -28.6017  -17.1396   22.2209 S   0  0  0  0  0  0
  -31.4708  -12.3817   19.0880 H   0  0  0  0  0  0
  -30.3261  -11.2396   19.7341 H   0  0  0  0  0  0
  -29.7195  -11.8377   17.3790 H   0  0  0  0  0  0
  -29.6579  -13.5306   17.7937 H   0  0  0  0  0  0
  -27.8156  -11.3232   18.7776 H   0  0  0  0  0  0
  -27.3568  -12.6867   17.7877 H   0  0  0  0  0  0
  -27.7484  -14.2489   19.6421 H   0  0  0  0  0  0
  -28.6633  -11.8247   21.2604 H   0  0  0  0  0  0
  -28.4463  -13.4057   21.9118 H   0  0  0  0  0  0
  -25.2747   -9.5682   22.4729 H   0  0  0  0  0  0
  -24.0019   -7.4604   22.7440 H   0  0  0  0  0  0
  -21.0820   -8.8713   19.8957 H   0  0  0  0  0  0
  -22.3643  -10.9636   19.6135 H   0  0  0  0  0  0
  -21.1981   -7.6132   23.9716 H   0  0  0  0  0  0
  -21.1506   -6.0510   25.9091 H   0  0  0  0  0  0
  -22.0602   -2.7593   23.2847 H   0  0  0  0  0  0
  -22.4148  -11.9915   22.4772 H   0  0  0  0  0  0
  -21.1137  -13.1272   22.2646 H   0  0  0  0  0  0
  -24.6815  -15.8467   20.5414 H   0  0  0  0  0  0
  -26.3088  -15.6230   20.1385 H   0  0  0  0  0  0
  -26.7046  -32.5586   23.1221 H   0  0  0  0  0  0
  -24.9888  -33.9828   25.0384 H   0  0  0  0  0  0
  -22.6698  -31.3077   21.4171 H   0  0  0  0  0  0
  -23.3739  -35.9682   23.3282 H   0  0  0  0  0  0
  -24.3586  -36.8956   22.2060 H   0  0  0  0  0  0
  -23.7264  -37.6537   23.6666 H   0  0  0  0  0  0
  -26.0121  -31.6125   20.5963 H   0  0  0  0  0  0
  -26.8053  -30.9081   21.9808 H   0  0  0  0  0  0
  -28.0831  -29.1593   21.1745 H   0  0  0  0  0  0
  -26.1155  -26.0037   18.9998 H   0  0  0  0  0  0
  -23.9888  -27.2748   19.0558 H   0  0  0  0  0  0
  -23.7008  -30.5923   19.4091 H   0  0  0  0  0  0
  -22.7256  -29.2334   19.8787 H   0  0  0  0  0  0
  -25.1271  -36.1985   25.0828 H   0  0  0  0  0  0
  -20.9900  -28.3242   24.1479 H   0  0  0  0  0  0
  -20.5618  -26.2272   23.3629 H   0  0  0  0  0  0
  -21.6632  -26.7452   22.1262 H   0  0  0  0  0  0
  -19.6894  -25.6310   21.1230 H   0  0  0  0  0  0
  -19.6678  -27.3226   20.6759 H   0  0  0  0  0  0
  -17.4178  -26.6693   21.3998 H   0  0  0  0  0  0
  -18.0302  -26.0062   22.8999 H   0  0  0  0  0  0
  -19.7921  -30.7227   24.2314 H   0  0  0  0  0  0
  -17.5014  -31.6263   24.5190 H   0  0  0  0  0  0
  -15.5339  -30.3004   23.7621 H   0  0  0  0  0  0
  -15.8654  -28.0844   22.7005 H   0  0  0  0  0  0
  -24.5824  -30.7171   25.7841 H   0  0  0  0  0  0
  -24.8960  -32.2939   26.4972 H   0  0  0  0  0  0
  -25.8032  -30.8885   27.0247 H   0  0  0  0  0  0
  -26.2813  -29.6807   24.1135 H   0  0  0  0  0  0
  -27.3950  -29.7261   25.4608 H   0  0  0  0  0  0
  -27.8682  -30.4307   23.9323 H   0  0  0  0  0  0
  -27.2733  -33.3552   26.2134 H   0  0  0  0  0  0
  -28.3808  -32.6876   25.0214 H   0  0  0  0  0  0
  -28.0823  -31.8328   26.5262 H   0  0  0  0  0  0
  -28.2594  -38.0106   24.7481 H   0  0  0  0  0  0
  -28.1071  -36.2624   24.6244 H   0  0  0  0  0  0
  -27.2306  -37.1429   25.8854 H   0  0  0  0  0  0
  -20.9242  -29.8707   21.6979 H   0  0  0  0  0  0
  -26.0163  -38.2879   24.1412 H   0  0  0  0  0  0
  -27.6997  -20.2878   17.4288 H   0  0  0  0  0  0
  -29.1809  -18.9987   18.9170 H   0  0  0  0  0  0
  -27.8848  -22.7580   17.3084 H   0  0  0  0  0  0
  -30.9320  -22.6746   20.3404 H   0  0  0  0  0  0
  -31.9337  -17.1295   20.8280 H   0  0  0  0  0  0
  -28.5108  -19.5695   21.8788 H   0  0  0  0  0  0
  -33.8401  -20.1851   18.3261 H   0  0  0  0  0  0
  -33.5503  -21.2956   19.6550 H   0  0  0  0  0  0
  -32.4042  -21.1880   18.3183 H   0  0  0  0  0  0
  -33.1214  -20.5634   23.5643 H   0  0  0  0  0  0
  -33.7058  -19.7730   22.1253 H   0  0  0  0  0  0
  -32.4240  -19.0229   23.0861 H   0  0  0  0  0  0
  -31.1330  -22.0104   23.5461 H   0  0  0  0  0  0
  -30.2375  -20.5071   23.4613 H   0  0  0  0  0  0
  -29.8728  -21.8164   22.3474 H   0  0  0  0  0  0
  -29.6875  -28.7062   17.3101 H   0  0  0  0  0  0
  -29.5524  -29.2029   18.9894 H   0  0  0  0  0  0
  -28.1032  -28.9485   18.0061 H   0  0  0  0  0  0
  -31.0575  -26.8327   17.8185 H   0  0  0  0  0  0
  -31.0406  -27.0450   19.5505 H   0  0  0  0  0  0
  -33.0473  -18.8789   20.2255 H   0  0  0  0  0  0
  -31.8928  -18.8272   18.9355 H   0  0  0  0  0  0
  -32.2813  -21.5922   21.4860 H   0  0  0  0  0  0
  -28.5162  -26.5434   17.8920 H   0  0  0  0  0  0
  -28.7552  -24.7647   18.3466 H   0  0  0  0  0  0
  -29.4958  -14.5796   22.1914 H   0  0  0  0  0  0
  1 25  1  0  0  0
  1 30  2  0  0  0
  1 92  1  0  0  0
  2  3  1  0  0  0
  2 25  1  0  0  0
  2 95  1  0  0  0
  2 96  1  0  0  0
  3  4  1  0  0  0
  3 97  1  0  0  0
  3 98  1  0  0  0
  4  5  1  0  0  0
  4 99  1  0  0  0
  4100  1  0  0  0
  5  6  1  0  0  0
  5 26  1  0  0  0
  5101  1  0  0  0
  6 25  1  0  0  0
  6102  1  0  0  0
  6103  1  0  0  0
  7  8  2  0  0  0
  7 26  1  0  0  0
  7 29  1  0  0  0
  8  9  1  0  0  0
  8 22  1  0  0  0
  9 10  1  0  0  0
  9 27  2  0  0  0
 10 11  2  0  0  0
 10 15  1  0  0  0
 11 12  1  0  0  0
 11104  1  0  0  0
 12 13  2  0  0  0
 12105  1  0  0  0
 13 14  1  0  0  0
 13 31  1  0  0  0
 14 15  2  0  0  0
 14106  1  0  0  0
 15107  1  0  0  0
 16 17  2  0  0  0
 16 21  1  0  0  0
 16 31  1  0  0  0
 17 18  1  0  0  0
 17108  1  0  0  0
 18 19  2  0  0  0
 18109  1  0  0  0
 19 20  1  0  0  0
 19 24  1  0  0  0
 20 21  2  0  0  0
 20110  1  0  0  0
 21 23  1  0  0  0
 22 28  1  0  0  0
 22 32  2  0  0  0
 26 27  1  0  0  0
 28111  1  0  0  0
 28112  1  0  0  0
 29113  1  0  0  0
 29114  1  0  0  0
 33 34  1  0  0  0
 33 66  1  0  0  0
 33 70  2  0  0  0
 34 36  1  0  0  0
 34 59  1  0  0  0
 34115  1  0  0  0
 35 44  2  0  0  0
 35 45  1  0  0  0
 35 68  1  0  0  0
 36 56  1  0  0  0
 36116  1  0  0  0
 37 39  1  0  0  0
 37 47  1  0  0  0
 37 66  1  0  0  0
 37117  1  0  0  0
 38 43  2  0  0  0
 38 46  1  0  0  0
 38 47  1  0  0  0
 39 64  1  0  0  0
 39 67  2  0  0  0
 40 52  1  0  0  0
 40 53  2  0  0  0
 40 58  1  0  0  0
 41118  1  0  0  0
 41119  1  0  0  0
 41120  1  0  0  0
 41 48  1  0  0  0
 42 43  1  0  0  0
 42 66  1  0  0  0
 42121  1  0  0  0
 42122  1  0  0  0
 43 44  1  0  0  0
 44123  1  0  0  0
 45 46  2  0  0  0
 45124  1  0  0  0
 46125  1  0  0  0
 47126  1  0  0  0
 47127  1  0  0  0
 48 56  1  0  0  0
 48 65  1  0  0  0
 48128  1  0  0  0
 49 50  1  0  0  0
 49 53  1  0  0  0
 49 64  1  0  0  0
 49129  1  0  0  0
 50 51  1  0  0  0
 50130  1  0  0  0
 50131  1  0  0  0
 51 52  1  0  0  0
 51132  1  0  0  0
 51133  1  0  0  0
 52134  1  0  0  0
 52135  1  0  0  0
 53 54  1  0  0  0
 54 55  2  0  0  0
 54136  1  0  0  0
 55 57  1  0  0  0
 55137  1  0  0  0
 56 69  2  0  0  0
 57 58  2  0  0  0
 57138  1  0  0  0
 58139  1  0  0  0
 59 60  1  0  0  0
 59 61  1  0  0  0
 59 62  1  0  0  0
 60140  1  0  0  0
 60141  1  0  0  0
 60142  1  0  0  0
 61143  1  0  0  0
 61144  1  0  0  0
 61145  1  0  0  0
 62146  1  0  0  0
 62147  1  0  0  0
 62148  1  0  0  0
 63 65  1  0  0  0
 63149  1  0  0  0
 63150  1  0  0  0
 63151  1  0  0  0
 64152  1  0  0  0
 65153  1  0  0  0
 68 89  1  0  0  0
 71 72  2  0  0  0
 71 73  1  0  0  0
 71154  1  0  0  0
 72 77  1  0  0  0
 72155  1  0  0  0
 73 79  2  0  0  0
 73156  1  0  0  0
 74 77  2  0  0  0
 74 79  1  0  0  0
 74157  1  0  0  0
 75 78  1  0  0  0
 75 80  2  0  0  0
 75158  1  0  0  0
 76 78  2  0  0  0
 76 94  1  0  0  0
 76159  1  0  0  0
 77 90  1  0  0  0
 78 90  1  0  0  0
 79 91  1  0  0  0
 80 92  1  0  0  0
 80 94  1  0  0  0
 81 86  1  0  0  0
 81 91  1  0  0  0
 81 93  2  0  0  0
 82 87  1  0  0  0
 82160  1  0  0  0
 82161  1  0  0  0
 82162  1  0  0  0
 83163  1  0  0  0
 83164  1  0  0  0
 83165  1  0  0  0
 83 88  1  0  0  0
 84 88  1  0  0  0
 84166  1  0  0  0
 84167  1  0  0  0
 84168  1  0  0  0
 85169  1  0  0  0
 85170  1  0  0  0
 85171  1  0  0  0
 85 89  1  0  0  0
 86 89  1  0  0  0
 86172  1  0  0  0
 86173  1  0  0  0
 87174  1  0  0  0
 87175  1  0  0  0
 87 90  1  0  0  0
 88 90  1  0  0  0
 88176  1  0  0  0
 89177  1  0  0  0
 91178  1  0  0  0
 92179  1  0  0  0
M  ISO  4   1 100  68 101  89 101  92 100
M  END
> <chiral flag>
0

> <version>
0

> <s_m_source_file>
/data/baiqing/PycharmProjects/Reinvent-master-3.2/result/LINK_invent/BTK/process_docking_weight1_custom_product_contain_oxygen_bond_distance_aromatic_linkinvent_7_9_3/rearranged_h_0141.sdf

> <i_m_source_file_index>
66

> <r_mmod_Potential_Energy-OPLS-2005>
-3.14633107185364

> <r_mmod_Stretch_Energy-OPLS-2005>
40.6591148376465

> <r_mmod_Bend_Energy-OPLS-2005>
116.656211853027

> <r_mmod_Torsional_Energy-OPLS-2005>
273.828643798828

> <r_mmod_Improper_Torsional_Energy-OPLS-2005>
5.45349454879761

> <r_mmod_Van_der_Waal_Energy-OPLS-2005>
181.103668212891

> <r_mmod_Electrostatic_Energy-OPLS-2005>
-421.704986572266

> <r_mmod_Solvation_Energy-OPLS-2005>
-208.6826171875

> <b_mmod_Minimization_Converged-OPLS-2005>
0

> <r_mmod_RMS_Derivative-OPLS-2005>
3.39548325538635

$$$$
66
                    3D
 Structure written by MMmdl.
163171  0  0  1  0            999 V2000
  -30.7210  -14.4061   20.6493 C   0  0  0  0  0  0
  -30.4237  -12.3009   19.3956 C   0  0  0  0  0  0
  -29.4851  -12.5227   18.1930 C   0  0  0  0  0  0
  -28.0083  -12.3812   18.6100 C   0  0  0  0  0  0
  -27.6650  -13.1993   19.8825 C   0  0  2  0  0  0
  -28.7041  -12.9338   20.9936 C   0  0  0  0  0  0
  -25.2609  -13.8140   20.5682 C   0  0  0  0  0  0
  -24.1848  -13.0441   20.9157 C   0  0  0  0  0  0
  -24.6380  -11.6897   20.8728 C   0  0  0  0  0  0
  -23.9041  -10.4290   21.0405 C   0  0  0  0  0  0
  -24.3599   -9.4209   21.9180 C   0  0  0  0  0  0
  -23.6283   -8.2241   22.0752 C   0  0  0  0  0  0
  -22.4271   -8.0273   21.3539 C   0  0  0  0  0  0
  -21.9895   -9.0244   20.4642 C   0  0  0  0  0  0
  -22.7213  -10.2128   20.3052 C   0  0  0  0  0  0
  -21.6855   -6.0731   22.5274 C   0  0  0  0  0  0
  -21.4017   -6.5636   23.8207 C   0  0  0  0  0  0
  -21.3660   -5.6791   24.9167 C   0  0  0  0  0  0
  -21.6045   -4.3053   24.7224 C   0  0  0  0  0  0
  -21.8819   -3.8145   23.4347 C   0  0  0  0  0  0
  -21.9195   -4.6958   22.3402 C   0  0  0  0  0  0
  -22.7871  -13.5245   21.1844 C   0  0  0  0  0  0
  -22.1663   -4.2143   21.0981 F   0  0  0  0  0  0
  -21.5630   -3.4540   25.7740 F   0  0  0  0  0  0
  -30.0383  -13.2484   20.4503 N   0  0  0  0  0  0
  -26.3039  -12.9295   20.3395 N   0  0  0  0  0  0
  -25.9307  -11.6462   20.5762 N   0  0  0  0  0  0
  -22.0513  -12.8237   22.0392 N   0  0  0  0  0  0
  -25.4379  -15.1853   20.4096 N   0  0  0  0  0  0
  -31.8088  -14.6491   20.1136 O   0  0  0  0  0  0
  -21.6640   -6.8872   21.4237 O   0  0  0  0  0  0
  -22.3560  -14.5556   20.6696 O   0  0  0  0  0  0
  -24.6157  -31.8680   23.2134 C   0  0  0  0  0  0
  -25.9054  -32.4826   23.8403 C   0  0  1  0  0  0
  -27.2340  -27.4425   20.0873 C   0  0  0  0  0  0
  -25.5914  -33.8622   24.2312 N   0  0  0  0  0  0
  -23.4008  -30.4948   21.5566 C   0  0  2  0  0  0
  -24.8426  -28.9629   20.1155 C   0  0  0  0  0  0
  -22.7410  -29.4648   22.5007 C   0  0  0  0  0  0
  -18.0275  -28.1423   22.8468 C   0  0  0  0  0  0
  -24.1526  -36.7315   23.2630 C   0  0  0  0  0  0
  -25.9293  -30.8353   21.3664 C   0  0  0  0  0  0
  -26.0027  -29.4733   20.7074 C   0  0  0  0  0  0
  -27.1974  -28.7216   20.6866 C   0  0  0  0  0  0
  -26.0458  -26.9369   19.5053 C   0  0  0  0  0  0
  -24.8564  -27.6930   19.5163 C   0  0  0  0  0  0
  -23.6109  -29.8378   20.1675 C   0  0  0  0  0  0
  -25.4144  -36.3084   24.0313 C   0  0  1  0  0  0
  -20.5860  -28.3669   23.1340 C   0  0  2  0  0  0
  -20.6817  -26.9412   22.5433 C   0  0  0  0  0  0
  -19.5800  -26.6406   21.5234 C   0  0  0  0  0  0
  -18.1953  -26.7967   22.1605 C   0  0  0  0  0  0
  -19.1523  -28.8872   23.2897 C   0  0  0  0  0  0
  -18.9447  -30.1491   23.8886 C   0  0  0  0  0  0
  -17.6440  -30.6607   24.0581 C   0  0  0  0  0  0
  -25.9051  -34.9458   23.5089 C   0  0  0  0  0  0
  -16.5336  -29.9093   23.6363 C   0  0  0  0  0  0
  -16.7263  -28.6547   23.0302 C   0  0  0  0  0  0
  -26.4504  -31.6610   25.0724 C   0  0  0  0  0  0
  -25.3781  -31.3710   26.1475 C   0  0  0  0  0  0
  -27.0328  -30.3054   24.6087 C   0  0  0  0  0  0
  -27.6071  -32.4334   25.7494 C   0  0  0  0  0  0
  -27.5589  -37.1816   24.8451 C   0  0  0  0  0  0
  -21.4140  -29.3014   22.3742 N   0  0  0  0  0  0
  -26.4314  -37.3778   23.9383 N   0  0  0  0  0  0
  -24.6672  -31.0782   22.1049 N   0  0  0  0  0  0
  -23.4176  -28.8188   23.3050 O   0  0  0  0  0  0
  -28.4434  -26.7715   20.0916 O   0  0  0  0  0  0
  -26.5598  -34.8901   22.4643 O   0  0  0  0  0  0
  -23.5362  -32.1428   23.7556 O   0  0  0  0  0  0
  -31.6195  -16.8471   22.4517 C   0  0  0  0  0  0
  -31.5740  -18.2517   22.6966 C   0  0  0  0  0  0
  -30.4930  -16.5492   21.7360 C   0  0  0  0  0  0
  -30.4202  -18.6737   22.0807 C   0  0  0  0  0  0
  -29.0136  -20.5213   21.3729 C   0  0  0  0  0  0
  -32.5819  -19.0510   23.4837 C   0  0  0  0  0  0
  -27.1882  -24.6665   21.8503 C   0  0  0  0  0  0
  -29.7022  -24.8729   21.9783 C   0  0  0  0  0  0
  -28.5798  -21.9335   21.7873 C   0  0  0  0  0  0
  -28.6690  -22.9819   20.6475 C   0  0  0  0  0  0
  -28.5312  -25.3676   19.8053 C   0  0  0  0  0  0
  -28.5119  -24.4721   21.0795 C   0  0  0  0  0  0
  -29.9748  -19.9542   22.1212 N   0  0  0  0  0  0
  -30.0767  -15.3044   21.4105 N   0  0  0  0  0  0
  -28.4934  -19.9836   20.3911 O   0  0  0  0  0  0
  -29.7239  -17.6480   21.5102 O   0  0  0  0  0  0
  -31.4648  -12.4182   19.0890 H   0  0  0  0  0  0
  -30.3375  -11.2788   19.7659 H   0  0  0  0  0  0
  -29.7171  -11.8118   17.3989 H   0  0  0  0  0  0
  -29.6520  -13.5160   17.7733 H   0  0  0  0  0  0
  -27.8120  -11.3229   18.7861 H   0  0  0  0  0  0
  -27.3552  -12.6782   17.7891 H   0  0  0  0  0  0
  -27.7237  -14.2545   19.6140 H   0  0  0  0  0  0
  -28.6768  -11.8852   21.2940 H   0  0  0  0  0  0
  -28.4573  -13.4919   21.8981 H   0  0  0  0  0  0
  -25.2748   -9.5695   22.4748 H   0  0  0  0  0  0
  -24.0001   -7.4639   22.7473 H   0  0  0  0  0  0
  -21.0826   -8.8755   19.8951 H   0  0  0  0  0  0
  -22.3664  -10.9666   19.6162 H   0  0  0  0  0  0
  -21.2007   -7.6145   23.9705 H   0  0  0  0  0  0
  -21.1485   -6.0525   25.9068 H   0  0  0  0  0  0
  -22.0601   -2.7610   23.2849 H   0  0  0  0  0  0
  -22.4131  -11.9885   22.4760 H   0  0  0  0  0  0
  -21.1136  -13.1267   22.2622 H   0  0  0  0  0  0
  -24.6801  -15.8495   20.5194 H   0  0  0  0  0  0
  -26.2989  -15.6179   20.0992 H   0  0  0  0  0  0
  -26.7096  -32.5536   23.1137 H   0  0  0  0  0  0
  -25.0124  -33.9801   25.0498 H   0  0  0  0  0  0
  -22.6878  -31.3112   21.4224 H   0  0  0  0  0  0
  -23.3766  -35.9671   23.3310 H   0  0  0  0  0  0
  -24.3609  -36.8933   22.2037 H   0  0  0  0  0  0
  -23.7320  -37.6536   23.6658 H   0  0  0  0  0  0
  -26.0427  -31.6110   20.6076 H   0  0  0  0  0  0
  -26.8197  -30.8816   21.9830 H   0  0  0  0  0  0
  -28.0968  -29.1221   21.1330 H   0  0  0  0  0  0
  -26.0014  -25.9694   19.0316 H   0  0  0  0  0  0
  -23.9586  -27.2935   19.0633 H   0  0  0  0  0  0
  -23.7358  -30.6238   19.4212 H   0  0  0  0  0  0
  -22.7318  -29.2716   19.8593 H   0  0  0  0  0  0
  -25.1333  -36.1922   25.0807 H   0  0  0  0  0  0
  -20.9923  -28.3251   24.1469 H   0  0  0  0  0  0
  -20.5856  -26.2224   23.3591 H   0  0  0  0  0  0
  -21.6672  -26.7576   22.1130 H   0  0  0  0  0  0
  -19.6972  -25.6320   21.1266 H   0  0  0  0  0  0
  -19.6798  -27.3234   20.6787 H   0  0  0  0  0  0
  -17.4248  -26.6717   21.3981 H   0  0  0  0  0  0
  -18.0315  -26.0149   22.9035 H   0  0  0  0  0  0
  -19.7926  -30.7337   24.2209 H   0  0  0  0  0  0
  -17.4996  -31.6287   24.5180 H   0  0  0  0  0  0
  -15.5333  -30.2966   23.7759 H   0  0  0  0  0  0
  -15.8663  -28.0925   22.6913 H   0  0  0  0  0  0
  -24.5947  -30.7066   25.7809 H   0  0  0  0  0  0
  -24.8998  -32.2879   26.4931 H   0  0  0  0  0  0
  -25.8156  -30.8865   27.0214 H   0  0  0  0  0  0
  -26.2855  -29.6811   24.1176 H   0  0  0  0  0  0
  -27.4135  -29.7287   25.4526 H   0  0  0  0  0  0
  -27.8681  -30.4370   23.9205 H   0  0  0  0  0  0
  -27.2669  -33.3615   26.2104 H   0  0  0  0  0  0
  -28.3881  -32.6928   25.0330 H   0  0  0  0  0  0
  -28.0746  -31.8440   26.5396 H   0  0  0  0  0  0
  -28.2579  -38.0132   24.7470 H   0  0  0  0  0  0
  -28.1101  -36.2643   24.6311 H   0  0  0  0  0  0
  -27.2276  -37.1493   25.8845 H   0  0  0  0  0  0
  -20.9292  -29.8670   21.6921 H   0  0  0  0  0  0
  -26.0188  -38.2842   24.1413 H   0  0  0  0  0  0
  -32.3637  -16.1403   22.7937 H   0  0  0  0  0  0
  -33.5622  -18.9984   23.0101 H   0  0  0  0  0  0
  -32.6720  -18.6386   24.4886 H   0  0  0  0  0  0
  -32.2987  -20.0998   23.5685 H   0  0  0  0  0  0
  -27.1505  -24.0714   22.7630 H   0  0  0  0  0  0
  -26.3286  -24.3875   21.2386 H   0  0  0  0  0  0
  -27.0526  -25.7036   22.1582 H   0  0  0  0  0  0
  -29.6749  -24.3730   22.9457 H   0  0  0  0  0  0
  -29.7130  -25.9441   22.1820 H   0  0  0  0  0  0
  -30.6554  -24.6241   21.5094 H   0  0  0  0  0  0
  -29.1781  -22.2395   22.6444 H   0  0  0  0  0  0
  -27.5538  -21.8662   22.1496 H   0  0  0  0  0  0
  -27.9099  -22.7359   19.9020 H   0  0  0  0  0  0
  -29.6256  -22.8631   20.1336 H   0  0  0  0  0  0
  -27.8121  -25.0270   19.0659 H   0  0  0  0  0  0
  -29.4938  -25.2299   19.3090 H   0  0  0  0  0  0
  -30.4067  -20.5485   22.8141 H   0  0  0  0  0  0
  -29.1414  -15.0544   21.6917 H   0  0  0  0  0  0
  1 25  1  0  0  0
  1 30  2  0  0  0
  1 84  1  0  0  0
  2  3  1  0  0  0
  2 25  1  0  0  0
  2 87  1  0  0  0
  2 88  1  0  0  0
  3  4  1  0  0  0
  3 89  1  0  0  0
  3 90  1  0  0  0
  4  5  1  0  0  0
  4 91  1  0  0  0
  4 92  1  0  0  0
  5  6  1  0  0  0
  5 26  1  0  0  0
  5 93  1  0  0  0
  6 25  1  0  0  0
  6 94  1  0  0  0
  6 95  1  0  0  0
  7  8  2  0  0  0
  7 26  1  0  0  0
  7 29  1  0  0  0
  8  9  1  0  0  0
  8 22  1  0  0  0
  9 10  1  0  0  0
  9 27  2  0  0  0
 10 11  2  0  0  0
 10 15  1  0  0  0
 11 12  1  0  0  0
 11 96  1  0  0  0
 12 13  2  0  0  0
 12 97  1  0  0  0
 13 14  1  0  0  0
 13 31  1  0  0  0
 14 15  2  0  0  0
 14 98  1  0  0  0
 15 99  1  0  0  0
 16 17  2  0  0  0
 16 21  1  0  0  0
 16 31  1  0  0  0
 17 18  1  0  0  0
 17100  1  0  0  0
 18 19  2  0  0  0
 18101  1  0  0  0
 19 20  1  0  0  0
 19 24  1  0  0  0
 20 21  2  0  0  0
 20102  1  0  0  0
 21 23  1  0  0  0
 22 28  1  0  0  0
 22 32  2  0  0  0
 26 27  1  0  0  0
 28103  1  0  0  0
 28104  1  0  0  0
 29105  1  0  0  0
 29106  1  0  0  0
 33 34  1  0  0  0
 33 66  1  0  0  0
 33 70  2  0  0  0
 34 36  1  0  0  0
 34 59  1  0  0  0
 34107  1  0  0  0
 35 44  2  0  0  0
 35 45  1  0  0  0
 35 68  1  0  0  0
 36 56  1  0  0  0
 36108  1  0  0  0
 37 39  1  0  0  0
 37 47  1  0  0  0
 37 66  1  0  0  0
 37109  1  0  0  0
 38 43  2  0  0  0
 38 46  1  0  0  0
 38 47  1  0  0  0
 39 64  1  0  0  0
 39 67  2  0  0  0
 40 52  1  0  0  0
 40 53  2  0  0  0
 40 58  1  0  0  0
 41110  1  0  0  0
 41111  1  0  0  0
 41112  1  0  0  0
 41 48  1  0  0  0
 42 43  1  0  0  0
 42 66  1  0  0  0
 42113  1  0  0  0
 42114  1  0  0  0
 43 44  1  0  0  0
 44115  1  0  0  0
 45 46  2  0  0  0
 45116  1  0  0  0
 46117  1  0  0  0
 47118  1  0  0  0
 47119  1  0  0  0
 48 56  1  0  0  0
 48 65  1  0  0  0
 48120  1  0  0  0
 49 50  1  0  0  0
 49 53  1  0  0  0
 49 64  1  0  0  0
 49121  1  0  0  0
 50 51  1  0  0  0
 50122  1  0  0  0
 50123  1  0  0  0
 51 52  1  0  0  0
 51124  1  0  0  0
 51125  1  0  0  0
 52126  1  0  0  0
 52127  1  0  0  0
 53 54  1  0  0  0
 54 55  2  0  0  0
 54128  1  0  0  0
 55 57  1  0  0  0
 55129  1  0  0  0
 56 69  2  0  0  0
 57 58  2  0  0  0
 57130  1  0  0  0
 58131  1  0  0  0
 59 60  1  0  0  0
 59 61  1  0  0  0
 59 62  1  0  0  0
 60132  1  0  0  0
 60133  1  0  0  0
 60134  1  0  0  0
 61135  1  0  0  0
 61136  1  0  0  0
 61137  1  0  0  0
 62138  1  0  0  0
 62139  1  0  0  0
 62140  1  0  0  0
 63 65  1  0  0  0
 63141  1  0  0  0
 63142  1  0  0  0
 63143  1  0  0  0
 64144  1  0  0  0
 65145  1  0  0  0
 68 81  1  0  0  0
 71 72  1  0  0  0
 71 73  2  0  0  0
 71146  1  0  0  0
 72 74  2  0  0  0
 72 76  1  0  0  0
 73 84  1  0  0  0
 73 86  1  0  0  0
 74 83  1  0  0  0
 74 86  1  0  0  0
 75 79  1  0  0  0
 75 83  1  0  0  0
 75 85  2  0  0  0
 76147  1  0  0  0
 76148  1  0  0  0
 76149  1  0  0  0
 77150  1  0  0  0
 77151  1  0  0  0
 77152  1  0  0  0
 77 82  1  0  0  0
 78 82  1  0  0  0
 78153  1  0  0  0
 78154  1  0  0  0
 78155  1  0  0  0
 79 80  1  0  0  0
 79156  1  0  0  0
 79157  1  0  0  0
 80 82  1  0  0  0
 80158  1  0  0  0
 80159  1  0  0  0
 81 82  1  0  0  0
 81160  1  0  0  0
 81161  1  0  0  0
 83162  1  0  0  0
 84163  1  0  0  0
M  ISO  4   1 100  68 101  81 101  84 100
M  END
> <chiral flag>
0

> <version>
0

> <s_m_source_file>
/data/baiqing/PycharmProjects/Reinvent-master-3.2/result/LINK_invent/BTK/process_docking_weight1_custom_product_contain_oxygen_bond_distance_aromatic_linkinvent_7_9_3/rearranged_h_0141.sdf

> <i_m_source_file_index>
67

> <r_mmod_Potential_Energy-OPLS-2005>
-134.668380737305

> <r_mmod_Stretch_Energy-OPLS-2005>
33.9109039306641

> <r_mmod_Bend_Energy-OPLS-2005>
122.080963134766

> <r_mmod_Torsional_Energy-OPLS-2005>
229.141036987305

> <r_mmod_Improper_Torsional_Energy-OPLS-2005>
2.98852443695068

> <r_mmod_Van_der_Waal_Energy-OPLS-2005>
138.729934692383

> <r_mmod_Electrostatic_Energy-OPLS-2005>
-444.501647949219

> <r_mmod_Solvation_Energy-OPLS-2005>
-226.567687988281

> <b_mmod_Minimization_Converged-OPLS-2005>
0

> <r_mmod_RMS_Derivative-OPLS-2005>
2.40011954307556

$$$$
67
                    3D
 Structure written by MMmdl.
171179  0  0  1  0            999 V2000
  -30.6675  -14.6432   20.4504 C   0  0  0  0  0  0
  -30.4174  -12.3868   19.4646 C   0  0  0  0  0  0
  -29.5015  -12.4898   18.2274 C   0  0  0  0  0  0
  -28.0255  -12.3359   18.6395 C   0  0  0  0  0  0
  -27.6442  -13.2291   19.8509 C   0  0  2  0  0  0
  -28.6881  -13.1430   20.9863 C   0  0  0  0  0  0
  -25.2522  -13.8207   20.5700 C   0  0  0  0  0  0
  -24.1811  -13.0445   20.9210 C   0  0  0  0  0  0
  -24.6400  -11.6927   20.8750 C   0  0  0  0  0  0
  -23.9077  -10.4298   21.0413 C   0  0  0  0  0  0
  -24.3625   -9.4216   21.9187 C   0  0  0  0  0  0
  -23.6301   -8.2249   22.0753 C   0  0  0  0  0  0
  -22.4282   -8.0290   21.3544 C   0  0  0  0  0  0
  -21.9924   -9.0262   20.4644 C   0  0  0  0  0  0
  -22.7251  -10.2146   20.3057 C   0  0  0  0  0  0
  -21.6853   -6.0744   22.5281 C   0  0  0  0  0  0
  -21.4017   -6.5645   23.8217 C   0  0  0  0  0  0
  -21.3660   -5.6793   24.9179 C   0  0  0  0  0  0
  -21.6045   -4.3056   24.7225 C   0  0  0  0  0  0
  -21.8815   -3.8151   23.4344 C   0  0  0  0  0  0
  -21.9197   -4.6973   22.3402 C   0  0  0  0  0  0
  -22.7835  -13.5228   21.1875 C   0  0  0  0  0  0
  -22.1663   -4.2159   21.0979 F   0  0  0  0  0  0
  -21.5630   -3.4536   25.7738 F   0  0  0  0  0  0
  -30.0009  -13.4471   20.4057 N   0  0  0  0  0  0
  -26.2947  -12.9411   20.3284 N   0  0  0  0  0  0
  -25.9329  -11.6553   20.5753 N   0  0  0  0  0  0
  -22.0476  -12.8210   22.0423 N   0  0  0  0  0  0
  -25.4208  -15.1929   20.4121 N   0  0  0  0  0  0
  -31.8699  -14.6807   20.1813 O   0  0  0  0  0  0
  -21.6642   -6.8888   21.4243 O   0  0  0  0  0  0
  -22.3519  -14.5534   20.6724 O   0  0  0  0  0  0
  -24.6244  -31.8618   23.2042 C   0  0  0  0  0  0
  -25.9095  -32.4800   23.8376 C   0  0  1  0  0  0
  -27.2145  -27.3146   20.1183 C   0  0  0  0  0  0
  -25.5915  -33.8601   24.2297 N   0  0  0  0  0  0
  -23.4184  -30.4859   21.5480 C   0  0  2  0  0  0
  -24.8635  -28.9443   20.1088 C   0  0  0  0  0  0
  -22.7470  -29.4626   22.4947 C   0  0  0  0  0  0
  -18.0303  -28.1388   22.8500 C   0  0  0  0  0  0
  -24.1490  -36.7301   23.2640 C   0  0  0  0  0  0
  -25.9597  -30.7869   21.3806 C   0  0  0  0  0  0
  -26.0304  -29.4152   20.7226 C   0  0  0  0  0  0
  -27.2061  -28.6083   20.7251 C   0  0  0  0  0  0
  -26.0326  -26.9134   19.4510 C   0  0  0  0  0  0
  -24.8661  -27.6993   19.4644 C   0  0  0  0  0  0
  -23.6331  -29.8249   20.1621 C   0  0  0  0  0  0
  -25.4115  -36.3095   24.0324 C   0  0  1  0  0  0
  -20.5898  -28.3691   23.1297 C   0  0  2  0  0  0
  -20.6788  -26.9425   22.5407 C   0  0  0  0  0  0
  -19.5758  -26.6395   21.5218 C   0  0  0  0  0  0
  -18.1941  -26.7934   22.1628 C   0  0  0  0  0  0
  -19.1551  -28.8855   23.2900 C   0  0  0  0  0  0
  -18.9470  -30.1458   23.8923 C   0  0  0  0  0  0
  -17.6469  -30.6599   24.0565 C   0  0  0  0  0  0
  -25.9043  -34.9466   23.5112 C   0  0  0  0  0  0
  -16.5357  -29.9096   23.6332 C   0  0  0  0  0  0
  -16.7286  -28.6502   23.0364 C   0  0  0  0  0  0
  -26.4485  -31.6613   25.0746 C   0  0  0  0  0  0
  -25.3705  -31.3727   26.1459 C   0  0  0  0  0  0
  -27.0346  -30.3051   24.6193 C   0  0  0  0  0  0
  -27.6052  -32.4350   25.7507 C   0  0  0  0  0  0
  -27.5589  -37.1808   24.8464 C   0  0  0  0  0  0
  -21.4185  -29.3034   22.3673 N   0  0  0  0  0  0
  -26.4305  -37.3782   23.9397 N   0  0  0  0  0  0
  -24.6864  -31.0618   22.1007 N   0  0  0  0  0  0
  -23.4194  -28.8168   23.3029 O   0  0  0  0  0  0
  -28.3283  -26.4641   20.2044 O   0  0  0  0  0  0
  -26.5634  -34.8926   22.4690 O   0  0  0  0  0  0
  -23.5400  -32.1432   23.7349 O   0  0  0  0  0  0
  -31.7344  -18.6536   18.8614 C   0  0  0  0  0  0
  -31.1788  -19.7916   19.4644 C   0  0  0  0  0  0
  -31.2883  -17.3701   19.2016 C   0  0  0  0  0  0
  -29.6695  -18.3713   20.7127 C   0  0  0  0  0  0
  -30.0833  -19.7241   20.3591 C   0  0  0  0  0  0
  -30.2937  -17.1743   20.1886 C   0  0  0  0  0  0
  -28.4419  -20.6724   22.0595 C   0  0  0  0  0  0
  -30.7840  -21.4579   21.9455 C   0  0  0  0  0  0
  -28.3889  -24.0207   22.1537 C   0  0  0  0  0  0
  -30.4550  -24.5645   20.8476 C   0  0  0  0  0  0
  -29.8831  -22.4748   18.8234 C   0  0  0  0  0  0
  -27.6403  -22.0396   19.6455 C   0  0  0  0  0  0
  -28.1882  -25.0156   19.9035 C   0  0  0  0  0  0
  -29.5694  -21.0753   21.0672 C   0  0  0  0  0  0
  -29.0373  -23.9403   20.7496 C   0  0  0  0  0  0
  -29.0697  -22.3862   20.1411 C   0  0  0  0  0  0
  -29.9344  -15.8024   20.5974 N   0  0  0  0  0  0
  -31.4624  -12.4766   19.1630 H   0  0  0  0  0  0
  -30.3269  -11.4050   19.9323 H   0  0  0  0  0  0
  -29.7658  -11.7254   17.4954 H   0  0  0  0  0  0
  -29.6497  -13.4521   17.7338 H   0  0  0  0  0  0
  -27.8643  -11.2865   18.8890 H   0  0  0  0  0  0
  -27.3721  -12.5495   17.7931 H   0  0  0  0  0  0
  -27.6469  -14.2544   19.4808 H   0  0  0  0  0  0
  -28.6932  -12.1492   21.4362 H   0  0  0  0  0  0
  -28.4425  -13.8409   21.7877 H   0  0  0  0  0  0
  -25.2768   -9.5695   22.4767 H   0  0  0  0  0  0
  -24.0012   -7.4641   22.7471 H   0  0  0  0  0  0
  -21.0860   -8.8787   19.8942 H   0  0  0  0  0  0
  -22.3712  -10.9689   19.6172 H   0  0  0  0  0  0
  -21.2002   -7.6153   23.9727 H   0  0  0  0  0  0
  -21.1487   -6.0521   25.9084 H   0  0  0  0  0  0
  -22.0593   -2.7615   23.2841 H   0  0  0  0  0  0
  -22.4098  -11.9868   22.4807 H   0  0  0  0  0  0
  -21.1092  -13.1229   22.2619 H   0  0  0  0  0  0
  -24.6495  -15.8427   20.5202 H   0  0  0  0  0  0
  -26.2663  -15.6367   20.0770 H   0  0  0  0  0  0
  -26.7157  -32.5478   23.1116 H   0  0  0  0  0  0
  -25.0001  -33.9737   25.0402 H   0  0  0  0  0  0
  -22.7126  -31.3076   21.4074 H   0  0  0  0  0  0
  -23.3754  -35.9634   23.3296 H   0  0  0  0  0  0
  -24.3560  -36.8926   22.2055 H   0  0  0  0  0  0
  -23.7244  -37.6495   23.6671 H   0  0  0  0  0  0
  -26.0943  -31.5492   20.6118 H   0  0  0  0  0  0
  -26.8378  -30.8333   22.0125 H   0  0  0  0  0  0
  -28.0969  -28.9570   21.2294 H   0  0  0  0  0  0
  -25.9740  -25.9794   18.9128 H   0  0  0  0  0  0
  -23.9739  -27.3402   18.9686 H   0  0  0  0  0  0
  -23.7532  -30.6044   19.4091 H   0  0  0  0  0  0
  -22.7524  -29.2554   19.8597 H   0  0  0  0  0  0
  -25.1296  -36.1949   25.0818 H   0  0  0  0  0  0
  -20.9999  -28.3284   24.1416 H   0  0  0  0  0  0
  -20.5714  -26.2310   23.3602 H   0  0  0  0  0  0
  -21.6657  -26.7473   22.1194 H   0  0  0  0  0  0
  -19.6919  -25.6307   21.1252 H   0  0  0  0  0  0
  -19.6699  -27.3200   20.6750 H   0  0  0  0  0  0
  -17.4211  -26.6701   21.4026 H   0  0  0  0  0  0
  -18.0329  -26.0078   22.9025 H   0  0  0  0  0  0
  -19.7942  -30.7266   24.2313 H   0  0  0  0  0  0
  -17.5023  -31.6286   24.5162 H   0  0  0  0  0  0
  -15.5354  -30.3003   23.7646 H   0  0  0  0  0  0
  -15.8682  -28.0819   22.7088 H   0  0  0  0  0  0
  -24.5891  -30.7079   25.7757 H   0  0  0  0  0  0
  -24.8876  -32.2877   26.4908 H   0  0  0  0  0  0
  -25.8008  -30.8881   27.0234 H   0  0  0  0  0  0
  -26.2935  -29.6786   24.1221 H   0  0  0  0  0  0
  -27.4061  -29.7317   25.4697 H   0  0  0  0  0  0
  -27.8790  -30.4349   23.9415 H   0  0  0  0  0  0
  -27.2691  -33.3661   26.2081 H   0  0  0  0  0  0
  -28.3861  -32.6895   25.0330 H   0  0  0  0  0  0
  -28.0731  -31.8484   26.5419 H   0  0  0  0  0  0
  -28.2608  -38.0114   24.7532 H   0  0  0  0  0  0
  -28.1095  -36.2643   24.6278 H   0  0  0  0  0  0
  -27.2299  -37.1430   25.8869 H   0  0  0  0  0  0
  -20.9362  -29.8763   21.6886 H   0  0  0  0  0  0
  -26.0190  -38.2857   24.1407 H   0  0  0  0  0  0
  -32.5422  -18.7662   18.1515 H   0  0  0  0  0  0
  -31.6498  -20.7285   19.2277 H   0  0  0  0  0  0
  -31.7608  -16.5404   18.6980 H   0  0  0  0  0  0
  -28.8907  -18.2267   21.4456 H   0  0  0  0  0  0
  -28.8052  -19.9946   22.8324 H   0  0  0  0  0  0
  -27.6195  -20.1649   21.5553 H   0  0  0  0  0  0
  -28.0064  -21.5114   22.5898 H   0  0  0  0  0  0
  -31.1079  -20.6118   22.5542 H   0  0  0  0  0  0
  -30.5811  -22.2551   22.6512 H   0  0  0  0  0  0
  -31.6445  -21.7560   21.3473 H   0  0  0  0  0  0
  -28.3162  -25.0548   22.4934 H   0  0  0  0  0  0
  -28.9451  -23.5019   22.9273 H   0  0  0  0  0  0
  -27.3709  -23.6322   22.1537 H   0  0  0  0  0  0
  -30.4296  -25.5206   21.3716 H   0  0  0  0  0  0
  -30.8740  -24.7764   19.8643 H   0  0  0  0  0  0
  -31.1735  -23.9542   21.3831 H   0  0  0  0  0  0
  -29.7948  -21.5709   18.2229 H   0  0  0  0  0  0
  -30.9380  -22.6714   19.0055 H   0  0  0  0  0  0
  -29.5440  -23.2737   18.1678 H   0  0  0  0  0  0
  -27.5964  -21.0190   19.2617 H   0  0  0  0  0  0
  -27.3103  -22.6830   18.8299 H   0  0  0  0  0  0
  -26.8932  -22.1235   20.4335 H   0  0  0  0  0  0
  -27.1534  -24.7077   20.0344 H   0  0  0  0  0  0
  -28.3900  -24.9228   18.8384 H   0  0  0  0  0  0
  -28.9940  -15.6747   20.9398 H   0  0  0  0  0  0
  1 25  1  0  0  0
  1 30  2  0  0  0
  1 87  1  0  0  0
  2  3  1  0  0  0
  2 25  1  0  0  0
  2 88  1  0  0  0
  2 89  1  0  0  0
  3  4  1  0  0  0
  3 90  1  0  0  0
  3 91  1  0  0  0
  4  5  1  0  0  0
  4 92  1  0  0  0
  4 93  1  0  0  0
  5  6  1  0  0  0
  5 26  1  0  0  0
  5 94  1  0  0  0
  6 25  1  0  0  0
  6 95  1  0  0  0
  6 96  1  0  0  0
  7  8  2  0  0  0
  7 26  1  0  0  0
  7 29  1  0  0  0
  8  9  1  0  0  0
  8 22  1  0  0  0
  9 10  1  0  0  0
  9 27  2  0  0  0
 10 11  2  0  0  0
 10 15  1  0  0  0
 11 12  1  0  0  0
 11 97  1  0  0  0
 12 13  2  0  0  0
 12 98  1  0  0  0
 13 14  1  0  0  0
 13 31  1  0  0  0
 14 15  2  0  0  0
 14 99  1  0  0  0
 15100  1  0  0  0
 16 17  2  0  0  0
 16 21  1  0  0  0
 16 31  1  0  0  0
 17 18  1  0  0  0
 17101  1  0  0  0
 18 19  2  0  0  0
 18102  1  0  0  0
 19 20  1  0  0  0
 19 24  1  0  0  0
 20 21  2  0  0  0
 20103  1  0  0  0
 21 23  1  0  0  0
 22 28  1  0  0  0
 22 32  2  0  0  0
 26 27  1  0  0  0
 28104  1  0  0  0
 28105  1  0  0  0
 29106  1  0  0  0
 29107  1  0  0  0
 33 34  1  0  0  0
 33 66  1  0  0  0
 33 70  2  0  0  0
 34 36  1  0  0  0
 34 59  1  0  0  0
 34108  1  0  0  0
 35 44  2  0  0  0
 35 45  1  0  0  0
 35 68  1  0  0  0
 36 56  1  0  0  0
 36109  1  0  0  0
 37 39  1  0  0  0
 37 47  1  0  0  0
 37 66  1  0  0  0
 37110  1  0  0  0
 38 43  2  0  0  0
 38 46  1  0  0  0
 38 47  1  0  0  0
 39 64  1  0  0  0
 39 67  2  0  0  0
 40 52  1  0  0  0
 40 53  2  0  0  0
 40 58  1  0  0  0
 41111  1  0  0  0
 41112  1  0  0  0
 41113  1  0  0  0
 41 48  1  0  0  0
 42 43  1  0  0  0
 42 66  1  0  0  0
 42114  1  0  0  0
 42115  1  0  0  0
 43 44  1  0  0  0
 44116  1  0  0  0
 45 46  2  0  0  0
 45117  1  0  0  0
 46118  1  0  0  0
 47119  1  0  0  0
 47120  1  0  0  0
 48 56  1  0  0  0
 48 65  1  0  0  0
 48121  1  0  0  0
 49 50  1  0  0  0
 49 53  1  0  0  0
 49 64  1  0  0  0
 49122  1  0  0  0
 50 51  1  0  0  0
 50123  1  0  0  0
 50124  1  0  0  0
 51 52  1  0  0  0
 51125  1  0  0  0
 51126  1  0  0  0
 52127  1  0  0  0
 52128  1  0  0  0
 53 54  1  0  0  0
 54 55  2  0  0  0
 54129  1  0  0  0
 55 57  1  0  0  0
 55130  1  0  0  0
 56 69  2  0  0  0
 57 58  2  0  0  0
 57131  1  0  0  0
 58132  1  0  0  0
 59 60  1  0  0  0
 59 61  1  0  0  0
 59 62  1  0  0  0
 60133  1  0  0  0
 60134  1  0  0  0
 60135  1  0  0  0
 61136  1  0  0  0
 61137  1  0  0  0
 61138  1  0  0  0
 62139  1  0  0  0
 62140  1  0  0  0
 62141  1  0  0  0
 63 65  1  0  0  0
 63142  1  0  0  0
 63143  1  0  0  0
 63144  1  0  0  0
 64145  1  0  0  0
 65146  1  0  0  0
 68 83  1  0  0  0
 71 72  2  0  0  0
 71 73  1  0  0  0
 71147  1  0  0  0
 72 75  1  0  0  0
 72148  1  0  0  0
 73 76  2  0  0  0
 73149  1  0  0  0
 74 75  2  0  0  0
 74 76  1  0  0  0
 74150  1  0  0  0
 75 84  1  0  0  0
 76 87  1  0  0  0
 77151  1  0  0  0
 77152  1  0  0  0
 77153  1  0  0  0
 77 84  1  0  0  0
 78 84  1  0  0  0
 78154  1  0  0  0
 78155  1  0  0  0
 78156  1  0  0  0
 79157  1  0  0  0
 79158  1  0  0  0
 79159  1  0  0  0
 79 85  1  0  0  0
 80 85  1  0  0  0
 80160  1  0  0  0
 80161  1  0  0  0
 80162  1  0  0  0
 81163  1  0  0  0
 81164  1  0  0  0
 81165  1  0  0  0
 81 86  1  0  0  0
 82 86  1  0  0  0
 82166  1  0  0  0
 82167  1  0  0  0
 82168  1  0  0  0
 83 85  1  0  0  0
 83169  1  0  0  0
 83170  1  0  0  0
 84 86  1  0  0  0
 85 86  1  0  0  0
 87171  1  0  0  0
M  ISO  4   1 100  68 101  83 101  87 100
M  END
> <chiral flag>
0

> <version>
0

> <s_m_source_file>
/data/baiqing/PycharmProjects/Reinvent-master-3.2/result/LINK_invent/BTK/process_docking_weight1_custom_product_contain_oxygen_bond_distance_aromatic_linkinvent_7_9_3/rearranged_h_0141.sdf

> <i_m_source_file_index>
68

> <r_mmod_Potential_Energy-OPLS-2005>
247.80354309082

> <r_mmod_Stretch_Energy-OPLS-2005>
140.512329101562

> <r_mmod_Bend_Energy-OPLS-2005>
185.404983520508

> <r_mmod_Torsional_Energy-OPLS-2005>
267.637512207031

> <r_mmod_Improper_Torsional_Energy-OPLS-2005>
5.77931690216064

> <r_mmod_Van_der_Waal_Energy-OPLS-2005>
195.561309814453

> <r_mmod_Electrostatic_Energy-OPLS-2005>
-418.746246337891

> <r_mmod_Solvation_Energy-OPLS-2005>
-185.212448120117

> <b_mmod_Minimization_Converged-OPLS-2005>
0

> <r_mmod_RMS_Derivative-OPLS-2005>
1.68127191066742

$$$$
68
                    3D
 Structure written by MMmdl.
161169  0  0  1  0            999 V2000
  -30.6785  -14.5191   20.6313 C   0  0  0  0  0  0
  -30.4252  -12.3617   19.4149 C   0  0  0  0  0  0
  -29.4886  -12.5491   18.2033 C   0  0  0  0  0  0
  -28.0140  -12.3787   18.6165 C   0  0  0  0  0  0
  -27.6596  -13.2086   19.8773 C   0  0  2  0  0  0
  -28.7001  -12.9803   20.9946 C   0  0  0  0  0  0
  -25.2567  -13.8156   20.5679 C   0  0  0  0  0  0
  -24.1824  -13.0427   20.9153 C   0  0  0  0  0  0
  -24.6376  -11.6892   20.8709 C   0  0  0  0  0  0
  -23.9032  -10.4287   21.0375 C   0  0  0  0  0  0
  -24.3594   -9.4212   21.9156 C   0  0  0  0  0  0
  -23.6281   -8.2245   22.0733 C   0  0  0  0  0  0
  -22.4256   -8.0276   21.3530 C   0  0  0  0  0  0
  -21.9882   -9.0237   20.4627 C   0  0  0  0  0  0
  -22.7201  -10.2124   20.3029 C   0  0  0  0  0  0
  -21.6851   -6.0735   22.5278 C   0  0  0  0  0  0
  -21.4019   -6.5636   23.8216 C   0  0  0  0  0  0
  -21.3664   -5.6788   24.9175 C   0  0  0  0  0  0
  -21.6040   -4.3048   24.7221 C   0  0  0  0  0  0
  -21.8822   -3.8143   23.4344 C   0  0  0  0  0  0
  -21.9190   -4.6963   22.3400 C   0  0  0  0  0  0
  -22.7851  -13.5220   21.1853 C   0  0  0  0  0  0
  -22.1660   -4.2148   21.0977 F   0  0  0  0  0  0
  -21.5624   -3.4535   25.7734 F   0  0  0  0  0  0
  -30.0264  -13.3290   20.4542 N   0  0  0  0  0  0
  -26.3007  -12.9331   20.3362 N   0  0  0  0  0  0
  -25.9307  -11.6486   20.5742 N   0  0  0  0  0  0
  -22.0505  -12.8215   22.0413 N   0  0  0  0  0  0
  -25.4307  -15.1889   20.4141 N   0  0  0  0  0  0
  -31.7190  -14.7805   20.0196 O   0  0  0  0  0  0
  -21.6629   -6.8875   21.4233 O   0  0  0  0  0  0
  -22.3520  -14.5521   20.6699 O   0  0  0  0  0  0
  -24.6233  -31.8623   23.2074 C   0  0  0  0  0  0
  -25.9104  -32.4780   23.8371 C   0  0  1  0  0  0
  -27.2332  -27.3765   20.0991 C   0  0  0  0  0  0
  -25.5942  -33.8586   24.2292 N   0  0  0  0  0  0
  -23.4112  -30.4904   21.5472 C   0  0  2  0  0  0
  -24.8538  -28.9492   20.1156 C   0  0  0  0  0  0
  -22.7418  -29.4667   22.4941 C   0  0  0  0  0  0
  -18.0291  -28.1384   22.8519 C   0  0  0  0  0  0
  -24.1479  -36.7300   23.2640 C   0  0  0  0  0  0
  -25.9474  -30.8110   21.3701 C   0  0  0  0  0  0
  -26.0193  -29.4442   20.7099 C   0  0  0  0  0  0
  -27.2067  -28.6673   20.6966 C   0  0  0  0  0  0
  -26.0371  -26.9106   19.5041 C   0  0  0  0  0  0
  -24.8599  -27.6816   19.5141 C   0  0  0  0  0  0
  -23.6226  -29.8259   20.1620 C   0  0  0  0  0  0
  -25.4095  -36.3090   24.0338 C   0  0  1  0  0  0
  -20.5884  -28.3684   23.1289 C   0  0  2  0  0  0
  -20.6770  -26.9403   22.5413 C   0  0  0  0  0  0
  -19.5743  -26.6389   21.5220 C   0  0  0  0  0  0
  -18.1923  -26.7932   22.1635 C   0  0  0  0  0  0
  -19.1543  -28.8848   23.2913 C   0  0  0  0  0  0
  -18.9466  -30.1456   23.8918 C   0  0  0  0  0  0
  -17.6469  -30.6592   24.0579 C   0  0  0  0  0  0
  -25.9039  -34.9461   23.5100 C   0  0  0  0  0  0
  -16.5363  -29.9091   23.6350 C   0  0  0  0  0  0
  -16.7279  -28.6509   23.0369 C   0  0  0  0  0  0
  -26.4506  -31.6592   25.0728 C   0  0  0  0  0  0
  -25.3772  -31.3757   26.1478 C   0  0  0  0  0  0
  -27.0343  -30.3020   24.6168 C   0  0  0  0  0  0
  -27.6050  -32.4336   25.7512 C   0  0  0  0  0  0
  -27.5565  -37.1809   24.8466 C   0  0  0  0  0  0
  -21.4144  -29.3053   22.3681 N   0  0  0  0  0  0
  -26.4279  -37.3785   23.9418 N   0  0  0  0  0  0
  -24.6782  -31.0702   22.0992 N   0  0  0  0  0  0
  -23.4168  -28.8212   23.3003 O   0  0  0  0  0  0
  -28.4102  -26.6311   20.1432 O   0  0  0  0  0  0
  -26.5599  -34.8940   22.4665 O   0  0  0  0  0  0
  -23.5413  -32.1386   23.7456 O   0  0  0  0  0  0
  -29.7029  -17.5204   19.2141 C   0  0  0  0  0  0
  -29.4810  -19.1603   20.9944 C   0  0  0  0  0  0
  -29.3079  -19.8787   18.6857 C   0  0  0  0  0  0
  -29.6704  -17.7997   20.5937 C   0  0  0  0  0  0
  -29.5147  -18.5448   18.2560 C   0  0  0  0  0  0
  -29.3135  -20.2248   20.0580 C   0  0  0  0  0  0
  -29.7758  -16.7251   21.6337 C   0  0  0  0  0  0
  -30.1276  -15.4038   21.6681 C   0  0  0  0  0  0
  -29.5014  -18.1886   16.8074 C   0  0  0  0  0  0
  -29.2426  -22.7723   19.8443 C   0  0  0  0  0  0
  -29.4133  -19.3221   15.7908 C   0  0  0  0  0  0
  -30.0619  -24.5452   21.4733 C   0  0  0  0  0  0
  -28.5365  -25.2937   19.5657 C   0  0  0  0  0  0
  -28.8907  -24.1223   20.5644 C   0  0  1  0  0  0
  -29.1005  -21.5905   20.5142 N   0  0  0  0  0  0
  -29.5577  -17.0258   16.3963 O   0  0  0  0  0  0
  -29.6695  -22.8260   18.6893 O   0  0  0  0  0  0
  -31.4665  -12.4824   19.1124 H   0  0  0  0  0  0
  -30.3503  -11.3441   19.8013 H   0  0  0  0  0  0
  -29.7434  -11.8437   17.4107 H   0  0  0  0  0  0
  -29.6339  -13.5473   17.7847 H   0  0  0  0  0  0
  -27.8381  -11.3188   18.8069 H   0  0  0  0  0  0
  -27.3569  -12.6525   17.7891 H   0  0  0  0  0  0
  -27.7062  -14.2592   19.5862 H   0  0  0  0  0  0
  -28.7014  -11.9346   21.3042 H   0  0  0  0  0  0
  -28.4249  -13.5412   21.8865 H   0  0  0  0  0  0
  -25.2751   -9.5700   22.4706 H   0  0  0  0  0  0
  -24.0001   -7.4637   22.7440 H   0  0  0  0  0  0
  -21.0814   -8.8736   19.8938 H   0  0  0  0  0  0
  -22.3644  -10.9646   19.6121 H   0  0  0  0  0  0
  -21.2017   -7.6144   23.9724 H   0  0  0  0  0  0
  -21.1483   -6.0513   25.9080 H   0  0  0  0  0  0
  -22.0596   -2.7605   23.2840 H   0  0  0  0  0  0
  -22.4131  -11.9888   22.4829 H   0  0  0  0  0  0
  -21.1116  -13.1227   22.2617 H   0  0  0  0  0  0
  -24.6679  -15.8483   20.5262 H   0  0  0  0  0  0
  -26.3013  -15.6328   20.1499 H   0  0  0  0  0  0
  -26.7177  -32.5448   23.1129 H   0  0  0  0  0  0
  -25.0123  -33.9729   25.0455 H   0  0  0  0  0  0
  -22.7060  -31.3109   21.4042 H   0  0  0  0  0  0
  -23.3733  -35.9642   23.3311 H   0  0  0  0  0  0
  -24.3569  -36.8900   22.2053 H   0  0  0  0  0  0
  -23.7251  -37.6521   23.6642 H   0  0  0  0  0  0
  -26.0725  -31.5793   20.6061 H   0  0  0  0  0  0
  -26.8328  -30.8551   21.9934 H   0  0  0  0  0  0
  -28.1053  -29.0508   21.1605 H   0  0  0  0  0  0
  -25.9547  -25.9460   19.0325 H   0  0  0  0  0  0
  -23.9614  -27.2819   19.0629 H   0  0  0  0  0  0
  -23.7486  -30.6010   19.4051 H   0  0  0  0  0  0
  -22.7423  -29.2586   19.8545 H   0  0  0  0  0  0
  -25.1277  -36.1942   25.0840 H   0  0  0  0  0  0
  -21.0009  -28.3253   24.1399 H   0  0  0  0  0  0
  -20.5664  -26.2279   23.3604 H   0  0  0  0  0  0
  -21.6633  -26.7429   22.1206 H   0  0  0  0  0  0
  -19.6881  -25.6304   21.1230 H   0  0  0  0  0  0
  -19.6676  -27.3217   20.6760 H   0  0  0  0  0  0
  -17.4190  -26.6722   21.4033 H   0  0  0  0  0  0
  -18.0309  -26.0053   22.9007 H   0  0  0  0  0  0
  -19.7953  -30.7278   24.2259 H   0  0  0  0  0  0
  -17.5036  -31.6274   24.5177 H   0  0  0  0  0  0
  -15.5367  -30.3003   23.7662 H   0  0  0  0  0  0
  -15.8677  -28.0840   22.7056 H   0  0  0  0  0  0
  -24.5930  -30.7089   25.7870 H   0  0  0  0  0  0
  -24.8977  -32.2936   26.4901 H   0  0  0  0  0  0
  -25.8143  -30.8979   27.0251 H   0  0  0  0  0  0
  -26.2915  -29.6769   24.1188 H   0  0  0  0  0  0
  -27.4041  -29.7285   25.4679 H   0  0  0  0  0  0
  -27.8786  -30.4306   23.9385 H   0  0  0  0  0  0
  -27.2623  -33.3620   26.2108 H   0  0  0  0  0  0
  -28.3884  -32.6925   25.0372 H   0  0  0  0  0  0
  -28.0687  -31.8441   26.5436 H   0  0  0  0  0  0
  -28.2603  -38.0087   24.7493 H   0  0  0  0  0  0
  -28.1048  -36.2623   24.6311 H   0  0  0  0  0  0
  -27.2286  -37.1488   25.8871 H   0  0  0  0  0  0
  -20.9285  -29.8795   21.6941 H   0  0  0  0  0  0
  -26.0153  -38.2862   24.1423 H   0  0  0  0  0  0
  -29.8348  -16.5025   18.8790 H   0  0  0  0  0  0
  -29.4489  -19.3879   22.0525 H   0  0  0  0  0  0
  -29.1225  -20.6418   17.9472 H   0  0  0  0  0  0
  -29.4571  -17.0807   22.6015 H   0  0  0  0  0  0
  -30.0184  -14.9380   22.6364 H   0  0  0  0  0  0
  -28.4255  -19.7810   15.8311 H   0  0  0  0  0  0
  -29.5766  -18.9442   14.7815 H   0  0  0  0  0  0
  -30.1693  -20.0813   15.9955 H   0  0  0  0  0  0
  -30.9741  -24.7089   20.8992 H   0  0  0  0  0  0
  -30.2797  -23.8002   22.2380 H   0  0  0  0  0  0
  -29.8361  -25.4768   21.9946 H   0  0  0  0  0  0
  -27.6967  -24.9775   18.9558 H   0  0  0  0  0  0
  -29.3525  -25.3908   18.8502 H   0  0  0  0  0  0
  -28.0161  -23.9481   21.1938 H   0  0  0  0  0  0
  -28.8406  -21.6877   21.4866 H   0  0  0  0  0  0
  1 25  1  0  0  0
  1 30  2  0  0  0
  1 78  1  0  0  0
  2  3  1  0  0  0
  2 25  1  0  0  0
  2 88  1  0  0  0
  2 89  1  0  0  0
  3  4  1  0  0  0
  3 90  1  0  0  0
  3 91  1  0  0  0
  4  5  1  0  0  0
  4 92  1  0  0  0
  4 93  1  0  0  0
  5  6  1  0  0  0
  5 26  1  0  0  0
  5 94  1  0  0  0
  6 25  1  0  0  0
  6 95  1  0  0  0
  6 96  1  0  0  0
  7  8  2  0  0  0
  7 26  1  0  0  0
  7 29  1  0  0  0
  8  9  1  0  0  0
  8 22  1  0  0  0
  9 10  1  0  0  0
  9 27  2  0  0  0
 10 11  2  0  0  0
 10 15  1  0  0  0
 11 12  1  0  0  0
 11 97  1  0  0  0
 12 13  2  0  0  0
 12 98  1  0  0  0
 13 14  1  0  0  0
 13 31  1  0  0  0
 14 15  2  0  0  0
 14 99  1  0  0  0
 15100  1  0  0  0
 16 17  2  0  0  0
 16 21  1  0  0  0
 16 31  1  0  0  0
 17 18  1  0  0  0
 17101  1  0  0  0
 18 19  2  0  0  0
 18102  1  0  0  0
 19 20  1  0  0  0
 19 24  1  0  0  0
 20 21  2  0  0  0
 20103  1  0  0  0
 21 23  1  0  0  0
 22 28  1  0  0  0
 22 32  2  0  0  0
 26 27  1  0  0  0
 28104  1  0  0  0
 28105  1  0  0  0
 29106  1  0  0  0
 29107  1  0  0  0
 33 34  1  0  0  0
 33 66  1  0  0  0
 33 70  2  0  0  0
 34 36  1  0  0  0
 34 59  1  0  0  0
 34108  1  0  0  0
 35 44  2  0  0  0
 35 45  1  0  0  0
 35 68  1  0  0  0
 36 56  1  0  0  0
 36109  1  0  0  0
 37 39  1  0  0  0
 37 47  1  0  0  0
 37 66  1  0  0  0
 37110  1  0  0  0
 38 43  2  0  0  0
 38 46  1  0  0  0
 38 47  1  0  0  0
 39 64  1  0  0  0
 39 67  2  0  0  0
 40 52  1  0  0  0
 40 53  2  0  0  0
 40 58  1  0  0  0
 41111  1  0  0  0
 41112  1  0  0  0
 41113  1  0  0  0
 41 48  1  0  0  0
 42 43  1  0  0  0
 42 66  1  0  0  0
 42114  1  0  0  0
 42115  1  0  0  0
 43 44  1  0  0  0
 44116  1  0  0  0
 45 46  2  0  0  0
 45117  1  0  0  0
 46118  1  0  0  0
 47119  1  0  0  0
 47120  1  0  0  0
 48 56  1  0  0  0
 48 65  1  0  0  0
 48121  1  0  0  0
 49 50  1  0  0  0
 49 53  1  0  0  0
 49 64  1  0  0  0
 49122  1  0  0  0
 50 51  1  0  0  0
 50123  1  0  0  0
 50124  1  0  0  0
 51 52  1  0  0  0
 51125  1  0  0  0
 51126  1  0  0  0
 52127  1  0  0  0
 52128  1  0  0  0
 53 54  1  0  0  0
 54 55  2  0  0  0
 54129  1  0  0  0
 55 57  1  0  0  0
 55130  1  0  0  0
 56 69  2  0  0  0
 57 58  2  0  0  0
 57131  1  0  0  0
 58132  1  0  0  0
 59 60  1  0  0  0
 59 61  1  0  0  0
 59 62  1  0  0  0
 60133  1  0  0  0
 60134  1  0  0  0
 60135  1  0  0  0
 61136  1  0  0  0
 61137  1  0  0  0
 61138  1  0  0  0
 62139  1  0  0  0
 62140  1  0  0  0
 62141  1  0  0  0
 63 65  1  0  0  0
 63142  1  0  0  0
 63143  1  0  0  0
 63144  1  0  0  0
 64145  1  0  0  0
 65146  1  0  0  0
 68 83  1  0  0  0
 71 74  2  0  0  0
 71 75  1  0  0  0
 71147  1  0  0  0
 72 74  1  0  0  0
 72 76  2  0  0  0
 72148  1  0  0  0
 73 75  2  0  0  0
 73 76  1  0  0  0
 73149  1  0  0  0
 74 77  1  0  0  0
 75 79  1  0  0  0
 76 85  1  0  0  0
 77 78  2  0  0  0
 77150  1  0  0  0
 78151  1  0  0  0
 79 81  1  0  0  0
 79 86  2  0  0  0
 80 84  1  0  0  0
 80 85  1  0  0  0
 80 87  2  0  0  0
 81152  1  0  0  0
 81153  1  0  0  0
 81154  1  0  0  0
 82155  1  0  0  0
 82156  1  0  0  0
 82157  1  0  0  0
 82 84  1  0  0  0
 83 84  1  0  0  0
 83158  1  0  0  0
 83159  1  0  0  0
 84160  1  0  0  0
 85161  1  0  0  0
M  ISO  4   1 100  68 101  78 100  83 101
M  END
> <chiral flag>
0

> <version>
0

> <s_m_source_file>
/data/baiqing/PycharmProjects/Reinvent-master-3.2/result/LINK_invent/BTK/process_docking_weight1_custom_product_contain_oxygen_bond_distance_aromatic_linkinvent_7_9_3/rearranged_h_0141.sdf

> <i_m_source_file_index>
69

> <r_mmod_Potential_Energy-OPLS-2005>
-5.59431457519531

> <r_mmod_Stretch_Energy-OPLS-2005>
59.7805366516113

> <r_mmod_Bend_Energy-OPLS-2005>
154.824905395508

> <r_mmod_Torsional_Energy-OPLS-2005>
223.288879394531

> <r_mmod_Improper_Torsional_Energy-OPLS-2005>
2.95128297805786

> <r_mmod_Van_der_Waal_Energy-OPLS-2005>
158.099716186523

> <r_mmod_Electrostatic_Energy-OPLS-2005>
-401.403991699219

> <r_mmod_Solvation_Energy-OPLS-2005>
-224.647827148438

> <b_mmod_Minimization_Converged-OPLS-2005>
0

> <r_mmod_RMS_Derivative-OPLS-2005>
2.85629844665527

$$$$
69
                    3D
 Structure written by MMmdl.
162170  0  0  1  0            999 V2000
  -30.6705  -14.5121   20.5150 C   0  0  0  0  0  0
  -30.4249  -12.3108   19.4486 C   0  0  0  0  0  0
  -29.5090  -12.4957   18.2206 C   0  0  0  0  0  0
  -28.0243  -12.3676   18.6171 C   0  0  0  0  0  0
  -27.6585  -13.2139   19.8696 C   0  0  2  0  0  0
  -28.6953  -13.0185   21.0008 C   0  0  0  0  0  0
  -25.2560  -13.8156   20.5681 C   0  0  0  0  0  0
  -24.1834  -13.0421   20.9217 C   0  0  0  0  0  0
  -24.6379  -11.6894   20.8728 C   0  0  0  0  0  0
  -23.9016  -10.4291   21.0397 C   0  0  0  0  0  0
  -24.3575   -9.4217   21.9178 C   0  0  0  0  0  0
  -23.6282   -8.2235   22.0730 C   0  0  0  0  0  0
  -22.4272   -8.0244   21.3522 C   0  0  0  0  0  0
  -21.9890   -9.0206   20.4620 C   0  0  0  0  0  0
  -22.7189  -10.2111   20.3040 C   0  0  0  0  0  0
  -21.6850   -6.0706   22.5283 C   0  0  0  0  0  0
  -21.4014   -6.5615   23.8206 C   0  0  0  0  0  0
  -21.3682   -5.6779   24.9172 C   0  0  0  0  0  0
  -21.6050   -4.3031   24.7237 C   0  0  0  0  0  0
  -21.8815   -3.8109   23.4360 C   0  0  0  0  0  0
  -21.9202   -4.6931   22.3417 C   0  0  0  0  0  0
  -22.7849  -13.5208   21.1860 C   0  0  0  0  0  0
  -22.1651   -4.2114   21.0987 F   0  0  0  0  0  0
  -21.5655   -3.4518   25.7753 F   0  0  0  0  0  0
  -30.0299  -13.3132   20.4534 N   0  0  0  0  0  0
  -26.2997  -12.9334   20.3304 N   0  0  0  0  0  0
  -25.9304  -11.6482   20.5714 N   0  0  0  0  0  0
  -22.0458  -12.8221   22.0414 N   0  0  0  0  0  0
  -25.4283  -15.1872   20.4120 N   0  0  0  0  0  0
  -31.8152  -14.6765   20.0839 O   0  0  0  0  0  0
  -21.6633   -6.8844   21.4231 O   0  0  0  0  0  0
  -22.3551  -14.5522   20.6692 O   0  0  0  0  0  0
  -24.6161  -31.8677   23.2138 C   0  0  0  0  0  0
  -25.9049  -32.4807   23.8419 C   0  0  1  0  0  0
  -27.2177  -27.4349   20.0859 C   0  0  0  0  0  0
  -25.5915  -33.8610   24.2342 N   0  0  0  0  0  0
  -23.4029  -30.4951   21.5520 C   0  0  2  0  0  0
  -24.8469  -28.9671   20.1091 C   0  0  0  0  0  0
  -22.7421  -29.4649   22.4961 C   0  0  0  0  0  0
  -18.0270  -28.1398   22.8462 C   0  0  0  0  0  0
  -24.1488  -36.7333   23.2633 C   0  0  0  0  0  0
  -25.9336  -30.8287   21.3713 C   0  0  0  0  0  0
  -26.0070  -29.4655   20.7146 C   0  0  0  0  0  0
  -27.1998  -28.7059   20.7031 C   0  0  0  0  0  0
  -26.0449  -26.9565   19.4647 C   0  0  0  0  0  0
  -24.8604  -27.7138   19.4762 C   0  0  0  0  0  0
  -23.6137  -29.8387   20.1608 C   0  0  0  0  0  0
  -25.4111  -36.3112   24.0326 C   0  0  1  0  0  0
  -20.5857  -28.3686   23.1295 C   0  0  2  0  0  0
  -20.6763  -26.9424   22.5397 C   0  0  0  0  0  0
  -19.5756  -26.6404   21.5181 C   0  0  0  0  0  0
  -18.1930  -26.7940   22.1592 C   0  0  0  0  0  0
  -19.1518  -28.8856   23.2873 C   0  0  0  0  0  0
  -18.9454  -30.1455   23.8902 C   0  0  0  0  0  0
  -17.6460  -30.6597   24.0573 C   0  0  0  0  0  0
  -25.9035  -34.9471   23.5128 C   0  0  0  0  0  0
  -16.5347  -29.9114   23.6321 C   0  0  0  0  0  0
  -16.7257  -28.6534   23.0320 C   0  0  0  0  0  0
  -26.4504  -31.6580   25.0743 C   0  0  0  0  0  0
  -25.3798  -31.3643   26.1504 C   0  0  0  0  0  0
  -27.0315  -30.3025   24.6091 C   0  0  0  0  0  0
  -27.6085  -32.4301   25.7506 C   0  0  0  0  0  0
  -27.5587  -37.1823   24.8462 C   0  0  0  0  0  0
  -21.4139  -29.3056   22.3709 N   0  0  0  0  0  0
  -26.4297  -37.3808   23.9407 N   0  0  0  0  0  0
  -24.6679  -31.0779   22.1044 N   0  0  0  0  0  0
  -23.4188  -28.8161   23.2982 O   0  0  0  0  0  0
  -28.3532  -26.6564   20.0916 O   0  0  0  0  0  0
  -26.5595  -34.8924   22.4688 O   0  0  0  0  0  0
  -23.5343  -32.1435   23.7524 O   0  0  0  0  0  0
  -29.9214  -18.1903   18.2021 C   0  0  0  0  0  0
  -29.6778  -19.3618   18.9438 C   0  0  0  0  0  0
  -30.0363  -16.9486   18.8551 C   0  0  0  0  0  0
  -29.6031  -18.0383   20.9943 C   0  0  0  0  0  0
  -29.5315  -19.3040   20.3467 C   0  0  0  0  0  0
  -29.8812  -16.8516   20.2597 C   0  0  0  0  0  0
  -29.3346  -20.5650   21.0951 C   0  0  0  0  0  0
  -30.1028  -24.1888   19.7101 C   0  0  0  0  0  0
  -27.7417  -23.9378   18.8793 C   0  0  0  0  0  0
  -28.3920  -22.9462   21.1183 C   0  0  0  0  0  0
  -28.2255  -25.4472   20.8646 C   0  0  0  0  0  0
  -28.6218  -24.1297   20.1292 C   0  0  0  0  0  0
  -29.8336  -20.6985   22.3246 N   0  0  0  0  0  0
  -29.9197  -15.5676   20.9092 N   0  0  0  0  0  0
  -28.6854  -21.6091   20.5409 N   0  3  0  0  0  0
  -31.4728  -12.4026   19.1536 H   0  0  0  0  0  0
  -30.3126  -11.3067   19.8588 H   0  0  0  0  0  0
  -29.7569  -11.7580   17.4542 H   0  0  0  0  0  0
  -29.6876  -13.4738   17.7719 H   0  0  0  0  0  0
  -27.8310  -11.3126   18.8159 H   0  0  0  0  0  0
  -27.3850  -12.6408   17.7760 H   0  0  0  0  0  0
  -27.6926  -14.2623   19.5691 H   0  0  0  0  0  0
  -28.6678  -11.9907   21.3660 H   0  0  0  0  0  0
  -28.4546  -13.6499   21.8582 H   0  0  0  0  0  0
  -25.2704   -9.5707   22.4765 H   0  0  0  0  0  0
  -23.9989   -7.4632   22.7456 H   0  0  0  0  0  0
  -21.0803   -8.8678   19.8953 H   0  0  0  0  0  0
  -22.3590  -10.9624   19.6150 H   0  0  0  0  0  0
  -21.1969   -7.6117   23.9684 H   0  0  0  0  0  0
  -21.1535   -6.0520   25.9086 H   0  0  0  0  0  0
  -22.0587   -2.7568   23.2871 H   0  0  0  0  0  0
  -22.4031  -11.9894   22.4856 H   0  0  0  0  0  0
  -21.1039  -13.1214   22.2510 H   0  0  0  0  0  0
  -24.6652  -15.8390   20.5528 H   0  0  0  0  0  0
  -26.2615  -15.6280   20.0419 H   0  0  0  0  0  0
  -26.7095  -32.5522   23.1147 H   0  0  0  0  0  0
  -25.0094  -33.9777   25.0507 H   0  0  0  0  0  0
  -22.6947  -31.3144   21.4172 H   0  0  0  0  0  0
  -23.3740  -35.9675   23.3288 H   0  0  0  0  0  0
  -24.3579  -36.8968   22.2049 H   0  0  0  0  0  0
  -23.7246  -37.6538   23.6659 H   0  0  0  0  0  0
  -26.0514  -31.5950   20.6051 H   0  0  0  0  0  0
  -26.8199  -30.8757   21.9914 H   0  0  0  0  0  0
  -28.0945  -29.0818   21.1816 H   0  0  0  0  0  0
  -26.0333  -26.0043   18.9601 H   0  0  0  0  0  0
  -23.9753  -27.3345   18.9848 H   0  0  0  0  0  0
  -23.7366  -30.6237   19.4140 H   0  0  0  0  0  0
  -22.7362  -29.2692   19.8485 H   0  0  0  0  0  0
  -25.1288  -36.1973   25.0821 H   0  0  0  0  0  0
  -20.9916  -28.3232   24.1427 H   0  0  0  0  0  0
  -20.5644  -26.2302   23.3579 H   0  0  0  0  0  0
  -21.6641  -26.7472   22.1202 H   0  0  0  0  0  0
  -19.6928  -25.6312   21.1227 H   0  0  0  0  0  0
  -19.6705  -27.3201   20.6700 H   0  0  0  0  0  0
  -17.4199  -26.6646   21.4007 H   0  0  0  0  0  0
  -18.0370  -26.0086   22.9006 H   0  0  0  0  0  0
  -19.7935  -30.7245   24.2285 H   0  0  0  0  0  0
  -17.5033  -31.6272   24.5191 H   0  0  0  0  0  0
  -15.5352  -30.3031   23.7655 H   0  0  0  0  0  0
  -15.8651  -28.0875   22.7023 H   0  0  0  0  0  0
  -24.5948  -30.7019   25.7839 H   0  0  0  0  0  0
  -24.9028  -32.2775   26.5078 H   0  0  0  0  0  0
  -25.8193  -30.8724   27.0190 H   0  0  0  0  0  0
  -26.2811  -29.6771   24.1238 H   0  0  0  0  0  0
  -27.4184  -29.7286   25.4525 H   0  0  0  0  0  0
  -27.8628  -30.4354   23.9157 H   0  0  0  0  0  0
  -27.2692  -33.3555   26.2175 H   0  0  0  0  0  0
  -28.3859  -32.6926   25.0318 H   0  0  0  0  0  0
  -28.0797  -31.8373   26.5358 H   0  0  0  0  0  0
  -28.2597  -38.0132   24.7524 H   0  0  0  0  0  0
  -28.1086  -36.2660   24.6258 H   0  0  0  0  0  0
  -27.2307  -37.1447   25.8868 H   0  0  0  0  0  0
  -20.9302  -29.8815   21.6959 H   0  0  0  0  0  0
  -26.0172  -38.2878   24.1437 H   0  0  0  0  0  0
  -30.0271  -18.2447   17.1263 H   0  0  0  0  0  0
  -29.6170  -20.3070   18.4219 H   0  0  0  0  0  0
  -30.2213  -16.0728   18.2485 H   0  0  0  0  0  0
  -29.4614  -17.9815   22.0641 H   0  0  0  0  0  0
  -30.3715  -23.3496   19.0658 H   0  0  0  0  0  0
  -30.7609  -24.1609   20.5787 H   0  0  0  0  0  0
  -30.3198  -25.1017   19.1541 H   0  0  0  0  0  0
  -28.0511  -23.0795   18.2825 H   0  0  0  0  0  0
  -27.7957  -24.8070   18.2239 H   0  0  0  0  0  0
  -26.6968  -23.7918   19.1577 H   0  0  0  0  0  0
  -27.3520  -22.9485   21.4515 H   0  0  0  0  0  0
  -28.9930  -23.1152   22.0117 H   0  0  0  0  0  0
  -28.8452  -25.5747   21.7541 H   0  0  0  0  0  0
  -27.2116  -25.3282   21.2530 H   0  0  0  0  0  0
  -30.3999  -19.9624   22.7163 H   0  0  0  0  0  0
  -29.7223  -21.5441   22.8574 H   0  0  0  0  0  0
  -29.1220  -15.3469   21.4827 H   0  0  0  0  0  0
  -28.2186  -21.4082   19.6664 H   0  0  0  0  0  0
  1 25  1  0  0  0
  1 30  2  0  0  0
  1 84  1  0  0  0
  2  3  1  0  0  0
  2 25  1  0  0  0
  2 86  1  0  0  0
  2 87  1  0  0  0
  3  4  1  0  0  0
  3 88  1  0  0  0
  3 89  1  0  0  0
  4  5  1  0  0  0
  4 90  1  0  0  0
  4 91  1  0  0  0
  5  6  1  0  0  0
  5 26  1  0  0  0
  5 92  1  0  0  0
  6 25  1  0  0  0
  6 93  1  0  0  0
  6 94  1  0  0  0
  7  8  2  0  0  0
  7 26  1  0  0  0
  7 29  1  0  0  0
  8  9  1  0  0  0
  8 22  1  0  0  0
  9 10  1  0  0  0
  9 27  2  0  0  0
 10 11  2  0  0  0
 10 15  1  0  0  0
 11 12  1  0  0  0
 11 95  1  0  0  0
 12 13  2  0  0  0
 12 96  1  0  0  0
 13 14  1  0  0  0
 13 31  1  0  0  0
 14 15  2  0  0  0
 14 97  1  0  0  0
 15 98  1  0  0  0
 16 17  2  0  0  0
 16 21  1  0  0  0
 16 31  1  0  0  0
 17 18  1  0  0  0
 17 99  1  0  0  0
 18 19  2  0  0  0
 18100  1  0  0  0
 19 20  1  0  0  0
 19 24  1  0  0  0
 20 21  2  0  0  0
 20101  1  0  0  0
 21 23  1  0  0  0
 22 28  1  0  0  0
 22 32  2  0  0  0
 26 27  1  0  0  0
 28102  1  0  0  0
 28103  1  0  0  0
 29104  1  0  0  0
 29105  1  0  0  0
 33 34  1  0  0  0
 33 66  1  0  0  0
 33 70  2  0  0  0
 34 36  1  0  0  0
 34 59  1  0  0  0
 34106  1  0  0  0
 35 44  2  0  0  0
 35 45  1  0  0  0
 35 68  1  0  0  0
 36 56  1  0  0  0
 36107  1  0  0  0
 37 39  1  0  0  0
 37 47  1  0  0  0
 37 66  1  0  0  0
 37108  1  0  0  0
 38 43  2  0  0  0
 38 46  1  0  0  0
 38 47  1  0  0  0
 39 64  1  0  0  0
 39 67  2  0  0  0
 40 52  1  0  0  0
 40 53  2  0  0  0
 40 58  1  0  0  0
 41109  1  0  0  0
 41110  1  0  0  0
 41111  1  0  0  0
 41 48  1  0  0  0
 42 43  1  0  0  0
 42 66  1  0  0  0
 42112  1  0  0  0
 42113  1  0  0  0
 43 44  1  0  0  0
 44114  1  0  0  0
 45 46  2  0  0  0
 45115  1  0  0  0
 46116  1  0  0  0
 47117  1  0  0  0
 47118  1  0  0  0
 48 56  1  0  0  0
 48 65  1  0  0  0
 48119  1  0  0  0
 49 50  1  0  0  0
 49 53  1  0  0  0
 49 64  1  0  0  0
 49120  1  0  0  0
 50 51  1  0  0  0
 50121  1  0  0  0
 50122  1  0  0  0
 51 52  1  0  0  0
 51123  1  0  0  0
 51124  1  0  0  0
 52125  1  0  0  0
 52126  1  0  0  0
 53 54  1  0  0  0
 54 55  2  0  0  0
 54127  1  0  0  0
 55 57  1  0  0  0
 55128  1  0  0  0
 56 69  2  0  0  0
 57 58  2  0  0  0
 57129  1  0  0  0
 58130  1  0  0  0
 59 60  1  0  0  0
 59 61  1  0  0  0
 59 62  1  0  0  0
 60131  1  0  0  0
 60132  1  0  0  0
 60133  1  0  0  0
 61134  1  0  0  0
 61135  1  0  0  0
 61136  1  0  0  0
 62137  1  0  0  0
 62138  1  0  0  0
 62139  1  0  0  0
 63 65  1  0  0  0
 63140  1  0  0  0
 63141  1  0  0  0
 63142  1  0  0  0
 64143  1  0  0  0
 65144  1  0  0  0
 68 81  1  0  0  0
 71 72  2  0  0  0
 71 73  1  0  0  0
 71145  1  0  0  0
 72 75  1  0  0  0
 72146  1  0  0  0
 73 76  2  0  0  0
 73147  1  0  0  0
 74 75  2  0  0  0
 74 76  1  0  0  0
 74148  1  0  0  0
 75 77  1  0  0  0
 76 84  1  0  0  0
 77 83  1  0  0  0
 77 85  2  0  0  0
 78149  1  0  0  0
 78150  1  0  0  0
 78151  1  0  0  0
 78 82  1  0  0  0
 79 82  1  0  0  0
 79152  1  0  0  0
 79153  1  0  0  0
 79154  1  0  0  0
 80 82  1  0  0  0
 80 85  1  0  0  0
 80155  1  0  0  0
 80156  1  0  0  0
 81 82  1  0  0  0
 81157  1  0  0  0
 81158  1  0  0  0
 83159  1  0  0  0
 83160  1  0  0  0
 84161  1  0  0  0
 85162  1  0  0  0
M  CHG  1  85   1
M  ISO  4   1 100  68 101  81 101  84 100
M  END
> <chiral flag>
0

> <version>
0

> <s_m_source_file>
/data/baiqing/PycharmProjects/Reinvent-master-3.2/result/LINK_invent/BTK/process_docking_weight1_custom_product_contain_oxygen_bond_distance_aromatic_linkinvent_7_9_3/rearranged_h_0141.sdf

> <i_m_source_file_index>
70

> <r_mmod_Potential_Energy-OPLS-2005>
-261.230895996094

> <r_mmod_Stretch_Energy-OPLS-2005>
41.3305015563965

> <r_mmod_Bend_Energy-OPLS-2005>
96.8206024169922

> <r_mmod_Torsional_Energy-OPLS-2005>
272.368865966797

> <r_mmod_Improper_Torsional_Energy-OPLS-2005>
5.93202543258667

> <r_mmod_Van_der_Waal_Energy-OPLS-2005>
154.719741821289

> <r_mmod_Electrostatic_Energy-OPLS-2005>
-433.781372070312

> <r_mmod_Solvation_Energy-OPLS-2005>
-416.372589111328

> <b_mmod_Minimization_Converged-OPLS-2005>
0

> <r_mmod_RMS_Derivative-OPLS-2005>
3.57071542739868

$$$$
70
                    3D
 Structure written by MMmdl.
162170  0  0  1  0            999 V2000
  -30.6104  -14.7290   20.4622 C   0  0  0  0  0  0
  -30.4349  -12.4358   19.4859 C   0  0  0  0  0  0
  -29.5174  -12.4936   18.2437 C   0  0  0  0  0  0
  -28.0362  -12.3472   18.6457 C   0  0  0  0  0  0
  -27.6483  -13.2291   19.8637 C   0  0  2  0  0  0
  -28.6921  -13.1419   20.9997 C   0  0  0  0  0  0
  -25.2536  -13.8184   20.5717 C   0  0  0  0  0  0
  -24.1815  -13.0429   20.9205 C   0  0  0  0  0  0
  -24.6395  -11.6903   20.8731 C   0  0  0  0  0  0
  -23.9066  -10.4283   21.0380 C   0  0  0  0  0  0
  -24.3616   -9.4209   21.9162 C   0  0  0  0  0  0
  -23.6294   -8.2248   22.0731 C   0  0  0  0  0  0
  -22.4282   -8.0273   21.3524 C   0  0  0  0  0  0
  -21.9910   -9.0238   20.4625 C   0  0  0  0  0  0
  -22.7228  -10.2124   20.3034 C   0  0  0  0  0  0
  -21.6854   -6.0734   22.5271 C   0  0  0  0  0  0
  -21.4016   -6.5632   23.8206 C   0  0  0  0  0  0
  -21.3672   -5.6783   24.9168 C   0  0  0  0  0  0
  -21.6055   -4.3048   24.7214 C   0  0  0  0  0  0
  -21.8823   -3.8142   23.4335 C   0  0  0  0  0  0
  -21.9196   -4.6962   22.3396 C   0  0  0  0  0  0
  -22.7840  -13.5211   21.1867 C   0  0  0  0  0  0
  -22.1660   -4.2152   21.0970 F   0  0  0  0  0  0
  -21.5636   -3.4531   25.7728 F   0  0  0  0  0  0
  -30.0007  -13.4933   20.4309 N   0  0  0  0  0  0
  -26.2971  -12.9388   20.3337 N   0  0  0  0  0  0
  -25.9336  -11.6532   20.5780 N   0  0  0  0  0  0
  -22.0494  -12.8186   22.0423 N   0  0  0  0  0  0
  -25.4254  -15.1908   20.4153 N   0  0  0  0  0  0
  -31.7703  -14.8542   20.0554 O   0  0  0  0  0  0
  -21.6642   -6.8871   21.4229 O   0  0  0  0  0  0
  -22.3521  -14.5516   20.6714 O   0  0  0  0  0  0
  -24.6315  -31.8566   23.1992 C   0  0  0  0  0  0
  -25.9149  -32.4759   23.8333 C   0  0  1  0  0  0
  -27.2068  -27.2483   20.1472 C   0  0  0  0  0  0
  -25.5948  -33.8563   24.2255 N   0  0  0  0  0  0
  -23.4301  -30.4791   21.5430 C   0  0  2  0  0  0
  -24.8784  -28.9303   20.1057 C   0  0  0  0  0  0
  -22.7518  -29.4602   22.4900 C   0  0  0  0  0  0
  -18.0298  -28.1404   22.8482 C   0  0  0  0  0  0
  -24.1492  -36.7291   23.2639 C   0  0  0  0  0  0
  -25.9772  -30.7610   21.3876 C   0  0  0  0  0  0
  -26.0464  -29.3823   20.7346 C   0  0  0  0  0  0
  -27.2143  -28.5519   20.7499 C   0  0  0  0  0  0
  -26.0417  -26.8999   19.4324 C   0  0  0  0  0  0
  -24.8820  -27.6970   19.4399 C   0  0  0  0  0  0
  -23.6499  -29.8179   20.1570 C   0  0  0  0  0  0
  -25.4124  -36.3077   24.0323 C   0  0  1  0  0  0
  -20.5904  -28.3710   23.1263 C   0  0  2  0  0  0
  -20.6792  -26.9426   22.5405 C   0  0  0  0  0  0
  -19.5763  -26.6388   21.5218 C   0  0  0  0  0  0
  -18.1943  -26.7949   22.1624 C   0  0  0  0  0  0
  -19.1551  -28.8873   23.2869 C   0  0  0  0  0  0
  -18.9476  -30.1478   23.8885 C   0  0  0  0  0  0
  -17.6472  -30.6599   24.0570 C   0  0  0  0  0  0
  -25.9060  -34.9446   23.5084 C   0  0  0  0  0  0
  -16.5360  -29.9098   23.6334 C   0  0  0  0  0  0
  -16.7285  -28.6520   23.0344 C   0  0  0  0  0  0
  -26.4502  -31.6585   25.0726 C   0  0  0  0  0  0
  -25.3702  -31.3754   26.1428 C   0  0  0  0  0  0
  -27.0340  -30.2991   24.6228 C   0  0  0  0  0  0
  -27.6046  -32.4329   25.7506 C   0  0  0  0  0  0
  -27.5588  -37.1807   24.8465 C   0  0  0  0  0  0
  -21.4224  -29.3049   22.3644 N   0  0  0  0  0  0
  -26.4303  -37.3775   23.9402 N   0  0  0  0  0  0
  -24.6985  -31.0512   22.0991 N   0  0  0  0  0  0
  -23.4202  -28.8155   23.3017 O   0  0  0  0  0  0
  -28.2784  -26.3193   20.1782 O   0  0  0  0  0  0
  -26.5638  -34.8926   22.4655 O   0  0  0  0  0  0
  -23.5457  -32.1396   23.7276 O   0  0  0  0  0  0
  -28.8301  -19.4279   18.6444 C   0  0  0  0  0  0
  -29.6967  -18.4619   20.6990 C   0  0  0  0  0  0
  -28.7586  -18.1355   18.0760 C   0  0  0  0  0  0
  -29.2831  -19.6552   19.9642 C   0  0  0  0  0  0
  -29.6517  -17.1134   20.1357 C   0  0  0  0  0  0
  -29.1806  -17.0028   18.8070 C   0  0  0  0  0  0
  -28.2436  -17.9781   16.6897 C   0  0  0  0  0  0
  -28.5673  -22.1586   20.0661 C   0  0  0  0  0  0
  -27.0788  -18.8774   16.2874 C   0  0  0  0  0  0
  -28.7135  -25.1776   22.2144 C   0  0  0  0  0  0
  -26.6813  -24.4771   21.0219 C   0  0  0  0  0  0
  -29.0248  -23.7075   20.1483 C   0  0  0  0  0  0
  -28.1469  -24.9317   20.8034 C   0  0  0  0  0  0
  -29.3651  -21.0739   20.4271 N   0  0  0  0  0  0
  -29.8786  -15.8364   20.8619 N   0  0  0  0  0  0
  -28.6726  -17.1557   15.8753 O   0  0  0  0  0  0
  -27.4461  -21.9356   19.6017 O   0  0  0  0  0  0
  -29.0580  -15.7727   18.2527 F   0  0  0  0  0  0
  -31.4783  -12.5528   19.1890 H   0  0  0  0  0  0
  -30.3701  -11.4546   19.9593 H   0  0  0  0  0  0
  -29.7881  -11.7055   17.5393 H   0  0  0  0  0  0
  -29.6717  -13.4351   17.7167 H   0  0  0  0  0  0
  -27.8641  -11.2966   18.8813 H   0  0  0  0  0  0
  -27.3899  -12.5772   17.7966 H   0  0  0  0  0  0
  -27.6438  -14.2569   19.5065 H   0  0  0  0  0  0
  -28.7191  -12.1359   21.4195 H   0  0  0  0  0  0
  -28.4277  -13.8072   21.8222 H   0  0  0  0  0  0
  -25.2765   -9.5701   22.4736 H   0  0  0  0  0  0
  -24.0015   -7.4643   22.7445 H   0  0  0  0  0  0
  -21.0845   -8.8739   19.8935 H   0  0  0  0  0  0
  -22.3661  -10.9657   19.6151 H   0  0  0  0  0  0
  -21.1998   -7.6140   23.9711 H   0  0  0  0  0  0
  -21.1497   -6.0509   25.9072 H   0  0  0  0  0  0
  -22.0593   -2.7607   23.2826 H   0  0  0  0  0  0
  -22.4110  -11.9842   22.4807 H   0  0  0  0  0  0
  -21.1107  -13.1187   22.2626 H   0  0  0  0  0  0
  -24.6592  -15.8464   20.5268 H   0  0  0  0  0  0
  -26.2784  -15.6266   20.0902 H   0  0  0  0  0  0
  -26.7215  -32.5407   23.1071 H   0  0  0  0  0  0
  -25.0080  -33.9687   25.0390 H   0  0  0  0  0  0
  -22.7280  -31.3030   21.3993 H   0  0  0  0  0  0
  -23.3754  -35.9622   23.3298 H   0  0  0  0  0  0
  -24.3575  -36.8915   22.2054 H   0  0  0  0  0  0
  -23.7242  -37.6493   23.6659 H   0  0  0  0  0  0
  -26.1188  -31.5178   20.6143 H   0  0  0  0  0  0
  -26.8553  -30.8104   22.0204 H   0  0  0  0  0  0
  -28.1052  -28.8870   21.2613 H   0  0  0  0  0  0
  -26.0114  -25.9745   18.8773 H   0  0  0  0  0  0
  -24.0010  -27.3590   18.9123 H   0  0  0  0  0  0
  -23.7781  -30.5983   19.4058 H   0  0  0  0  0  0
  -22.7673  -29.2551   19.8468 H   0  0  0  0  0  0
  -25.1306  -36.1925   25.0818 H   0  0  0  0  0  0
  -20.9995  -28.3296   24.1387 H   0  0  0  0  0  0
  -20.5705  -26.2324   23.3615 H   0  0  0  0  0  0
  -21.6660  -26.7463   22.1193 H   0  0  0  0  0  0
  -19.6923  -25.6293   21.1266 H   0  0  0  0  0  0
  -19.6711  -27.3185   20.6740 H   0  0  0  0  0  0
  -17.4217  -26.6697   21.4024 H   0  0  0  0  0  0
  -18.0344  -26.0101   22.9026 H   0  0  0  0  0  0
  -19.7948  -30.7311   24.2241 H   0  0  0  0  0  0
  -17.5020  -31.6278   24.5177 H   0  0  0  0  0  0
  -15.5356  -30.2991   23.7679 H   0  0  0  0  0  0
  -15.8688  -28.0844   22.7047 H   0  0  0  0  0  0
  -24.5876  -30.7113   25.7746 H   0  0  0  0  0  0
  -24.8895  -32.2930   26.4829 H   0  0  0  0  0  0
  -25.7992  -30.8937   27.0222 H   0  0  0  0  0  0
  -26.2927  -29.6752   24.1225 H   0  0  0  0  0  0
  -27.3973  -29.7250   25.4763 H   0  0  0  0  0  0
  -27.8829  -30.4256   23.9505 H   0  0  0  0  0  0
  -27.2645  -33.3630   26.2077 H   0  0  0  0  0  0
  -28.3866  -32.6894   25.0345 H   0  0  0  0  0  0
  -28.0706  -31.8462   26.5434 H   0  0  0  0  0  0
  -28.2600  -38.0107   24.7511 H   0  0  0  0  0  0
  -28.1086  -36.2639   24.6291 H   0  0  0  0  0  0
  -27.2301  -37.1459   25.8865 H   0  0  0  0  0  0
  -20.9416  -29.8759   21.6835 H   0  0  0  0  0  0
  -26.0180  -38.2847   24.1397 H   0  0  0  0  0  0
  -28.5421  -20.2694   18.0315 H   0  0  0  0  0  0
  -30.0418  -18.5781   21.7162 H   0  0  0  0  0  0
  -26.4237  -19.0527   17.1404 H   0  0  0  0  0  0
  -26.4870  -18.4069   15.5033 H   0  0  0  0  0  0
  -27.4447  -19.8354   15.9215 H   0  0  0  0  0  0
  -28.1294  -25.9205   22.7584 H   0  0  0  0  0  0
  -29.7408  -25.5402   22.1721 H   0  0  0  0  0  0
  -28.7135  -24.2636   22.8098 H   0  0  0  0  0  0
  -26.1867  -24.2111   20.0890 H   0  0  0  0  0  0
  -26.0794  -25.2313   21.5296 H   0  0  0  0  0  0
  -26.6366  -23.5908   21.6551 H   0  0  0  0  0  0
  -29.1625  -23.9795   19.1019 H   0  0  0  0  0  0
  -30.0354  -23.7292   20.5568 H   0  0  0  0  0  0
  -30.1676  -21.2992   21.0012 H   0  0  0  0  0  0
  -29.0851  -15.5713   21.4257 H   0  0  0  0  0  0
  1 25  1  0  0  0
  1 30  2  0  0  0
  1 85  1  0  0  0
  2  3  1  0  0  0
  2 25  1  0  0  0
  2 89  1  0  0  0
  2 90  1  0  0  0
  3  4  1  0  0  0
  3 91  1  0  0  0
  3 92  1  0  0  0
  4  5  1  0  0  0
  4 93  1  0  0  0
  4 94  1  0  0  0
  5  6  1  0  0  0
  5 26  1  0  0  0
  5 95  1  0  0  0
  6 25  1  0  0  0
  6 96  1  0  0  0
  6 97  1  0  0  0
  7  8  2  0  0  0
  7 26  1  0  0  0
  7 29  1  0  0  0
  8  9  1  0  0  0
  8 22  1  0  0  0
  9 10  1  0  0  0
  9 27  2  0  0  0
 10 11  2  0  0  0
 10 15  1  0  0  0
 11 12  1  0  0  0
 11 98  1  0  0  0
 12 13  2  0  0  0
 12 99  1  0  0  0
 13 14  1  0  0  0
 13 31  1  0  0  0
 14 15  2  0  0  0
 14100  1  0  0  0
 15101  1  0  0  0
 16 17  2  0  0  0
 16 21  1  0  0  0
 16 31  1  0  0  0
 17 18  1  0  0  0
 17102  1  0  0  0
 18 19  2  0  0  0
 18103  1  0  0  0
 19 20  1  0  0  0
 19 24  1  0  0  0
 20 21  2  0  0  0
 20104  1  0  0  0
 21 23  1  0  0  0
 22 28  1  0  0  0
 22 32  2  0  0  0
 26 27  1  0  0  0
 28105  1  0  0  0
 28106  1  0  0  0
 29107  1  0  0  0
 29108  1  0  0  0
 33 34  1  0  0  0
 33 66  1  0  0  0
 33 70  2  0  0  0
 34 36  1  0  0  0
 34 59  1  0  0  0
 34109  1  0  0  0
 35 44  2  0  0  0
 35 45  1  0  0  0
 35 68  1  0  0  0
 36 56  1  0  0  0
 36110  1  0  0  0
 37 39  1  0  0  0
 37 47  1  0  0  0
 37 66  1  0  0  0
 37111  1  0  0  0
 38 43  2  0  0  0
 38 46  1  0  0  0
 38 47  1  0  0  0
 39 64  1  0  0  0
 39 67  2  0  0  0
 40 52  1  0  0  0
 40 53  2  0  0  0
 40 58  1  0  0  0
 41112  1  0  0  0
 41113  1  0  0  0
 41114  1  0  0  0
 41 48  1  0  0  0
 42 43  1  0  0  0
 42 66  1  0  0  0
 42115  1  0  0  0
 42116  1  0  0  0
 43 44  1  0  0  0
 44117  1  0  0  0
 45 46  2  0  0  0
 45118  1  0  0  0
 46119  1  0  0  0
 47120  1  0  0  0
 47121  1  0  0  0
 48 56  1  0  0  0
 48 65  1  0  0  0
 48122  1  0  0  0
 49 50  1  0  0  0
 49 53  1  0  0  0
 49 64  1  0  0  0
 49123  1  0  0  0
 50 51  1  0  0  0
 50124  1  0  0  0
 50125  1  0  0  0
 51 52  1  0  0  0
 51126  1  0  0  0
 51127  1  0  0  0
 52128  1  0  0  0
 52129  1  0  0  0
 53 54  1  0  0  0
 54 55  2  0  0  0
 54130  1  0  0  0
 55 57  1  0  0  0
 55131  1  0  0  0
 56 69  2  0  0  0
 57 58  2  0  0  0
 57132  1  0  0  0
 58133  1  0  0  0
 59 60  1  0  0  0
 59 61  1  0  0  0
 59 62  1  0  0  0
 60134  1  0  0  0
 60135  1  0  0  0
 60136  1  0  0  0
 61137  1  0  0  0
 61138  1  0  0  0
 61139  1  0  0  0
 62140  1  0  0  0
 62141  1  0  0  0
 62142  1  0  0  0
 63 65  1  0  0  0
 63143  1  0  0  0
 63144  1  0  0  0
 63145  1  0  0  0
 64146  1  0  0  0
 65147  1  0  0  0
 68 83  1  0  0  0
 71 73  2  0  0  0
 71 74  1  0  0  0
 71148  1  0  0  0
 72 74  2  0  0  0
 72 75  1  0  0  0
 72149  1  0  0  0
 73 76  1  0  0  0
 73 77  1  0  0  0
 74 84  1  0  0  0
 75 76  2  0  0  0
 75 85  1  0  0  0
 76 88  1  0  0  0
 77 79  1  0  0  0
 77 86  2  0  0  0
 78 82  1  0  0  0
 78 84  1  0  0  0
 78 87  2  0  0  0
 79150  1  0  0  0
 79151  1  0  0  0
 79152  1  0  0  0
 80153  1  0  0  0
 80154  1  0  0  0
 80155  1  0  0  0
 80 83  1  0  0  0
 81 83  1  0  0  0
 81156  1  0  0  0
 81157  1  0  0  0
 81158  1  0  0  0
 82 83  1  0  0  0
 82159  1  0  0  0
 82160  1  0  0  0
 84161  1  0  0  0
 85162  1  0  0  0
M  ISO  4   1 100  68 101  83 101  85 100
M  END
> <chiral flag>
0

> <version>
0

> <s_m_source_file>
/data/baiqing/PycharmProjects/Reinvent-master-3.2/result/LINK_invent/BTK/process_docking_weight1_custom_product_contain_oxygen_bond_distance_aromatic_linkinvent_7_9_3/rearranged_h_0141.sdf

> <i_m_source_file_index>
71

> <r_mmod_Potential_Energy-OPLS-2005>
193.147186279297

> <r_mmod_Stretch_Energy-OPLS-2005>
141.388458251953

> <r_mmod_Bend_Energy-OPLS-2005>
182.051742553711

> <r_mmod_Torsional_Energy-OPLS-2005>
321.527221679688

> <r_mmod_Improper_Torsional_Energy-OPLS-2005>
6.52789783477783

> <r_mmod_Van_der_Waal_Energy-OPLS-2005>
151.079193115234

> <r_mmod_Electrostatic_Energy-OPLS-2005>
-455.545684814453

> <r_mmod_Solvation_Energy-OPLS-2005>
-240.870620727539

> <b_mmod_Minimization_Converged-OPLS-2005>
0

> <r_mmod_RMS_Derivative-OPLS-2005>
1.81763052940369

$$$$
71
                    3D
 Structure written by MMmdl.
164173  0  0  1  0            999 V2000
  -30.6215  -14.7701   20.4530 C   0  0  0  0  0  0
  -30.4216  -12.4734   19.4902 C   0  0  0  0  0  0
  -29.5163  -12.5247   18.2403 C   0  0  0  0  0  0
  -28.0378  -12.3585   18.6396 C   0  0  0  0  0  0
  -27.6385  -13.2474   19.8508 C   0  0  2  0  0  0
  -28.6785  -13.1970   20.9894 C   0  0  0  0  0  0
  -25.2469  -13.8216   20.5681 C   0  0  0  0  0  0
  -24.1789  -13.0442   20.9201 C   0  0  0  0  0  0
  -24.6409  -11.6932   20.8723 C   0  0  0  0  0  0
  -23.9080  -10.4301   21.0372 C   0  0  0  0  0  0
  -24.3624   -9.4219   21.9154 C   0  0  0  0  0  0
  -23.6298   -8.2248   22.0733 C   0  0  0  0  0  0
  -22.4278   -8.0284   21.3534 C   0  0  0  0  0  0
  -21.9905   -9.0259   20.4634 C   0  0  0  0  0  0
  -22.7229  -10.2135   20.3033 C   0  0  0  0  0  0
  -21.6863   -6.0731   22.5271 C   0  0  0  0  0  0
  -21.4046   -6.5633   23.8209 C   0  0  0  0  0  0
  -21.3663   -5.6780   24.9165 C   0  0  0  0  0  0
  -21.6030   -4.3044   24.7212 C   0  0  0  0  0  0
  -21.8818   -3.8134   23.4337 C   0  0  0  0  0  0
  -21.9204   -4.6952   22.3400 C   0  0  0  0  0  0
  -22.7810  -13.5217   21.1868 C   0  0  0  0  0  0
  -22.1658   -4.2138   21.0973 F   0  0  0  0  0  0
  -21.5619   -3.4531   25.7727 F   0  0  0  0  0  0
  -29.9751  -13.5517   20.4060 N   0  0  0  0  0  0
  -26.2917  -12.9459   20.3255 N   0  0  0  0  0  0
  -25.9342  -11.6578   20.5705 N   0  0  0  0  0  0
  -22.0472  -12.8217   22.0444 N   0  0  0  0  0  0
  -25.4096  -15.1934   20.4093 N   0  0  0  0  0  0
  -31.8305  -14.7937   20.2127 O   0  0  0  0  0  0
  -21.6653   -6.8867   21.4233 O   0  0  0  0  0  0
  -22.3485  -14.5507   20.6678 O   0  0  0  0  0  0
  -24.6309  -31.8496   23.1943 C   0  0  0  0  0  0
  -25.9115  -32.4726   23.8286 C   0  0  1  0  0  0
  -27.2316  -27.2362   20.1447 C   0  0  0  0  0  0
  -25.5903  -33.8532   24.2209 N   0  0  0  0  0  0
  -23.4308  -30.4672   21.5360 C   0  0  2  0  0  0
  -24.8825  -28.9048   20.1055 C   0  0  0  0  0  0
  -22.7489  -29.4553   22.4877 C   0  0  0  0  0  0
  -18.0283  -28.1392   22.8492 C   0  0  0  0  0  0
  -24.1478  -36.7267   23.2647 C   0  0  0  0  0  0
  -25.9762  -30.7512   21.3801 C   0  0  0  0  0  0
  -26.0477  -29.3715   20.7234 C   0  0  0  0  0  0
  -27.2182  -28.5473   20.7341 C   0  0  0  0  0  0
  -26.0456  -26.8346   19.4951 C   0  0  0  0  0  0
  -24.8863  -27.6429   19.4821 C   0  0  0  0  0  0
  -23.6533  -29.7947   20.1524 C   0  0  0  0  0  0
  -25.4112  -36.3050   24.0320 C   0  0  1  0  0  0
  -20.5884  -28.3694   23.1267 C   0  0  2  0  0  0
  -20.6770  -26.9401   22.5426 C   0  0  0  0  0  0
  -19.5754  -26.6380   21.5220 C   0  0  0  0  0  0
  -18.1924  -26.7934   22.1628 C   0  0  0  0  0  0
  -19.1534  -28.8865   23.2867 C   0  0  0  0  0  0
  -18.9472  -30.1472   23.8879 C   0  0  0  0  0  0
  -17.6465  -30.6594   24.0571 C   0  0  0  0  0  0
  -25.9063  -34.9431   23.5072 C   0  0  0  0  0  0
  -16.5350  -29.9093   23.6348 C   0  0  0  0  0  0
  -16.7265  -28.6513   23.0360 C   0  0  0  0  0  0
  -26.4491  -31.6589   25.0705 C   0  0  0  0  0  0
  -25.3713  -31.3777   26.1433 C   0  0  0  0  0  0
  -27.0376  -30.2995   24.6259 C   0  0  0  0  0  0
  -27.6014  -32.4374   25.7486 C   0  0  0  0  0  0
  -27.5562  -37.1786   24.8461 C   0  0  0  0  0  0
  -21.4190  -29.3022   22.3640 N   0  0  0  0  0  0
  -26.4279  -37.3753   23.9403 N   0  0  0  0  0  0
  -24.6981  -31.0421   22.0926 N   0  0  0  0  0  0
  -23.4176  -28.8112   23.3005 O   0  0  0  0  0  0
  -28.3421  -26.3660   20.2765 O   0  0  0  0  0  0
  -26.5645  -34.8912   22.4653 O   0  0  0  0  0  0
  -23.5456  -32.1334   23.7227 O   0  0  0  0  0  0
  -32.7509  -18.7342   20.3326 C   0  0  0  0  0  0
  -32.3965  -18.0610   19.1457 C   0  0  0  0  0  0
  -31.7401  -18.9221   21.2874 C   0  0  0  0  0  0
  -31.1516  -17.3970   19.0267 C   0  0  0  0  0  0
  -30.3591  -18.4755   21.0716 C   0  0  0  0  0  0
  -30.2546  -17.3541   20.1339 C   0  0  0  0  0  0
  -28.1019  -23.6432   20.3943 C   0  0  0  0  0  0
  -31.2586  -20.2409   21.6922 C   0  0  0  0  0  0
  -30.8814  -16.6061   17.7551 C   0  0  0  0  0  0
  -28.6365  -22.3798   22.4869 C   0  0  0  0  0  0
  -30.5221  -23.2219   21.1004 C   0  0  0  0  0  0
  -28.5087  -25.0103   19.6297 C   0  0  0  0  0  0
  -29.2199  -20.9771   20.4233 C   0  0  0  0  0  0
  -29.1311  -22.5400   21.0247 C   0  0  0  0  0  0
  -29.8816  -19.8776   21.2752 N   0  0  0  0  0  0
  -29.8864  -15.9597   20.5650 N   0  0  0  0  0  0
  -26.8925  -23.4061   20.4828 O   0  0  0  0  0  0
  -31.4684  -12.5741   19.2001 H   0  0  0  0  0  0
  -30.3397  -11.5015   19.9773 H   0  0  0  0  0  0
  -29.8050  -11.7484   17.5301 H   0  0  0  0  0  0
  -29.6524  -13.4743   17.7211 H   0  0  0  0  0  0
  -27.8746  -11.3070   18.8725 H   0  0  0  0  0  0
  -27.3939  -12.5801   17.7876 H   0  0  0  0  0  0
  -27.6265  -14.2688   19.4718 H   0  0  0  0  0  0
  -28.7144  -12.2043   21.4387 H   0  0  0  0  0  0
  -28.4115  -13.8888   21.7897 H   0  0  0  0  0  0
  -25.2773   -9.5707   22.4722 H   0  0  0  0  0  0
  -24.0016   -7.4646   22.7443 H   0  0  0  0  0  0
  -21.0836   -8.8760   19.8958 H   0  0  0  0  0  0
  -22.3662  -10.9666   19.6144 H   0  0  0  0  0  0
  -21.2059   -7.6142   23.9710 H   0  0  0  0  0  0
  -21.1485   -6.0513   25.9066 H   0  0  0  0  0  0
  -22.0598   -2.7595   23.2839 H   0  0  0  0  0  0
  -22.4123  -11.9951   22.4925 H   0  0  0  0  0  0
  -21.1068  -13.1194   22.2592 H   0  0  0  0  0  0
  -24.6282  -15.8334   20.5102 H   0  0  0  0  0  0
  -26.2447  -15.6430   20.0590 H   0  0  0  0  0  0
  -26.7172  -32.5348   23.1010 H   0  0  0  0  0  0
  -25.0040  -33.9670   25.0344 H   0  0  0  0  0  0
  -22.7270  -31.2885   21.3837 H   0  0  0  0  0  0
  -23.3752  -35.9594   23.3335 H   0  0  0  0  0  0
  -24.3561  -36.8874   22.2059 H   0  0  0  0  0  0
  -23.7239  -37.6470   23.6676 H   0  0  0  0  0  0
  -26.1224  -31.5109   20.6106 H   0  0  0  0  0  0
  -26.8492  -30.7952   22.0200 H   0  0  0  0  0  0
  -28.1074  -28.8931   21.2435 H   0  0  0  0  0  0
  -25.9829  -25.8586   19.0376 H   0  0  0  0  0  0
  -23.9905  -27.2737   19.0019 H   0  0  0  0  0  0
  -23.7764  -30.5687   19.3934 H   0  0  0  0  0  0
  -22.7712  -29.2263   19.8526 H   0  0  0  0  0  0
  -25.1302  -36.1892   25.0814 H   0  0  0  0  0  0
  -20.9972  -28.3295   24.1388 H   0  0  0  0  0  0
  -20.5674  -26.2295   23.3638 H   0  0  0  0  0  0
  -21.6641  -26.7424   22.1212 H   0  0  0  0  0  0
  -19.6915  -25.6287   21.1255 H   0  0  0  0  0  0
  -19.6720  -27.3209   20.6761 H   0  0  0  0  0  0
  -17.4201  -26.6699   21.4012 H   0  0  0  0  0  0
  -18.0301  -26.0068   22.9011 H   0  0  0  0  0  0
  -19.7940  -30.7298   24.2219 H   0  0  0  0  0  0
  -17.5020  -31.6268   24.5193 H   0  0  0  0  0  0
  -15.5357  -30.2998   23.7682 H   0  0  0  0  0  0
  -15.8656  -28.0840   22.7074 H   0  0  0  0  0  0
  -24.5842  -30.7177   25.7759 H   0  0  0  0  0  0
  -24.8975  -32.2984   26.4841 H   0  0  0  0  0  0
  -25.8005  -30.8941   27.0213 H   0  0  0  0  0  0
  -26.3004  -29.6709   24.1251 H   0  0  0  0  0  0
  -27.3997  -29.7283   25.4814 H   0  0  0  0  0  0
  -27.8885  -30.4250   23.9568 H   0  0  0  0  0  0
  -27.2566  -33.3660   26.2039 H   0  0  0  0  0  0
  -28.3824  -32.6970   25.0331 H   0  0  0  0  0  0
  -28.0689  -31.8545   26.5429 H   0  0  0  0  0  0
  -28.2587  -38.0069   24.7480 H   0  0  0  0  0  0
  -28.1042  -36.2597   24.6321 H   0  0  0  0  0  0
  -27.2274  -37.1467   25.8862 H   0  0  0  0  0  0
  -20.9378  -29.8731   21.6831 H   0  0  0  0  0  0
  -26.0157  -38.2819   24.1420 H   0  0  0  0  0  0
  -33.6820  -19.2833   20.3913 H   0  0  0  0  0  0
  -33.1066  -18.0206   18.3310 H   0  0  0  0  0  0
  -31.7411  -21.0031   21.0833 H   0  0  0  0  0  0
  -31.3686  -20.4273   22.7613 H   0  0  0  0  0  0
  -31.2870  -15.5981   17.8101 H   0  0  0  0  0  0
  -31.3499  -17.0936   16.8995 H   0  0  0  0  0  0
  -29.8103  -16.5419   17.5607 H   0  0  0  0  0  0
  -28.4761  -23.3423   22.9761 H   0  0  0  0  0  0
  -29.3456  -21.8327   23.1066 H   0  0  0  0  0  0
  -27.6918  -21.8344   22.5280 H   0  0  0  0  0  0
  -30.4517  -24.2931   21.2922 H   0  0  0  0  0  0
  -31.0906  -23.0867   20.1801 H   0  0  0  0  0  0
  -31.1198  -22.8574   21.9331 H   0  0  0  0  0  0
  -27.9677  -25.0192   18.6827 H   0  0  0  0  0  0
  -29.5554  -24.9263   19.3378 H   0  0  0  0  0  0
  -29.7281  -20.9961   19.4587 H   0  0  0  0  0  0
  -28.2055  -20.6428   20.1992 H   0  0  0  0  0  0
  -28.9522  -15.8513   20.9270 H   0  0  0  0  0  0
  1 25  1  0  0  0
  1 30  2  0  0  0
  1 86  1  0  0  0
  2  3  1  0  0  0
  2 25  1  0  0  0
  2 88  1  0  0  0
  2 89  1  0  0  0
  3  4  1  0  0  0
  3 90  1  0  0  0
  3 91  1  0  0  0
  4  5  1  0  0  0
  4 92  1  0  0  0
  4 93  1  0  0  0
  5  6  1  0  0  0
  5 26  1  0  0  0
  5 94  1  0  0  0
  6 25  1  0  0  0
  6 95  1  0  0  0
  6 96  1  0  0  0
  7  8  2  0  0  0
  7 26  1  0  0  0
  7 29  1  0  0  0
  8  9  1  0  0  0
  8 22  1  0  0  0
  9 10  1  0  0  0
  9 27  2  0  0  0
 10 11  2  0  0  0
 10 15  1  0  0  0
 11 12  1  0  0  0
 11 97  1  0  0  0
 12 13  2  0  0  0
 12 98  1  0  0  0
 13 14  1  0  0  0
 13 31  1  0  0  0
 14 15  2  0  0  0
 14 99  1  0  0  0
 15100  1  0  0  0
 16 17  2  0  0  0
 16 21  1  0  0  0
 16 31  1  0  0  0
 17 18  1  0  0  0
 17101  1  0  0  0
 18 19  2  0  0  0
 18102  1  0  0  0
 19 20  1  0  0  0
 19 24  1  0  0  0
 20 21  2  0  0  0
 20103  1  0  0  0
 21 23  1  0  0  0
 22 28  1  0  0  0
 22 32  2  0  0  0
 26 27  1  0  0  0
 28104  1  0  0  0
 28105  1  0  0  0
 29106  1  0  0  0
 29107  1  0  0  0
 33 34  1  0  0  0
 33 66  1  0  0  0
 33 70  2  0  0  0
 34 36  1  0  0  0
 34 59  1  0  0  0
 34108  1  0  0  0
 35 44  2  0  0  0
 35 45  1  0  0  0
 35 68  1  0  0  0
 36 56  1  0  0  0
 36109  1  0  0  0
 37 39  1  0  0  0
 37 47  1  0  0  0
 37 66  1  0  0  0
 37110  1  0  0  0
 38 43  2  0  0  0
 38 46  1  0  0  0
 38 47  1  0  0  0
 39 64  1  0  0  0
 39 67  2  0  0  0
 40 52  1  0  0  0
 40 53  2  0  0  0
 40 58  1  0  0  0
 41111  1  0  0  0
 41112  1  0  0  0
 41113  1  0  0  0
 41 48  1  0  0  0
 42 43  1  0  0  0
 42 66  1  0  0  0
 42114  1  0  0  0
 42115  1  0  0  0
 43 44  1  0  0  0
 44116  1  0  0  0
 45 46  2  0  0  0
 45117  1  0  0  0
 46118  1  0  0  0
 47119  1  0  0  0
 47120  1  0  0  0
 48 56  1  0  0  0
 48 65  1  0  0  0
 48121  1  0  0  0
 49 50  1  0  0  0
 49 53  1  0  0  0
 49 64  1  0  0  0
 49122  1  0  0  0
 50 51  1  0  0  0
 50123  1  0  0  0
 50124  1  0  0  0
 51 52  1  0  0  0
 51125  1  0  0  0
 51126  1  0  0  0
 52127  1  0  0  0
 52128  1  0  0  0
 53 54  1  0  0  0
 54 55  2  0  0  0
 54129  1  0  0  0
 55 57  1  0  0  0
 55130  1  0  0  0
 56 69  2  0  0  0
 57 58  2  0  0  0
 57131  1  0  0  0
 58132  1  0  0  0
 59 60  1  0  0  0
 59 61  1  0  0  0
 59 62  1  0  0  0
 60133  1  0  0  0
 60134  1  0  0  0
 60135  1  0  0  0
 61136  1  0  0  0
 61137  1  0  0  0
 61138  1  0  0  0
 62139  1  0  0  0
 62140  1  0  0  0
 62141  1  0  0  0
 63 65  1  0  0  0
 63142  1  0  0  0
 63143  1  0  0  0
 63144  1  0  0  0
 64145  1  0  0  0
 65146  1  0  0  0
 68 82  1  0  0  0
 71 72  2  0  0  0
 71 73  1  0  0  0
 71147  1  0  0  0
 72 74  1  0  0  0
 72148  1  0  0  0
 73 75  2  0  0  0
 73 78  1  0  0  0
 74 76  2  0  0  0
 74 79  1  0  0  0
 75 76  1  0  0  0
 75 85  1  0  0  0
 76 86  1  0  0  0
 77 82  1  0  0  0
 77 84  1  0  0  0
 77 87  2  0  0  0
 78 85  1  0  0  0
 78149  1  0  0  0
 78150  1  0  0  0
 79151  1  0  0  0
 79152  1  0  0  0
 79153  1  0  0  0
 80154  1  0  0  0
 80155  1  0  0  0
 80156  1  0  0  0
 80 84  1  0  0  0
 81 84  1  0  0  0
 81157  1  0  0  0
 81158  1  0  0  0
 81159  1  0  0  0
 82160  1  0  0  0
 82161  1  0  0  0
 83 84  1  0  0  0
 83 85  1  0  0  0
 83162  1  0  0  0
 83163  1  0  0  0
 86164  1  0  0  0
M  ISO  4   1 100  68 101  82 101  86 100
M  END
> <chiral flag>
0

> <version>
0

> <s_m_source_file>
/data/baiqing/PycharmProjects/Reinvent-master-3.2/result/LINK_invent/BTK/process_docking_weight1_custom_product_contain_oxygen_bond_distance_aromatic_linkinvent_7_9_3/rearranged_h_0141.sdf

> <i_m_source_file_index>
72

> <r_mmod_Potential_Energy-OPLS-2005>
922.063415527344

> <r_mmod_Stretch_Energy-OPLS-2005>
189.945037841797

> <r_mmod_Bend_Energy-OPLS-2005>
531.206481933594

> <r_mmod_Torsional_Energy-OPLS-2005>
486.648376464844

> <r_mmod_Improper_Torsional_Energy-OPLS-2005>
61.3379364013672

> <r_mmod_Van_der_Waal_Energy-OPLS-2005>
147.027786254883

> <r_mmod_Electrostatic_Energy-OPLS-2005>
-358.409912109375

> <r_mmod_Solvation_Energy-OPLS-2005>
-236.613082885742

> <b_mmod_Minimization_Converged-OPLS-2005>
0

> <r_mmod_RMS_Derivative-OPLS-2005>
3.18552231788635

$$$$
72
                    3D
 Structure written by MMmdl.
164172  0  0  1  0            999 V2000
  -30.6365  -14.5714   20.5048 C   0  0  0  0  0  0
  -30.4278  -12.3426   19.4603 C   0  0  0  0  0  0
  -29.5063  -12.4948   18.2309 C   0  0  0  0  0  0
  -28.0259  -12.3486   18.6356 C   0  0  0  0  0  0
  -27.6550  -13.2153   19.8710 C   0  0  2  0  0  0
  -28.6920  -13.0399   21.0045 C   0  0  0  0  0  0
  -25.2551  -13.8169   20.5692 C   0  0  0  0  0  0
  -24.1819  -13.0432   20.9184 C   0  0  0  0  0  0
  -24.6392  -11.6913   20.8741 C   0  0  0  0  0  0
  -23.9088  -10.4295   21.0428 C   0  0  0  0  0  0
  -24.3648   -9.4204   21.9192 C   0  0  0  0  0  0
  -23.6314   -8.2239   22.0732 C   0  0  0  0  0  0
  -22.4288   -8.0284   21.3528 C   0  0  0  0  0  0
  -21.9949   -9.0263   20.4636 C   0  0  0  0  0  0
  -22.7281  -10.2133   20.3061 C   0  0  0  0  0  0
  -21.6846   -6.0760   22.5287 C   0  0  0  0  0  0
  -21.4015   -6.5658   23.8225 C   0  0  0  0  0  0
  -21.3653   -5.6795   24.9191 C   0  0  0  0  0  0
  -21.6037   -4.3064   24.7225 C   0  0  0  0  0  0
  -21.8818   -3.8166   23.4351 C   0  0  0  0  0  0
  -21.9195   -4.6994   22.3409 C   0  0  0  0  0  0
  -22.7854  -13.5212   21.1862 C   0  0  0  0  0  0
  -22.1661   -4.2182   21.0986 F   0  0  0  0  0  0
  -21.5625   -3.4533   25.7736 F   0  0  0  0  0  0
  -30.0190  -13.3529   20.4547 N   0  0  0  0  0  0
  -26.2989  -12.9351   20.3333 N   0  0  0  0  0  0
  -25.9328  -11.6517   20.5792 N   0  0  0  0  0  0
  -22.0510  -12.8186   22.0419 N   0  0  0  0  0  0
  -25.4313  -15.1885   20.4090 N   0  0  0  0  0  0
  -31.7871  -14.7342   20.0886 O   0  0  0  0  0  0
  -21.6621   -6.8911   21.4250 O   0  0  0  0  0  0
  -22.3561  -14.5515   20.6719 O   0  0  0  0  0  0
  -24.6206  -31.8629   23.2068 C   0  0  0  0  0  0
  -25.9070  -32.4792   23.8360 C   0  0  1  0  0  0
  -27.2167  -27.3627   20.1103 C   0  0  0  0  0  0
  -25.5904  -33.8597   24.2291 N   0  0  0  0  0  0
  -23.4087  -30.4857   21.5509 C   0  0  2  0  0  0
  -24.8491  -28.9451   20.1160 C   0  0  0  0  0  0
  -22.7430  -29.4639   22.4998 C   0  0  0  0  0  0
  -18.0280  -28.1400   22.8491 C   0  0  0  0  0  0
  -24.1506  -36.7312   23.2632 C   0  0  0  0  0  0
  -25.9448  -30.8041   21.3723 C   0  0  0  0  0  0
  -26.0156  -29.4354   20.7172 C   0  0  0  0  0  0
  -27.2017  -28.6555   20.7038 C   0  0  0  0  0  0
  -26.0315  -26.9146   19.4803 C   0  0  0  0  0  0
  -24.8570  -27.6877   19.4915 C   0  0  0  0  0  0
  -23.6173  -29.8208   20.1661 C   0  0  0  0  0  0
  -25.4131  -36.3100   24.0314 C   0  0  1  0  0  0
  -20.5871  -28.3681   23.1313 C   0  0  2  0  0  0
  -20.6789  -26.9418   22.5420 C   0  0  0  0  0  0
  -19.5775  -26.6397   21.5217 C   0  0  0  0  0  0
  -18.1938  -26.7943   22.1624 C   0  0  0  0  0  0
  -19.1530  -28.8865   23.2891 C   0  0  0  0  0  0
  -18.9447  -30.1468   23.8898 C   0  0  0  0  0  0
  -17.6449  -30.6594   24.0571 C   0  0  0  0  0  0
  -25.9063  -34.9461   23.5113 C   0  0  0  0  0  0
  -16.5345  -29.9091   23.6336 C   0  0  0  0  0  0
  -16.7267  -28.6520   23.0336 C   0  0  0  0  0  0
  -26.4481  -31.6593   25.0718 C   0  0  0  0  0  0
  -25.3711  -31.3689   26.1431 C   0  0  0  0  0  0
  -27.0298  -30.3028   24.6125 C   0  0  0  0  0  0
  -27.6069  -32.4309   25.7470 C   0  0  0  0  0  0
  -27.5591  -37.1811   24.8455 C   0  0  0  0  0  0
  -21.4160  -29.3027   22.3711 N   0  0  0  0  0  0
  -26.4319  -37.3780   23.9392 N   0  0  0  0  0  0
  -24.6763  -31.0668   22.1003 N   0  0  0  0  0  0
  -23.4176  -28.8198   23.3069 O   0  0  0  0  0  0
  -28.3684  -26.5817   20.1447 O   0  0  0  0  0  0
  -26.5638  -34.8905   22.4680 O   0  0  0  0  0  0
  -23.5388  -32.1421   23.7419 O   0  0  0  0  0  0
  -29.2502  -18.0783   21.0077 C   0  0  0  0  0  0
  -30.2315  -17.1793   18.9736 C   0  0  0  0  0  0
  -29.5969  -19.5399   19.0859 C   0  0  0  0  0  0
  -29.8088  -16.9600   20.3077 C   0  0  0  0  0  0
  -29.1565  -19.3819   20.4174 C   0  0  0  0  0  0
  -30.1150  -18.4459   18.3701 C   0  0  0  0  0  0
  -28.5026  -22.4299   23.2423 C   0  0  0  0  0  0
  -30.1071  -24.7509   21.9320 C   0  0  0  0  0  0
  -27.7889  -25.3030   22.6788 C   0  0  0  0  0  0
  -28.9293  -21.9060   20.8036 C   0  0  0  0  0  0
  -28.2638  -25.1177   20.2310 C   0  0  0  0  0  0
  -28.2661  -22.9403   21.7927 C   0  0  2  0  0  0
  -28.6136  -24.5008   21.6380 C   0  0  0  0  0  0
  -29.8655  -15.6274   20.8945 N   0  0  0  0  0  0
  -28.6133  -20.4873   21.1252 N   0  0  0  0  0  0
  -30.4975  -18.6104   17.0807 F   0  0  0  0  0  0
  -31.4714  -12.4526   19.1592 H   0  0  0  0  0  0
  -30.3455  -11.3409   19.8874 H   0  0  0  0  0  0
  -29.7626  -11.7491   17.4764 H   0  0  0  0  0  0
  -29.6658  -13.4695   17.7680 H   0  0  0  0  0  0
  -27.8470  -11.2961   18.8599 H   0  0  0  0  0  0
  -27.3787  -12.5934   17.7916 H   0  0  0  0  0  0
  -27.6858  -14.2552   19.5442 H   0  0  0  0  0  0
  -28.6780  -12.0155   21.3749 H   0  0  0  0  0  0
  -28.4418  -13.6656   21.8639 H   0  0  0  0  0  0
  -25.2808   -9.5646   22.4772 H   0  0  0  0  0  0
  -24.0022   -7.4614   22.7436 H   0  0  0  0  0  0
  -21.0890   -8.8800   19.8937 H   0  0  0  0  0  0
  -22.3770  -10.9685   19.6159 H   0  0  0  0  0  0
  -21.1996   -7.6160   23.9747 H   0  0  0  0  0  0
  -21.1475   -6.0517   25.9083 H   0  0  0  0  0  0
  -22.0606   -2.7634   23.2824 H   0  0  0  0  0  0
  -22.4159  -11.9840   22.4786 H   0  0  0  0  0  0
  -21.1117  -13.1195   22.2652 H   0  0  0  0  0  0
  -24.6693  -15.8498   20.5188 H   0  0  0  0  0  0
  -26.2888  -15.6227   20.0864 H   0  0  0  0  0  0
  -26.7128  -32.5450   23.1096 H   0  0  0  0  0  0
  -25.0012  -33.9761   25.0407 H   0  0  0  0  0  0
  -22.7007  -31.3045   21.4126 H   0  0  0  0  0  0
  -23.3767  -35.9644   23.3306 H   0  0  0  0  0  0
  -24.3594  -36.8932   22.2042 H   0  0  0  0  0  0
  -23.7266  -37.6514   23.6662 H   0  0  0  0  0  0
  -26.0678  -31.5651   20.6002 H   0  0  0  0  0  0
  -26.8308  -30.8522   21.9944 H   0  0  0  0  0  0
  -28.1014  -29.0261   21.1767 H   0  0  0  0  0  0
  -25.9832  -25.9690   18.9615 H   0  0  0  0  0  0
  -23.9656  -27.3130   19.0062 H   0  0  0  0  0  0
  -23.7259  -30.5943   19.4040 H   0  0  0  0  0  0
  -22.7402  -29.2420   19.8737 H   0  0  0  0  0  0
  -25.1323  -36.1958   25.0808 H   0  0  0  0  0  0
  -20.9947  -28.3251   24.1445 H   0  0  0  0  0  0
  -20.5715  -26.2282   23.3586 H   0  0  0  0  0  0
  -21.6646  -26.7485   22.1192 H   0  0  0  0  0  0
  -19.6931  -25.6303   21.1246 H   0  0  0  0  0  0
  -19.6723  -27.3201   20.6732 H   0  0  0  0  0  0
  -17.4204  -26.6659   21.4026 H   0  0  0  0  0  0
  -18.0370  -26.0082   22.9032 H   0  0  0  0  0  0
  -19.7917  -30.7291   24.2254 H   0  0  0  0  0  0
  -17.4999  -31.6266   24.5177 H   0  0  0  0  0  0
  -15.5347  -30.2992   23.7664 H   0  0  0  0  0  0
  -15.8665  -28.0846   22.7046 H   0  0  0  0  0  0
  -24.5886  -30.7071   25.7714 H   0  0  0  0  0  0
  -24.8890  -32.2828   26.4908 H   0  0  0  0  0  0
  -25.8006  -30.8792   27.0174 H   0  0  0  0  0  0
  -26.2838  -29.6801   24.1176 H   0  0  0  0  0  0
  -27.4049  -29.7267   25.4588 H   0  0  0  0  0  0
  -27.8694  -30.4345   23.9293 H   0  0  0  0  0  0
  -27.2721  -33.3597   26.2098 H   0  0  0  0  0  0
  -28.3834  -32.6891   25.0262 H   0  0  0  0  0  0
  -28.0789  -31.8396   26.5317 H   0  0  0  0  0  0
  -28.2616  -38.0106   24.7507 H   0  0  0  0  0  0
  -28.1090  -36.2633   24.6303 H   0  0  0  0  0  0
  -27.2295  -37.1478   25.8856 H   0  0  0  0  0  0
  -20.9339  -29.8680   21.6866 H   0  0  0  0  0  0
  -26.0206  -38.2863   24.1380 H   0  0  0  0  0  0
  -28.8882  -17.9315   22.0158 H   0  0  0  0  0  0
  -30.6248  -16.3738   18.3692 H   0  0  0  0  0  0
  -29.5189  -20.4912   18.5808 H   0  0  0  0  0  0
  -29.5664  -22.3365   23.4603 H   0  0  0  0  0  0
  -28.0492  -21.4532   23.4049 H   0  0  0  0  0  0
  -28.0608  -23.0561   24.0124 H   0  0  0  0  0  0
  -30.3579  -25.8081   21.8384 H   0  0  0  0  0  0
  -30.7549  -24.1945   21.2538 H   0  0  0  0  0  0
  -30.3744  -24.4625   22.9495 H   0  0  0  0  0  0
  -27.9118  -26.3765   22.5540 H   0  0  0  0  0  0
  -28.0992  -25.1260   23.7071 H   0  0  0  0  0  0
  -26.7214  -25.0869   22.5981 H   0  0  0  0  0  0
  -30.0150  -22.0208   20.8124 H   0  0  0  0  0  0
  -28.6005  -22.1341   19.7884 H   0  0  0  0  0  0
  -27.2903  -24.7341   19.9406 H   0  0  0  0  0  0
  -28.9496  -24.7097   19.4896 H   0  0  0  0  0  0
  -27.1929  -22.8630   21.6171 H   0  0  0  0  0  0
  -29.0941  -15.3831   21.4987 H   0  0  0  0  0  0
  -28.2991  -20.3176   22.0780 H   0  0  0  0  0  0
  1 25  1  0  0  0
  1 30  2  0  0  0
  1 84  1  0  0  0
  2  3  1  0  0  0
  2 25  1  0  0  0
  2 87  1  0  0  0
  2 88  1  0  0  0
  3  4  1  0  0  0
  3 89  1  0  0  0
  3 90  1  0  0  0
  4  5  1  0  0  0
  4 91  1  0  0  0
  4 92  1  0  0  0
  5  6  1  0  0  0
  5 26  1  0  0  0
  5 93  1  0  0  0
  6 25  1  0  0  0
  6 94  1  0  0  0
  6 95  1  0  0  0
  7  8  2  0  0  0
  7 26  1  0  0  0
  7 29  1  0  0  0
  8  9  1  0  0  0
  8 22  1  0  0  0
  9 10  1  0  0  0
  9 27  2  0  0  0
 10 11  2  0  0  0
 10 15  1  0  0  0
 11 12  1  0  0  0
 11 96  1  0  0  0
 12 13  2  0  0  0
 12 97  1  0  0  0
 13 14  1  0  0  0
 13 31  1  0  0  0
 14 15  2  0  0  0
 14 98  1  0  0  0
 15 99  1  0  0  0
 16 17  2  0  0  0
 16 21  1  0  0  0
 16 31  1  0  0  0
 17 18  1  0  0  0
 17100  1  0  0  0
 18 19  2  0  0  0
 18101  1  0  0  0
 19 20  1  0  0  0
 19 24  1  0  0  0
 20 21  2  0  0  0
 20102  1  0  0  0
 21 23  1  0  0  0
 22 28  1  0  0  0
 22 32  2  0  0  0
 26 27  1  0  0  0
 28103  1  0  0  0
 28104  1  0  0  0
 29105  1  0  0  0
 29106  1  0  0  0
 33 34  1  0  0  0
 33 66  1  0  0  0
 33 70  2  0  0  0
 34 36  1  0  0  0
 34 59  1  0  0  0
 34107  1  0  0  0
 35 44  2  0  0  0
 35 45  1  0  0  0
 35 68  1  0  0  0
 36 56  1  0  0  0
 36108  1  0  0  0
 37 39  1  0  0  0
 37 47  1  0  0  0
 37 66  1  0  0  0
 37109  1  0  0  0
 38 43  2  0  0  0
 38 46  1  0  0  0
 38 47  1  0  0  0
 39 64  1  0  0  0
 39 67  2  0  0  0
 40 52  1  0  0  0
 40 53  2  0  0  0
 40 58  1  0  0  0
 41110  1  0  0  0
 41111  1  0  0  0
 41112  1  0  0  0
 41 48  1  0  0  0
 42 43  1  0  0  0
 42 66  1  0  0  0
 42113  1  0  0  0
 42114  1  0  0  0
 43 44  1  0  0  0
 44115  1  0  0  0
 45 46  2  0  0  0
 45116  1  0  0  0
 46117  1  0  0  0
 47118  1  0  0  0
 47119  1  0  0  0
 48 56  1  0  0  0
 48 65  1  0  0  0
 48120  1  0  0  0
 49 50  1  0  0  0
 49 53  1  0  0  0
 49 64  1  0  0  0
 49121  1  0  0  0
 50 51  1  0  0  0
 50122  1  0  0  0
 50123  1  0  0  0
 51 52  1  0  0  0
 51124  1  0  0  0
 51125  1  0  0  0
 52126  1  0  0  0
 52127  1  0  0  0
 53 54  1  0  0  0
 54 55  2  0  0  0
 54128  1  0  0  0
 55 57  1  0  0  0
 55129  1  0  0  0
 56 69  2  0  0  0
 57 58  2  0  0  0
 57130  1  0  0  0
 58131  1  0  0  0
 59 60  1  0  0  0
 59 61  1  0  0  0
 59 62  1  0  0  0
 60132  1  0  0  0
 60133  1  0  0  0
 60134  1  0  0  0
 61135  1  0  0  0
 61136  1  0  0  0
 61137  1  0  0  0
 62138  1  0  0  0
 62139  1  0  0  0
 62140  1  0  0  0
 63 65  1  0  0  0
 63141  1  0  0  0
 63142  1  0  0  0
 63143  1  0  0  0
 64144  1  0  0  0
 65145  1  0  0  0
 68 81  1  0  0  0
 71 74  2  0  0  0
 71 75  1  0  0  0
 71146  1  0  0  0
 72 74  1  0  0  0
 72 76  2  0  0  0
 72147  1  0  0  0
 73 75  2  0  0  0
 73 76  1  0  0  0
 73148  1  0  0  0
 74 84  1  0  0  0
 75 85  1  0  0  0
 76 86  1  0  0  0
 77149  1  0  0  0
 77150  1  0  0  0
 77151  1  0  0  0
 77 82  1  0  0  0
 78152  1  0  0  0
 78153  1  0  0  0
 78154  1  0  0  0
 78 83  1  0  0  0
 79 83  1  0  0  0
 79155  1  0  0  0
 79156  1  0  0  0
 79157  1  0  0  0
 80 82  1  0  0  0
 80 85  1  0  0  0
 80158  1  0  0  0
 80159  1  0  0  0
 81 83  1  0  0  0
 81160  1  0  0  0
 81161  1  0  0  0
 82 83  1  0  0  0
 82162  1  0  0  0
 84163  1  0  0  0
 85164  1  0  0  0
M  ISO  4   1 100  68 101  81 101  84 100
M  END
> <chiral flag>
0

> <version>
0

> <s_m_source_file>
/data/baiqing/PycharmProjects/Reinvent-master-3.2/result/LINK_invent/BTK/process_docking_weight1_custom_product_contain_oxygen_bond_distance_aromatic_linkinvent_7_9_3/rearranged_h_0141.sdf

> <i_m_source_file_index>
73

> <r_mmod_Potential_Energy-OPLS-2005>
101.227127075195

> <r_mmod_Stretch_Energy-OPLS-2005>
66.552864074707

> <r_mmod_Bend_Energy-OPLS-2005>
131.238357543945

> <r_mmod_Torsional_Energy-OPLS-2005>
253.06428527832

> <r_mmod_Improper_Torsional_Energy-OPLS-2005>
5.86905956268311

> <r_mmod_Van_der_Waal_Energy-OPLS-2005>
160.742126464844

> <r_mmod_Electrostatic_Energy-OPLS-2005>
-342.028228759766

> <r_mmod_Solvation_Energy-OPLS-2005>
-203.920471191406

> <b_mmod_Minimization_Converged-OPLS-2005>
0

> <r_mmod_RMS_Derivative-OPLS-2005>
3.66295385360718

$$$$
73
                    3D
 Structure written by MMmdl.
163172  0  0  1  0            999 V2000
  -30.6994  -14.4879   20.5602 C   0  0  0  0  0  0
  -30.4238  -12.3123   19.4317 C   0  0  0  0  0  0
  -29.5004  -12.5082   18.2118 C   0  0  0  0  0  0
  -28.0208  -12.3658   18.6202 C   0  0  0  0  0  0
  -27.6625  -13.2080   19.8737 C   0  0  2  0  0  0
  -28.7027  -13.0017   20.9985 C   0  0  0  0  0  0
  -25.2593  -13.8163   20.5678 C   0  0  0  0  0  0
  -24.1839  -13.0438   20.9156 C   0  0  0  0  0  0
  -24.6384  -11.6903   20.8704 C   0  0  0  0  0  0
  -23.9046  -10.4289   21.0377 C   0  0  0  0  0  0
  -24.3600   -9.4212   21.9159 C   0  0  0  0  0  0
  -23.6281   -8.2252   22.0746 C   0  0  0  0  0  0
  -22.4262   -8.0277   21.3540 C   0  0  0  0  0  0
  -21.9886   -9.0244   20.4646 C   0  0  0  0  0  0
  -22.7210  -10.2122   20.3038 C   0  0  0  0  0  0
  -21.6855   -6.0720   22.5274 C   0  0  0  0  0  0
  -21.4017   -6.5626   23.8204 C   0  0  0  0  0  0
  -21.3658   -5.6784   24.9170 C   0  0  0  0  0  0
  -21.6042   -4.3049   24.7225 C   0  0  0  0  0  0
  -21.8821   -3.8134   23.4349 C   0  0  0  0  0  0
  -21.9195   -4.6950   22.3400 C   0  0  0  0  0  0
  -22.7863  -13.5242   21.1825 C   0  0  0  0  0  0
  -22.1666   -4.2129   21.0980 F   0  0  0  0  0  0
  -21.5622   -3.4535   25.7745 F   0  0  0  0  0  0
  -30.0362  -13.3031   20.4490 N   0  0  0  0  0  0
  -26.3026  -12.9332   20.3346 N   0  0  0  0  0  0
  -25.9312  -11.6489   20.5733 N   0  0  0  0  0  0
  -22.0499  -12.8249   22.0389 N   0  0  0  0  0  0
  -25.4330  -15.1883   20.4124 N   0  0  0  0  0  0
  -31.8301  -14.6560   20.0949 O   0  0  0  0  0  0
  -21.6641   -6.8867   21.4236 O   0  0  0  0  0  0
  -22.3559  -14.5549   20.6672 O   0  0  0  0  0  0
  -24.6167  -31.8660   23.2104 C   0  0  0  0  0  0
  -25.9054  -32.4812   23.8404 C   0  0  1  0  0  0
  -27.2310  -27.4213   20.1043 C   0  0  0  0  0  0
  -25.5895  -33.8608   24.2333 N   0  0  0  0  0  0
  -23.4061  -30.4911   21.5504 C   0  0  2  0  0  0
  -24.8541  -28.9595   20.1106 C   0  0  0  0  0  0
  -22.7428  -29.4652   22.4976 C   0  0  0  0  0  0
  -18.0283  -28.1381   22.8494 C   0  0  0  0  0  0
  -24.1483  -36.7311   23.2641 C   0  0  0  0  0  0
  -25.9374  -30.8309   21.3649 C   0  0  0  0  0  0
  -26.0163  -29.4657   20.7079 C   0  0  0  0  0  0
  -27.2112  -28.7058   20.6985 C   0  0  0  0  0  0
  -26.0568  -26.9411   19.4850 C   0  0  0  0  0  0
  -24.8700  -27.6970   19.4941 C   0  0  0  0  0  0
  -23.6155  -29.8269   20.1636 C   0  0  0  0  0  0
  -25.4098  -36.3105   24.0346 C   0  0  1  0  0  0
  -20.5875  -28.3665   23.1313 C   0  0  2  0  0  0
  -20.6766  -26.9392   22.5429 C   0  0  0  0  0  0
  -19.5746  -26.6383   21.5221 C   0  0  0  0  0  0
  -18.1924  -26.7931   22.1627 C   0  0  0  0  0  0
  -19.1533  -28.8839   23.2907 C   0  0  0  0  0  0
  -18.9460  -30.1448   23.8918 C   0  0  0  0  0  0
  -17.6458  -30.6573   24.0579 C   0  0  0  0  0  0
  -25.9031  -34.9466   23.5142 C   0  0  0  0  0  0
  -16.5352  -29.9082   23.6321 C   0  0  0  0  0  0
  -16.7274  -28.6507   23.0329 C   0  0  0  0  0  0
  -26.4466  -31.6586   25.0734 C   0  0  0  0  0  0
  -25.3731  -31.3695   26.1488 C   0  0  0  0  0  0
  -27.0289  -30.3024   24.6122 C   0  0  0  0  0  0
  -27.6064  -32.4284   25.7475 C   0  0  0  0  0  0
  -27.5577  -37.1808   24.8461 C   0  0  0  0  0  0
  -21.4152  -29.3022   22.3707 N   0  0  0  0  0  0
  -26.4282  -37.3790   23.9413 N   0  0  0  0  0  0
  -24.6718  -31.0763   22.1004 N   0  0  0  0  0  0
  -23.4193  -28.8199   23.3024 O   0  0  0  0  0  0
  -28.3603  -26.6255   20.1387 O   0  0  0  0  0  0
  -26.5600  -34.8922   22.4708 O   0  0  0  0  0  0
  -23.5357  -32.1406   23.7496 O   0  0  0  0  0  0
  -31.1225  -17.5626   20.2712 C   0  0  0  0  0  0
  -30.9558  -18.9870   20.2957 C   0  0  0  0  0  0
  -29.8462  -19.3757   21.0081 C   0  0  0  0  0  0
  -30.1635  -16.8501   20.9613 C   0  0  0  0  0  0
  -29.3166  -20.7112   21.2717 C   0  0  0  0  0  0
  -27.6415  -21.9498   18.2705 C   0  0  0  0  0  0
  -26.9626  -22.6325   19.4676 C   0  0  0  0  0  0
  -28.8004  -21.1444   18.8747 C   0  0  0  0  0  0
  -28.0960  -22.8036   20.4896 C   0  0  2  0  0  0
  -31.9172  -19.9266   19.6312 C   0  0  0  0  0  0
  -28.8784  -24.1336   20.2253 C   0  0  0  0  0  0
  -28.1728  -25.3752   20.8447 C   0  0  0  0  0  0
  -28.8676  -21.5476   20.2876 N   0  0  0  0  0  0
  -29.9902  -15.4993   21.1095 N   0  0  0  0  0  0
  -29.2447  -21.0935   22.5567 N   0  3  0  0  0  0
  -29.0363  -17.9771   21.6896 S   0  0  0  0  0  0
  -31.4699  -12.4036   19.1340 H   0  0  0  0  0  0
  -30.3186  -11.3038   19.8339 H   0  0  0  0  0  0
  -29.7434  -11.7839   17.4332 H   0  0  0  0  0  0
  -29.6702  -13.4942   17.7754 H   0  0  0  0  0  0
  -27.8343  -11.3099   18.8184 H   0  0  0  0  0  0
  -27.3732  -12.6367   17.7854 H   0  0  0  0  0  0
  -27.7038  -14.2539   19.5697 H   0  0  0  0  0  0
  -28.6795  -11.9697   21.3515 H   0  0  0  0  0  0
  -28.4588  -13.6101   21.8701 H   0  0  0  0  0  0
  -25.2741   -9.5694   22.4736 H   0  0  0  0  0  0
  -23.9983   -7.4649   22.7474 H   0  0  0  0  0  0
  -21.0802   -8.8752   19.8968 H   0  0  0  0  0  0
  -22.3648  -10.9650   19.6150 H   0  0  0  0  0  0
  -21.2016   -7.6134   23.9700 H   0  0  0  0  0  0
  -21.1474   -6.0517   25.9067 H   0  0  0  0  0  0
  -22.0602   -2.7597   23.2863 H   0  0  0  0  0  0
  -22.4108  -11.9915   22.4788 H   0  0  0  0  0  0
  -21.1116  -13.1292   22.2585 H   0  0  0  0  0  0
  -24.6660  -15.8434   20.5204 H   0  0  0  0  0  0
  -26.2870  -15.6281   20.0930 H   0  0  0  0  0  0
  -26.7134  -32.5517   23.1175 H   0  0  0  0  0  0
  -25.0011  -33.9756   25.0460 H   0  0  0  0  0  0
  -22.6959  -31.3087   21.4122 H   0  0  0  0  0  0
  -23.3733  -35.9656   23.3313 H   0  0  0  0  0  0
  -24.3591  -36.8909   22.2055 H   0  0  0  0  0  0
  -23.7249  -37.6526   23.6648 H   0  0  0  0  0  0
  -26.0529  -31.6000   20.5998 H   0  0  0  0  0  0
  -26.8235  -30.8821   21.9855 H   0  0  0  0  0  0
  -28.1061  -29.0885   21.1692 H   0  0  0  0  0  0
  -26.0548  -25.9719   19.0077 H   0  0  0  0  0  0
  -23.9783  -27.3018   19.0275 H   0  0  0  0  0  0
  -23.7257  -30.6041   19.4069 H   0  0  0  0  0  0
  -22.7378  -29.2507   19.8652 H   0  0  0  0  0  0
  -25.1271  -36.1973   25.0840 H   0  0  0  0  0  0
  -20.9982  -28.3244   24.1428 H   0  0  0  0  0  0
  -20.5656  -26.2274   23.3622 H   0  0  0  0  0  0
  -21.6644  -26.7417   22.1233 H   0  0  0  0  0  0
  -19.6902  -25.6304   21.1229 H   0  0  0  0  0  0
  -19.6682  -27.3213   20.6766 H   0  0  0  0  0  0
  -17.4197  -26.6691   21.4024 H   0  0  0  0  0  0
  -18.0306  -26.0066   22.9011 H   0  0  0  0  0  0
  -19.7933  -30.7269   24.2285 H   0  0  0  0  0  0
  -17.5005  -31.6245   24.5193 H   0  0  0  0  0  0
  -15.5354  -30.2981   23.7630 H   0  0  0  0  0  0
  -15.8679  -28.0840   22.7005 H   0  0  0  0  0  0
  -24.5912  -30.7023   25.7841 H   0  0  0  0  0  0
  -24.8906  -32.2842   26.4937 H   0  0  0  0  0  0
  -25.8083  -30.8876   27.0251 H   0  0  0  0  0  0
  -26.2839  -29.6789   24.1168 H   0  0  0  0  0  0
  -27.4037  -29.7260   25.4591 H   0  0  0  0  0  0
  -27.8682  -30.4333   23.9289 H   0  0  0  0  0  0
  -27.2719  -33.3570   26.2104 H   0  0  0  0  0  0
  -28.3832  -32.6852   25.0263 H   0  0  0  0  0  0
  -28.0774  -31.8370   26.5335 H   0  0  0  0  0  0
  -28.2606  -38.0093   24.7498 H   0  0  0  0  0  0
  -28.1058  -36.2631   24.6280 H   0  0  0  0  0  0
  -27.2313  -37.1459   25.8869 H   0  0  0  0  0  0
  -20.9316  -29.8731   21.6916 H   0  0  0  0  0  0
  -26.0172  -38.2869   24.1411 H   0  0  0  0  0  0
  -31.9506  -17.1213   19.7349 H   0  0  0  0  0  0
  -28.0296  -22.6900   17.5698 H   0  0  0  0  0  0
  -26.9453  -21.3133   17.7234 H   0  0  0  0  0  0
  -26.1838  -21.9887   19.8799 H   0  0  0  0  0  0
  -26.4897  -23.5724   19.1827 H   0  0  0  0  0  0
  -29.7448  -21.3427   18.3676 H   0  0  0  0  0  0
  -28.5899  -20.0775   18.8016 H   0  0  0  0  0  0
  -27.6790  -22.8180   21.4967 H   0  0  0  0  0  0
  -32.9446  -19.6953   19.9148 H   0  0  0  0  0  0
  -31.7379  -20.9653   19.9096 H   0  0  0  0  0  0
  -31.8553  -19.8576   18.5443 H   0  0  0  0  0  0
  -28.9756  -24.2890   19.1508 H   0  0  0  0  0  0
  -29.8982  -24.0630   20.6042 H   0  0  0  0  0  0
  -28.5439  -25.5138   21.8608 H   0  0  0  0  0  0
  -27.1154  -25.1431   20.9770 H   0  0  0  0  0  0
  -29.1243  -15.2133   21.5418 H   0  0  0  0  0  0
  -29.5888  -20.4812   23.2809 H   0  0  0  0  0  0
  -28.9101  -22.0028   22.8338 H   0  0  0  0  0  0
  1 25  1  0  0  0
  1 30  2  0  0  0
  1 84  1  0  0  0
  2  3  1  0  0  0
  2 25  1  0  0  0
  2 87  1  0  0  0
  2 88  1  0  0  0
  3  4  1  0  0  0
  3 89  1  0  0  0
  3 90  1  0  0  0
  4  5  1  0  0  0
  4 91  1  0  0  0
  4 92  1  0  0  0
  5  6  1  0  0  0
  5 26  1  0  0  0
  5 93  1  0  0  0
  6 25  1  0  0  0
  6 94  1  0  0  0
  6 95  1  0  0  0
  7  8  2  0  0  0
  7 26  1  0  0  0
  7 29  1  0  0  0
  8  9  1  0  0  0
  8 22  1  0  0  0
  9 10  1  0  0  0
  9 27  2  0  0  0
 10 11  2  0  0  0
 10 15  1  0  0  0
 11 12  1  0  0  0
 11 96  1  0  0  0
 12 13  2  0  0  0
 12 97  1  0  0  0
 13 14  1  0  0  0
 13 31  1  0  0  0
 14 15  2  0  0  0
 14 98  1  0  0  0
 15 99  1  0  0  0
 16 17  2  0  0  0
 16 21  1  0  0  0
 16 31  1  0  0  0
 17 18  1  0  0  0
 17100  1  0  0  0
 18 19  2  0  0  0
 18101  1  0  0  0
 19 20  1  0  0  0
 19 24  1  0  0  0
 20 21  2  0  0  0
 20102  1  0  0  0
 21 23  1  0  0  0
 22 28  1  0  0  0
 22 32  2  0  0  0
 26 27  1  0  0  0
 28103  1  0  0  0
 28104  1  0  0  0
 29105  1  0  0  0
 29106  1  0  0  0
 33 34  1  0  0  0
 33 66  1  0  0  0
 33 70  2  0  0  0
 34 36  1  0  0  0
 34 59  1  0  0  0
 34107  1  0  0  0
 35 44  2  0  0  0
 35 45  1  0  0  0
 35 68  1  0  0  0
 36 56  1  0  0  0
 36108  1  0  0  0
 37 39  1  0  0  0
 37 47  1  0  0  0
 37 66  1  0  0  0
 37109  1  0  0  0
 38 43  2  0  0  0
 38 46  1  0  0  0
 38 47  1  0  0  0
 39 64  1  0  0  0
 39 67  2  0  0  0
 40 52  1  0  0  0
 40 53  2  0  0  0
 40 58  1  0  0  0
 41110  1  0  0  0
 41111  1  0  0  0
 41112  1  0  0  0
 41 48  1  0  0  0
 42 43  1  0  0  0
 42 66  1  0  0  0
 42113  1  0  0  0
 42114  1  0  0  0
 43 44  1  0  0  0
 44115  1  0  0  0
 45 46  2  0  0  0
 45116  1  0  0  0
 46117  1  0  0  0
 47118  1  0  0  0
 47119  1  0  0  0
 48 56  1  0  0  0
 48 65  1  0  0  0
 48120  1  0  0  0
 49 50  1  0  0  0
 49 53  1  0  0  0
 49 64  1  0  0  0
 49121  1  0  0  0
 50 51  1  0  0  0
 50122  1  0  0  0
 50123  1  0  0  0
 51 52  1  0  0  0
 51124  1  0  0  0
 51125  1  0  0  0
 52126  1  0  0  0
 52127  1  0  0  0
 53 54  1  0  0  0
 54 55  2  0  0  0
 54128  1  0  0  0
 55 57  1  0  0  0
 55129  1  0  0  0
 56 69  2  0  0  0
 57 58  2  0  0  0
 57130  1  0  0  0
 58131  1  0  0  0
 59 60  1  0  0  0
 59 61  1  0  0  0
 59 62  1  0  0  0
 60132  1  0  0  0
 60133  1  0  0  0
 60134  1  0  0  0
 61135  1  0  0  0
 61136  1  0  0  0
 61137  1  0  0  0
 62138  1  0  0  0
 62139  1  0  0  0
 62140  1  0  0  0
 63 65  1  0  0  0
 63141  1  0  0  0
 63142  1  0  0  0
 63143  1  0  0  0
 64144  1  0  0  0
 65145  1  0  0  0
 68 82  1  0  0  0
 71 72  1  0  0  0
 71 74  2  0  0  0
 71146  1  0  0  0
 72 73  2  0  0  0
 72 80  1  0  0  0
 73 75  1  0  0  0
 73 86  1  0  0  0
 74 84  1  0  0  0
 74 86  1  0  0  0
 75 83  1  0  0  0
 75 85  2  0  0  0
 76 77  1  0  0  0
 76 78  1  0  0  0
 76147  1  0  0  0
 76148  1  0  0  0
 77 79  1  0  0  0
 77149  1  0  0  0
 77150  1  0  0  0
 78 83  1  0  0  0
 78151  1  0  0  0
 78152  1  0  0  0
 79 81  1  0  0  0
 79 83  1  0  0  0
 79153  1  0  0  0
 80154  1  0  0  0
 80155  1  0  0  0
 80156  1  0  0  0
 81 82  1  0  0  0
 81157  1  0  0  0
 81158  1  0  0  0
 82159  1  0  0  0
 82160  1  0  0  0
 84161  1  0  0  0
 85162  1  0  0  0
 85163  1  0  0  0
M  CHG  1  85   1
M  ISO  4   1 100  68 101  82 101  84 100
M  END
> <chiral flag>
0

> <version>
0

> <s_m_source_file>
/data/baiqing/PycharmProjects/Reinvent-master-3.2/result/LINK_invent/BTK/process_docking_weight1_custom_product_contain_oxygen_bond_distance_aromatic_linkinvent_7_9_3/rearranged_h_0141.sdf

> <i_m_source_file_index>
74

> <r_mmod_Potential_Energy-OPLS-2005>
4.98450517654419

> <r_mmod_Stretch_Energy-OPLS-2005>
40.6016006469727

> <r_mmod_Bend_Energy-OPLS-2005>
136.386001586914

> <r_mmod_Torsional_Energy-OPLS-2005>
327.443817138672

> <r_mmod_Improper_Torsional_Energy-OPLS-2005>
4.0078067779541

> <r_mmod_Van_der_Waal_Energy-OPLS-2005>
127.535621643066

> <r_mmod_Electrostatic_Energy-OPLS-2005>
-218.878707885742

> <r_mmod_Solvation_Energy-OPLS-2005>
-428.294311523438

> <b_mmod_Minimization_Converged-OPLS-2005>
0

> <r_mmod_RMS_Derivative-OPLS-2005>
1.49385321140289

$$$$
74
                    3D
 Structure written by MMmdl.
158166  0  0  1  0            999 V2000
  -30.6266  -14.6442   20.4917 C   0  0  0  0  0  0
  -30.4327  -12.3902   19.4594 C   0  0  0  0  0  0
  -29.5077  -12.5076   18.2278 C   0  0  0  0  0  0
  -28.0296  -12.3474   18.6361 C   0  0  0  0  0  0
  -27.6510  -13.2194   19.8627 C   0  0  2  0  0  0
  -28.6944  -13.0823   20.9946 C   0  0  0  0  0  0
  -25.2544  -13.8175   20.5686 C   0  0  0  0  0  0
  -24.1820  -13.0436   20.9197 C   0  0  0  0  0  0
  -24.6391  -11.6907   20.8742 C   0  0  0  0  0  0
  -23.9061  -10.4289   21.0403 C   0  0  0  0  0  0
  -24.3614   -9.4206   21.9180 C   0  0  0  0  0  0
  -23.6292   -8.2239   22.0752 C   0  0  0  0  0  0
  -22.4273   -8.0277   21.3541 C   0  0  0  0  0  0
  -21.9907   -9.0250   20.4646 C   0  0  0  0  0  0
  -22.7232  -10.2129   20.3055 C   0  0  0  0  0  0
  -21.6851   -6.0733   22.5279 C   0  0  0  0  0  0
  -21.4014   -6.5638   23.8213 C   0  0  0  0  0  0
  -21.3662   -5.6793   24.9176 C   0  0  0  0  0  0
  -21.6044   -4.3055   24.7227 C   0  0  0  0  0  0
  -21.8818   -3.8145   23.4349 C   0  0  0  0  0  0
  -21.9192   -4.6961   22.3403 C   0  0  0  0  0  0
  -22.7841  -13.5226   21.1862 C   0  0  0  0  0  0
  -22.1661   -4.2145   21.0980 F   0  0  0  0  0  0
  -21.5630   -3.4539   25.7740 F   0  0  0  0  0  0
  -30.0106  -13.4195   20.4315 N   0  0  0  0  0  0
  -26.2974  -12.9364   20.3313 N   0  0  0  0  0  0
  -25.9319  -11.6516   20.5753 N   0  0  0  0  0  0
  -22.0487  -12.8214   22.0420 N   0  0  0  0  0  0
  -25.4251  -15.1901   20.4094 N   0  0  0  0  0  0
  -31.7945  -14.7784   20.1118 O   0  0  0  0  0  0
  -21.6640   -6.8873   21.4239 O   0  0  0  0  0  0
  -22.3523  -14.5529   20.6708 O   0  0  0  0  0  0
  -24.6241  -31.8601   23.2027 C   0  0  0  0  0  0
  -25.9095  -32.4779   23.8356 C   0  0  1  0  0  0
  -27.2232  -27.3242   20.1203 C   0  0  0  0  0  0
  -25.5917  -33.8582   24.2283 N   0  0  0  0  0  0
  -23.4182  -30.4826   21.5453 C   0  0  2  0  0  0
  -24.8638  -28.9363   20.1126 C   0  0  0  0  0  0
  -22.7465  -29.4619   22.4950 C   0  0  0  0  0  0
  -18.0277  -28.1387   22.8488 C   0  0  0  0  0  0
  -24.1489  -36.7294   23.2636 C   0  0  0  0  0  0
  -25.9581  -30.7924   21.3735 C   0  0  0  0  0  0
  -26.0310  -29.4192   20.7179 C   0  0  0  0  0  0
  -27.2134  -28.6240   20.7109 C   0  0  0  0  0  0
  -26.0386  -26.8954   19.4818 C   0  0  0  0  0  0
  -24.8695  -27.6805   19.4847 C   0  0  0  0  0  0
  -23.6317  -29.8156   20.1608 C   0  0  0  0  0  0
  -25.4116  -36.3085   24.0326 C   0  0  1  0  0  0
  -20.5878  -28.3683   23.1295 C   0  0  2  0  0  0
  -20.6770  -26.9411   22.5416 C   0  0  0  0  0  0
  -19.5748  -26.6386   21.5216 C   0  0  0  0  0  0
  -18.1925  -26.7930   22.1624 C   0  0  0  0  0  0
  -19.1530  -28.8853   23.2885 C   0  0  0  0  0  0
  -18.9457  -30.1459   23.8895 C   0  0  0  0  0  0
  -17.6457  -30.6589   24.0564 C   0  0  0  0  0  0
  -25.9052  -34.9452   23.5108 C   0  0  0  0  0  0
  -16.5347  -29.9088   23.6332 C   0  0  0  0  0  0
  -16.7264  -28.6508   23.0347 C   0  0  0  0  0  0
  -26.4483  -31.6589   25.0728 C   0  0  0  0  0  0
  -25.3714  -31.3735   26.1454 C   0  0  0  0  0  0
  -27.0314  -30.3007   24.6187 C   0  0  0  0  0  0
  -27.6057  -32.4313   25.7489 C   0  0  0  0  0  0
  -27.5588  -37.1796   24.8458 C   0  0  0  0  0  0
  -21.4181  -29.3033   22.3693 N   0  0  0  0  0  0
  -26.4290  -37.3784   23.9413 N   0  0  0  0  0  0
  -24.6854  -31.0620   22.0973 N   0  0  0  0  0  0
  -23.4193  -28.8159   23.3028 O   0  0  0  0  0  0
  -28.3584  -26.5045   20.1443 O   0  0  0  0  0  0
  -26.5624  -34.8915   22.4676 O   0  0  0  0  0  0
  -23.5407  -32.1391   23.7364 O   0  0  0  0  0  0
  -30.9160  -19.1553   19.9851 C   0  0  0  0  0  0
  -29.8173  -19.7020   20.6168 C   0  0  0  0  0  0
  -29.9810  -17.1510   20.6579 C   0  0  0  0  0  0
  -29.5758  -21.8068   18.1976 C   0  0  0  0  0  0
  -28.8645  -24.6315   17.9555 C   0  0  0  0  0  0
  -30.6179  -24.5372   19.7166 C   0  0  0  0  0  0
  -28.2216  -25.0337   20.3133 C   0  0  0  0  0  0
  -28.9677  -22.5130   19.4334 C   0  0  2  0  0  0
  -29.1630  -24.1375   19.3961 C   0  0  0  0  0  0
  -30.9985  -17.7376   20.0070 N   0  0  0  0  0  0
  -29.8323  -15.7072   20.8413 N   0  0  0  0  0  0
  -28.4311  -21.5610   21.9429 O   0  0  0  0  0  0
  -30.8504  -22.0063   21.3868 O   0  0  0  0  0  0
  -28.8071  -18.3815   21.2334 S   0  0  0  0  0  0
  -29.5316  -21.5055   20.9647 S   0  0  0  0  0  0
  -31.4760  -12.5038   19.1605 H   0  0  0  0  0  0
  -30.3580  -11.3966   19.9042 H   0  0  0  0  0  0
  -29.7734  -11.7574   17.4819 H   0  0  0  0  0  0
  -29.6530  -13.4778   17.7499 H   0  0  0  0  0  0
  -27.8637  -11.2945   18.8669 H   0  0  0  0  0  0
  -27.3775  -12.5788   17.7931 H   0  0  0  0  0  0
  -27.6666  -14.2537   19.5187 H   0  0  0  0  0  0
  -28.7037  -12.0636   21.3852 H   0  0  0  0  0  0
  -28.4399  -13.7221   21.8409 H   0  0  0  0  0  0
  -25.2759   -9.5682   22.4752 H   0  0  0  0  0  0
  -24.0004   -7.4629   22.7468 H   0  0  0  0  0  0
  -21.0838   -8.8765   19.8951 H   0  0  0  0  0  0
  -22.3689  -10.9667   19.6164 H   0  0  0  0  0  0
  -21.2008   -7.6147   23.9714 H   0  0  0  0  0  0
  -21.1486   -6.0524   25.9078 H   0  0  0  0  0  0
  -22.0595   -2.7607   23.2850 H   0  0  0  0  0  0
  -22.4108  -11.9874   22.4804 H   0  0  0  0  0  0
  -21.1105  -13.1234   22.2632 H   0  0  0  0  0  0
  -24.6525  -15.8399   20.5083 H   0  0  0  0  0  0
  -26.2632  -15.6269   20.0484 H   0  0  0  0  0  0
  -26.7164  -32.5455   23.1108 H   0  0  0  0  0  0
  -25.0058  -33.9731   25.0422 H   0  0  0  0  0  0
  -22.7119  -31.3031   21.4026 H   0  0  0  0  0  0
  -23.3753  -35.9623   23.3283 H   0  0  0  0  0  0
  -24.3586  -36.8929   22.2055 H   0  0  0  0  0  0
  -23.7233  -37.6489   23.6665 H   0  0  0  0  0  0
  -26.0901  -31.5561   20.6060 H   0  0  0  0  0  0
  -26.8385  -30.8402   22.0031 H   0  0  0  0  0  0
  -28.1118  -28.9911   21.1874 H   0  0  0  0  0  0
  -26.0014  -25.9481   18.9645 H   0  0  0  0  0  0
  -23.9782  -27.3110   18.9955 H   0  0  0  0  0  0
  -23.7479  -30.5906   19.4020 H   0  0  0  0  0  0
  -22.7523  -29.2424   19.8616 H   0  0  0  0  0  0
  -25.1294  -36.1936   25.0816 H   0  0  0  0  0  0
  -20.9972  -28.3249   24.1414 H   0  0  0  0  0  0
  -20.5677  -26.2292   23.3611 H   0  0  0  0  0  0
  -21.6640  -26.7444   22.1212 H   0  0  0  0  0  0
  -19.6909  -25.6297   21.1244 H   0  0  0  0  0  0
  -19.6684  -27.3201   20.6750 H   0  0  0  0  0  0
  -17.4201  -26.6672   21.4020 H   0  0  0  0  0  0
  -18.0318  -26.0075   22.9026 H   0  0  0  0  0  0
  -19.7931  -30.7278   24.2263 H   0  0  0  0  0  0
  -17.5007  -31.6266   24.5170 H   0  0  0  0  0  0
  -15.5347  -30.2988   23.7662 H   0  0  0  0  0  0
  -15.8663  -28.0830   22.7058 H   0  0  0  0  0  0
  -24.5898  -30.7071   25.7788 H   0  0  0  0  0  0
  -24.8888  -32.2901   26.4859 H   0  0  0  0  0  0
  -25.8032  -30.8933   27.0244 H   0  0  0  0  0  0
  -26.2887  -29.6770   24.1203 H   0  0  0  0  0  0
  -27.3991  -29.7257   25.4697 H   0  0  0  0  0  0
  -27.8765  -30.4281   23.9416 H   0  0  0  0  0  0
  -27.2690  -33.3624   26.2058 H   0  0  0  0  0  0
  -28.3867  -32.6854   25.0310 H   0  0  0  0  0  0
  -28.0720  -31.8438   26.5407 H   0  0  0  0  0  0
  -28.2588  -38.0114   24.7546 H   0  0  0  0  0  0
  -28.1100  -36.2650   24.6227 H   0  0  0  0  0  0
  -27.2313  -37.1383   25.8860 H   0  0  0  0  0  0
  -20.9362  -29.8754   21.6902 H   0  0  0  0  0  0
  -26.0167  -38.2850   24.1439 H   0  0  0  0  0  0
  -31.7250  -19.7134   19.5354 H   0  0  0  0  0  0
  -29.1538  -22.1534   17.2557 H   0  0  0  0  0  0
  -29.3677  -20.7384   18.2113 H   0  0  0  0  0  0
  -30.6578  -21.9293   18.1532 H   0  0  0  0  0  0
  -27.8865  -24.2920   17.6133 H   0  0  0  0  0  0
  -29.6118  -24.2987   17.2355 H   0  0  0  0  0  0
  -28.8652  -25.7191   17.8812 H   0  0  0  0  0  0
  -30.7995  -25.5852   19.4756 H   0  0  0  0  0  0
  -31.3408  -23.9507   19.1513 H   0  0  0  0  0  0
  -30.8449  -24.4232   20.7753 H   0  0  0  0  0  0
  -28.4478  -24.8175   21.3578 H   0  0  0  0  0  0
  -27.1955  -24.6935   20.1897 H   0  0  0  0  0  0
  -27.8959  -22.3203   19.3833 H   0  0  0  0  0  0
  -28.9360  -15.4302   21.2092 H   0  0  0  0  0  0
  1 25  1  0  0  0
  1 30  2  0  0  0
  1 81  1  0  0  0
  2  3  1  0  0  0
  2 25  1  0  0  0
  2 86  1  0  0  0
  2 87  1  0  0  0
  3  4  1  0  0  0
  3 88  1  0  0  0
  3 89  1  0  0  0
  4  5  1  0  0  0
  4 90  1  0  0  0
  4 91  1  0  0  0
  5  6  1  0  0  0
  5 26  1  0  0  0
  5 92  1  0  0  0
  6 25  1  0  0  0
  6 93  1  0  0  0
  6 94  1  0  0  0
  7  8  2  0  0  0
  7 26  1  0  0  0
  7 29  1  0  0  0
  8  9  1  0  0  0
  8 22  1  0  0  0
  9 10  1  0  0  0
  9 27  2  0  0  0
 10 11  2  0  0  0
 10 15  1  0  0  0
 11 12  1  0  0  0
 11 95  1  0  0  0
 12 13  2  0  0  0
 12 96  1  0  0  0
 13 14  1  0  0  0
 13 31  1  0  0  0
 14 15  2  0  0  0
 14 97  1  0  0  0
 15 98  1  0  0  0
 16 17  2  0  0  0
 16 21  1  0  0  0
 16 31  1  0  0  0
 17 18  1  0  0  0
 17 99  1  0  0  0
 18 19  2  0  0  0
 18100  1  0  0  0
 19 20  1  0  0  0
 19 24  1  0  0  0
 20 21  2  0  0  0
 20101  1  0  0  0
 21 23  1  0  0  0
 22 28  1  0  0  0
 22 32  2  0  0  0
 26 27  1  0  0  0
 28102  1  0  0  0
 28103  1  0  0  0
 29104  1  0  0  0
 29105  1  0  0  0
 33 34  1  0  0  0
 33 66  1  0  0  0
 33 70  2  0  0  0
 34 36  1  0  0  0
 34 59  1  0  0  0
 34106  1  0  0  0
 35 44  2  0  0  0
 35 45  1  0  0  0
 35 68  1  0  0  0
 36 56  1  0  0  0
 36107  1  0  0  0
 37 39  1  0  0  0
 37 47  1  0  0  0
 37 66  1  0  0  0
 37108  1  0  0  0
 38 43  2  0  0  0
 38 46  1  0  0  0
 38 47  1  0  0  0
 39 64  1  0  0  0
 39 67  2  0  0  0
 40 52  1  0  0  0
 40 53  2  0  0  0
 40 58  1  0  0  0
 41109  1  0  0  0
 41110  1  0  0  0
 41111  1  0  0  0
 41 48  1  0  0  0
 42 43  1  0  0  0
 42 66  1  0  0  0
 42112  1  0  0  0
 42113  1  0  0  0
 43 44  1  0  0  0
 44114  1  0  0  0
 45 46  2  0  0  0
 45115  1  0  0  0
 46116  1  0  0  0
 47117  1  0  0  0
 47118  1  0  0  0
 48 56  1  0  0  0
 48 65  1  0  0  0
 48119  1  0  0  0
 49 50  1  0  0  0
 49 53  1  0  0  0
 49 64  1  0  0  0
 49120  1  0  0  0
 50 51  1  0  0  0
 50121  1  0  0  0
 50122  1  0  0  0
 51 52  1  0  0  0
 51123  1  0  0  0
 51124  1  0  0  0
 52125  1  0  0  0
 52126  1  0  0  0
 53 54  1  0  0  0
 54 55  2  0  0  0
 54127  1  0  0  0
 55 57  1  0  0  0
 55128  1  0  0  0
 56 69  2  0  0  0
 57 58  2  0  0  0
 57129  1  0  0  0
 58130  1  0  0  0
 59 60  1  0  0  0
 59 61  1  0  0  0
 59 62  1  0  0  0
 60131  1  0  0  0
 60132  1  0  0  0
 60133  1  0  0  0
 61134  1  0  0  0
 61135  1  0  0  0
 61136  1  0  0  0
 62137  1  0  0  0
 62138  1  0  0  0
 62139  1  0  0  0
 63 65  1  0  0  0
 63140  1  0  0  0
 63141  1  0  0  0
 63142  1  0  0  0
 64143  1  0  0  0
 65144  1  0  0  0
 68 77  1  0  0  0
 71 72  2  0  0  0
 71 80  1  0  0  0
 71145  1  0  0  0
 72 84  1  0  0  0
 72 85  1  0  0  0
 73 80  2  0  0  0
 73 81  1  0  0  0
 73 84  1  0  0  0
 74146  1  0  0  0
 74147  1  0  0  0
 74148  1  0  0  0
 74 78  1  0  0  0
 75149  1  0  0  0
 75150  1  0  0  0
 75151  1  0  0  0
 75 79  1  0  0  0
 76 79  1  0  0  0
 76152  1  0  0  0
 76153  1  0  0  0
 76154  1  0  0  0
 77 79  1  0  0  0
 77155  1  0  0  0
 77156  1  0  0  0
 78 79  1  0  0  0
 78 85  1  0  0  0
 78157  1  0  0  0
 81158  1  0  0  0
 82 85  2  0  0  0
 83 85  2  0  0  0
M  ISO  4   1 100  68 101  77 101  81 100
M  END
> <chiral flag>
0

> <version>
0

> <s_m_source_file>
/data/baiqing/PycharmProjects/Reinvent-master-3.2/result/LINK_invent/BTK/process_docking_weight1_custom_product_contain_oxygen_bond_distance_aromatic_linkinvent_7_9_3/rearranged_h_0141.sdf

> <i_m_source_file_index>
75

> <r_mmod_Potential_Energy-OPLS-2005>
-100.982391357422

> <r_mmod_Stretch_Energy-OPLS-2005>
86.9799041748047

> <r_mmod_Bend_Energy-OPLS-2005>
158.905364990234

> <r_mmod_Torsional_Energy-OPLS-2005>
210.495620727539

> <r_mmod_Improper_Torsional_Energy-OPLS-2005>
4.49973440170288

> <r_mmod_Van_der_Waal_Energy-OPLS-2005>
123.455467224121

> <r_mmod_Electrostatic_Energy-OPLS-2005>
-469.830657958984

> <r_mmod_Solvation_Energy-OPLS-2005>
-261.431640625

> <b_mmod_Minimization_Converged-OPLS-2005>
0

> <r_mmod_RMS_Derivative-OPLS-2005>
0.721078276634216

$$$$
75
                    3D
 Structure written by MMmdl.
166175  0  0  1  0            999 V2000
  -30.6469  -14.4774   20.6116 C   0  0  0  0  0  0
  -30.4287  -12.3053   19.4335 C   0  0  0  0  0  0
  -29.5073  -12.4987   18.2127 C   0  0  0  0  0  0
  -28.0256  -12.3356   18.6245 C   0  0  0  0  0  0
  -27.6584  -13.1846   19.8653 C   0  0  2  0  0  0
  -28.6930  -12.9554   20.9882 C   0  0  0  0  0  0
  -25.2575  -13.8128   20.5649 C   0  0  0  0  0  0
  -24.1791  -13.0453   20.9152 C   0  0  0  0  0  0
  -24.6297  -11.6905   20.8683 C   0  0  0  0  0  0
  -23.8925  -10.4307   21.0355 C   0  0  0  0  0  0
  -24.3509   -9.4233   21.9126 C   0  0  0  0  0  0
  -23.6235   -8.2259   22.0742 C   0  0  0  0  0  0
  -22.4235   -8.0246   21.3534 C   0  0  0  0  0  0
  -21.9792   -9.0195   20.4656 C   0  0  0  0  0  0
  -22.7105  -10.2087   20.2998 C   0  0  0  0  0  0
  -21.6873   -6.0684   22.5261 C   0  0  0  0  0  0
  -21.4052   -6.5599   23.8195 C   0  0  0  0  0  0
  -21.3657   -5.6756   24.9137 C   0  0  0  0  0  0
  -21.6017   -4.3014   24.7191 C   0  0  0  0  0  0
  -21.8831   -3.8106   23.4318 C   0  0  0  0  0  0
  -21.9224   -4.6917   22.3374 C   0  0  0  0  0  0
  -22.7842  -13.5310   21.1780 C   0  0  0  0  0  0
  -22.1708   -4.2128   21.0948 F   0  0  0  0  0  0
  -21.5600   -3.4466   25.7688 F   0  0  0  0  0  0
  -30.0197  -13.2881   20.4431 N   0  0  0  0  0  0
  -26.2953  -12.9256   20.3254 N   0  0  0  0  0  0
  -25.9208  -11.6434   20.5680 N   0  0  0  0  0  0
  -22.0348  -12.8427   22.0318 N   0  0  0  0  0  0
  -25.4331  -15.1855   20.4114 N   0  0  0  0  0  0
  -31.8065  -14.7006   20.2423 O   0  0  0  0  0  0
  -21.6687   -6.8799   21.4209 O   0  0  0  0  0  0
  -22.3562  -14.5563   20.6541 O   0  0  0  0  0  0
  -24.6075  -31.8717   23.2083 C   0  0  0  0  0  0
  -25.8956  -32.4872   23.8395 C   0  0  1  0  0  0
  -27.2777  -27.4681   20.1000 C   0  0  0  0  0  0
  -25.5790  -33.8661   24.2346 N   0  0  0  0  0  0
  -23.3942  -30.4869   21.5476 C   0  0  2  0  0  0
  -24.8550  -28.9445   20.1267 C   0  0  0  0  0  0
  -22.7339  -29.4680   22.5017 C   0  0  0  0  0  0
  -18.0254  -28.1349   22.8525 C   0  0  0  0  0  0
  -24.1460  -36.7330   23.2645 C   0  0  0  0  0  0
  -25.9147  -30.8516   21.3495 C   0  0  0  0  0  0
  -26.0079  -29.4780   20.7129 C   0  0  0  0  0  0
  -27.2168  -28.7475   20.6972 C   0  0  0  0  0  0
  -26.1036  -26.9324   19.5242 C   0  0  0  0  0  0
  -24.8974  -27.6644   19.5344 C   0  0  0  0  0  0
  -23.6073  -29.7997   20.1687 C   0  0  0  0  0  0
  -25.4075  -36.3125   24.0363 C   0  0  1  0  0  0
  -20.5850  -28.3637   23.1386 C   0  0  2  0  0  0
  -20.6751  -26.9389   22.5466 C   0  0  0  0  0  0
  -19.5714  -26.6373   21.5269 C   0  0  0  0  0  0
  -18.1884  -26.7925   22.1654 C   0  0  0  0  0  0
  -19.1507  -28.8808   23.2968 C   0  0  0  0  0  0
  -18.9453  -30.1413   23.8950 C   0  0  0  0  0  0
  -17.6460  -30.6584   24.0576 C   0  0  0  0  0  0
  -25.9004  -34.9513   23.5157 C   0  0  0  0  0  0
  -16.5357  -29.9091   23.6298 C   0  0  0  0  0  0
  -16.7260  -28.6511   23.0347 C   0  0  0  0  0  0
  -26.4412  -31.6619   25.0663 C   0  0  0  0  0  0
  -25.3687  -31.3733   26.1390 C   0  0  0  0  0  0
  -27.0221  -30.3082   24.5939 C   0  0  0  0  0  0
  -27.5974  -32.4318   25.7432 C   0  0  0  0  0  0
  -27.5573  -37.1796   24.8444 C   0  0  0  0  0  0
  -21.4072  -29.3033   22.3783 N   0  0  0  0  0  0
  -26.4267  -37.3802   23.9436 N   0  0  0  0  0  0
  -24.6555  -31.0841   22.0958 N   0  0  0  0  0  0
  -23.4152  -28.8234   23.3048 O   0  0  0  0  0  0
  -28.4960  -26.8340   19.9724 O   0  0  0  0  0  0
  -26.5574  -34.8951   22.4733 O   0  0  0  0  0  0
  -23.5262  -32.1467   23.7474 O   0  0  0  0  0  0
  -29.9037  -17.0328   24.3291 C   0  0  0  0  0  0
  -29.8954  -18.4025   24.0015 C   0  0  0  0  0  0
  -29.9294  -16.0653   23.3059 C   0  0  0  0  0  0
  -29.9843  -17.8461   21.6245 C   0  0  0  0  0  0
  -29.9204  -18.8320   22.6499 C   0  0  0  0  0  0
  -29.9806  -16.4670   21.9527 C   0  0  0  0  0  0
  -28.9135  -24.4240   19.6688 C   0  0  0  0  0  0
  -29.4785  -20.9203   20.9936 C   0  0  0  0  0  0
  -31.1022  -21.1370   22.7529 C   0  0  0  0  0  0
  -29.8314  -20.3491   22.3875 C   0  0  2  0  0  0
  -29.7820  -22.4351   21.1888 C   0  0  2  0  0  0
  -31.9573  -24.3380   18.8614 C   0  0  0  0  0  0
  -28.7416  -25.5983   20.6605 C   0  0  0  0  0  0
  -30.0126  -23.3371   19.9238 C   0  0  2  0  0  0
  -29.8065  -15.4810   20.9411 N   0  0  0  0  0  0
  -30.9522  -22.4592   22.1081 N   0  3  0  0  0  0
  -28.1986  -24.3630   18.6586 O   0  0  0  0  0  0
  -31.3089  -23.9504   20.0699 O   0  0  0  0  0  0
  -31.4824  -12.4036   19.1634 H   0  0  0  0  0  0
  -30.3136  -11.2920   19.8229 H   0  0  0  0  0  0
  -29.7576  -11.7772   17.4314 H   0  0  0  0  0  0
  -29.6735  -13.4909   17.7873 H   0  0  0  0  0  0
  -27.8639  -11.2834   18.8535 H   0  0  0  0  0  0
  -27.3609  -12.5602   17.7916 H   0  0  0  0  0  0
  -27.7119  -14.2278   19.5495 H   0  0  0  0  0  0
  -28.6716  -11.9121   21.3128 H   0  0  0  0  0  0
  -28.4513  -13.5386   21.8786 H   0  0  0  0  0  0
  -25.2605   -9.5816   22.4718 H   0  0  0  0  0  0
  -23.9974   -7.4677   22.7464 H   0  0  0  0  0  0
  -21.0698   -8.8643   19.8997 H   0  0  0  0  0  0
  -22.3473  -10.9576   19.6116 H   0  0  0  0  0  0
  -21.2089   -7.6116   23.9690 H   0  0  0  0  0  0
  -21.1473   -6.0471   25.9035 H   0  0  0  0  0  0
  -22.0628   -2.7567   23.2829 H   0  0  0  0  0  0
  -22.3890  -12.0267   22.5086 H   0  0  0  0  0  0
  -21.0867  -13.1516   22.2095 H   0  0  0  0  0  0
  -24.6575  -15.8264   20.5212 H   0  0  0  0  0  0
  -26.2724  -15.6425   20.0858 H   0  0  0  0  0  0
  -26.7010  -32.5616   23.1168 H   0  0  0  0  0  0
  -24.9782  -33.9843   25.0361 H   0  0  0  0  0  0
  -22.6809  -31.2964   21.3969 H   0  0  0  0  0  0
  -23.3719  -35.9653   23.3281 H   0  0  0  0  0  0
  -24.3550  -36.8956   22.2055 H   0  0  0  0  0  0
  -23.7227  -37.6551   23.6666 H   0  0  0  0  0  0
  -25.9955  -31.6143   20.5747 H   0  0  0  0  0  0
  -26.8156  -30.9377   21.9457 H   0  0  0  0  0  0
  -28.1106  -29.1807   21.1300 H   0  0  0  0  0  0
  -26.1268  -25.9758   19.0275 H   0  0  0  0  0  0
  -24.0132  -27.2431   19.0827 H   0  0  0  0  0  0
  -23.6975  -30.5639   19.3949 H   0  0  0  0  0  0
  -22.7390  -29.2003   19.8922 H   0  0  0  0  0  0
  -25.1272  -36.1991   25.0863 H   0  0  0  0  0  0
  -20.9974  -28.3194   24.1497 H   0  0  0  0  0  0
  -20.5643  -26.2263   23.3641 H   0  0  0  0  0  0
  -21.6623  -26.7387   22.1272 H   0  0  0  0  0  0
  -19.6871  -25.6290   21.1255 H   0  0  0  0  0  0
  -19.6704  -27.3217   20.6828 H   0  0  0  0  0  0
  -17.4217  -26.6750   21.3999 H   0  0  0  0  0  0
  -18.0218  -26.0051   22.9010 H   0  0  0  0  0  0
  -19.7944  -30.7203   24.2374 H   0  0  0  0  0  0
  -17.5037  -31.6282   24.5131 H   0  0  0  0  0  0
  -15.5365  -30.3036   23.7570 H   0  0  0  0  0  0
  -15.8661  -28.0842   22.7023 H   0  0  0  0  0  0
  -24.5773  -30.7198   25.7709 H   0  0  0  0  0  0
  -24.8982  -32.2931   26.4873 H   0  0  0  0  0  0
  -25.7966  -30.8764   27.0107 H   0  0  0  0  0  0
  -26.2727  -29.6860   24.1026 H   0  0  0  0  0  0
  -27.4080  -29.7269   25.4322 H   0  0  0  0  0  0
  -27.8518  -30.4486   23.8998 H   0  0  0  0  0  0
  -27.2579  -33.3594   26.2045 H   0  0  0  0  0  0
  -28.3724  -32.6981   25.0236 H   0  0  0  0  0  0
  -28.0714  -31.8426   26.5305 H   0  0  0  0  0  0
  -28.2564  -38.0104   24.7450 H   0  0  0  0  0  0
  -28.1099  -36.2646   24.6274 H   0  0  0  0  0  0
  -27.2326  -37.1414   25.8852 H   0  0  0  0  0  0
  -20.9171  -29.8835   21.7104 H   0  0  0  0  0  0
  -26.0166  -38.2894   24.1443 H   0  0  0  0  0  0
  -29.8433  -16.7249   25.3666 H   0  0  0  0  0  0
  -29.8459  -19.1201   24.8093 H   0  0  0  0  0  0
  -29.8627  -15.0182   23.5733 H   0  0  0  0  0  0
  -30.0004  -18.1462   20.5847 H   0  0  0  0  0  0
  -28.4434  -20.7303   20.7009 H   0  0  0  0  0  0
  -30.1275  -20.5005   20.2226 H   0  0  0  0  0  0
  -31.9879  -20.6311   22.3672 H   0  0  0  0  0  0
  -31.2324  -21.2333   23.8311 H   0  0  0  0  0  0
  -29.0488  -20.6907   23.0644 H   0  0  0  0  0  0
  -28.9475  -22.8602   21.7504 H   0  0  0  0  0  0
  -32.9808  -24.6464   19.0945 H   0  0  0  0  0  0
  -31.4611  -25.1761   18.3660 H   0  0  0  0  0  0
  -32.0315  -23.5041   18.1592 H   0  0  0  0  0  0
  -29.6603  -25.7205   21.2409 H   0  0  0  0  0  0
  -27.9420  -25.3807   21.3680 H   0  0  0  0  0  0
  -30.0432  -22.6831   19.0490 H   0  0  0  0  0  0
  -28.8424  -15.2005   20.8288 H   0  0  0  0  0  0
  -31.7692  -22.6818   21.5548 H   0  0  0  0  0  0
  -30.8515  -23.1878   22.7970 H   0  0  0  0  0  0
  1 25  1  0  0  0
  1 30  2  0  0  0
  1 85  1  0  0  0
  2  3  1  0  0  0
  2 25  1  0  0  0
  2 89  1  0  0  0
  2 90  1  0  0  0
  3  4  1  0  0  0
  3 91  1  0  0  0
  3 92  1  0  0  0
  4  5  1  0  0  0
  4 93  1  0  0  0
  4 94  1  0  0  0
  5  6  1  0  0  0
  5 26  1  0  0  0
  5 95  1  0  0  0
  6 25  1  0  0  0
  6 96  1  0  0  0
  6 97  1  0  0  0
  7  8  2  0  0  0
  7 26  1  0  0  0
  7 29  1  0  0  0
  8  9  1  0  0  0
  8 22  1  0  0  0
  9 10  1  0  0  0
  9 27  2  0  0  0
 10 11  2  0  0  0
 10 15  1  0  0  0
 11 12  1  0  0  0
 11 98  1  0  0  0
 12 13  2  0  0  0
 12 99  1  0  0  0
 13 14  1  0  0  0
 13 31  1  0  0  0
 14 15  2  0  0  0
 14100  1  0  0  0
 15101  1  0  0  0
 16 17  2  0  0  0
 16 21  1  0  0  0
 16 31  1  0  0  0
 17 18  1  0  0  0
 17102  1  0  0  0
 18 19  2  0  0  0
 18103  1  0  0  0
 19 20  1  0  0  0
 19 24  1  0  0  0
 20 21  2  0  0  0
 20104  1  0  0  0
 21 23  1  0  0  0
 22 28  1  0  0  0
 22 32  2  0  0  0
 26 27  1  0  0  0
 28105  1  0  0  0
 28106  1  0  0  0
 29107  1  0  0  0
 29108  1  0  0  0
 33 34  1  0  0  0
 33 66  1  0  0  0
 33 70  2  0  0  0
 34 36  1  0  0  0
 34 59  1  0  0  0
 34109  1  0  0  0
 35 44  2  0  0  0
 35 45  1  0  0  0
 35 68  1  0  0  0
 36 56  1  0  0  0
 36110  1  0  0  0
 37 39  1  0  0  0
 37 47  1  0  0  0
 37 66  1  0  0  0
 37111  1  0  0  0
 38 43  2  0  0  0
 38 46  1  0  0  0
 38 47  1  0  0  0
 39 64  1  0  0  0
 39 67  2  0  0  0
 40 52  1  0  0  0
 40 53  2  0  0  0
 40 58  1  0  0  0
 41112  1  0  0  0
 41113  1  0  0  0
 41114  1  0  0  0
 41 48  1  0  0  0
 42 43  1  0  0  0
 42 66  1  0  0  0
 42115  1  0  0  0
 42116  1  0  0  0
 43 44  1  0  0  0
 44117  1  0  0  0
 45 46  2  0  0  0
 45118  1  0  0  0
 46119  1  0  0  0
 47120  1  0  0  0
 47121  1  0  0  0
 48 56  1  0  0  0
 48 65  1  0  0  0
 48122  1  0  0  0
 49 50  1  0  0  0
 49 53  1  0  0  0
 49 64  1  0  0  0
 49123  1  0  0  0
 50 51  1  0  0  0
 50124  1  0  0  0
 50125  1  0  0  0
 51 52  1  0  0  0
 51126  1  0  0  0
 51127  1  0  0  0
 52128  1  0  0  0
 52129  1  0  0  0
 53 54  1  0  0  0
 54 55  2  0  0  0
 54130  1  0  0  0
 55 57  1  0  0  0
 55131  1  0  0  0
 56 69  2  0  0  0
 57 58  2  0  0  0
 57132  1  0  0  0
 58133  1  0  0  0
 59 60  1  0  0  0
 59 61  1  0  0  0
 59 62  1  0  0  0
 60134  1  0  0  0
 60135  1  0  0  0
 60136  1  0  0  0
 61137  1  0  0  0
 61138  1  0  0  0
 61139  1  0  0  0
 62140  1  0  0  0
 62141  1  0  0  0
 62142  1  0  0  0
 63 65  1  0  0  0
 63143  1  0  0  0
 63144  1  0  0  0
 63145  1  0  0  0
 64146  1  0  0  0
 65147  1  0  0  0
 68 83  1  0  0  0
 71 72  2  0  0  0
 71 73  1  0  0  0
 71148  1  0  0  0
 72 75  1  0  0  0
 72149  1  0  0  0
 73 76  2  0  0  0
 73150  1  0  0  0
 74 75  2  0  0  0
 74 76  1  0  0  0
 74151  1  0  0  0
 75 80  1  0  0  0
 76 85  1  0  0  0
 77 83  1  0  0  0
 77 84  1  0  0  0
 77 87  2  0  0  0
 78 80  1  0  0  0
 78152  1  0  0  0
 78153  1  0  0  0
 78 81  1  0  0  0
 79 80  1  0  0  0
 79 86  1  0  0  0
 79154  1  0  0  0
 79155  1  0  0  0
 80156  1  0  0  0
 81 84  1  0  0  0
 81 86  1  0  0  0
 81157  1  0  0  0
 82 88  1  0  0  0
 82158  1  0  0  0
 82159  1  0  0  0
 82160  1  0  0  0
 83161  1  0  0  0
 83162  1  0  0  0
 84 88  1  0  0  0
 84163  1  0  0  0
 85164  1  0  0  0
 86165  1  0  0  0
 86166  1  0  0  0
M  CHG  1  86   1
M  ISO  4   1 100  68 101  83 101  85 100
M  END
> <chiral flag>
0

> <version>
0

> <s_m_source_file>
/data/baiqing/PycharmProjects/Reinvent-master-3.2/result/LINK_invent/BTK/process_docking_weight1_custom_product_contain_oxygen_bond_distance_aromatic_linkinvent_7_9_3/rearranged_h_0141.sdf

> <i_m_source_file_index>
76

> <r_mmod_Potential_Energy-OPLS-2005>
26.4686412811279

> <r_mmod_Stretch_Energy-OPLS-2005>
44.0199851989746

> <r_mmod_Bend_Energy-OPLS-2005>
150.636703491211

> <r_mmod_Torsional_Energy-OPLS-2005>
366.593566894531

> <r_mmod_Improper_Torsional_Energy-OPLS-2005>
11.1834125518799

> <r_mmod_Van_der_Waal_Energy-OPLS-2005>
140.454498291016

> <r_mmod_Electrostatic_Energy-OPLS-2005>
-231.326309204102

> <r_mmod_Solvation_Energy-OPLS-2005>
-472.387298583984

> <b_mmod_Minimization_Converged-OPLS-2005>
0

> <r_mmod_RMS_Derivative-OPLS-2005>
8.32406806945801

$$$$
76
                    3D
 Structure written by MMmdl.
172180  0  0  1  0            999 V2000
  -30.6266  -14.5205   20.4447 C   0  0  0  0  0  0
  -30.4574  -12.2667   19.4633 C   0  0  0  0  0  0
  -29.5222  -12.3080   18.2328 C   0  0  0  0  0  0
  -28.0198  -12.3232   18.6167 C   0  0  0  0  0  0
  -27.6627  -13.1740   19.8723 C   0  0  2  0  0  0
  -28.7097  -12.9819   20.9893 C   0  0  0  0  0  0
  -25.2614  -13.8091   20.5628 C   0  0  0  0  0  0
  -24.1822  -13.0423   20.9154 C   0  0  0  0  0  0
  -24.6341  -11.6881   20.8780 C   0  0  0  0  0  0
  -23.9016  -10.4280   21.0433 C   0  0  0  0  0  0
  -24.3578   -9.4191   21.9200 C   0  0  0  0  0  0
  -23.6253   -8.2229   22.0766 C   0  0  0  0  0  0
  -22.4245   -8.0261   21.3540 C   0  0  0  0  0  0
  -21.9877   -9.0248   20.4654 C   0  0  0  0  0  0
  -22.7196  -10.2129   20.3077 C   0  0  0  0  0  0
  -21.6847   -6.0712   22.5278 C   0  0  0  0  0  0
  -21.4012   -6.5635   23.8207 C   0  0  0  0  0  0
  -21.3654   -5.6786   24.9177 C   0  0  0  0  0  0
  -21.6037   -4.3052   24.7233 C   0  0  0  0  0  0
  -21.8819   -3.8138   23.4362 C   0  0  0  0  0  0
  -21.9186   -4.6940   22.3407 C   0  0  0  0  0  0
  -22.7840  -13.5257   21.1767 C   0  0  0  0  0  0
  -22.1633   -4.2110   21.0993 F   0  0  0  0  0  0
  -21.5640   -3.4550   25.7758 F   0  0  0  0  0  0
  -30.0312  -13.2974   20.4197 N   0  0  0  0  0  0
  -26.3019  -12.9174   20.3386 N   0  0  0  0  0  0
  -25.9265  -11.6394   20.5893 N   0  0  0  0  0  0
  -22.0428  -12.8329   22.0350 N   0  0  0  0  0  0
  -25.4378  -15.1812   20.3965 N   0  0  0  0  0  0
  -31.7961  -14.7144   20.0991 O   0  0  0  0  0  0
  -21.6622   -6.8851   21.4231 O   0  0  0  0  0  0
  -22.3548  -14.5526   20.6545 O   0  0  0  0  0  0
  -24.6117  -31.8660   23.2100 C   0  0  0  0  0  0
  -25.9006  -32.4824   23.8393 C   0  0  1  0  0  0
  -27.2519  -27.4585   20.0998 C   0  0  0  0  0  0
  -25.5867  -33.8618   24.2333 N   0  0  0  0  0  0
  -23.4031  -30.4886   21.5451 C   0  0  2  0  0  0
  -24.8591  -28.9610   20.1037 C   0  0  0  0  0  0
  -22.7417  -29.4640   22.4947 C   0  0  0  0  0  0
  -18.0291  -28.1385   22.8490 C   0  0  0  0  0  0
  -24.1482  -36.7329   23.2635 C   0  0  0  0  0  0
  -25.9277  -30.8450   21.3553 C   0  0  0  0  0  0
  -26.0143  -29.4815   20.7019 C   0  0  0  0  0  0
  -27.2119  -28.7323   20.7059 C   0  0  0  0  0  0
  -26.0827  -26.9456   19.5010 C   0  0  0  0  0  0
  -24.8879  -27.6918   19.4972 C   0  0  0  0  0  0
  -23.6148  -29.8197   20.1584 C   0  0  0  0  0  0
  -25.4092  -36.3116   24.0344 C   0  0  1  0  0  0
  -20.5877  -28.3660   23.1312 C   0  0  2  0  0  0
  -20.6767  -26.9395   22.5408 C   0  0  0  0  0  0
  -19.5751  -26.6391   21.5200 C   0  0  0  0  0  0
  -18.1939  -26.7936   22.1619 C   0  0  0  0  0  0
  -19.1534  -28.8837   23.2903 C   0  0  0  0  0  0
  -18.9459  -30.1453   23.8914 C   0  0  0  0  0  0
  -17.6452  -30.6583   24.0567 C   0  0  0  0  0  0
  -25.9024  -34.9480   23.5138 C   0  0  0  0  0  0
  -16.5352  -29.9089   23.6316 C   0  0  0  0  0  0
  -16.7277  -28.6510   23.0333 C   0  0  0  0  0  0
  -26.4462  -31.6591   25.0700 C   0  0  0  0  0  0
  -25.3752  -31.3681   26.1470 C   0  0  0  0  0  0
  -27.0279  -30.3049   24.6017 C   0  0  0  0  0  0
  -27.6048  -32.4293   25.7461 C   0  0  0  0  0  0
  -27.5583  -37.1815   24.8457 C   0  0  0  0  0  0
  -21.4137  -29.3030   22.3716 N   0  0  0  0  0  0
  -26.4292  -37.3788   23.9416 N   0  0  0  0  0  0
  -24.6656  -31.0794   22.0973 N   0  0  0  0  0  0
  -23.4193  -28.8181   23.2984 O   0  0  0  0  0  0
  -28.3406  -26.6365   20.2750 O   0  0  0  0  0  0
  -26.5580  -34.8924   22.4703 O   0  0  0  0  0  0
  -23.5307  -32.1402   23.7506 O   0  0  0  0  0  0
  -29.3059  -19.4154   18.9787 C   0  0  0  0  0  0
  -30.0724  -17.9717   20.7886 C   0  0  0  0  0  0
  -28.9352  -18.3025   18.2181 C   0  0  0  0  0  0
  -29.1574  -17.0020   18.7270 C   0  0  0  0  0  0
  -29.8637  -19.2705   20.2622 C   0  0  0  0  0  0
  -29.7154  -16.8217   20.0358 C   0  0  0  0  0  0
  -29.5099  -21.5687   20.9836 C   0  0  0  0  0  0
  -28.7852  -15.8392   17.8316 C   0  0  0  0  0  0
  -29.3172  -18.7614   15.7492 C   0  0  0  0  0  0
  -30.2071  -27.7469   19.2949 C   0  0  0  0  0  0
  -28.7766  -26.1838   17.8863 C   0  0  0  0  0  0
  -28.2857  -18.5711   16.8641 C   0  0  0  0  0  0
  -30.2331  -22.9197   20.8997 C   0  0  0  0  0  0
  -29.4485  -23.9488   20.0428 C   0  0  0  0  0  0
  -30.2102  -25.2748   19.8000 C   0  0  0  0  0  0
  -29.3517  -26.4688   19.2873 C   0  0  0  0  0  0
  -30.2587  -20.4503   20.9497 N   0  0  0  0  0  0
  -29.7652  -15.5360   20.6758 N   0  0  0  0  0  0
  -28.2796  -21.5363   21.0808 O   0  0  0  0  0  0
  -31.4964  -12.3908   19.1505 H   0  0  0  0  0  0
  -30.4136  -11.2868   19.9415 H   0  0  0  0  0  0
  -29.7132  -11.4184   17.6304 H   0  0  0  0  0  0
  -29.7940  -13.1141   17.5597 H   0  0  0  0  0  0
  -27.7390  -11.2853   18.8008 H   0  0  0  0  0  0
  -27.4174  -12.6362   17.7627 H   0  0  0  0  0  0
  -27.6880  -14.2156   19.5783 H   0  0  0  0  0  0
  -28.6918  -11.9516   21.3479 H   0  0  0  0  0  0
  -28.4855  -13.6011   21.8580 H   0  0  0  0  0  0
  -25.2718   -9.5667   22.4779 H   0  0  0  0  0  0
  -23.9935   -7.4633   22.7519 H   0  0  0  0  0  0
  -21.0789   -8.8798   19.8974 H   0  0  0  0  0  0
  -22.3647  -10.9688   19.6208 H   0  0  0  0  0  0
  -21.2001   -7.6138   23.9707 H   0  0  0  0  0  0
  -21.1469   -6.0519   25.9081 H   0  0  0  0  0  0
  -22.0597   -2.7589   23.2895 H   0  0  0  0  0  0
  -22.3982  -12.0014   22.4830 H   0  0  0  0  0  0
  -21.1063  -13.1437   22.2522 H   0  0  0  0  0  0
  -24.6736  -15.8394   20.5039 H   0  0  0  0  0  0
  -26.2894  -15.6212   20.0735 H   0  0  0  0  0  0
  -26.7081  -32.5563   23.1167 H   0  0  0  0  0  0
  -25.0009  -33.9766   25.0470 H   0  0  0  0  0  0
  -22.6902  -31.3036   21.4037 H   0  0  0  0  0  0
  -23.3733  -35.9675   23.3286 H   0  0  0  0  0  0
  -24.3585  -36.8950   22.2052 H   0  0  0  0  0  0
  -23.7244  -37.6540   23.6649 H   0  0  0  0  0  0
  -26.0216  -31.6090   20.5820 H   0  0  0  0  0  0
  -26.8214  -30.9108   21.9642 H   0  0  0  0  0  0
  -28.0935  -29.1117   21.2032 H   0  0  0  0  0  0
  -26.0863  -25.9518   19.0779 H   0  0  0  0  0  0
  -23.9960  -27.2765   19.0482 H   0  0  0  0  0  0
  -23.7199  -30.5942   19.3976 H   0  0  0  0  0  0
  -22.7433  -29.2323   19.8632 H   0  0  0  0  0  0
  -25.1269  -36.1980   25.0836 H   0  0  0  0  0  0
  -20.9985  -28.3227   24.1429 H   0  0  0  0  0  0
  -20.5648  -26.2264   23.3591 H   0  0  0  0  0  0
  -21.6636  -26.7430   22.1207 H   0  0  0  0  0  0
  -19.6886  -25.6302   21.1230 H   0  0  0  0  0  0
  -19.6705  -27.3194   20.6730 H   0  0  0  0  0  0
  -17.4202  -26.6696   21.4026 H   0  0  0  0  0  0
  -18.0348  -26.0076   22.9011 H   0  0  0  0  0  0
  -19.7939  -30.7266   24.2282 H   0  0  0  0  0  0
  -17.5016  -31.6265   24.5167 H   0  0  0  0  0  0
  -15.5349  -30.2984   23.7634 H   0  0  0  0  0  0
  -15.8694  -28.0836   22.7011 H   0  0  0  0  0  0
  -24.5886  -30.7073   25.7809 H   0  0  0  0  0  0
  -24.8987  -32.2833   26.4995 H   0  0  0  0  0  0
  -25.8117  -30.8786   27.0186 H   0  0  0  0  0  0
  -26.2795  -29.6820   24.1103 H   0  0  0  0  0  0
  -27.4123  -29.7264   25.4428 H   0  0  0  0  0  0
  -27.8594  -30.4400   23.9097 H   0  0  0  0  0  0
  -27.2673  -33.3558   26.2121 H   0  0  0  0  0  0
  -28.3821  -32.6911   25.0268 H   0  0  0  0  0  0
  -28.0764  -31.8365   26.5312 H   0  0  0  0  0  0
  -28.2592  -38.0125   24.7510 H   0  0  0  0  0  0
  -28.1099  -36.2654   24.6269 H   0  0  0  0  0  0
  -27.2316  -37.1441   25.8869 H   0  0  0  0  0  0
  -20.9279  -29.8779   21.6975 H   0  0  0  0  0  0
  -26.0185  -38.2874   24.1415 H   0  0  0  0  0  0
  -29.1592  -20.3975   18.5535 H   0  0  0  0  0  0
  -30.4807  -17.8567   21.7834 H   0  0  0  0  0  0
  -29.1141  -16.0007   16.8055 H   0  0  0  0  0  0
  -27.7093  -15.6634   17.8292 H   0  0  0  0  0  0
  -29.2895  -14.9561   18.1640 H   0  0  0  0  0  0
  -28.8228  -18.9858   14.8042 H   0  0  0  0  0  0
  -29.9212  -17.8663   15.6058 H   0  0  0  0  0  0
  -29.9910  -19.5885   15.9728 H   0  0  0  0  0  0
  -31.0831  -27.6454   18.6549 H   0  0  0  0  0  0
  -30.5597  -27.9721   20.3031 H   0  0  0  0  0  0
  -29.6392  -28.6109   18.9519 H   0  0  0  0  0  0
  -29.5695  -25.9320   17.1819 H   0  0  0  0  0  0
  -28.2523  -27.0517   17.4871 H   0  0  0  0  0  0
  -28.0721  -25.3519   17.9004 H   0  0  0  0  0  0
  -27.6830  -19.4786   16.9414 H   0  0  0  0  0  0
  -27.5765  -17.7872   16.6017 H   0  0  0  0  0  0
  -31.2199  -22.7622   20.4622 H   0  0  0  0  0  0
  -30.3908  -23.3030   21.9079 H   0  0  0  0  0  0
  -28.5007  -24.1588   20.5393 H   0  0  0  0  0  0
  -29.1879  -23.5065   19.0804 H   0  0  0  0  0  0
  -31.0310  -25.0876   19.1052 H   0  0  0  0  0  0
  -30.6854  -25.5648   20.7372 H   0  0  0  0  0  0
  -31.2485  -20.5539   21.1191 H   0  0  0  0  0  0
  -28.8776  -15.2101   21.0264 H   0  0  0  0  0  0
  1 25  1  0  0  0
  1 30  2  0  0  0
  1 88  1  0  0  0
  2  3  1  0  0  0
  2 25  1  0  0  0
  2 90  1  0  0  0
  2 91  1  0  0  0
  3  4  1  0  0  0
  3 92  1  0  0  0
  3 93  1  0  0  0
  4  5  1  0  0  0
  4 94  1  0  0  0
  4 95  1  0  0  0
  5  6  1  0  0  0
  5 26  1  0  0  0
  5 96  1  0  0  0
  6 25  1  0  0  0
  6 97  1  0  0  0
  6 98  1  0  0  0
  7  8  2  0  0  0
  7 26  1  0  0  0
  7 29  1  0  0  0
  8  9  1  0  0  0
  8 22  1  0  0  0
  9 10  1  0  0  0
  9 27  2  0  0  0
 10 11  2  0  0  0
 10 15  1  0  0  0
 11 12  1  0  0  0
 11 99  1  0  0  0
 12 13  2  0  0  0
 12100  1  0  0  0
 13 14  1  0  0  0
 13 31  1  0  0  0
 14 15  2  0  0  0
 14101  1  0  0  0
 15102  1  0  0  0
 16 17  2  0  0  0
 16 21  1  0  0  0
 16 31  1  0  0  0
 17 18  1  0  0  0
 17103  1  0  0  0
 18 19  2  0  0  0
 18104  1  0  0  0
 19 20  1  0  0  0
 19 24  1  0  0  0
 20 21  2  0  0  0
 20105  1  0  0  0
 21 23  1  0  0  0
 22 28  1  0  0  0
 22 32  2  0  0  0
 26 27  1  0  0  0
 28106  1  0  0  0
 28107  1  0  0  0
 29108  1  0  0  0
 29109  1  0  0  0
 33 34  1  0  0  0
 33 66  1  0  0  0
 33 70  2  0  0  0
 34 36  1  0  0  0
 34 59  1  0  0  0
 34110  1  0  0  0
 35 44  2  0  0  0
 35 45  1  0  0  0
 35 68  1  0  0  0
 36 56  1  0  0  0
 36111  1  0  0  0
 37 39  1  0  0  0
 37 47  1  0  0  0
 37 66  1  0  0  0
 37112  1  0  0  0
 38 43  2  0  0  0
 38 46  1  0  0  0
 38 47  1  0  0  0
 39 64  1  0  0  0
 39 67  2  0  0  0
 40 52  1  0  0  0
 40 53  2  0  0  0
 40 58  1  0  0  0
 41113  1  0  0  0
 41114  1  0  0  0
 41115  1  0  0  0
 41 48  1  0  0  0
 42 43  1  0  0  0
 42 66  1  0  0  0
 42116  1  0  0  0
 42117  1  0  0  0
 43 44  1  0  0  0
 44118  1  0  0  0
 45 46  2  0  0  0
 45119  1  0  0  0
 46120  1  0  0  0
 47121  1  0  0  0
 47122  1  0  0  0
 48 56  1  0  0  0
 48 65  1  0  0  0
 48123  1  0  0  0
 49 50  1  0  0  0
 49 53  1  0  0  0
 49 64  1  0  0  0
 49124  1  0  0  0
 50 51  1  0  0  0
 50125  1  0  0  0
 50126  1  0  0  0
 51 52  1  0  0  0
 51127  1  0  0  0
 51128  1  0  0  0
 52129  1  0  0  0
 52130  1  0  0  0
 53 54  1  0  0  0
 54 55  2  0  0  0
 54131  1  0  0  0
 55 57  1  0  0  0
 55132  1  0  0  0
 56 69  2  0  0  0
 57 58  2  0  0  0
 57133  1  0  0  0
 58134  1  0  0  0
 59 60  1  0  0  0
 59 61  1  0  0  0
 59 62  1  0  0  0
 60135  1  0  0  0
 60136  1  0  0  0
 60137  1  0  0  0
 61138  1  0  0  0
 61139  1  0  0  0
 61140  1  0  0  0
 62141  1  0  0  0
 62142  1  0  0  0
 62143  1  0  0  0
 63 65  1  0  0  0
 63144  1  0  0  0
 63145  1  0  0  0
 63146  1  0  0  0
 64147  1  0  0  0
 65148  1  0  0  0
 68 86  1  0  0  0
 71 73  2  0  0  0
 71 75  1  0  0  0
 71149  1  0  0  0
 72 75  2  0  0  0
 72 76  1  0  0  0
 72150  1  0  0  0
 73 74  1  0  0  0
 73 82  1  0  0  0
 74 76  2  0  0  0
 74 78  1  0  0  0
 75 87  1  0  0  0
 76 88  1  0  0  0
 77 83  1  0  0  0
 77 87  1  0  0  0
 77 89  2  0  0  0
 78151  1  0  0  0
 78152  1  0  0  0
 78153  1  0  0  0
 79 82  1  0  0  0
 79154  1  0  0  0
 79155  1  0  0  0
 79156  1  0  0  0
 80157  1  0  0  0
 80158  1  0  0  0
 80159  1  0  0  0
 80 86  1  0  0  0
 81 86  1  0  0  0
 81160  1  0  0  0
 81161  1  0  0  0
 81162  1  0  0  0
 82163  1  0  0  0
 82164  1  0  0  0
 83 84  1  0  0  0
 83165  1  0  0  0
 83166  1  0  0  0
 84 85  1  0  0  0
 84167  1  0  0  0
 84168  1  0  0  0
 85 86  1  0  0  0
 85169  1  0  0  0
 85170  1  0  0  0
 87171  1  0  0  0
 88172  1  0  0  0
M  ISO  4   1 100  68 101  86 101  88 100
M  END
> <chiral flag>
0

> <version>
0

> <s_m_source_file>
/data/baiqing/PycharmProjects/Reinvent-master-3.2/result/LINK_invent/BTK/process_docking_weight1_custom_product_contain_oxygen_bond_distance_aromatic_linkinvent_7_9_3/rearranged_h_0141.sdf

> <i_m_source_file_index>
77

> <r_mmod_Potential_Energy-OPLS-2005>
15.3947439193726

> <r_mmod_Stretch_Energy-OPLS-2005>
40.7133522033691

> <r_mmod_Bend_Energy-OPLS-2005>
112.485305786133

> <r_mmod_Torsional_Energy-OPLS-2005>
327.385711669922

> <r_mmod_Improper_Torsional_Energy-OPLS-2005>
9.67386341094971

> <r_mmod_Van_der_Waal_Energy-OPLS-2005>
157.774337768555

> <r_mmod_Electrostatic_Energy-OPLS-2005>
-442.332763671875

> <r_mmod_Solvation_Energy-OPLS-2005>
-222.445571899414

> <b_mmod_Minimization_Converged-OPLS-2005>
0

> <r_mmod_RMS_Derivative-OPLS-2005>
2.97365880012512

$$$$
77
                    3D
 Structure written by MMmdl.
171179  0  0  1  0            999 V2000
  -30.7165  -14.4481   20.4645 C   0  0  0  0  0  0
  -30.4084  -12.2601   19.4268 C   0  0  0  0  0  0
  -29.4781  -12.4413   18.2079 C   0  0  0  0  0  0
  -28.0018  -12.3319   18.6266 C   0  0  0  0  0  0
  -27.6555  -13.2008   19.8651 C   0  0  2  0  0  0
  -28.7040  -13.0230   20.9890 C   0  0  0  0  0  0
  -25.2587  -13.8163   20.5691 C   0  0  0  0  0  0
  -24.1824  -13.0455   20.9185 C   0  0  0  0  0  0
  -24.6363  -11.6912   20.8748 C   0  0  0  0  0  0
  -23.9028  -10.4298   21.0412 C   0  0  0  0  0  0
  -24.3590   -9.4225   21.9188 C   0  0  0  0  0  0
  -23.6285   -8.2251   22.0761 C   0  0  0  0  0  0
  -22.4274   -8.0272   21.3542 C   0  0  0  0  0  0
  -21.9891   -9.0240   20.4645 C   0  0  0  0  0  0
  -22.7203  -10.2134   20.3058 C   0  0  0  0  0  0
  -21.6861   -6.0728   22.5274 C   0  0  0  0  0  0
  -21.4024   -6.5635   23.8206 C   0  0  0  0  0  0
  -21.3669   -5.6793   24.9166 C   0  0  0  0  0  0
  -21.6042   -4.3055   24.7223 C   0  0  0  0  0  0
  -21.8822   -3.8146   23.4347 C   0  0  0  0  0  0
  -21.9202   -4.6954   22.3401 C   0  0  0  0  0  0
  -22.7857  -13.5251   21.1855 C   0  0  0  0  0  0
  -22.1665   -4.2139   21.0983 F   0  0  0  0  0  0
  -21.5627   -3.4543   25.7740 F   0  0  0  0  0  0
  -30.0367  -13.2751   20.4203 N   0  0  0  0  0  0
  -26.2999  -12.9312   20.3370 N   0  0  0  0  0  0
  -25.9291  -11.6487   20.5806 N   0  0  0  0  0  0
  -22.0503  -12.8233   22.0410 N   0  0  0  0  0  0
  -25.4356  -15.1875   20.4092 N   0  0  0  0  0  0
  -31.9142  -14.5563   20.1980 O   0  0  0  0  0  0
  -21.6654   -6.8864   21.4233 O   0  0  0  0  0  0
  -22.3542  -14.5556   20.6701 O   0  0  0  0  0  0
  -24.6105  -31.8709   23.2139 C   0  0  0  0  0  0
  -25.9007  -32.4846   23.8416 C   0  0  1  0  0  0
  -27.2461  -27.4866   20.0855 C   0  0  0  0  0  0
  -25.5874  -33.8642   24.2341 N   0  0  0  0  0  0
  -23.3974  -30.4950   21.5532 C   0  0  2  0  0  0
  -24.8484  -28.9714   20.1157 C   0  0  0  0  0  0
  -22.7394  -29.4672   22.5013 C   0  0  0  0  0  0
  -18.0267  -28.1376   22.8497 C   0  0  0  0  0  0
  -24.1483  -36.7332   23.2639 C   0  0  0  0  0  0
  -25.9205  -30.8563   21.3585 C   0  0  0  0  0  0
  -26.0067  -29.4945   20.7063 C   0  0  0  0  0  0
  -27.2135  -28.7625   20.6915 C   0  0  0  0  0  0
  -26.0703  -26.9663   19.5095 C   0  0  0  0  0  0
  -24.8723  -27.7024   19.5142 C   0  0  0  0  0  0
  -23.6053  -29.8281   20.1672 C   0  0  0  0  0  0
  -25.4103  -36.3128   24.0337 C   0  0  1  0  0  0
  -20.5853  -28.3646   23.1334 C   0  0  2  0  0  0
  -20.6754  -26.9393   22.5421 C   0  0  0  0  0  0
  -19.5734  -26.6385   21.5215 C   0  0  0  0  0  0
  -18.1910  -26.7921   22.1624 C   0  0  0  0  0  0
  -19.1518  -28.8829   23.2909 C   0  0  0  0  0  0
  -18.9445  -30.1438   23.8915 C   0  0  0  0  0  0
  -17.6448  -30.6587   24.0567 C   0  0  0  0  0  0
  -25.9027  -34.9492   23.5140 C   0  0  0  0  0  0
  -16.5340  -29.9091   23.6330 C   0  0  0  0  0  0
  -16.7253  -28.6506   23.0352 C   0  0  0  0  0  0
  -26.4458  -31.6604   25.0716 C   0  0  0  0  0  0
  -25.3742  -31.3700   26.1473 C   0  0  0  0  0  0
  -27.0267  -30.3050   24.6043 C   0  0  0  0  0  0
  -27.6035  -32.4310   25.7479 C   0  0  0  0  0  0
  -27.5581  -37.1821   24.8464 C   0  0  0  0  0  0
  -21.4126  -29.3020   22.3743 N   0  0  0  0  0  0
  -26.4295  -37.3803   23.9410 N   0  0  0  0  0  0
  -24.6606  -31.0866   22.1016 N   0  0  0  0  0  0
  -23.4180  -28.8220   23.3048 O   0  0  0  0  0  0
  -28.3367  -26.6577   20.0382 O   0  0  0  0  0  0
  -26.5592  -34.8930   22.4702 O   0  0  0  0  0  0
  -23.5307  -32.1430   23.7564 O   0  0  0  0  0  0
  -30.0280  -18.8887   17.9037 C   0  0  0  0  0  0
  -30.4780  -17.6420   17.4505 C   0  0  0  0  0  0
  -29.6054  -17.9336   20.1117 C   0  0  0  0  0  0
  -29.6078  -19.0470   19.2377 C   0  0  0  0  0  0
  -30.0419  -16.6636   19.6617 C   0  0  0  0  0  0
  -30.4882  -16.5372   18.3143 C   0  0  0  0  0  0
  -32.0498  -26.3122   20.3308 C   0  0  0  0  0  0
  -30.2611  -25.3692   21.8256 C   0  0  0  0  0  0
  -29.2739  -22.5460   18.0065 C   0  0  0  0  0  0
  -31.7578  -22.0696   18.1778 C   0  0  0  0  0  0
  -30.2040  -21.2424   20.0391 C   0  0  0  0  0  0
  -29.6690  -27.1381   20.1455 C   0  0  0  0  0  0
  -30.2916  -24.7892   19.3558 C   0  0  0  0  0  0
  -30.5695  -25.8979   20.4086 C   0  0  0  0  0  0
  -30.4755  -22.3543   18.9769 C   0  0  0  0  0  0
  -29.9438  -15.5414   20.5457 N   0  0  0  0  0  0
  -29.1524  -20.2932   19.6737 N   0  0  0  0  0  0
  -30.7849  -23.5123   19.7693 O   0  0  0  0  0  0
  -30.8986  -15.3564   17.8009 F   0  0  0  0  0  0
  -31.4535  -12.3352   19.1196 H   0  0  0  0  0  0
  -30.2888  -11.2621   19.8506 H   0  0  0  0  0  0
  -29.7020  -11.6892   17.4504 H   0  0  0  0  0  0
  -29.6475  -13.4048   17.7339 H   0  0  0  0  0  0
  -27.8064  -11.2807   18.8433 H   0  0  0  0  0  0
  -27.3505  -12.5943   17.7913 H   0  0  0  0  0  0
  -27.6859  -14.2384   19.5344 H   0  0  0  0  0  0
  -28.6657  -12.0096   21.3904 H   0  0  0  0  0  0
  -28.4904  -13.6870   21.8285 H   0  0  0  0  0  0
  -25.2735   -9.5719   22.4761 H   0  0  0  0  0  0
  -24.0013   -7.4647   22.7475 H   0  0  0  0  0  0
  -21.0833   -8.8732   19.8935 H   0  0  0  0  0  0
  -22.3649  -10.9663   19.6170 H   0  0  0  0  0  0
  -21.2013   -7.6144   23.9693 H   0  0  0  0  0  0
  -21.1490   -6.0531   25.9065 H   0  0  0  0  0  0
  -22.0592   -2.7604   23.2850 H   0  0  0  0  0  0
  -22.4134  -11.9894   22.4783 H   0  0  0  0  0  0
  -21.1109  -13.1236   22.2616 H   0  0  0  0  0  0
  -24.6744  -15.8491   20.5149 H   0  0  0  0  0  0
  -26.2886  -15.6208   20.0792 H   0  0  0  0  0  0
  -26.7087  -32.5593   23.1198 H   0  0  0  0  0  0
  -25.0006  -33.9801   25.0469 H   0  0  0  0  0  0
  -22.6841  -31.3100   21.4162 H   0  0  0  0  0  0
  -23.3737  -35.9675   23.3308 H   0  0  0  0  0  0
  -24.3584  -36.8939   22.2056 H   0  0  0  0  0  0
  -23.7244  -37.6541   23.6646 H   0  0  0  0  0  0
  -26.0214  -31.6256   20.5911 H   0  0  0  0  0  0
  -26.8114  -30.9144   21.9715 H   0  0  0  0  0  0
  -28.0918  -29.1818   21.1590 H   0  0  0  0  0  0
  -26.0869  -25.9871   19.0535 H   0  0  0  0  0  0
  -23.9827  -27.2898   19.0591 H   0  0  0  0  0  0
  -23.7063  -30.6018   19.4057 H   0  0  0  0  0  0
  -22.7324  -29.2411   19.8758 H   0  0  0  0  0  0
  -25.1289  -36.1996   25.0832 H   0  0  0  0  0  0
  -20.9936  -28.3198   24.1456 H   0  0  0  0  0  0
  -20.5664  -26.2256   23.3600 H   0  0  0  0  0  0
  -21.6628  -26.7444   22.1211 H   0  0  0  0  0  0
  -19.6898  -25.6302   21.1231 H   0  0  0  0  0  0
  -19.6681  -27.3210   20.6758 H   0  0  0  0  0  0
  -17.4189  -26.6672   21.4018 H   0  0  0  0  0  0
  -18.0310  -26.0058   22.9014 H   0  0  0  0  0  0
  -19.7925  -30.7248   24.2292 H   0  0  0  0  0  0
  -17.5011  -31.6273   24.5161 H   0  0  0  0  0  0
  -15.5345  -30.3006   23.7651 H   0  0  0  0  0  0
  -15.8642  -28.0838   22.7060 H   0  0  0  0  0  0
  -24.5897  -30.7064   25.7818 H   0  0  0  0  0  0
  -24.8956  -32.2857   26.4955 H   0  0  0  0  0  0
  -25.8110  -30.8845   27.0206 H   0  0  0  0  0  0
  -26.2786  -29.6834   24.1101 H   0  0  0  0  0  0
  -27.4057  -29.7261   25.4474 H   0  0  0  0  0  0
  -27.8616  -30.4380   23.9156 H   0  0  0  0  0  0
  -27.2651  -33.3595   26.2084 H   0  0  0  0  0  0
  -28.3835  -32.6883   25.0304 H   0  0  0  0  0  0
  -28.0698  -31.8407   26.5373 H   0  0  0  0  0  0
  -28.2612  -38.0104   24.7502 H   0  0  0  0  0  0
  -28.1061  -36.2640   24.6301 H   0  0  0  0  0  0
  -27.2297  -37.1491   25.8864 H   0  0  0  0  0  0
  -20.9287  -29.8731   21.6955 H   0  0  0  0  0  0
  -26.0187  -38.2883   24.1401 H   0  0  0  0  0  0
  -30.0104  -19.7089   17.2036 H   0  0  0  0  0  0
  -30.8021  -17.5239   16.4266 H   0  0  0  0  0  0
  -29.2488  -18.0534   21.1250 H   0  0  0  0  0  0
  -32.2831  -27.1022   21.0449 H   0  0  0  0  0  0
  -32.3043  -26.6831   19.3371 H   0  0  0  0  0  0
  -32.7074  -25.4678   20.5398 H   0  0  0  0  0  0
  -30.3868  -26.1489   22.5779 H   0  0  0  0  0  0
  -30.9189  -24.5433   22.0983 H   0  0  0  0  0  0
  -29.2354  -25.0052   21.8968 H   0  0  0  0  0  0
  -29.0931  -21.6665   17.3926 H   0  0  0  0  0  0
  -29.4438  -23.3550   17.2967 H   0  0  0  0  0  0
  -28.3487  -22.7560   18.5454 H   0  0  0  0  0  0
  -31.6669  -21.1783   17.5603 H   0  0  0  0  0  0
  -32.6150  -21.9210   18.8352 H   0  0  0  0  0  0
  -31.9992  -22.8983   17.5125 H   0  0  0  0  0  0
  -29.8572  -21.7175   20.9584 H   0  0  0  0  0  0
  -31.1280  -20.7281   20.3118 H   0  0  0  0  0  0
  -29.9431  -27.6306   19.2106 H   0  0  0  0  0  0
  -29.7888  -27.8631   20.9505 H   0  0  0  0  0  0
  -30.7090  -25.0617   18.3850 H   0  0  0  0  0  0
  -29.2167  -24.6994   19.2273 H   0  0  0  0  0  0
  -29.0493  -15.4138   20.9914 H   0  0  0  0  0  0
  -28.5537  -20.7371   18.9835 H   0  0  0  0  0  0
  1 25  1  0  0  0
  1 30  2  0  0  0
  1 86  1  0  0  0
  2  3  1  0  0  0
  2 25  1  0  0  0
  2 90  1  0  0  0
  2 91  1  0  0  0
  3  4  1  0  0  0
  3 92  1  0  0  0
  3 93  1  0  0  0
  4  5  1  0  0  0
  4 94  1  0  0  0
  4 95  1  0  0  0
  5  6  1  0  0  0
  5 26  1  0  0  0
  5 96  1  0  0  0
  6 25  1  0  0  0
  6 97  1  0  0  0
  6 98  1  0  0  0
  7  8  2  0  0  0
  7 26  1  0  0  0
  7 29  1  0  0  0
  8  9  1  0  0  0
  8 22  1  0  0  0
  9 10  1  0  0  0
  9 27  2  0  0  0
 10 11  2  0  0  0
 10 15  1  0  0  0
 11 12  1  0  0  0
 11 99  1  0  0  0
 12 13  2  0  0  0
 12100  1  0  0  0
 13 14  1  0  0  0
 13 31  1  0  0  0
 14 15  2  0  0  0
 14101  1  0  0  0
 15102  1  0  0  0
 16 17  2  0  0  0
 16 21  1  0  0  0
 16 31  1  0  0  0
 17 18  1  0  0  0
 17103  1  0  0  0
 18 19  2  0  0  0
 18104  1  0  0  0
 19 20  1  0  0  0
 19 24  1  0  0  0
 20 21  2  0  0  0
 20105  1  0  0  0
 21 23  1  0  0  0
 22 28  1  0  0  0
 22 32  2  0  0  0
 26 27  1  0  0  0
 28106  1  0  0  0
 28107  1  0  0  0
 29108  1  0  0  0
 29109  1  0  0  0
 33 34  1  0  0  0
 33 66  1  0  0  0
 33 70  2  0  0  0
 34 36  1  0  0  0
 34 59  1  0  0  0
 34110  1  0  0  0
 35 44  2  0  0  0
 35 45  1  0  0  0
 35 68  1  0  0  0
 36 56  1  0  0  0
 36111  1  0  0  0
 37 39  1  0  0  0
 37 47  1  0  0  0
 37 66  1  0  0  0
 37112  1  0  0  0
 38 43  2  0  0  0
 38 46  1  0  0  0
 38 47  1  0  0  0
 39 64  1  0  0  0
 39 67  2  0  0  0
 40 52  1  0  0  0
 40 53  2  0  0  0
 40 58  1  0  0  0
 41113  1  0  0  0
 41114  1  0  0  0
 41115  1  0  0  0
 41 48  1  0  0  0
 42 43  1  0  0  0
 42 66  1  0  0  0
 42116  1  0  0  0
 42117  1  0  0  0
 43 44  1  0  0  0
 44118  1  0  0  0
 45 46  2  0  0  0
 45119  1  0  0  0
 46120  1  0  0  0
 47121  1  0  0  0
 47122  1  0  0  0
 48 56  1  0  0  0
 48 65  1  0  0  0
 48123  1  0  0  0
 49 50  1  0  0  0
 49 53  1  0  0  0
 49 64  1  0  0  0
 49124  1  0  0  0
 50 51  1  0  0  0
 50125  1  0  0  0
 50126  1  0  0  0
 51 52  1  0  0  0
 51127  1  0  0  0
 51128  1  0  0  0
 52129  1  0  0  0
 52130  1  0  0  0
 53 54  1  0  0  0
 54 55  2  0  0  0
 54131  1  0  0  0
 55 57  1  0  0  0
 55132  1  0  0  0
 56 69  2  0  0  0
 57 58  2  0  0  0
 57133  1  0  0  0
 58134  1  0  0  0
 59 60  1  0  0  0
 59 61  1  0  0  0
 59 62  1  0  0  0
 60135  1  0  0  0
 60136  1  0  0  0
 60137  1  0  0  0
 61138  1  0  0  0
 61139  1  0  0  0
 61140  1  0  0  0
 62141  1  0  0  0
 62142  1  0  0  0
 62143  1  0  0  0
 63 65  1  0  0  0
 63144  1  0  0  0
 63145  1  0  0  0
 63146  1  0  0  0
 64147  1  0  0  0
 65148  1  0  0  0
 68 82  1  0  0  0
 71 72  2  0  0  0
 71 74  1  0  0  0
 71149  1  0  0  0
 72 76  1  0  0  0
 72150  1  0  0  0
 73 74  2  0  0  0
 73 75  1  0  0  0
 73151  1  0  0  0
 74 87  1  0  0  0
 75 76  2  0  0  0
 75 86  1  0  0  0
 76 89  1  0  0  0
 77152  1  0  0  0
 77153  1  0  0  0
 77154  1  0  0  0
 77 84  1  0  0  0
 78 84  1  0  0  0
 78155  1  0  0  0
 78156  1  0  0  0
 78157  1  0  0  0
 79158  1  0  0  0
 79159  1  0  0  0
 79160  1  0  0  0
 79 85  1  0  0  0
 80 85  1  0  0  0
 80161  1  0  0  0
 80162  1  0  0  0
 80163  1  0  0  0
 81 85  1  0  0  0
 81 87  1  0  0  0
 81164  1  0  0  0
 81165  1  0  0  0
 82 84  1  0  0  0
 82166  1  0  0  0
 82167  1  0  0  0
 83 84  1  0  0  0
 83 88  1  0  0  0
 83168  1  0  0  0
 83169  1  0  0  0
 85 88  1  0  0  0
 86170  1  0  0  0
 87171  1  0  0  0
M  ISO  4   1 100  68 101  82 101  86 100
M  END
> <chiral flag>
0

> <version>
0

> <s_m_source_file>
/data/baiqing/PycharmProjects/Reinvent-master-3.2/result/LINK_invent/BTK/process_docking_weight1_custom_product_contain_oxygen_bond_distance_aromatic_linkinvent_7_9_3/rearranged_h_0141.sdf

> <i_m_source_file_index>
78

> <r_mmod_Potential_Energy-OPLS-2005>
-22.1117248535156

> <r_mmod_Stretch_Energy-OPLS-2005>
36.9672088623047

> <r_mmod_Bend_Energy-OPLS-2005>
123.103820800781

> <r_mmod_Torsional_Energy-OPLS-2005>
301.336700439453

> <r_mmod_Improper_Torsional_Energy-OPLS-2005>
14.0348978042603

> <r_mmod_Van_der_Waal_Energy-OPLS-2005>
174.227523803711

> <r_mmod_Electrostatic_Energy-OPLS-2005>
-478.422668457031

> <r_mmod_Solvation_Energy-OPLS-2005>
-212.608993530273

> <b_mmod_Minimization_Converged-OPLS-2005>
0

> <r_mmod_RMS_Derivative-OPLS-2005>
1.6793372631073

$$$$
78
                    3D
 Structure written by MMmdl.
169177  0  0  1  0            999 V2000
  -30.6287  -14.5236   20.5070 C   0  0  0  0  0  0
  -30.4414  -12.3054   19.4445 C   0  0  0  0  0  0
  -29.5069  -12.4378   18.2238 C   0  0  0  0  0  0
  -28.0184  -12.3484   18.6271 C   0  0  0  0  0  0
  -27.6588  -13.1872   19.8846 C   0  0  2  0  0  0
  -28.7036  -12.9762   20.9996 C   0  0  0  0  0  0
  -25.2602  -13.8125   20.5720 C   0  0  0  0  0  0
  -24.1830  -13.0435   20.9234 C   0  0  0  0  0  0
  -24.6354  -11.6899   20.8783 C   0  0  0  0  0  0
  -23.9023  -10.4302   21.0430 C   0  0  0  0  0  0
  -24.3604   -9.4230   21.9216 C   0  0  0  0  0  0
  -23.6325   -8.2240   22.0758 C   0  0  0  0  0  0
  -22.4299   -8.0279   21.3543 C   0  0  0  0  0  0
  -21.9913   -9.0247   20.4650 C   0  0  0  0  0  0
  -22.7191  -10.2139   20.3084 C   0  0  0  0  0  0
  -21.6867   -6.0757   22.5284 C   0  0  0  0  0  0
  -21.4007   -6.5667   23.8215 C   0  0  0  0  0  0
  -21.3664   -5.6815   24.9178 C   0  0  0  0  0  0
  -21.6051   -4.3077   24.7225 C   0  0  0  0  0  0
  -21.8823   -3.8170   23.4338 C   0  0  0  0  0  0
  -21.9204   -4.6996   22.3409 C   0  0  0  0  0  0
  -22.7866  -13.5262   21.1886 C   0  0  0  0  0  0
  -22.1676   -4.2189   21.0981 F   0  0  0  0  0  0
  -21.5634   -3.4561   25.7725 F   0  0  0  0  0  0
  -30.0284  -13.3026   20.4410 N   0  0  0  0  0  0
  -26.2997  -12.9222   20.3424 N   0  0  0  0  0  0
  -25.9266  -11.6406   20.5826 N   0  0  0  0  0  0
  -22.0505  -12.8219   22.0416 N   0  0  0  0  0  0
  -25.4407  -15.1838   20.4109 N   0  0  0  0  0  0
  -31.7729  -14.7409   20.0965 O   0  0  0  0  0  0
  -21.6660   -6.8882   21.4238 O   0  0  0  0  0  0
  -22.3564  -14.5582   20.6746 O   0  0  0  0  0  0
  -24.6115  -31.8690   23.2102 C   0  0  0  0  0  0
  -25.9032  -32.4812   23.8374 C   0  0  1  0  0  0
  -27.2365  -27.4600   20.0583 C   0  0  0  0  0  0
  -25.5909  -33.8607   24.2313 N   0  0  0  0  0  0
  -23.3967  -30.4939   21.5514 C   0  0  2  0  0  0
  -24.8391  -28.9591   20.1174 C   0  0  0  0  0  0
  -22.7389  -29.4677   22.5014 C   0  0  0  0  0  0
  -18.0273  -28.1379   22.8484 C   0  0  0  0  0  0
  -24.1490  -36.7316   23.2637 C   0  0  0  0  0  0
  -25.9237  -30.8338   21.3645 C   0  0  0  0  0  0
  -25.9993  -29.4694   20.7129 C   0  0  0  0  0  0
  -27.1958  -28.7205   20.6949 C   0  0  0  0  0  0
  -26.0485  -26.9458   19.4910 C   0  0  0  0  0  0
  -24.8550  -27.6906   19.5149 C   0  0  0  0  0  0
  -23.6031  -29.8253   20.1670 C   0  0  0  0  0  0
  -25.4106  -36.3100   24.0333 C   0  0  1  0  0  0
  -20.5853  -28.3653   23.1329 C   0  0  2  0  0  0
  -20.6761  -26.9400   22.5411 C   0  0  0  0  0  0
  -19.5751  -26.6391   21.5202 C   0  0  0  0  0  0
  -18.1927  -26.7929   22.1615 C   0  0  0  0  0  0
  -19.1519  -28.8836   23.2898 C   0  0  0  0  0  0
  -18.9449  -30.1449   23.8904 C   0  0  0  0  0  0
  -17.6454  -30.6588   24.0567 C   0  0  0  0  0  0
  -25.9036  -34.9466   23.5113 C   0  0  0  0  0  0
  -16.5348  -29.9088   23.6328 C   0  0  0  0  0  0
  -16.7262  -28.6508   23.0328 C   0  0  0  0  0  0
  -26.4478  -31.6570   25.0691 C   0  0  0  0  0  0
  -25.3772  -31.3672   26.1462 C   0  0  0  0  0  0
  -27.0298  -30.3012   24.6049 C   0  0  0  0  0  0
  -27.6035  -32.4296   25.7474 C   0  0  0  0  0  0
  -27.5583  -37.1811   24.8466 C   0  0  0  0  0  0
  -21.4120  -29.3035   22.3749 N   0  0  0  0  0  0
  -26.4296  -37.3780   23.9405 N   0  0  0  0  0  0
  -24.6616  -31.0797   22.1005 N   0  0  0  0  0  0
  -23.4168  -28.8231   23.3067 O   0  0  0  0  0  0
  -28.4271  -26.7645   20.0440 O   0  0  0  0  0  0
  -26.5589  -34.8928   22.4680 O   0  0  0  0  0  0
  -23.5324  -32.1449   23.7524 O   0  0  0  0  0  0
  -29.9334  -19.1323   21.7614 C   0  0  0  0  0  0
  -30.1210  -17.7348   21.8001 C   0  0  0  0  0  0
  -29.1511  -18.9486   19.4811 C   0  0  0  0  0  0
  -29.3951  -17.5498   19.4658 C   0  0  0  0  0  0
  -29.3997  -19.7443   20.6119 C   0  0  0  0  0  0
  -29.8329  -16.9176   20.6795 C   0  0  0  0  0  0
  -29.0972  -16.8424   18.1763 C   0  0  0  0  0  0
  -29.0819  -23.6435   19.8938 C   0  0  0  0  0  0
  -29.0546  -17.6769   16.8980 C   0  0  0  0  0  0
  -29.3694  -26.9669   17.8383 C   0  0  0  0  0  0
  -31.1606  -22.4344   20.6916 C   0  0  0  0  0  0
  -30.1529  -21.8657   18.4503 C   0  0  0  0  0  0
  -28.9505  -21.2107   20.6276 C   0  0  0  0  0  0
  -29.7619  -24.8866   19.2822 C   0  0  0  0  0  0
  -28.7727  -26.0050   18.8775 C   0  0  1  0  0  0
  -29.8406  -22.2810   19.9087 C   0  0  0  0  0  0
  -29.8014  -15.5050   20.9277 N   0  0  0  0  0  0
  -28.9032  -15.6361   18.0713 O   0  0  0  0  0  0
  -27.9430  -23.7362   20.3605 O   0  0  0  0  0  0
  -31.4821  -12.4349   19.1423 H   0  0  0  0  0  0
  -30.3737  -11.3034   19.8708 H   0  0  0  0  0  0
  -29.7284  -11.6543   17.4979 H   0  0  0  0  0  0
  -29.7136  -13.3733   17.7090 H   0  0  0  0  0  0
  -27.7920  -11.2989   18.8148 H   0  0  0  0  0  0
  -27.3887  -12.6436   17.7878 H   0  0  0  0  0  0
  -27.6812  -14.2319   19.5946 H   0  0  0  0  0  0
  -28.6982  -11.9389   21.3339 H   0  0  0  0  0  0
  -28.4648  -13.5678   21.8854 H   0  0  0  0  0  0
  -25.2742   -9.5754   22.4792 H   0  0  0  0  0  0
  -24.0087   -7.4639   22.7441 H   0  0  0  0  0  0
  -21.0879   -8.8739   19.8924 H   0  0  0  0  0  0
  -22.3665  -10.9701   19.6211 H   0  0  0  0  0  0
  -21.1965   -7.6168   23.9723 H   0  0  0  0  0  0
  -21.1481   -6.0544   25.9079 H   0  0  0  0  0  0
  -22.0595   -2.7641   23.2830 H   0  0  0  0  0  0
  -22.4128  -11.9870   22.4769 H   0  0  0  0  0  0
  -21.1117  -13.1194   22.2612 H   0  0  0  0  0  0
  -24.6783  -15.8470   20.4976 H   0  0  0  0  0  0
  -26.2923  -15.6072   20.0641 H   0  0  0  0  0  0
  -26.7101  -32.5512   23.1126 H   0  0  0  0  0  0
  -25.0066  -33.9762   25.0470 H   0  0  0  0  0  0
  -22.6838  -31.3082   21.4110 H   0  0  0  0  0  0
  -23.3741  -35.9660   23.3298 H   0  0  0  0  0  0
  -24.3594  -36.8937   22.2055 H   0  0  0  0  0  0
  -23.7261  -37.6532   23.6652 H   0  0  0  0  0  0
  -26.0374  -31.5956   20.5931 H   0  0  0  0  0  0
  -26.8121  -30.8862   21.9801 H   0  0  0  0  0  0
  -28.0931  -29.1154   21.1514 H   0  0  0  0  0  0
  -26.0081  -25.9660   19.0396 H   0  0  0  0  0  0
  -23.9588  -27.2796   19.0709 H   0  0  0  0  0  0
  -23.7141  -30.5958   19.4044 H   0  0  0  0  0  0
  -22.7266  -29.2456   19.8722 H   0  0  0  0  0  0
  -25.1286  -36.1955   25.0826 H   0  0  0  0  0  0
  -20.9938  -28.3211   24.1448 H   0  0  0  0  0  0
  -20.5682  -26.2261   23.3581 H   0  0  0  0  0  0
  -21.6631  -26.7455   22.1197 H   0  0  0  0  0  0
  -19.6912  -25.6302   21.1225 H   0  0  0  0  0  0
  -19.6700  -27.3208   20.6734 H   0  0  0  0  0  0
  -17.4194  -26.6676   21.4015 H   0  0  0  0  0  0
  -18.0332  -26.0068   22.9013 H   0  0  0  0  0  0
  -19.7923  -30.7265   24.2266 H   0  0  0  0  0  0
  -17.5008  -31.6269   24.5162 H   0  0  0  0  0  0
  -15.5351  -30.2988   23.7650 H   0  0  0  0  0  0
  -15.8661  -28.0843   22.7016 H   0  0  0  0  0  0
  -24.5907  -30.7060   25.7814 H   0  0  0  0  0  0
  -24.9021  -32.2832   26.4973 H   0  0  0  0  0  0
  -25.8158  -30.8792   27.0172 H   0  0  0  0  0  0
  -26.2826  -29.6784   24.1116 H   0  0  0  0  0  0
  -27.4090  -29.7230   25.4485 H   0  0  0  0  0  0
  -27.8652  -30.4324   23.9168 H   0  0  0  0  0  0
  -27.2606  -33.3551   26.2105 H   0  0  0  0  0  0
  -28.3824  -32.6930   25.0311 H   0  0  0  0  0  0
  -28.0717  -31.8393   26.5358 H   0  0  0  0  0  0
  -28.2584  -38.0119   24.7496 H   0  0  0  0  0  0
  -28.1094  -36.2643   24.6299 H   0  0  0  0  0  0
  -27.2305  -37.1480   25.8873 H   0  0  0  0  0  0
  -20.9281  -29.8742   21.6955 H   0  0  0  0  0  0
  -26.0181  -38.2864   24.1393 H   0  0  0  0  0  0
  -30.1320  -19.7214   22.6463 H   0  0  0  0  0  0
  -30.4447  -17.2846   22.7295 H   0  0  0  0  0  0
  -28.7137  -19.4430   18.6256 H   0  0  0  0  0  0
  -28.1091  -18.2155   16.8334 H   0  0  0  0  0  0
  -29.1411  -17.0378   16.0203 H   0  0  0  0  0  0
  -29.8739  -18.3981   16.8863 H   0  0  0  0  0  0
  -29.6579  -26.4324   16.9318 H   0  0  0  0  0  0
  -30.2522  -27.4770   18.2267 H   0  0  0  0  0  0
  -28.6460  -27.7278   17.5422 H   0  0  0  0  0  0
  -31.8189  -23.1853   20.2539 H   0  0  0  0  0  0
  -31.7157  -21.4952   20.7144 H   0  0  0  0  0  0
  -30.9745  -22.7239   21.7274 H   0  0  0  0  0  0
  -30.7863  -22.5896   17.9370 H   0  0  0  0  0  0
  -29.2385  -21.7554   17.8628 H   0  0  0  0  0  0
  -30.6927  -20.9201   18.4067 H   0  0  0  0  0  0
  -28.8005  -21.5096   21.6668 H   0  0  0  0  0  0
  -27.9500  -21.2199   20.1900 H   0  0  0  0  0  0
  -30.3183  -24.5783   18.4005 H   0  0  0  0  0  0
  -30.4961  -25.2741   19.9879 H   0  0  0  0  0  0
  -27.9184  -25.5256   18.4053 H   0  0  0  0  0  0
  -28.9319  -15.1555   21.3013 H   0  0  0  0  0  0
  1 25  1  0  0  0
  1 30  2  0  0  0
  1 87  1  0  0  0
  2  3  1  0  0  0
  2 25  1  0  0  0
  2 90  1  0  0  0
  2 91  1  0  0  0
  3  4  1  0  0  0
  3 92  1  0  0  0
  3 93  1  0  0  0
  4  5  1  0  0  0
  4 94  1  0  0  0
  4 95  1  0  0  0
  5  6  1  0  0  0
  5 26  1  0  0  0
  5 96  1  0  0  0
  6 25  1  0  0  0
  6 97  1  0  0  0
  6 98  1  0  0  0
  7  8  2  0  0  0
  7 26  1  0  0  0
  7 29  1  0  0  0
  8  9  1  0  0  0
  8 22  1  0  0  0
  9 10  1  0  0  0
  9 27  2  0  0  0
 10 11  2  0  0  0
 10 15  1  0  0  0
 11 12  1  0  0  0
 11 99  1  0  0  0
 12 13  2  0  0  0
 12100  1  0  0  0
 13 14  1  0  0  0
 13 31  1  0  0  0
 14 15  2  0  0  0
 14101  1  0  0  0
 15102  1  0  0  0
 16 17  2  0  0  0
 16 21  1  0  0  0
 16 31  1  0  0  0
 17 18  1  0  0  0
 17103  1  0  0  0
 18 19  2  0  0  0
 18104  1  0  0  0
 19 20  1  0  0  0
 19 24  1  0  0  0
 20 21  2  0  0  0
 20105  1  0  0  0
 21 23  1  0  0  0
 22 28  1  0  0  0
 22 32  2  0  0  0
 26 27  1  0  0  0
 28106  1  0  0  0
 28107  1  0  0  0
 29108  1  0  0  0
 29109  1  0  0  0
 33 34  1  0  0  0
 33 66  1  0  0  0
 33 70  2  0  0  0
 34 36  1  0  0  0
 34 59  1  0  0  0
 34110  1  0  0  0
 35 44  2  0  0  0
 35 45  1  0  0  0
 35 68  1  0  0  0
 36 56  1  0  0  0
 36111  1  0  0  0
 37 39  1  0  0  0
 37 47  1  0  0  0
 37 66  1  0  0  0
 37112  1  0  0  0
 38 43  2  0  0  0
 38 46  1  0  0  0
 38 47  1  0  0  0
 39 64  1  0  0  0
 39 67  2  0  0  0
 40 52  1  0  0  0
 40 53  2  0  0  0
 40 58  1  0  0  0
 41113  1  0  0  0
 41114  1  0  0  0
 41115  1  0  0  0
 41 48  1  0  0  0
 42 43  1  0  0  0
 42 66  1  0  0  0
 42116  1  0  0  0
 42117  1  0  0  0
 43 44  1  0  0  0
 44118  1  0  0  0
 45 46  2  0  0  0
 45119  1  0  0  0
 46120  1  0  0  0
 47121  1  0  0  0
 47122  1  0  0  0
 48 56  1  0  0  0
 48 65  1  0  0  0
 48123  1  0  0  0
 49 50  1  0  0  0
 49 53  1  0  0  0
 49 64  1  0  0  0
 49124  1  0  0  0
 50 51  1  0  0  0
 50125  1  0  0  0
 50126  1  0  0  0
 51 52  1  0  0  0
 51127  1  0  0  0
 51128  1  0  0  0
 52129  1  0  0  0
 52130  1  0  0  0
 53 54  1  0  0  0
 54 55  2  0  0  0
 54131  1  0  0  0
 55 57  1  0  0  0
 55132  1  0  0  0
 56 69  2  0  0  0
 57 58  2  0  0  0
 57133  1  0  0  0
 58134  1  0  0  0
 59 60  1  0  0  0
 59 61  1  0  0  0
 59 62  1  0  0  0
 60135  1  0  0  0
 60136  1  0  0  0
 60137  1  0  0  0
 61138  1  0  0  0
 61139  1  0  0  0
 61140  1  0  0  0
 62141  1  0  0  0
 62142  1  0  0  0
 62143  1  0  0  0
 63 65  1  0  0  0
 63144  1  0  0  0
 63145  1  0  0  0
 63146  1  0  0  0
 64147  1  0  0  0
 65148  1  0  0  0
 68 85  1  0  0  0
 71 72  2  0  0  0
 71 75  1  0  0  0
 71149  1  0  0  0
 72 76  1  0  0  0
 72150  1  0  0  0
 73 74  1  0  0  0
 73 75  2  0  0  0
 73151  1  0  0  0
 74 76  2  0  0  0
 74 77  1  0  0  0
 75 83  1  0  0  0
 76 87  1  0  0  0
 77 79  1  0  0  0
 77 88  2  0  0  0
 78 84  1  0  0  0
 78 86  1  0  0  0
 78 89  2  0  0  0
 79152  1  0  0  0
 79153  1  0  0  0
 79154  1  0  0  0
 80155  1  0  0  0
 80156  1  0  0  0
 80157  1  0  0  0
 80 85  1  0  0  0
 81158  1  0  0  0
 81159  1  0  0  0
 81160  1  0  0  0
 81 86  1  0  0  0
 82 86  1  0  0  0
 82161  1  0  0  0
 82162  1  0  0  0
 82163  1  0  0  0
 83 86  1  0  0  0
 83164  1  0  0  0
 83165  1  0  0  0
 84 85  1  0  0  0
 84166  1  0  0  0
 84167  1  0  0  0
 85168  1  0  0  0
 87169  1  0  0  0
M  ISO  4   1 100  68 101  85 101  87 100
M  END
> <chiral flag>
0

> <version>
0

> <s_m_source_file>
/data/baiqing/PycharmProjects/Reinvent-master-3.2/result/LINK_invent/BTK/process_docking_weight1_custom_product_contain_oxygen_bond_distance_aromatic_linkinvent_7_9_3/rearranged_h_0141.sdf

> <i_m_source_file_index>
79

> <r_mmod_Potential_Energy-OPLS-2005>
62.8138465881348

> <r_mmod_Stretch_Energy-OPLS-2005>
43.361743927002

> <r_mmod_Bend_Energy-OPLS-2005>
114.438697814941

> <r_mmod_Torsional_Energy-OPLS-2005>
284.52880859375

> <r_mmod_Improper_Torsional_Energy-OPLS-2005>
5.90592098236084

> <r_mmod_Van_der_Waal_Energy-OPLS-2005>
163.367233276367

> <r_mmod_Electrostatic_Energy-OPLS-2005>
-349.203918457031

> <r_mmod_Solvation_Energy-OPLS-2005>
-217.578750610352

> <b_mmod_Minimization_Converged-OPLS-2005>
0

> <r_mmod_RMS_Derivative-OPLS-2005>
3.06298303604126

$$$$
79
                    3D
 Structure written by MMmdl.
168177  0  0  1  0            999 V2000
  -30.6455  -14.6327   20.4799 C   0  0  0  0  0  0
  -30.4292  -12.3782   19.4733 C   0  0  0  0  0  0
  -29.5121  -12.4944   18.2361 C   0  0  0  0  0  0
  -28.0320  -12.3500   18.6400 C   0  0  0  0  0  0
  -27.6538  -13.2247   19.8664 C   0  0  2  0  0  0
  -28.6949  -13.0964   21.0011 C   0  0  0  0  0  0
  -25.2558  -13.8197   20.5697 C   0  0  0  0  0  0
  -24.1824  -13.0449   20.9182 C   0  0  0  0  0  0
  -24.6404  -11.6921   20.8739 C   0  0  0  0  0  0
  -23.9075  -10.4299   21.0399 C   0  0  0  0  0  0
  -24.3621   -9.4211   21.9179 C   0  0  0  0  0  0
  -23.6291   -8.2249   22.0755 C   0  0  0  0  0  0
  -22.4272   -8.0293   21.3548 C   0  0  0  0  0  0
  -21.9912   -9.0268   20.4654 C   0  0  0  0  0  0
  -22.7244  -10.2145   20.3055 C   0  0  0  0  0  0
  -21.6859   -6.0735   22.5275 C   0  0  0  0  0  0
  -21.4020   -6.5640   23.8209 C   0  0  0  0  0  0
  -21.3659   -5.6788   24.9168 C   0  0  0  0  0  0
  -21.6042   -4.3050   24.7216 C   0  0  0  0  0  0
  -21.8823   -3.8145   23.4339 C   0  0  0  0  0  0
  -21.9193   -4.6962   22.3395 C   0  0  0  0  0  0
  -22.7847  -13.5234   21.1842 C   0  0  0  0  0  0
  -22.1662   -4.2150   21.0973 F   0  0  0  0  0  0
  -21.5624   -3.4530   25.7723 F   0  0  0  0  0  0
  -30.0148  -13.4169   20.4395 N   0  0  0  0  0  0
  -26.2990  -12.9393   20.3334 N   0  0  0  0  0  0
  -25.9339  -11.6536   20.5766 N   0  0  0  0  0  0
  -22.0492  -12.8236   22.0403 N   0  0  0  0  0  0
  -25.4289  -15.1916   20.4132 N   0  0  0  0  0  0
  -31.8046  -14.7632   20.0749 O   0  0  0  0  0  0
  -21.6649   -6.8882   21.4236 O   0  0  0  0  0  0
  -22.3519  -14.5534   20.6685 O   0  0  0  0  0  0
  -24.6249  -31.8609   23.2045 C   0  0  0  0  0  0
  -25.9106  -32.4780   23.8369 C   0  0  1  0  0  0
  -27.2200  -27.3281   20.1204 C   0  0  0  0  0  0
  -25.5931  -33.8582   24.2292 N   0  0  0  0  0  0
  -23.4186  -30.4852   21.5462 C   0  0  2  0  0  0
  -24.8670  -28.9455   20.1092 C   0  0  0  0  0  0
  -22.7472  -29.4623   22.4932 C   0  0  0  0  0  0
  -18.0288  -28.1384   22.8478 C   0  0  0  0  0  0
  -24.1490  -36.7295   23.2636 C   0  0  0  0  0  0
  -25.9594  -30.7944   21.3760 C   0  0  0  0  0  0
  -26.0352  -29.4232   20.7183 C   0  0  0  0  0  0
  -27.2179  -28.6253   20.7166 C   0  0  0  0  0  0
  -26.0382  -26.9128   19.4675 C   0  0  0  0  0  0
  -24.8700  -27.6951   19.4737 C   0  0  0  0  0  0
  -23.6341  -29.8233   20.1601 C   0  0  0  0  0  0
  -25.4113  -36.3081   24.0327 C   0  0  1  0  0  0
  -20.5884  -28.3685   23.1278 C   0  0  2  0  0  0
  -20.6779  -26.9409   22.5405 C   0  0  0  0  0  0
  -19.5754  -26.6381   21.5207 C   0  0  0  0  0  0
  -18.1935  -26.7928   22.1620 C   0  0  0  0  0  0
  -19.1540  -28.8851   23.2873 C   0  0  0  0  0  0
  -18.9467  -30.1455   23.8889 C   0  0  0  0  0  0
  -17.6467  -30.6586   24.0563 C   0  0  0  0  0  0
  -25.9048  -34.9452   23.5107 C   0  0  0  0  0  0
  -16.5355  -29.9083   23.6331 C   0  0  0  0  0  0
  -16.7274  -28.6501   23.0346 C   0  0  0  0  0  0
  -26.4494  -31.6582   25.0730 C   0  0  0  0  0  0
  -25.3739  -31.3735   26.1467 C   0  0  0  0  0  0
  -27.0326  -30.3001   24.6181 C   0  0  0  0  0  0
  -27.6063  -32.4309   25.7493 C   0  0  0  0  0  0
  -27.5576  -37.1805   24.8463 C   0  0  0  0  0  0
  -21.4183  -29.3041   22.3675 N   0  0  0  0  0  0
  -26.4291  -37.3774   23.9403 N   0  0  0  0  0  0
  -24.6860  -31.0629   22.0991 N   0  0  0  0  0  0
  -23.4200  -28.8159   23.3005 O   0  0  0  0  0  0
  -28.3085  -26.4468   20.1703 O   0  0  0  0  0  0
  -26.5610  -34.8916   22.4667 O   0  0  0  0  0  0
  -23.5416  -32.1403   23.7379 O   0  0  0  0  0  0
  -29.0933  -19.1276   18.3023 C   0  0  0  0  0  0
  -29.4426  -16.7374   18.6408 C   0  0  0  0  0  0
  -29.6680  -18.2963   20.5118 C   0  0  0  0  0  0
  -29.1200  -17.8137   17.7990 C   0  0  0  0  0  0
  -29.3804  -19.4304   19.6556 C   0  0  0  0  0  0
  -29.7173  -16.9363   20.0115 C   0  0  0  0  0  0
  -29.0525  -23.2292   19.2503 C   0  0  0  0  0  0
  -29.8361  -21.8794   19.1434 C   0  0  0  0  0  0
  -29.2763  -21.2862   21.4301 C   0  0  0  0  0  0
  -28.5306  -22.6685   21.6074 C   0  0  2  0  0  0
  -29.0061  -23.8658   20.6712 C   0  0  1  0  0  0
  -28.7752  -17.5491   16.3453 C   0  0  0  0  0  0
  -28.5238  -23.0159   23.1104 C   0  0  0  0  0  0
  -30.4054  -24.3757   21.0765 C   0  0  0  0  0  0
  -27.9941  -25.1098   20.7255 C   0  0  0  0  0  0
  -29.3186  -20.8237   20.0410 N   0  0  0  0  0  0
  -29.9036  -15.7340   20.8251 N   0  0  0  0  0  0
  -31.4750  -12.4774   19.1769 H   0  0  0  0  0  0
  -30.3427  -11.3883   19.9241 H   0  0  0  0  0  0
  -29.7734  -11.7312   17.5019 H   0  0  0  0  0  0
  -29.6719  -13.4545   17.7451 H   0  0  0  0  0  0
  -27.8577  -11.2983   18.8703 H   0  0  0  0  0  0
  -27.3853  -12.5861   17.7942 H   0  0  0  0  0  0
  -27.6688  -14.2589   19.5220 H   0  0  0  0  0  0
  -28.6960  -12.0839   21.4077 H   0  0  0  0  0  0
  -28.4450  -13.7540   21.8347 H   0  0  0  0  0  0
  -25.2770   -9.5676   22.4750 H   0  0  0  0  0  0
  -23.9999   -7.4634   22.7467 H   0  0  0  0  0  0
  -21.0847   -8.8796   19.8957 H   0  0  0  0  0  0
  -22.3712  -10.9686   19.6162 H   0  0  0  0  0  0
  -21.2028   -7.6150   23.9709 H   0  0  0  0  0  0
  -21.1473   -6.0522   25.9069 H   0  0  0  0  0  0
  -22.0605   -2.7605   23.2841 H   0  0  0  0  0  0
  -22.4117  -11.9904   22.4794 H   0  0  0  0  0  0
  -21.1114  -13.1272   22.2607 H   0  0  0  0  0  0
  -24.6668  -15.8518   20.5254 H   0  0  0  0  0  0
  -26.2859  -15.6278   20.0969 H   0  0  0  0  0  0
  -26.7174  -32.5457   23.1122 H   0  0  0  0  0  0
  -25.0085  -33.9735   25.0442 H   0  0  0  0  0  0
  -22.7108  -31.3049   21.4053 H   0  0  0  0  0  0
  -23.3741  -35.9637   23.3304 H   0  0  0  0  0  0
  -24.3584  -36.8910   22.2050 H   0  0  0  0  0  0
  -23.7257  -37.6506   23.6652 H   0  0  0  0  0  0
  -26.0915  -31.5582   20.6087 H   0  0  0  0  0  0
  -26.8396  -30.8424   22.0051 H   0  0  0  0  0  0
  -28.1111  -28.9817   21.2101 H   0  0  0  0  0  0
  -26.0019  -25.9641   18.9520 H   0  0  0  0  0  0
  -23.9786  -27.3292   18.9826 H   0  0  0  0  0  0
  -23.7513  -30.6024   19.4060 H   0  0  0  0  0  0
  -22.7544  -29.2528   19.8562 H   0  0  0  0  0  0
  -25.1291  -36.1934   25.0819 H   0  0  0  0  0  0
  -20.9977  -28.3268   24.1398 H   0  0  0  0  0  0
  -20.5680  -26.2295   23.3605 H   0  0  0  0  0  0
  -21.6651  -26.7446   22.1199 H   0  0  0  0  0  0
  -19.6917  -25.6292   21.1236 H   0  0  0  0  0  0
  -19.6689  -27.3188   20.6735 H   0  0  0  0  0  0
  -17.4203  -26.6661   21.4029 H   0  0  0  0  0  0
  -18.0343  -26.0075   22.9021 H   0  0  0  0  0  0
  -19.7945  -30.7271   24.2253 H   0  0  0  0  0  0
  -17.5023  -31.6266   24.5162 H   0  0  0  0  0  0
  -15.5358  -30.2982   23.7659 H   0  0  0  0  0  0
  -15.8676  -28.0821   22.7058 H   0  0  0  0  0  0
  -24.5887  -30.7111   25.7802 H   0  0  0  0  0  0
  -24.8968  -32.2913   26.4912 H   0  0  0  0  0  0
  -25.8068  -30.8893   27.0230 H   0  0  0  0  0  0
  -26.2894  -29.6755   24.1209 H   0  0  0  0  0  0
  -27.4020  -29.7252   25.4684 H   0  0  0  0  0  0
  -27.8768  -30.4273   23.9401 H   0  0  0  0  0  0
  -27.2681  -33.3613   26.2065 H   0  0  0  0  0  0
  -28.3877  -32.6860   25.0322 H   0  0  0  0  0  0
  -28.0718  -31.8434   26.5416 H   0  0  0  0  0  0
  -28.2602  -38.0095   24.7499 H   0  0  0  0  0  0
  -28.1067  -36.2627   24.6300 H   0  0  0  0  0  0
  -27.2297  -37.1473   25.8869 H   0  0  0  0  0  0
  -20.9352  -29.8769   21.6898 H   0  0  0  0  0  0
  -26.0168  -38.2848   24.1401 H   0  0  0  0  0  0
  -28.8045  -19.9085   17.6153 H   0  0  0  0  0  0
  -29.4356  -15.7404   18.2231 H   0  0  0  0  0  0
  -29.8588  -18.4664   21.5615 H   0  0  0  0  0  0
  -28.0324  -23.0559   18.9037 H   0  0  0  0  0  0
  -29.4768  -23.9474   18.5464 H   0  0  0  0  0  0
  -30.8843  -22.0498   19.3922 H   0  0  0  0  0  0
  -29.8483  -21.5771   18.0988 H   0  0  0  0  0  0
  -28.7846  -20.5297   22.0434 H   0  0  0  0  0  0
  -30.2990  -21.3647   21.8020 H   0  0  0  0  0  0
  -27.4897  -22.4742   21.3413 H   0  0  0  0  0  0
  -28.2827  -18.4081   15.8882 H   0  0  0  0  0  0
  -28.0997  -16.6968   16.2596 H   0  0  0  0  0  0
  -29.6769  -17.3314   15.7724 H   0  0  0  0  0  0
  -29.5283  -23.2128   23.4852 H   0  0  0  0  0  0
  -28.1238  -22.1868   23.6944 H   0  0  0  0  0  0
  -27.9039  -23.8787   23.3450 H   0  0  0  0  0  0
  -31.1367  -23.5701   21.1333 H   0  0  0  0  0  0
  -30.3855  -24.8701   22.0478 H   0  0  0  0  0  0
  -30.7779  -25.1066   20.3581 H   0  0  0  0  0  0
  -27.7830  -25.3278   21.7703 H   0  0  0  0  0  0
  -27.0484  -24.7363   20.3379 H   0  0  0  0  0  0
  -29.1137  -15.5131   21.4131 H   0  0  0  0  0  0
  1 25  1  0  0  0
  1 30  2  0  0  0
  1 87  1  0  0  0
  2  3  1  0  0  0
  2 25  1  0  0  0
  2 88  1  0  0  0
  2 89  1  0  0  0
  3  4  1  0  0  0
  3 90  1  0  0  0
  3 91  1  0  0  0
  4  5  1  0  0  0
  4 92  1  0  0  0
  4 93  1  0  0  0
  5  6  1  0  0  0
  5 26  1  0  0  0
  5 94  1  0  0  0
  6 25  1  0  0  0
  6 95  1  0  0  0
  6 96  1  0  0  0
  7  8  2  0  0  0
  7 26  1  0  0  0
  7 29  1  0  0  0
  8  9  1  0  0  0
  8 22  1  0  0  0
  9 10  1  0  0  0
  9 27  2  0  0  0
 10 11  2  0  0  0
 10 15  1  0  0  0
 11 12  1  0  0  0
 11 97  1  0  0  0
 12 13  2  0  0  0
 12 98  1  0  0  0
 13 14  1  0  0  0
 13 31  1  0  0  0
 14 15  2  0  0  0
 14 99  1  0  0  0
 15100  1  0  0  0
 16 17  2  0  0  0
 16 21  1  0  0  0
 16 31  1  0  0  0
 17 18  1  0  0  0
 17101  1  0  0  0
 18 19  2  0  0  0
 18102  1  0  0  0
 19 20  1  0  0  0
 19 24  1  0  0  0
 20 21  2  0  0  0
 20103  1  0  0  0
 21 23  1  0  0  0
 22 28  1  0  0  0
 22 32  2  0  0  0
 26 27  1  0  0  0
 28104  1  0  0  0
 28105  1  0  0  0
 29106  1  0  0  0
 29107  1  0  0  0
 33 34  1  0  0  0
 33 66  1  0  0  0
 33 70  2  0  0  0
 34 36  1  0  0  0
 34 59  1  0  0  0
 34108  1  0  0  0
 35 44  2  0  0  0
 35 45  1  0  0  0
 35 68  1  0  0  0
 36 56  1  0  0  0
 36109  1  0  0  0
 37 39  1  0  0  0
 37 47  1  0  0  0
 37 66  1  0  0  0
 37110  1  0  0  0
 38 43  2  0  0  0
 38 46  1  0  0  0
 38 47  1  0  0  0
 39 64  1  0  0  0
 39 67  2  0  0  0
 40 52  1  0  0  0
 40 53  2  0  0  0
 40 58  1  0  0  0
 41111  1  0  0  0
 41112  1  0  0  0
 41113  1  0  0  0
 41 48  1  0  0  0
 42 43  1  0  0  0
 42 66  1  0  0  0
 42114  1  0  0  0
 42115  1  0  0  0
 43 44  1  0  0  0
 44116  1  0  0  0
 45 46  2  0  0  0
 45117  1  0  0  0
 46118  1  0  0  0
 47119  1  0  0  0
 47120  1  0  0  0
 48 56  1  0  0  0
 48 65  1  0  0  0
 48121  1  0  0  0
 49 50  1  0  0  0
 49 53  1  0  0  0
 49 64  1  0  0  0
 49122  1  0  0  0
 50 51  1  0  0  0
 50123  1  0  0  0
 50124  1  0  0  0
 51 52  1  0  0  0
 51125  1  0  0  0
 51126  1  0  0  0
 52127  1  0  0  0
 52128  1  0  0  0
 53 54  1  0  0  0
 54 55  2  0  0  0
 54129  1  0  0  0
 55 57  1  0  0  0
 55130  1  0  0  0
 56 69  2  0  0  0
 57 58  2  0  0  0
 57131  1  0  0  0
 58132  1  0  0  0
 59 60  1  0  0  0
 59 61  1  0  0  0
 59 62  1  0  0  0
 60133  1  0  0  0
 60134  1  0  0  0
 60135  1  0  0  0
 61136  1  0  0  0
 61137  1  0  0  0
 61138  1  0  0  0
 62139  1  0  0  0
 62140  1  0  0  0
 62141  1  0  0  0
 63 65  1  0  0  0
 63142  1  0  0  0
 63143  1  0  0  0
 63144  1  0  0  0
 64145  1  0  0  0
 65146  1  0  0  0
 68 85  1  0  0  0
 71 74  2  0  0  0
 71 75  1  0  0  0
 71147  1  0  0  0
 72 74  1  0  0  0
 72 76  2  0  0  0
 72148  1  0  0  0
 73 75  2  0  0  0
 73 76  1  0  0  0
 73149  1  0  0  0
 74 82  1  0  0  0
 75 86  1  0  0  0
 76 87  1  0  0  0
 77 78  1  0  0  0
 77 81  1  0  0  0
 77150  1  0  0  0
 77151  1  0  0  0
 78 86  1  0  0  0
 78152  1  0  0  0
 78153  1  0  0  0
 79 80  1  0  0  0
 79 86  1  0  0  0
 79154  1  0  0  0
 79155  1  0  0  0
 80 81  1  0  0  0
 80 83  1  0  0  0
 80156  1  0  0  0
 81 84  1  0  0  0
 81 85  1  0  0  0
 82157  1  0  0  0
 82158  1  0  0  0
 82159  1  0  0  0
 83160  1  0  0  0
 83161  1  0  0  0
 83162  1  0  0  0
 84163  1  0  0  0
 84164  1  0  0  0
 84165  1  0  0  0
 85166  1  0  0  0
 85167  1  0  0  0
 87168  1  0  0  0
M  ISO  4   1 100  68 101  85 101  87 100
M  END
> <chiral flag>
0

> <version>
0

> <s_m_source_file>
/data/baiqing/PycharmProjects/Reinvent-master-3.2/result/LINK_invent/BTK/process_docking_weight1_custom_product_contain_oxygen_bond_distance_aromatic_linkinvent_7_9_3/rearranged_h_0141.sdf

> <i_m_source_file_index>
80

> <r_mmod_Potential_Energy-OPLS-2005>
190.464889526367

> <r_mmod_Stretch_Energy-OPLS-2005>
86.8246841430664

> <r_mmod_Bend_Energy-OPLS-2005>
159.582092285156

> <r_mmod_Torsional_Energy-OPLS-2005>
306.909973144531

> <r_mmod_Improper_Torsional_Energy-OPLS-2005>
7.89854001998901

> <r_mmod_Van_der_Waal_Energy-OPLS-2005>
151.548889160156

> <r_mmod_Electrostatic_Energy-OPLS-2005>
-355.023254394531

> <r_mmod_Solvation_Energy-OPLS-2005>
-216.355056762695

> <b_mmod_Minimization_Converged-OPLS-2005>
0

> <r_mmod_RMS_Derivative-OPLS-2005>
1.27166926860809

$$$$
80
                    3D
 Structure written by MMmdl.
172180  0  0  1  0            999 V2000
  -30.7334  -14.4976   20.5621 C   0  0  0  0  0  0
  -30.4091  -12.3219   19.4378 C   0  0  0  0  0  0
  -29.4922  -12.5001   18.2130 C   0  0  0  0  0  0
  -28.0168  -12.3586   18.6274 C   0  0  0  0  0  0
  -27.6558  -13.2177   19.8689 C   0  0  2  0  0  0
  -28.6981  -13.0497   21.0001 C   0  0  0  0  0  0
  -25.2553  -13.8192   20.5664 C   0  0  0  0  0  0
  -24.1824  -13.0437   20.9184 C   0  0  0  0  0  0
  -24.6404  -11.6915   20.8746 C   0  0  0  0  0  0
  -23.9078  -10.4298   21.0406 C   0  0  0  0  0  0
  -24.3621   -9.4208   21.9189 C   0  0  0  0  0  0
  -23.6290   -8.2249   22.0766 C   0  0  0  0  0  0
  -22.4276   -8.0289   21.3550 C   0  0  0  0  0  0
  -21.9916   -9.0260   20.4649 C   0  0  0  0  0  0
  -22.7251  -10.2136   20.3053 C   0  0  0  0  0  0
  -21.6850   -6.0729   22.5277 C   0  0  0  0  0  0
  -21.4020   -6.5636   23.8214 C   0  0  0  0  0  0
  -21.3655   -5.6791   24.9175 C   0  0  0  0  0  0
  -21.6046   -4.3054   24.7232 C   0  0  0  0  0  0
  -21.8814   -3.8141   23.4354 C   0  0  0  0  0  0
  -21.9198   -4.6956   22.3404 C   0  0  0  0  0  0
  -22.7852  -13.5236   21.1832 C   0  0  0  0  0  0
  -22.1663   -4.2139   21.0982 F   0  0  0  0  0  0
  -21.5624   -3.4539   25.7748 F   0  0  0  0  0  0
  -30.0246  -13.3398   20.4337 N   0  0  0  0  0  0
  -26.2992  -12.9373   20.3336 N   0  0  0  0  0  0
  -25.9333  -11.6526   20.5773 N   0  0  0  0  0  0
  -22.0489  -12.8231   22.0387 N   0  0  0  0  0  0
  -25.4265  -15.1902   20.4045 N   0  0  0  0  0  0
  -31.8591  -14.6163   20.0745 O   0  0  0  0  0  0
  -21.6643   -6.8875   21.4240 O   0  0  0  0  0  0
  -22.3554  -14.5543   20.6678 O   0  0  0  0  0  0
  -24.6189  -31.8668   23.2081 C   0  0  0  0  0  0
  -25.9075  -32.4811   23.8383 C   0  0  1  0  0  0
  -27.2354  -27.3974   20.0954 C   0  0  0  0  0  0
  -25.5917  -33.8610   24.2308 N   0  0  0  0  0  0
  -23.4100  -30.4879   21.5498 C   0  0  2  0  0  0
  -24.8578  -28.9487   20.1205 C   0  0  0  0  0  0
  -22.7442  -29.4636   22.4975 C   0  0  0  0  0  0
  -18.0259  -28.1385   22.8487 C   0  0  0  0  0  0
  -24.1476  -36.7304   23.2641 C   0  0  0  0  0  0
  -25.9440  -30.8191   21.3666 C   0  0  0  0  0  0
  -26.0238  -29.4501   20.7137 C   0  0  0  0  0  0
  -27.2201  -28.6859   20.6910 C   0  0  0  0  0  0
  -26.0474  -26.9185   19.5058 C   0  0  0  0  0  0
  -24.8653  -27.6804   19.5173 C   0  0  0  0  0  0
  -23.6237  -29.8227   20.1670 C   0  0  0  0  0  0
  -25.4105  -36.3113   24.0335 C   0  0  1  0  0  0
  -20.5856  -28.3676   23.1301 C   0  0  2  0  0  0
  -20.6762  -26.9415   22.5393 C   0  0  0  0  0  0
  -19.5743  -26.6398   21.5184 C   0  0  0  0  0  0
  -18.1914  -26.7929   22.1615 C   0  0  0  0  0  0
  -19.1514  -28.8842   23.2892 C   0  0  0  0  0  0
  -18.9451  -30.1433   23.8916 C   0  0  0  0  0  0
  -17.6467  -30.6597   24.0552 C   0  0  0  0  0  0
  -25.9051  -34.9482   23.5137 C   0  0  0  0  0  0
  -16.5351  -29.9102   23.6317 C   0  0  0  0  0  0
  -16.7249  -28.6509   23.0354 C   0  0  0  0  0  0
  -26.4493  -31.6603   25.0727 C   0  0  0  0  0  0
  -25.3737  -31.3680   26.1469 C   0  0  0  0  0  0
  -27.0342  -30.3039   24.6114 C   0  0  0  0  0  0
  -27.6076  -32.4320   25.7509 C   0  0  0  0  0  0
  -27.5578  -37.1806   24.8465 C   0  0  0  0  0  0
  -21.4163  -29.3050   22.3725 N   0  0  0  0  0  0
  -26.4295  -37.3794   23.9404 N   0  0  0  0  0  0
  -24.6766  -31.0729   22.0994 N   0  0  0  0  0  0
  -23.4193  -28.8164   23.3019 O   0  0  0  0  0  0
  -28.3907  -26.6316   20.0029 O   0  0  0  0  0  0
  -26.5628  -34.8960   22.4700 O   0  0  0  0  0  0
  -23.5371  -32.1444   23.7452 O   0  0  0  0  0  0
  -32.5787  -18.2034   22.1462 C   0  0  0  0  0  0
  -32.0062  -16.9616   21.8363 C   0  0  0  0  0  0
  -29.9252  -18.0735   21.2378 C   0  0  0  0  0  0
  -31.8434  -19.3963   22.0139 C   0  0  0  0  0  0
  -30.6737  -16.8645   21.3736 C   0  0  0  0  0  0
  -30.5048  -19.3462   21.5323 C   0  0  0  0  0  0
  -29.8555  -21.5588   20.5878 C   0  0  0  0  0  0
  -33.4710  -21.2458   21.3655 C   0  0  0  0  0  0
  -27.6734  -23.5959   19.4063 C   0  0  0  0  0  0
  -29.9799  -24.4128   18.9808 C   0  0  0  0  0  0
  -27.5193  -25.3307   21.9566 C   0  0  0  0  0  0
  -29.8955  -26.0211   21.6385 C   0  0  0  0  0  0
  -32.5319  -20.6888   22.4431 C   0  0  0  0  0  0
  -29.4893  -22.9946   21.0814 C   0  0  0  0  0  0
  -28.9477  -24.1287   20.1049 C   0  0  0  0  0  0
  -28.6429  -25.5026   20.8964 C   0  0  0  0  0  0
  -29.7296  -20.5535   21.4862 N   0  0  0  0  0  0
  -30.0966  -15.5673   21.1047 N   0  0  0  0  0  0
  -30.2515  -21.3545   19.4387 O   0  0  0  0  0  0
  -31.4566  -12.3913   19.1382 H   0  0  0  0  0  0
  -30.2918  -11.3233   19.8610 H   0  0  0  0  0  0
  -29.7355  -11.7618   17.4477 H   0  0  0  0  0  0
  -29.6588  -13.4793   17.7596 H   0  0  0  0  0  0
  -27.8343  -11.3044   18.8426 H   0  0  0  0  0  0
  -27.3638  -12.6108   17.7908 H   0  0  0  0  0  0
  -27.6875  -14.2577   19.5448 H   0  0  0  0  0  0
  -28.6772  -12.0318   21.3907 H   0  0  0  0  0  0
  -28.4590  -13.6959   21.8454 H   0  0  0  0  0  0
  -25.2755   -9.5675   22.4772 H   0  0  0  0  0  0
  -23.9981   -7.4644   22.7496 H   0  0  0  0  0  0
  -21.0849   -8.8790   19.8954 H   0  0  0  0  0  0
  -22.3719  -10.9675   19.6165 H   0  0  0  0  0  0
  -21.2018   -7.6146   23.9712 H   0  0  0  0  0  0
  -21.1478   -6.0524   25.9077 H   0  0  0  0  0  0
  -22.0600   -2.7604   23.2866 H   0  0  0  0  0  0
  -22.4107  -11.9882   22.4755 H   0  0  0  0  0  0
  -21.1104  -13.1258   22.2586 H   0  0  0  0  0  0
  -24.6543  -15.8414   20.4958 H   0  0  0  0  0  0
  -26.2733  -15.6252   20.0602 H   0  0  0  0  0  0
  -26.7149  -32.5515   23.1152 H   0  0  0  0  0  0
  -25.0001  -33.9741   25.0416 H   0  0  0  0  0  0
  -22.7004  -31.3056   21.4106 H   0  0  0  0  0  0
  -23.3757  -35.9626   23.3303 H   0  0  0  0  0  0
  -24.3547  -36.8923   22.2054 H   0  0  0  0  0  0
  -23.7227  -37.6498   23.6679 H   0  0  0  0  0  0
  -26.0613  -31.5867   20.5993 H   0  0  0  0  0  0
  -26.8290  -30.8723   21.9879 H   0  0  0  0  0  0
  -28.1292  -29.0763   21.1276 H   0  0  0  0  0  0
  -26.0271  -25.9495   19.0355 H   0  0  0  0  0  0
  -23.9686  -27.2834   19.0623 H   0  0  0  0  0  0
  -23.7441  -30.6026   19.4143 H   0  0  0  0  0  0
  -22.7450  -29.2510   19.8634 H   0  0  0  0  0  0
  -25.1264  -36.2003   25.0822 H   0  0  0  0  0  0
  -20.9901  -28.3281   24.1442 H   0  0  0  0  0  0
  -20.5638  -26.2291   23.3588 H   0  0  0  0  0  0
  -21.6633  -26.7455   22.1183 H   0  0  0  0  0  0
  -19.6904  -25.6302   21.1224 H   0  0  0  0  0  0
  -19.6700  -27.3209   20.6727 H   0  0  0  0  0  0
  -17.4162  -26.6644   21.4036 H   0  0  0  0  0  0
  -18.0325  -26.0083   22.9020 H   0  0  0  0  0  0
  -19.7933  -30.7201   24.2352 H   0  0  0  0  0  0
  -17.5047  -31.6285   24.5143 H   0  0  0  0  0  0
  -15.5355  -30.3025   23.7664 H   0  0  0  0  0  0
  -15.8630  -28.0845   22.7097 H   0  0  0  0  0  0
  -24.5963  -30.6985   25.7768 H   0  0  0  0  0  0
  -24.8877  -32.2808   26.4923 H   0  0  0  0  0  0
  -25.8090  -30.8850   27.0228 H   0  0  0  0  0  0
  -26.2896  -29.6777   24.1197 H   0  0  0  0  0  0
  -27.4120  -29.7309   25.4592 H   0  0  0  0  0  0
  -27.8723  -30.4307   23.9261 H   0  0  0  0  0  0
  -27.2719  -33.3637   26.2068 H   0  0  0  0  0  0
  -28.3921  -32.6836   25.0356 H   0  0  0  0  0  0
  -28.0714  -31.8450   26.5445 H   0  0  0  0  0  0
  -28.2585  -38.0114   24.7548 H   0  0  0  0  0  0
  -28.1090  -36.2656   24.6258 H   0  0  0  0  0  0
  -27.2295  -37.1395   25.8867 H   0  0  0  0  0  0
  -20.9356  -29.8805   21.6950 H   0  0  0  0  0  0
  -26.0197  -38.2865   24.1453 H   0  0  0  0  0  0
  -33.5959  -18.2365   22.5115 H   0  0  0  0  0  0
  -32.6135  -16.0786   21.9805 H   0  0  0  0  0  0
  -28.8955  -18.0257   20.9103 H   0  0  0  0  0  0
  -33.9776  -22.1425   21.7220 H   0  0  0  0  0  0
  -32.9263  -21.5117   20.4597 H   0  0  0  0  0  0
  -34.2365  -20.5173   21.0967 H   0  0  0  0  0  0
  -27.8679  -22.6665   18.8721 H   0  0  0  0  0  0
  -27.2998  -24.2988   18.6649 H   0  0  0  0  0  0
  -26.8717  -23.3749   20.1103 H   0  0  0  0  0  0
  -30.0499  -23.5881   18.2715 H   0  0  0  0  0  0
  -30.9810  -24.5847   19.3753 H   0  0  0  0  0  0
  -29.7062  -25.2849   18.3863 H   0  0  0  0  0  0
  -27.7490  -24.5590   22.6896 H   0  0  0  0  0  0
  -26.5619  -25.0698   21.5107 H   0  0  0  0  0  0
  -27.3678  -26.2457   22.5298 H   0  0  0  0  0  0
  -30.2243  -25.3523   22.4328 H   0  0  0  0  0  0
  -29.6980  -26.9831   22.1124 H   0  0  0  0  0  0
  -30.7356  -26.1795   20.9640 H   0  0  0  0  0  0
  -33.1110  -20.4864   23.3451 H   0  0  0  0  0  0
  -31.8086  -21.4456   22.7418 H   0  0  0  0  0  0
  -30.4119  -23.3503   21.5397 H   0  0  0  0  0  0
  -28.7930  -22.8608   21.9073 H   0  0  0  0  0  0
  -29.2909  -20.8124   22.3590 H   0  0  0  0  0  0
  -29.1188  -15.4419   21.3191 H   0  0  0  0  0  0
  1 25  1  0  0  0
  1 30  2  0  0  0
  1 88  1  0  0  0
  2  3  1  0  0  0
  2 25  1  0  0  0
  2 90  1  0  0  0
  2 91  1  0  0  0
  3  4  1  0  0  0
  3 92  1  0  0  0
  3 93  1  0  0  0
  4  5  1  0  0  0
  4 94  1  0  0  0
  4 95  1  0  0  0
  5  6  1  0  0  0
  5 26  1  0  0  0
  5 96  1  0  0  0
  6 25  1  0  0  0
  6 97  1  0  0  0
  6 98  1  0  0  0
  7  8  2  0  0  0
  7 26  1  0  0  0
  7 29  1  0  0  0
  8  9  1  0  0  0
  8 22  1  0  0  0
  9 10  1  0  0  0
  9 27  2  0  0  0
 10 11  2  0  0  0
 10 15  1  0  0  0
 11 12  1  0  0  0
 11 99  1  0  0  0
 12 13  2  0  0  0
 12100  1  0  0  0
 13 14  1  0  0  0
 13 31  1  0  0  0
 14 15  2  0  0  0
 14101  1  0  0  0
 15102  1  0  0  0
 16 17  2  0  0  0
 16 21  1  0  0  0
 16 31  1  0  0  0
 17 18  1  0  0  0
 17103  1  0  0  0
 18 19  2  0  0  0
 18104  1  0  0  0
 19 20  1  0  0  0
 19 24  1  0  0  0
 20 21  2  0  0  0
 20105  1  0  0  0
 21 23  1  0  0  0
 22 28  1  0  0  0
 22 32  2  0  0  0
 26 27  1  0  0  0
 28106  1  0  0  0
 28107  1  0  0  0
 29108  1  0  0  0
 29109  1  0  0  0
 33 34  1  0  0  0
 33 66  1  0  0  0
 33 70  2  0  0  0
 34 36  1  0  0  0
 34 59  1  0  0  0
 34110  1  0  0  0
 35 44  2  0  0  0
 35 45  1  0  0  0
 35 68  1  0  0  0
 36 56  1  0  0  0
 36111  1  0  0  0
 37 39  1  0  0  0
 37 47  1  0  0  0
 37 66  1  0  0  0
 37112  1  0  0  0
 38 43  2  0  0  0
 38 46  1  0  0  0
 38 47  1  0  0  0
 39 64  1  0  0  0
 39 67  2  0  0  0
 40 52  1  0  0  0
 40 53  2  0  0  0
 40 58  1  0  0  0
 41113  1  0  0  0
 41114  1  0  0  0
 41115  1  0  0  0
 41 48  1  0  0  0
 42 43  1  0  0  0
 42 66  1  0  0  0
 42116  1  0  0  0
 42117  1  0  0  0
 43 44  1  0  0  0
 44118  1  0  0  0
 45 46  2  0  0  0
 45119  1  0  0  0
 46120  1  0  0  0
 47121  1  0  0  0
 47122  1  0  0  0
 48 56  1  0  0  0
 48 65  1  0  0  0
 48123  1  0  0  0
 49 50  1  0  0  0
 49 53  1  0  0  0
 49 64  1  0  0  0
 49124  1  0  0  0
 50 51  1  0  0  0
 50125  1  0  0  0
 50126  1  0  0  0
 51 52  1  0  0  0
 51127  1  0  0  0
 51128  1  0  0  0
 52129  1  0  0  0
 52130  1  0  0  0
 53 54  1  0  0  0
 54 55  2  0  0  0
 54131  1  0  0  0
 55 57  1  0  0  0
 55132  1  0  0  0
 56 69  2  0  0  0
 57 58  2  0  0  0
 57133  1  0  0  0
 58134  1  0  0  0
 59 60  1  0  0  0
 59 61  1  0  0  0
 59 62  1  0  0  0
 60135  1  0  0  0
 60136  1  0  0  0
 60137  1  0  0  0
 61138  1  0  0  0
 61139  1  0  0  0
 61140  1  0  0  0
 62141  1  0  0  0
 62142  1  0  0  0
 62143  1  0  0  0
 63 65  1  0  0  0
 63144  1  0  0  0
 63145  1  0  0  0
 63146  1  0  0  0
 64147  1  0  0  0
 65148  1  0  0  0
 68 86  1  0  0  0
 71 72  2  0  0  0
 71 74  1  0  0  0
 71149  1  0  0  0
 72 75  1  0  0  0
 72150  1  0  0  0
 73 75  2  0  0  0
 73 76  1  0  0  0
 73151  1  0  0  0
 74 76  2  0  0  0
 74 83  1  0  0  0
 75 88  1  0  0  0
 76 87  1  0  0  0
 77 84  1  0  0  0
 77 87  1  0  0  0
 77 89  2  0  0  0
 78 83  1  0  0  0
 78152  1  0  0  0
 78153  1  0  0  0
 78154  1  0  0  0
 79155  1  0  0  0
 79156  1  0  0  0
 79157  1  0  0  0
 79 85  1  0  0  0
 80 85  1  0  0  0
 80158  1  0  0  0
 80159  1  0  0  0
 80160  1  0  0  0
 81161  1  0  0  0
 81162  1  0  0  0
 81163  1  0  0  0
 81 86  1  0  0  0
 82 86  1  0  0  0
 82164  1  0  0  0
 82165  1  0  0  0
 82166  1  0  0  0
 83167  1  0  0  0
 83168  1  0  0  0
 84 85  1  0  0  0
 84169  1  0  0  0
 84170  1  0  0  0
 85 86  1  0  0  0
 87171  1  0  0  0
 88172  1  0  0  0
M  ISO  4   1 100  68 101  86 101  88 100
M  END
> <chiral flag>
0

> <version>
0

> <s_m_source_file>
/data/baiqing/PycharmProjects/Reinvent-master-3.2/result/LINK_invent/BTK/process_docking_weight1_custom_product_contain_oxygen_bond_distance_aromatic_linkinvent_7_9_3/rearranged_h_0141.sdf

> <i_m_source_file_index>
81

> <r_mmod_Potential_Energy-OPLS-2005>
13.072696685791

> <r_mmod_Stretch_Energy-OPLS-2005>
63.4953269958496

> <r_mmod_Bend_Energy-OPLS-2005>
134.736770629883

> <r_mmod_Torsional_Energy-OPLS-2005>
287.991760253906

> <r_mmod_Improper_Torsional_Energy-OPLS-2005>
5.2359790802002

> <r_mmod_Van_der_Waal_Energy-OPLS-2005>
160.341567993164

> <r_mmod_Electrostatic_Energy-OPLS-2005>
-434.603820800781

> <r_mmod_Solvation_Energy-OPLS-2005>
-221.996032714844

> <b_mmod_Minimization_Converged-OPLS-2005>
0

> <r_mmod_RMS_Derivative-OPLS-2005>
3.09185338020325

$$$$
81
                    3D
 Structure written by MMmdl.
155163  0  0  1  0            999 V2000
  -30.4629  -15.0486   20.4255 C   0  0  0  0  0  0
  -30.4423  -12.6477   19.5322 C   0  0  0  0  0  0
  -29.5298  -12.5328   18.2804 C   0  0  0  0  0  0
  -28.0590  -12.3200   18.6783 C   0  0  0  0  0  0
  -27.6211  -13.2551   19.8314 C   0  0  2  0  0  0
  -28.6546  -13.3015   20.9783 C   0  0  0  0  0  0
  -25.2415  -13.8258   20.5746 C   0  0  0  0  0  0
  -24.1789  -13.0460   20.9264 C   0  0  0  0  0  0
  -24.6401  -11.6931   20.8745 C   0  0  0  0  0  0
  -23.9100  -10.4317   21.0419 C   0  0  0  0  0  0
  -24.3660   -9.4218   21.9202 C   0  0  0  0  0  0
  -23.6289   -8.2269   22.0791 C   0  0  0  0  0  0
  -22.4260   -8.0361   21.3603 C   0  0  0  0  0  0
  -21.9892   -9.0335   20.4709 C   0  0  0  0  0  0
  -22.7245  -10.2176   20.3085 C   0  0  0  0  0  0
  -21.6856   -6.0772   22.5300 C   0  0  0  0  0  0
  -21.4018   -6.5661   23.8247 C   0  0  0  0  0  0
  -21.3628   -5.6801   24.9199 C   0  0  0  0  0  0
  -21.6005   -4.3059   24.7220 C   0  0  0  0  0  0
  -21.8793   -3.8162   23.4337 C   0  0  0  0  0  0
  -21.9183   -4.6986   22.3396 C   0  0  0  0  0  0
  -22.7788  -13.5187   21.1966 C   0  0  0  0  0  0
  -22.1676   -4.2182   21.0975 F   0  0  0  0  0  0
  -21.5600   -3.4532   25.7718 F   0  0  0  0  0  0
  -29.9280  -13.7534   20.4035 N   0  0  0  0  0  0
  -26.2810  -12.9478   20.3147 N   0  0  0  0  0  0
  -25.9304  -11.6601   20.5642 N   0  0  0  0  0  0
  -22.0504  -12.8187   22.0533 N   0  0  0  0  0  0
  -25.3972  -15.2022   20.4266 N   0  0  0  0  0  0
  -31.6519  -15.1430   20.0846 O   0  0  0  0  0  0
  -21.6660   -6.8929   21.4274 O   0  0  0  0  0  0
  -22.3471  -14.5463   20.6767 O   0  0  0  0  0  0
  -24.6465  -31.8430   23.1813 C   0  0  0  0  0  0
  -25.9212  -32.4698   23.8256 C   0  0  1  0  0  0
  -27.1982  -27.0550   20.1936 C   0  0  0  0  0  0
  -25.5929  -33.8497   24.2138 N   0  0  0  0  0  0
  -23.4537  -30.4584   21.5299 C   0  0  2  0  0  0
  -24.9058  -28.8731   20.1133 C   0  0  0  0  0  0
  -22.7599  -29.4519   22.4822 C   0  0  0  0  0  0
  -18.0319  -28.1382   22.8492 C   0  0  0  0  0  0
  -24.1482  -36.7275   23.2648 C   0  0  0  0  0  0
  -26.0144  -30.6903   21.3917 C   0  0  0  0  0  0
  -26.0854  -29.2916   20.7429 C   0  0  0  0  0  0
  -27.2346  -28.4027   20.7597 C   0  0  0  0  0  0
  -26.0020  -26.7602   19.5040 C   0  0  0  0  0  0
  -24.8817  -27.6250   19.4735 C   0  0  0  0  0  0
  -23.6857  -29.7879   20.1506 C   0  0  0  0  0  0
  -25.4116  -36.3029   24.0304 C   0  0  1  0  0  0
  -20.5933  -28.3700   23.1223 C   0  0  2  0  0  0
  -20.6775  -26.9384   22.5409 C   0  0  0  0  0  0
  -19.5747  -26.6352   21.5225 C   0  0  0  0  0  0
  -18.1939  -26.7928   22.1648 C   0  0  0  0  0  0
  -19.1576  -28.8864   23.2858 C   0  0  0  0  0  0
  -18.9508  -30.1463   23.8877 C   0  0  0  0  0  0
  -17.6504  -30.6576   24.0563 C   0  0  0  0  0  0
  -25.9078  -34.9416   23.5039 C   0  0  0  0  0  0
  -16.5384  -29.9067   23.6334 C   0  0  0  0  0  0
  -16.7306  -28.6480   23.0359 C   0  0  0  0  0  0
  -26.4493  -31.6612   25.0738 C   0  0  0  0  0  0
  -25.3628  -31.3894   26.1403 C   0  0  0  0  0  0
  -27.0340  -30.2997   24.6361 C   0  0  0  0  0  0
  -27.6014  -32.4377   25.7528 C   0  0  0  0  0  0
  -27.5573  -37.1765   24.8435 C   0  0  0  0  0  0
  -21.4285  -29.3023   22.3571 N   0  0  0  0  0  0
  -26.4256  -37.3757   23.9430 N   0  0  0  0  0  0
  -24.7256  -31.0191   22.0897 N   0  0  0  0  0  0
  -23.4225  -28.8075   23.2995 O   0  0  0  0  0  0
  -28.2120  -26.0079   20.2417 O   0  0  0  0  0  0
  -26.5687  -34.8923   22.4628 O   0  0  0  0  0  0
  -23.5559  -32.1326   23.6988 O   0  0  0  0  0  0
  -29.6698  -18.8184   21.1824 C   0  0  0  0  0  0
  -29.0226  -20.0465   20.5846 C   0  0  0  0  0  0
  -28.4644  -19.4136   19.4845 C   0  0  0  0  0  0
  -29.5490  -17.6187   20.4157 C   0  0  0  0  0  0
  -28.6244  -23.0744   20.2234 C   0  0  0  0  0  0
  -27.4760  -19.9085   18.4839 C   0  0  0  0  0  0
  -30.0265  -21.9573   22.0429 C   0  0  0  0  0  0
  -27.5703  -21.5788   22.0923 C   0  0  0  0  0  0
  -27.8779  -24.5187   20.7118 C   0  0  0  0  0  0
  -28.8002  -21.6490   21.1415 C   0  0  0  0  0  0
  -29.6539  -16.1944   20.7519 N   0  0  0  0  0  0
  -29.0947  -23.0538   19.0800 O   0  0  0  0  0  0
  -28.7783  -18.0457   19.3652 O   0  0  0  0  0  0
  -31.4716  -12.8149   19.2209 H   0  0  0  0  0  0
  -30.4744  -11.7094   20.0882 H   0  0  0  0  0  0
  -29.8530  -11.6971   17.6605 H   0  0  0  0  0  0
  -29.6153  -13.4302   17.6666 H   0  0  0  0  0  0
  -27.9535  -11.2783   18.9841 H   0  0  0  0  0  0
  -27.4081  -12.4526   17.8161 H   0  0  0  0  0  0
  -27.5709  -14.2485   19.3845 H   0  0  0  0  0  0
  -28.7680  -12.3245   21.4514 H   0  0  0  0  0  0
  -28.3283  -13.9910   21.7572 H   0  0  0  0  0  0
  -25.2845   -9.5611   22.4741 H   0  0  0  0  0  0
  -24.0008   -7.4585   22.7390 H   0  0  0  0  0  0
  -21.0864   -8.8816   19.8979 H   0  0  0  0  0  0
  -22.3747  -10.9725   19.6167 H   0  0  0  0  0  0
  -21.2094   -7.6184   23.9758 H   0  0  0  0  0  0
  -21.1448   -6.0575   25.9103 H   0  0  0  0  0  0
  -22.0597   -2.7636   23.2861 H   0  0  0  0  0  0
  -22.4183  -11.9866   22.4869 H   0  0  0  0  0  0
  -21.1102  -13.1175   22.2783 H   0  0  0  0  0  0
  -24.6171  -15.8321   20.5883 H   0  0  0  0  0  0
  -26.1933  -15.6610   20.0037 H   0  0  0  0  0  0
  -26.7270  -32.5279   23.0982 H   0  0  0  0  0  0
  -24.9967  -33.9614   25.0206 H   0  0  0  0  0  0
  -22.7597  -31.2874   21.3760 H   0  0  0  0  0  0
  -23.3749  -35.9590   23.3229 H   0  0  0  0  0  0
  -24.3583  -36.9009   22.2080 H   0  0  0  0  0  0
  -23.7209  -37.6436   23.6743 H   0  0  0  0  0  0
  -26.1669  -31.4374   20.6119 H   0  0  0  0  0  0
  -26.8840  -30.7527   22.0329 H   0  0  0  0  0  0
  -28.1335  -28.7161   21.2708 H   0  0  0  0  0  0
  -25.9103  -25.8102   18.9958 H   0  0  0  0  0  0
  -23.9847  -27.3052   18.9619 H   0  0  0  0  0  0
  -23.8320  -30.5667   19.4005 H   0  0  0  0  0  0
  -22.7948  -29.2439   19.8316 H   0  0  0  0  0  0
  -25.1290  -36.1848   25.0787 H   0  0  0  0  0  0
  -21.0056  -28.3290   24.1341 H   0  0  0  0  0  0
  -20.5619  -26.2331   23.3652 H   0  0  0  0  0  0
  -21.6649  -26.7344   22.1253 H   0  0  0  0  0  0
  -19.6894  -25.6259   21.1267 H   0  0  0  0  0  0
  -19.6678  -27.3150   20.6748 H   0  0  0  0  0  0
  -17.4202  -26.6688   21.4048 H   0  0  0  0  0  0
  -18.0331  -26.0066   22.9046 H   0  0  0  0  0  0
  -19.7980  -30.7285   24.2238 H   0  0  0  0  0  0
  -17.5043  -31.6252   24.5172 H   0  0  0  0  0  0
  -15.5373  -30.2953   23.7665 H   0  0  0  0  0  0
  -15.8731  -28.0781   22.7089 H   0  0  0  0  0  0
  -24.5732  -30.7345   25.7708 H   0  0  0  0  0  0
  -24.8903  -32.3130   26.4762 H   0  0  0  0  0  0
  -25.7815  -30.9069   27.0238 H   0  0  0  0  0  0
  -26.2969  -29.6745   24.1300 H   0  0  0  0  0  0
  -27.3863  -29.7296   25.4971 H   0  0  0  0  0  0
  -27.8917  -30.4246   23.9744 H   0  0  0  0  0  0
  -27.2585  -33.3653   26.2127 H   0  0  0  0  0  0
  -28.3811  -32.6994   25.0361 H   0  0  0  0  0  0
  -28.0695  -31.8506   26.5440 H   0  0  0  0  0  0
  -28.2531  -38.0126   24.7554 H   0  0  0  0  0  0
  -28.1124  -36.2656   24.6125 H   0  0  0  0  0  0
  -27.2320  -37.1251   25.8845 H   0  0  0  0  0  0
  -20.9478  -29.8735   21.6771 H   0  0  0  0  0  0
  -26.0115  -38.2804   24.1507 H   0  0  0  0  0  0
  -30.1322  -18.8239   22.1598 H   0  0  0  0  0  0
  -26.5708  -20.2517   18.9881 H   0  0  0  0  0  0
  -27.1882  -19.1286   17.7739 H   0  0  0  0  0  0
  -27.8831  -20.7426   17.9147 H   0  0  0  0  0  0
  -30.9665  -21.7971   21.5126 H   0  0  0  0  0  0
  -30.0610  -21.3271   22.9329 H   0  0  0  0  0  0
  -30.0297  -22.9896   22.4059 H   0  0  0  0  0  0
  -26.6447  -21.3951   21.5449 H   0  0  0  0  0  0
  -27.4222  -22.4876   22.6831 H   0  0  0  0  0  0
  -27.6904  -20.7688   22.8179 H   0  0  0  0  0  0
  -27.9264  -24.5333   21.8012 H   0  0  0  0  0  0
  -26.8248  -24.3562   20.4843 H   0  0  0  0  0  0
  -28.7743  -15.8620   21.1168 H   0  0  0  0  0  0
  1 25  1  0  0  0
  1 30  2  0  0  0
  1 81  1  0  0  0
  2  3  1  0  0  0
  2 25  1  0  0  0
  2 84  1  0  0  0
  2 85  1  0  0  0
  3  4  1  0  0  0
  3 86  1  0  0  0
  3 87  1  0  0  0
  4  5  1  0  0  0
  4 88  1  0  0  0
  4 89  1  0  0  0
  5  6  1  0  0  0
  5 26  1  0  0  0
  5 90  1  0  0  0
  6 25  1  0  0  0
  6 91  1  0  0  0
  6 92  1  0  0  0
  7  8  2  0  0  0
  7 26  1  0  0  0
  7 29  1  0  0  0
  8  9  1  0  0  0
  8 22  1  0  0  0
  9 10  1  0  0  0
  9 27  2  0  0  0
 10 11  2  0  0  0
 10 15  1  0  0  0
 11 12  1  0  0  0
 11 93  1  0  0  0
 12 13  2  0  0  0
 12 94  1  0  0  0
 13 14  1  0  0  0
 13 31  1  0  0  0
 14 15  2  0  0  0
 14 95  1  0  0  0
 15 96  1  0  0  0
 16 17  2  0  0  0
 16 21  1  0  0  0
 16 31  1  0  0  0
 17 18  1  0  0  0
 17 97  1  0  0  0
 18 19  2  0  0  0
 18 98  1  0  0  0
 19 20  1  0  0  0
 19 24  1  0  0  0
 20 21  2  0  0  0
 20 99  1  0  0  0
 21 23  1  0  0  0
 22 28  1  0  0  0
 22 32  2  0  0  0
 26 27  1  0  0  0
 28100  1  0  0  0
 28101  1  0  0  0
 29102  1  0  0  0
 29103  1  0  0  0
 33 34  1  0  0  0
 33 66  1  0  0  0
 33 70  2  0  0  0
 34 36  1  0  0  0
 34 59  1  0  0  0
 34104  1  0  0  0
 35 44  2  0  0  0
 35 45  1  0  0  0
 35 68  1  0  0  0
 36 56  1  0  0  0
 36105  1  0  0  0
 37 39  1  0  0  0
 37 47  1  0  0  0
 37 66  1  0  0  0
 37106  1  0  0  0
 38 43  2  0  0  0
 38 46  1  0  0  0
 38 47  1  0  0  0
 39 64  1  0  0  0
 39 67  2  0  0  0
 40 52  1  0  0  0
 40 53  2  0  0  0
 40 58  1  0  0  0
 41107  1  0  0  0
 41108  1  0  0  0
 41109  1  0  0  0
 41 48  1  0  0  0
 42 43  1  0  0  0
 42 66  1  0  0  0
 42110  1  0  0  0
 42111  1  0  0  0
 43 44  1  0  0  0
 44112  1  0  0  0
 45 46  2  0  0  0
 45113  1  0  0  0
 46114  1  0  0  0
 47115  1  0  0  0
 47116  1  0  0  0
 48 56  1  0  0  0
 48 65  1  0  0  0
 48117  1  0  0  0
 49 50  1  0  0  0
 49 53  1  0  0  0
 49 64  1  0  0  0
 49118  1  0  0  0
 50 51  1  0  0  0
 50119  1  0  0  0
 50120  1  0  0  0
 51 52  1  0  0  0
 51121  1  0  0  0
 51122  1  0  0  0
 52123  1  0  0  0
 52124  1  0  0  0
 53 54  1  0  0  0
 54 55  2  0  0  0
 54125  1  0  0  0
 55 57  1  0  0  0
 55126  1  0  0  0
 56 69  2  0  0  0
 57 58  2  0  0  0
 57127  1  0  0  0
 58128  1  0  0  0
 59 60  1  0  0  0
 59 61  1  0  0  0
 59 62  1  0  0  0
 60129  1  0  0  0
 60130  1  0  0  0
 60131  1  0  0  0
 61132  1  0  0  0
 61133  1  0  0  0
 61134  1  0  0  0
 62135  1  0  0  0
 62136  1  0  0  0
 62137  1  0  0  0
 63 65  1  0  0  0
 63138  1  0  0  0
 63139  1  0  0  0
 63140  1  0  0  0
 64141  1  0  0  0
 65142  1  0  0  0
 68 79  1  0  0  0
 71 72  1  0  0  0
 71 74  2  0  0  0
 71143  1  0  0  0
 72 73  2  0  0  0
 72 80  1  0  0  0
 73 76  1  0  0  0
 73 83  1  0  0  0
 74 81  1  0  0  0
 74 83  1  0  0  0
 75 79  1  0  0  0
 75 80  1  0  0  0
 75 82  2  0  0  0
 76144  1  0  0  0
 76145  1  0  0  0
 76146  1  0  0  0
 77147  1  0  0  0
 77148  1  0  0  0
 77149  1  0  0  0
 77 80  1  0  0  0
 78 80  1  0  0  0
 78150  1  0  0  0
 78151  1  0  0  0
 78152  1  0  0  0
 79153  1  0  0  0
 79154  1  0  0  0
 81155  1  0  0  0
M  ISO  4   1 100  68 101  79 101  81 100
M  END
> <chiral flag>
0

> <version>
0

> <s_m_source_file>
/data/baiqing/PycharmProjects/Reinvent-master-3.2/result/LINK_invent/BTK/process_docking_weight1_custom_product_contain_oxygen_bond_distance_aromatic_linkinvent_7_9_3/rearranged_h_0141.sdf

> <i_m_source_file_index>
82

> <r_mmod_Potential_Energy-OPLS-2005>
754.648315429688

> <r_mmod_Stretch_Energy-OPLS-2005>
341.662750244141

> <r_mmod_Bend_Energy-OPLS-2005>
318.764617919922

> <r_mmod_Torsional_Energy-OPLS-2005>
281.639007568359

> <r_mmod_Improper_Torsional_Energy-OPLS-2005>
8.93414974212646

> <r_mmod_Van_der_Waal_Energy-OPLS-2005>
100.927658081055

> <r_mmod_Electrostatic_Energy-OPLS-2005>
-346.288604736328

> <r_mmod_Solvation_Energy-OPLS-2005>
-226.262741088867

> <b_mmod_Minimization_Converged-OPLS-2005>
0

> <r_mmod_RMS_Derivative-OPLS-2005>
7.35984039306641

$$$$
82
                    3D
 Structure written by MMmdl.
156164  0  0  1  0            999 V2000
  -30.6990  -14.4672   20.5775 C   0  0  0  0  0  0
  -30.4279  -12.3047   19.4189 C   0  0  0  0  0  0
  -29.4970  -12.5072   18.2053 C   0  0  0  0  0  0
  -28.0185  -12.3666   18.6188 C   0  0  0  0  0  0
  -27.6663  -13.2028   19.8775 C   0  0  2  0  0  0
  -28.7083  -12.9731   20.9960 C   0  0  0  0  0  0
  -25.2620  -13.8148   20.5692 C   0  0  0  0  0  0
  -24.1856  -13.0434   20.9168 C   0  0  0  0  0  0
  -24.6399  -11.6897   20.8725 C   0  0  0  0  0  0
  -23.9057  -10.4288   21.0393 C   0  0  0  0  0  0
  -24.3604   -9.4207   21.9176 C   0  0  0  0  0  0
  -23.6283   -8.2242   22.0752 C   0  0  0  0  0  0
  -22.4269   -8.0279   21.3541 C   0  0  0  0  0  0
  -21.9899   -9.0254   20.4650 C   0  0  0  0  0  0
  -22.7225  -10.2131   20.3054 C   0  0  0  0  0  0
  -21.6850   -6.0734   22.5277 C   0  0  0  0  0  0
  -21.4014   -6.5635   23.8213 C   0  0  0  0  0  0
  -21.3662   -5.6788   24.9174 C   0  0  0  0  0  0
  -21.6043   -4.3050   24.7222 C   0  0  0  0  0  0
  -21.8819   -3.8144   23.4342 C   0  0  0  0  0  0
  -21.9196   -4.6962   22.3401 C   0  0  0  0  0  0
  -22.7879  -13.5245   21.1830 C   0  0  0  0  0  0
  -22.1661   -4.2149   21.0977 F   0  0  0  0  0  0
  -21.5629   -3.4536   25.7732 F   0  0  0  0  0  0
  -30.0421  -13.2815   20.4495 N   0  0  0  0  0  0
  -26.3054  -12.9308   20.3379 N   0  0  0  0  0  0
  -25.9327  -11.6469   20.5766 N   0  0  0  0  0  0
  -22.0515  -12.8247   22.0389 N   0  0  0  0  0  0
  -25.4370  -15.1866   20.4125 N   0  0  0  0  0  0
  -31.8051  -14.6814   20.0715 O   0  0  0  0  0  0
  -21.6633   -6.8876   21.4240 O   0  0  0  0  0  0
  -22.3569  -14.5564   20.6697 O   0  0  0  0  0  0
  -24.6170  -31.8670   23.2106 C   0  0  0  0  0  0
  -25.9061  -32.4815   23.8398 C   0  0  1  0  0  0
  -27.2297  -27.4139   20.0954 C   0  0  0  0  0  0
  -25.5910  -33.8614   24.2322 N   0  0  0  0  0  0
  -23.4047  -30.4926   21.5514 C   0  0  2  0  0  0
  -24.8493  -28.9608   20.1121 C   0  0  0  0  0  0
  -22.7422  -29.4659   22.4984 C   0  0  0  0  0  0
  -18.0272  -28.1388   22.8485 C   0  0  0  0  0  0
  -24.1482  -36.7314   23.2635 C   0  0  0  0  0  0
  -25.9369  -30.8253   21.3683 C   0  0  0  0  0  0
  -26.0112  -29.4600   20.7124 C   0  0  0  0  0  0
  -27.2020  -28.6944   20.7017 C   0  0  0  0  0  0
  -26.0455  -26.9418   19.4776 C   0  0  0  0  0  0
  -24.8631  -27.7023   19.4911 C   0  0  0  0  0  0
  -23.6135  -29.8298   20.1641 C   0  0  0  0  0  0
  -25.4102  -36.3106   24.0335 C   0  0  1  0  0  0
  -20.5864  -28.3674   23.1313 C   0  0  2  0  0  0
  -20.6765  -26.9409   22.5415 C   0  0  0  0  0  0
  -19.5744  -26.6393   21.5213 C   0  0  0  0  0  0
  -18.1921  -26.7932   22.1624 C   0  0  0  0  0  0
  -19.1522  -28.8848   23.2894 C   0  0  0  0  0  0
  -18.9450  -30.1455   23.8905 C   0  0  0  0  0  0
  -17.6452  -30.6590   24.0569 C   0  0  0  0  0  0
  -25.9038  -34.9473   23.5126 C   0  0  0  0  0  0
  -16.5342  -29.9092   23.6329 C   0  0  0  0  0  0
  -16.7262  -28.6513   23.0340 C   0  0  0  0  0  0
  -26.4477  -31.6604   25.0737 C   0  0  0  0  0  0
  -25.3746  -31.3719   26.1490 C   0  0  0  0  0  0
  -27.0318  -30.3044   24.6138 C   0  0  0  0  0  0
  -27.6045  -32.4335   25.7497 C   0  0  0  0  0  0
  -27.5582  -37.1801   24.8456 C   0  0  0  0  0  0
  -21.4149  -29.3039   22.3724 N   0  0  0  0  0  0
  -26.4282  -37.3799   23.9421 N   0  0  0  0  0  0
  -24.6710  -31.0763   22.1012 N   0  0  0  0  0  0
  -23.4189  -28.8195   23.3024 O   0  0  0  0  0  0
  -28.3947  -26.6634   20.1353 O   0  0  0  0  0  0
  -26.5599  -34.8927   22.4686 O   0  0  0  0  0  0
  -23.5359  -32.1428   23.7498 O   0  0  0  0  0  0
  -30.9158  -18.9997   21.9930 C   0  0  0  0  0  0
  -30.7744  -17.5987   22.1193 C   0  0  0  0  0  0
  -29.7592  -17.5145   19.9139 C   0  0  0  0  0  0
  -30.4759  -19.6845   20.8330 C   0  0  0  0  0  0
  -30.2103  -16.8400   21.0725 C   0  0  0  0  0  0
  -29.8906  -18.9187   19.7909 C   0  0  0  0  0  0
  -30.7413  -21.1715   20.6961 C   0  0  0  0  0  0
  -29.4621  -24.4181   20.3035 C   0  0  0  0  0  0
  -29.6166  -23.2500   18.0001 C   0  0  0  0  0  0
  -28.3109  -25.2796   19.7258 C   0  0  0  0  0  0
  -30.1003  -23.2614   19.4636 C   0  0  2  0  0  0
  -30.0217  -15.4341   21.2257 N   0  0  0  0  0  0
  -29.8467  -21.9171   20.0224 N   0  0  0  0  0  0
  -31.7572  -21.6613   21.1956 O   0  0  0  0  0  0
  -29.8567  -24.6548   21.4500 O   0  0  0  0  0  0
  -29.4547  -19.5148   18.6533 F   0  0  0  0  0  0
  -31.4722  -12.4031   19.1176 H   0  0  0  0  0  0
  -30.3276  -11.2907   19.8100 H   0  0  0  0  0  0
  -29.7341  -11.7832   17.4248 H   0  0  0  0  0  0
  -29.6668  -13.4928   17.7685 H   0  0  0  0  0  0
  -27.8290  -11.3103   18.8143 H   0  0  0  0  0  0
  -27.3671  -12.6415   17.7887 H   0  0  0  0  0  0
  -27.7151  -14.2518   19.5847 H   0  0  0  0  0  0
  -28.6835  -11.9336   21.3271 H   0  0  0  0  0  0
  -28.4659  -13.5604   21.8820 H   0  0  0  0  0  0
  -25.2754   -9.5681   22.4747 H   0  0  0  0  0  0
  -23.9995   -7.4633   22.7467 H   0  0  0  0  0  0
  -21.0832   -8.8771   19.8958 H   0  0  0  0  0  0
  -22.3685  -10.9665   19.6162 H   0  0  0  0  0  0
  -21.2004   -7.6142   23.9713 H   0  0  0  0  0  0
  -21.1487   -6.0516   25.9075 H   0  0  0  0  0  0
  -22.0600   -2.7607   23.2839 H   0  0  0  0  0  0
  -22.4122  -11.9907   22.4780 H   0  0  0  0  0  0
  -21.1144  -13.1299   22.2609 H   0  0  0  0  0  0
  -24.6762  -15.8474   20.5294 H   0  0  0  0  0  0
  -26.2976  -15.6243   20.1077 H   0  0  0  0  0  0
  -26.7130  -32.5517   23.1157 H   0  0  0  0  0  0
  -25.0061  -33.9771   25.0468 H   0  0  0  0  0  0
  -22.6940  -31.3104   21.4150 H   0  0  0  0  0  0
  -23.3742  -35.9648   23.3295 H   0  0  0  0  0  0
  -24.3577  -36.8933   22.2050 H   0  0  0  0  0  0
  -23.7234  -37.6519   23.6650 H   0  0  0  0  0  0
  -26.0570  -31.5923   20.6021 H   0  0  0  0  0  0
  -26.8221  -30.8732   21.9907 H   0  0  0  0  0  0
  -28.0968  -29.0762   21.1739 H   0  0  0  0  0  0
  -26.0026  -25.9865   18.9759 H   0  0  0  0  0  0
  -23.9717  -27.3154   19.0168 H   0  0  0  0  0  0
  -23.7252  -30.6076   19.4079 H   0  0  0  0  0  0
  -22.7357  -29.2540   19.8653 H   0  0  0  0  0  0
  -25.1272  -36.1962   25.0827 H   0  0  0  0  0  0
  -20.9947  -28.3238   24.1439 H   0  0  0  0  0  0
  -20.5677  -26.2277   23.3600 H   0  0  0  0  0  0
  -21.6635  -26.7459   22.1203 H   0  0  0  0  0  0
  -19.6904  -25.6307   21.1234 H   0  0  0  0  0  0
  -19.6683  -27.3212   20.6749 H   0  0  0  0  0  0
  -17.4188  -26.6669   21.4030 H   0  0  0  0  0  0
  -18.0329  -26.0079   22.9028 H   0  0  0  0  0  0
  -19.7927  -30.7270   24.2273 H   0  0  0  0  0  0
  -17.5010  -31.6269   24.5175 H   0  0  0  0  0  0
  -15.5346  -30.2997   23.7663 H   0  0  0  0  0  0
  -15.8658  -28.0852   22.7034 H   0  0  0  0  0  0
  -24.5898  -30.7086   25.7835 H   0  0  0  0  0  0
  -24.8965  -32.2882   26.4965 H   0  0  0  0  0  0
  -25.8104  -30.8868   27.0234 H   0  0  0  0  0  0
  -26.2878  -29.6802   24.1175 H   0  0  0  0  0  0
  -27.4058  -29.7284   25.4613 H   0  0  0  0  0  0
  -27.8724  -30.4355   23.9320 H   0  0  0  0  0  0
  -27.2643  -33.3607   26.2123 H   0  0  0  0  0  0
  -28.3824  -32.6951   25.0312 H   0  0  0  0  0  0
  -28.0753  -31.8443   26.5376 H   0  0  0  0  0  0
  -28.2575  -38.0123   24.7550 H   0  0  0  0  0  0
  -28.1101  -36.2660   24.6213 H   0  0  0  0  0  0
  -27.2313  -37.1373   25.8861 H   0  0  0  0  0  0
  -20.9314  -29.8765   21.6950 H   0  0  0  0  0  0
  -26.0165  -38.2869   24.1455 H   0  0  0  0  0  0
  -31.3750  -19.5546   22.7990 H   0  0  0  0  0  0
  -31.1114  -17.1113   23.0241 H   0  0  0  0  0  0
  -29.3075  -16.9609   19.1036 H   0  0  0  0  0  0
  -29.8227  -24.1974   17.5002 H   0  0  0  0  0  0
  -28.5488  -23.0431   17.9189 H   0  0  0  0  0  0
  -30.1399  -22.4806   17.4311 H   0  0  0  0  0  0
  -27.3924  -24.8293   20.1024 H   0  0  0  0  0  0
  -28.2726  -25.2431   18.6398 H   0  0  0  0  0  0
  -31.1765  -23.4426   19.4381 H   0  0  0  0  0  0
  -29.1647  -15.1397   21.6686 H   0  0  0  0  0  0
  -29.0290  -21.4283   19.6863 H   0  0  0  0  0  0
  1 25  1  0  0  0
  1 30  2  0  0  0
  1 82  1  0  0  0
  2  3  1  0  0  0
  2 25  1  0  0  0
  2 87  1  0  0  0
  2 88  1  0  0  0
  3  4  1  0  0  0
  3 89  1  0  0  0
  3 90  1  0  0  0
  4  5  1  0  0  0
  4 91  1  0  0  0
  4 92  1  0  0  0
  5  6  1  0  0  0
  5 26  1  0  0  0
  5 93  1  0  0  0
  6 25  1  0  0  0
  6 94  1  0  0  0
  6 95  1  0  0  0
  7  8  2  0  0  0
  7 26  1  0  0  0
  7 29  1  0  0  0
  8  9  1  0  0  0
  8 22  1  0  0  0
  9 10  1  0  0  0
  9 27  2  0  0  0
 10 11  2  0  0  0
 10 15  1  0  0  0
 11 12  1  0  0  0
 11 96  1  0  0  0
 12 13  2  0  0  0
 12 97  1  0  0  0
 13 14  1  0  0  0
 13 31  1  0  0  0
 14 15  2  0  0  0
 14 98  1  0  0  0
 15 99  1  0  0  0
 16 17  2  0  0  0
 16 21  1  0  0  0
 16 31  1  0  0  0
 17 18  1  0  0  0
 17100  1  0  0  0
 18 19  2  0  0  0
 18101  1  0  0  0
 19 20  1  0  0  0
 19 24  1  0  0  0
 20 21  2  0  0  0
 20102  1  0  0  0
 21 23  1  0  0  0
 22 28  1  0  0  0
 22 32  2  0  0  0
 26 27  1  0  0  0
 28103  1  0  0  0
 28104  1  0  0  0
 29105  1  0  0  0
 29106  1  0  0  0
 33 34  1  0  0  0
 33 66  1  0  0  0
 33 70  2  0  0  0
 34 36  1  0  0  0
 34 59  1  0  0  0
 34107  1  0  0  0
 35 44  2  0  0  0
 35 45  1  0  0  0
 35 68  1  0  0  0
 36 56  1  0  0  0
 36108  1  0  0  0
 37 39  1  0  0  0
 37 47  1  0  0  0
 37 66  1  0  0  0
 37109  1  0  0  0
 38 43  2  0  0  0
 38 46  1  0  0  0
 38 47  1  0  0  0
 39 64  1  0  0  0
 39 67  2  0  0  0
 40 52  1  0  0  0
 40 53  2  0  0  0
 40 58  1  0  0  0
 41110  1  0  0  0
 41111  1  0  0  0
 41112  1  0  0  0
 41 48  1  0  0  0
 42 43  1  0  0  0
 42 66  1  0  0  0
 42113  1  0  0  0
 42114  1  0  0  0
 43 44  1  0  0  0
 44115  1  0  0  0
 45 46  2  0  0  0
 45116  1  0  0  0
 46117  1  0  0  0
 47118  1  0  0  0
 47119  1  0  0  0
 48 56  1  0  0  0
 48 65  1  0  0  0
 48120  1  0  0  0
 49 50  1  0  0  0
 49 53  1  0  0  0
 49 64  1  0  0  0
 49121  1  0  0  0
 50 51  1  0  0  0
 50122  1  0  0  0
 50123  1  0  0  0
 51 52  1  0  0  0
 51124  1  0  0  0
 51125  1  0  0  0
 52126  1  0  0  0
 52127  1  0  0  0
 53 54  1  0  0  0
 54 55  2  0  0  0
 54128  1  0  0  0
 55 57  1  0  0  0
 55129  1  0  0  0
 56 69  2  0  0  0
 57 58  2  0  0  0
 57130  1  0  0  0
 58131  1  0  0  0
 59 60  1  0  0  0
 59 61  1  0  0  0
 59 62  1  0  0  0
 60132  1  0  0  0
 60133  1  0  0  0
 60134  1  0  0  0
 61135  1  0  0  0
 61136  1  0  0  0
 61137  1  0  0  0
 62138  1  0  0  0
 62139  1  0  0  0
 62140  1  0  0  0
 63 65  1  0  0  0
 63141  1  0  0  0
 63142  1  0  0  0
 63143  1  0  0  0
 64144  1  0  0  0
 65145  1  0  0  0
 68 80  1  0  0  0
 71 72  2  0  0  0
 71 74  1  0  0  0
 71146  1  0  0  0
 72 75  1  0  0  0
 72147  1  0  0  0
 73 75  2  0  0  0
 73 76  1  0  0  0
 73148  1  0  0  0
 74 76  2  0  0  0
 74 77  1  0  0  0
 75 82  1  0  0  0
 76 86  1  0  0  0
 77 83  1  0  0  0
 77 84  2  0  0  0
 78 80  1  0  0  0
 78 81  1  0  0  0
 78 85  2  0  0  0
 79149  1  0  0  0
 79150  1  0  0  0
 79151  1  0  0  0
 79 81  1  0  0  0
 80152  1  0  0  0
 80153  1  0  0  0
 81 83  1  0  0  0
 81154  1  0  0  0
 82155  1  0  0  0
 83156  1  0  0  0
M  ISO  4   1 100  68 101  80 101  82 100
M  END
> <chiral flag>
0

> <version>
0

> <s_m_source_file>
/data/baiqing/PycharmProjects/Reinvent-master-3.2/result/LINK_invent/BTK/process_docking_weight1_custom_product_contain_oxygen_bond_distance_aromatic_linkinvent_7_9_3/rearranged_h_0141.sdf

> <i_m_source_file_index>
83

> <r_mmod_Potential_Energy-OPLS-2005>
-33.1646614074707

> <r_mmod_Stretch_Energy-OPLS-2005>
42.3470306396484

> <r_mmod_Bend_Energy-OPLS-2005>
98.0784759521484

> <r_mmod_Torsional_Energy-OPLS-2005>
263.911315917969

> <r_mmod_Improper_Torsional_Energy-OPLS-2005>
4.11942434310913

> <r_mmod_Van_der_Waal_Energy-OPLS-2005>
158.210372924805

> <r_mmod_Electrostatic_Energy-OPLS-2005>
-355.702575683594

> <r_mmod_Solvation_Energy-OPLS-2005>
-258.088653564453

> <b_mmod_Minimization_Converged-OPLS-2005>
0

> <r_mmod_RMS_Derivative-OPLS-2005>
1.07439768314362

$$$$
83
                    3D
 Structure written by MMmdl.
162170  0  0  1  0            999 V2000
  -30.7138  -14.4312   20.4386 C   0  0  0  0  0  0
  -30.4170  -12.2462   19.4253 C   0  0  0  0  0  0
  -29.4986  -12.4611   18.2020 C   0  0  0  0  0  0
  -28.0137  -12.3513   18.6086 C   0  0  0  0  0  0
  -27.6592  -13.2067   19.8550 C   0  0  2  0  0  0
  -28.7053  -13.0163   20.9819 C   0  0  0  0  0  0
  -25.2577  -13.8182   20.5622 C   0  0  0  0  0  0
  -24.1816  -13.0487   20.9170 C   0  0  0  0  0  0
  -24.6355  -11.6939   20.8714 C   0  0  0  0  0  0
  -23.9015  -10.4320   21.0416 C   0  0  0  0  0  0
  -24.3596   -9.4247   21.9180 C   0  0  0  0  0  0
  -23.6292   -8.2264   22.0741 C   0  0  0  0  0  0
  -22.4261   -8.0271   21.3559 C   0  0  0  0  0  0
  -21.9882   -9.0227   20.4655 C   0  0  0  0  0  0
  -22.7193  -10.2121   20.3064 C   0  0  0  0  0  0
  -21.6821   -6.0720   22.5268 C   0  0  0  0  0  0
  -21.3991   -6.5631   23.8204 C   0  0  0  0  0  0
  -21.3676   -5.6794   24.9164 C   0  0  0  0  0  0
  -21.6036   -4.3053   24.7239 C   0  0  0  0  0  0
  -21.8823   -3.8142   23.4359 C   0  0  0  0  0  0
  -21.9179   -4.6949   22.3404 C   0  0  0  0  0  0
  -22.7830  -13.5270   21.1843 C   0  0  0  0  0  0
  -22.1664   -4.2163   21.0985 F   0  0  0  0  0  0
  -21.5654   -3.4535   25.7764 F   0  0  0  0  0  0
  -30.0455  -13.2545   20.4224 N   0  0  0  0  0  0
  -26.3011  -12.9342   20.3278 N   0  0  0  0  0  0
  -25.9293  -11.6515   20.5692 N   0  0  0  0  0  0
  -22.0471  -12.8284   22.0405 N   0  0  0  0  0  0
  -25.4378  -15.1872   20.3991 N   0  0  0  0  0  0
  -31.9247  -14.5377   20.2338 O   0  0  0  0  0  0
  -21.6650   -6.8853   21.4220 O   0  0  0  0  0  0
  -22.3476  -14.5535   20.6640 O   0  0  0  0  0  0
  -24.6104  -31.8724   23.2152 C   0  0  0  0  0  0
  -25.9025  -32.4853   23.8429 C   0  0  1  0  0  0
  -27.2247  -27.4791   20.0346 C   0  0  0  0  0  0
  -25.5867  -33.8652   24.2358 N   0  0  0  0  0  0
  -23.3952  -30.5008   21.5588 C   0  0  2  0  0  0
  -24.8341  -28.9774   20.1176 C   0  0  0  0  0  0
  -22.7397  -29.4657   22.5023 C   0  0  0  0  0  0
  -18.0263  -28.1344   22.8508 C   0  0  0  0  0  0
  -24.1480  -36.7316   23.2633 C   0  0  0  0  0  0
  -25.9251  -30.8441   21.3680 C   0  0  0  0  0  0
  -25.9952  -29.4821   20.7135 C   0  0  0  0  0  0
  -27.1873  -28.7280   20.6901 C   0  0  0  0  0  0
  -26.0373  -26.9842   19.4469 C   0  0  0  0  0  0
  -24.8431  -27.7197   19.4975 C   0  0  0  0  0  0
  -23.5991  -29.8414   20.1712 C   0  0  0  0  0  0
  -25.4105  -36.3141   24.0355 C   0  0  1  0  0  0
  -20.5856  -28.3624   23.1327 C   0  0  2  0  0  0
  -20.6746  -26.9356   22.5420 C   0  0  0  0  0  0
  -19.5717  -26.6360   21.5209 C   0  0  0  0  0  0
  -18.1897  -26.7893   22.1622 C   0  0  0  0  0  0
  -19.1514  -28.8805   23.2909 C   0  0  0  0  0  0
  -18.9454  -30.1416   23.8924 C   0  0  0  0  0  0
  -17.6447  -30.6564   24.0557 C   0  0  0  0  0  0
  -25.9015  -34.9496   23.5160 C   0  0  0  0  0  0
  -16.5338  -29.9064   23.6307 C   0  0  0  0  0  0
  -16.7255  -28.6464   23.0367 C   0  0  0  0  0  0
  -26.4467  -31.6636   25.0749 C   0  0  0  0  0  0
  -25.3749  -31.3755   26.1514 C   0  0  0  0  0  0
  -27.0265  -30.3071   24.6087 C   0  0  0  0  0  0
  -27.6045  -32.4370   25.7507 C   0  0  0  0  0  0
  -27.5597  -37.1805   24.8469 C   0  0  0  0  0  0
  -21.4131  -29.3012   22.3760 N   0  0  0  0  0  0
  -26.4303  -37.3821   23.9417 N   0  0  0  0  0  0
  -24.6629  -31.0859   22.1055 N   0  0  0  0  0  0
  -23.4205  -28.8170   23.3014 O   0  0  0  0  0  0
  -28.4190  -26.7964   20.0159 O   0  0  0  0  0  0
  -26.5568  -34.8955   22.4720 O   0  0  0  0  0  0
  -23.5307  -32.1473   23.7549 O   0  0  0  0  0  0
  -30.8168  -17.3436   17.1683 C   0  0  0  0  0  0
  -29.9675  -18.4549   17.2747 C   0  0  0  0  0  0
  -30.8257  -16.3726   18.1826 C   0  0  0  0  0  0
  -29.1372  -17.6161   19.4149 C   0  0  0  0  0  0
  -29.1463  -18.6087   18.4181 C   0  0  0  0  0  0
  -29.9876  -16.4919   19.3217 C   0  0  0  0  0  0
  -28.8682  -20.8671   18.3956 C   0  0  0  0  0  0
  -29.0359  -23.6185   16.7745 C   0  0  0  0  0  0
  -30.3037  -26.1412   18.8435 C   0  0  0  0  0  0
  -28.1236  -22.1492   18.6318 C   0  0  0  0  0  0
  -28.2553  -24.5709   19.0545 C   0  0  0  0  0  0
  -28.9406  -23.4173   18.3029 C   0  0  2  0  0  0
  -28.7737  -26.0185   18.8682 C   0  0  1  0  0  0
  -28.3423  -19.7306   18.6051 N   0  0  0  0  0  0
  -29.9162  -15.5057   20.3533 N   0  0  0  0  0  0
  -31.4687  -12.3023   19.1358 H   0  0  0  0  0  0
  -30.2728  -11.2487   19.8412 H   0  0  0  0  0  0
  -29.7379  -11.7284   17.4308 H   0  0  0  0  0  0
  -29.6848  -13.4401   17.7558 H   0  0  0  0  0  0
  -27.7985  -11.3012   18.8071 H   0  0  0  0  0  0
  -27.3756  -12.6358   17.7716 H   0  0  0  0  0  0
  -27.6918  -14.2453   19.5277 H   0  0  0  0  0  0
  -28.6524  -12.0050   21.3868 H   0  0  0  0  0  0
  -28.4999  -13.6864   21.8170 H   0  0  0  0  0  0
  -25.2762   -9.5747   22.4715 H   0  0  0  0  0  0
  -24.0062   -7.4643   22.7443 H   0  0  0  0  0  0
  -21.0830   -8.8688   19.8956 H   0  0  0  0  0  0
  -22.3647  -10.9608   19.6137 H   0  0  0  0  0  0
  -21.1980   -7.6144   23.9695 H   0  0  0  0  0  0
  -21.1487   -6.0533   25.9059 H   0  0  0  0  0  0
  -22.0597   -2.7608   23.2834 H   0  0  0  0  0  0
  -22.4056  -11.9982   22.4861 H   0  0  0  0  0  0
  -21.1022  -13.1233   22.2518 H   0  0  0  0  0  0
  -24.6845  -15.8585   20.4951 H   0  0  0  0  0  0
  -26.3006  -15.6016   20.0709 H   0  0  0  0  0  0
  -26.7092  -32.5589   23.1195 H   0  0  0  0  0  0
  -25.0085  -33.9844   25.0544 H   0  0  0  0  0  0
  -22.6796  -31.3148   21.4229 H   0  0  0  0  0  0
  -23.3774  -35.9612   23.3307 H   0  0  0  0  0  0
  -24.3571  -36.8925   22.2046 H   0  0  0  0  0  0
  -23.7207  -37.6517   23.6638 H   0  0  0  0  0  0
  -26.0381  -31.6117   20.6014 H   0  0  0  0  0  0
  -26.8157  -30.8969   21.9836 H   0  0  0  0  0  0
  -28.0876  -29.1138   21.1477 H   0  0  0  0  0  0
  -25.9839  -26.0423   18.9392 H   0  0  0  0  0  0
  -23.9446  -27.3246   19.0432 H   0  0  0  0  0  0
  -23.6965  -30.6145   19.4065 H   0  0  0  0  0  0
  -22.7291  -29.2497   19.8848 H   0  0  0  0  0  0
  -25.1274  -36.2024   25.0843 H   0  0  0  0  0  0
  -20.9951  -28.3174   24.1442 H   0  0  0  0  0  0
  -20.5621  -26.2217   23.3601 H   0  0  0  0  0  0
  -21.6620  -26.7380   22.1225 H   0  0  0  0  0  0
  -19.6860  -25.6280   21.1207 H   0  0  0  0  0  0
  -19.6652  -27.3200   20.6763 H   0  0  0  0  0  0
  -17.4171  -26.6681   21.4017 H   0  0  0  0  0  0
  -18.0264  -26.0031   22.9003 H   0  0  0  0  0  0
  -19.7938  -30.7206   24.2316 H   0  0  0  0  0  0
  -17.5020  -31.6258   24.5119 H   0  0  0  0  0  0
  -15.5345  -30.2967   23.7625 H   0  0  0  0  0  0
  -15.8654  -28.0772   22.7097 H   0  0  0  0  0  0
  -24.5871  -30.7151   25.7894 H   0  0  0  0  0  0
  -24.8977  -32.2911   26.5019 H   0  0  0  0  0  0
  -25.8093  -30.8895   27.0252 H   0  0  0  0  0  0
  -26.2769  -29.6879   24.1139 H   0  0  0  0  0  0
  -27.4053  -29.7284   25.4522 H   0  0  0  0  0  0
  -27.8616  -30.4426   23.9215 H   0  0  0  0  0  0
  -27.2650  -33.3665   26.2112 H   0  0  0  0  0  0
  -28.3818  -32.6962   25.0309 H   0  0  0  0  0  0
  -28.0746  -31.8488   26.5401 H   0  0  0  0  0  0
  -28.2619  -38.0103   24.7543 H   0  0  0  0  0  0
  -28.1084  -36.2634   24.6247 H   0  0  0  0  0  0
  -27.2304  -37.1439   25.8872 H   0  0  0  0  0  0
  -20.9251  -29.8785   21.7054 H   0  0  0  0  0  0
  -26.0203  -38.2905   24.1433 H   0  0  0  0  0  0
  -31.4621  -17.2410   16.3083 H   0  0  0  0  0  0
  -29.9610  -19.1875   16.4771 H   0  0  0  0  0  0
  -31.4776  -15.5234   18.0412 H   0  0  0  0  0  0
  -28.4811  -17.7265   20.2684 H   0  0  0  0  0  0
  -29.8966  -20.9956   18.0443 H   0  0  0  0  0  0
  -29.4797  -22.7415   16.3010 H   0  0  0  0  0  0
  -29.6538  -24.4694   16.4944 H   0  0  0  0  0  0
  -28.0516  -23.7639   16.3269 H   0  0  0  0  0  0
  -30.7602  -25.6741   17.9722 H   0  0  0  0  0  0
  -30.7379  -25.6895   19.7331 H   0  0  0  0  0  0
  -30.5948  -27.1934   18.8273 H   0  0  0  0  0  0
  -27.8384  -22.1525   19.6842 H   0  0  0  0  0  0
  -27.1944  -22.1310   18.0567 H   0  0  0  0  0  0
  -28.2943  -24.3429   20.1222 H   0  0  0  0  0  0
  -27.2064  -24.5030   18.7774 H   0  0  0  0  0  0
  -29.9521  -23.3162   18.7066 H   0  0  0  0  0  0
  -28.3816  -26.4555   17.9481 H   0  0  0  0  0  0
  -29.0110  -15.3990   20.7813 H   0  0  0  0  0  0
  1 25  1  0  0  0
  1 30  2  0  0  0
  1 85  1  0  0  0
  2  3  1  0  0  0
  2 25  1  0  0  0
  2 86  1  0  0  0
  2 87  1  0  0  0
  3  4  1  0  0  0
  3 88  1  0  0  0
  3 89  1  0  0  0
  4  5  1  0  0  0
  4 90  1  0  0  0
  4 91  1  0  0  0
  5  6  1  0  0  0
  5 26  1  0  0  0
  5 92  1  0  0  0
  6 25  1  0  0  0
  6 93  1  0  0  0
  6 94  1  0  0  0
  7  8  2  0  0  0
  7 26  1  0  0  0
  7 29  1  0  0  0
  8  9  1  0  0  0
  8 22  1  0  0  0
  9 10  1  0  0  0
  9 27  2  0  0  0
 10 11  2  0  0  0
 10 15  1  0  0  0
 11 12  1  0  0  0
 11 95  1  0  0  0
 12 13  2  0  0  0
 12 96  1  0  0  0
 13 14  1  0  0  0
 13 31  1  0  0  0
 14 15  2  0  0  0
 14 97  1  0  0  0
 15 98  1  0  0  0
 16 17  2  0  0  0
 16 21  1  0  0  0
 16 31  1  0  0  0
 17 18  1  0  0  0
 17 99  1  0  0  0
 18 19  2  0  0  0
 18100  1  0  0  0
 19 20  1  0  0  0
 19 24  1  0  0  0
 20 21  2  0  0  0
 20101  1  0  0  0
 21 23  1  0  0  0
 22 28  1  0  0  0
 22 32  2  0  0  0
 26 27  1  0  0  0
 28102  1  0  0  0
 28103  1  0  0  0
 29104  1  0  0  0
 29105  1  0  0  0
 33 34  1  0  0  0
 33 66  1  0  0  0
 33 70  2  0  0  0
 34 36  1  0  0  0
 34 59  1  0  0  0
 34106  1  0  0  0
 35 44  2  0  0  0
 35 45  1  0  0  0
 35 68  1  0  0  0
 36 56  1  0  0  0
 36107  1  0  0  0
 37 39  1  0  0  0
 37 47  1  0  0  0
 37 66  1  0  0  0
 37108  1  0  0  0
 38 43  2  0  0  0
 38 46  1  0  0  0
 38 47  1  0  0  0
 39 64  1  0  0  0
 39 67  2  0  0  0
 40 52  1  0  0  0
 40 53  2  0  0  0
 40 58  1  0  0  0
 41109  1  0  0  0
 41110  1  0  0  0
 41111  1  0  0  0
 41 48  1  0  0  0
 42 43  1  0  0  0
 42 66  1  0  0  0
 42112  1  0  0  0
 42113  1  0  0  0
 43 44  1  0  0  0
 44114  1  0  0  0
 45 46  2  0  0  0
 45115  1  0  0  0
 46116  1  0  0  0
 47117  1  0  0  0
 47118  1  0  0  0
 48 56  1  0  0  0
 48 65  1  0  0  0
 48119  1  0  0  0
 49 50  1  0  0  0
 49 53  1  0  0  0
 49 64  1  0  0  0
 49120  1  0  0  0
 50 51  1  0  0  0
 50121  1  0  0  0
 50122  1  0  0  0
 51 52  1  0  0  0
 51123  1  0  0  0
 51124  1  0  0  0
 52125  1  0  0  0
 52126  1  0  0  0
 53 54  1  0  0  0
 54 55  2  0  0  0
 54127  1  0  0  0
 55 57  1  0  0  0
 55128  1  0  0  0
 56 69  2  0  0  0
 57 58  2  0  0  0
 57129  1  0  0  0
 58130  1  0  0  0
 59 60  1  0  0  0
 59 61  1  0  0  0
 59 62  1  0  0  0
 60131  1  0  0  0
 60132  1  0  0  0
 60133  1  0  0  0
 61134  1  0  0  0
 61135  1  0  0  0
 61136  1  0  0  0
 62137  1  0  0  0
 62138  1  0  0  0
 62139  1  0  0  0
 63 65  1  0  0  0
 63140  1  0  0  0
 63141  1  0  0  0
 63142  1  0  0  0
 64143  1  0  0  0
 65144  1  0  0  0
 68 83  1  0  0  0
 71 72  2  0  0  0
 71 73  1  0  0  0
 71145  1  0  0  0
 72 75  1  0  0  0
 72146  1  0  0  0
 73 76  2  0  0  0
 73147  1  0  0  0
 74 75  2  0  0  0
 74 76  1  0  0  0
 74148  1  0  0  0
 75 84  1  0  0  0
 76 85  1  0  0  0
 77 80  1  0  0  0
 77 84  2  0  0  0
 77149  1  0  0  0
 78150  1  0  0  0
 78151  1  0  0  0
 78152  1  0  0  0
 78 82  1  0  0  0
 79153  1  0  0  0
 79154  1  0  0  0
 79155  1  0  0  0
 79 83  1  0  0  0
 80 82  1  0  0  0
 80156  1  0  0  0
 80157  1  0  0  0
 81 82  1  0  0  0
 81 83  1  0  0  0
 81158  1  0  0  0
 81159  1  0  0  0
 82160  1  0  0  0
 83161  1  0  0  0
 85162  1  0  0  0
M  ISO  4   1 100  68 101  83 101  85 100
M  END
> <chiral flag>
0

> <version>
0

> <s_m_source_file>
/data/baiqing/PycharmProjects/Reinvent-master-3.2/result/LINK_invent/BTK/process_docking_weight1_custom_product_contain_oxygen_bond_distance_aromatic_linkinvent_7_9_3/rearranged_h_0141.sdf

> <i_m_source_file_index>
84

> <r_mmod_Potential_Energy-OPLS-2005>
62.1512069702148

> <r_mmod_Stretch_Energy-OPLS-2005>
33.2965698242188

> <r_mmod_Bend_Energy-OPLS-2005>
108.300567626953

> <r_mmod_Torsional_Energy-OPLS-2005>
271.063995361328

> <r_mmod_Improper_Torsional_Energy-OPLS-2005>
10.5388250350952

> <r_mmod_Van_der_Waal_Energy-OPLS-2005>
172.341781616211

> <r_mmod_Electrostatic_Energy-OPLS-2005>
-350.581604003906

> <r_mmod_Solvation_Energy-OPLS-2005>
-205.964141845703

> <b_mmod_Minimization_Converged-OPLS-2005>
0

> <r_mmod_RMS_Derivative-OPLS-2005>
5.23837995529175

$$$$
84
                    3D
 Structure written by MMmdl.
156165  0  0  1  0            999 V2000
  -30.5602  -14.7816   20.4604 C   0  0  0  0  0  0
  -30.4488  -12.4798   19.4642 C   0  0  0  0  0  0
  -29.5152  -12.5073   18.2321 C   0  0  0  0  0  0
  -28.0416  -12.3211   18.6491 C   0  0  0  0  0  0
  -27.6411  -13.2228   19.8465 C   0  0  2  0  0  0
  -28.6876  -13.1499   20.9795 C   0  0  0  0  0  0
  -25.2520  -13.8163   20.5686 C   0  0  0  0  0  0
  -24.1803  -13.0423   20.9209 C   0  0  0  0  0  0
  -24.6385  -11.6897   20.8742 C   0  0  0  0  0  0
  -23.9059  -10.4280   21.0405 C   0  0  0  0  0  0
  -24.3614   -9.4201   21.9183 C   0  0  0  0  0  0
  -23.6289   -8.2237   22.0753 C   0  0  0  0  0  0
  -22.4272   -8.0272   21.3543 C   0  0  0  0  0  0
  -21.9907   -9.0246   20.4644 C   0  0  0  0  0  0
  -22.7235  -10.2125   20.3054 C   0  0  0  0  0  0
  -21.6847   -6.0729   22.5277 C   0  0  0  0  0  0
  -21.4014   -6.5636   23.8212 C   0  0  0  0  0  0
  -21.3659   -5.6790   24.9172 C   0  0  0  0  0  0
  -21.6047   -4.3050   24.7222 C   0  0  0  0  0  0
  -21.8819   -3.8144   23.4345 C   0  0  0  0  0  0
  -21.9197   -4.6959   22.3401 C   0  0  0  0  0  0
  -22.7834  -13.5221   21.1875 C   0  0  0  0  0  0
  -22.1661   -4.2148   21.0975 F   0  0  0  0  0  0
  -21.5632   -3.4536   25.7739 F   0  0  0  0  0  0
  -29.9822  -13.5310   20.3965 N   0  0  0  0  0  0
  -26.2926  -12.9351   20.3247 N   0  0  0  0  0  0
  -25.9305  -11.6502   20.5727 N   0  0  0  0  0  0
  -22.0468  -12.8210   22.0421 N   0  0  0  0  0  0
  -25.4199  -15.1899   20.4097 N   0  0  0  0  0  0
  -31.7601  -14.9227   20.2040 O   0  0  0  0  0  0
  -21.6633   -6.8873   21.4241 O   0  0  0  0  0  0
  -22.3523  -14.5530   20.6720 O   0  0  0  0  0  0
  -24.6318  -31.8546   23.1941 C   0  0  0  0  0  0
  -25.9136  -32.4754   23.8315 C   0  0  1  0  0  0
  -27.2305  -27.2484   20.1484 C   0  0  0  0  0  0
  -25.5917  -33.8551   24.2248 N   0  0  0  0  0  0
  -23.4317  -30.4723   21.5383 C   0  0  2  0  0  0
  -24.8841  -28.9091   20.1197 C   0  0  0  0  0  0
  -22.7520  -29.4601   22.4914 C   0  0  0  0  0  0
  -18.0295  -28.1407   22.8497 C   0  0  0  0  0  0
  -24.1479  -36.7269   23.2643 C   0  0  0  0  0  0
  -25.9778  -30.7638   21.3766 C   0  0  0  0  0  0
  -26.0556  -29.3808   20.7279 C   0  0  0  0  0  0
  -27.2341  -28.5656   20.7253 C   0  0  0  0  0  0
  -26.0372  -26.8390   19.5230 C   0  0  0  0  0  0
  -24.8807  -27.6459   19.5057 C   0  0  0  0  0  0
  -23.6543  -29.7978   20.1591 C   0  0  0  0  0  0
  -25.4112  -36.3072   24.0334 C   0  0  1  0  0  0
  -20.5900  -28.3713   23.1265 C   0  0  2  0  0  0
  -20.6766  -26.9422   22.5417 C   0  0  0  0  0  0
  -19.5738  -26.6404   21.5214 C   0  0  0  0  0  0
  -18.1925  -26.7952   22.1642 C   0  0  0  0  0  0
  -19.1551  -28.8884   23.2874 C   0  0  0  0  0  0
  -18.9473  -30.1483   23.8897 C   0  0  0  0  0  0
  -17.6467  -30.6591   24.0581 C   0  0  0  0  0  0
  -25.9059  -34.9439   23.5102 C   0  0  0  0  0  0
  -16.5358  -29.9093   23.6346 C   0  0  0  0  0  0
  -16.7279  -28.6518   23.0357 C   0  0  0  0  0  0
  -26.4491  -31.6581   25.0717 C   0  0  0  0  0  0
  -25.3709  -31.3742   26.1445 C   0  0  0  0  0  0
  -27.0347  -30.2997   24.6215 C   0  0  0  0  0  0
  -27.6050  -32.4331   25.7496 C   0  0  0  0  0  0
  -27.5579  -37.1795   24.8475 C   0  0  0  0  0  0
  -21.4226  -29.3041   22.3654 N   0  0  0  0  0  0
  -26.4280  -37.3779   23.9422 N   0  0  0  0  0  0
  -24.6994  -31.0499   22.0926 N   0  0  0  0  0  0
  -23.4209  -28.8155   23.3027 O   0  0  0  0  0  0
  -28.3221  -26.3471   20.1114 O   0  0  0  0  0  0
  -26.5640  -34.8915   22.4677 O   0  0  0  0  0  0
  -23.5461  -32.1368   23.7214 O   0  0  0  0  0  0
  -30.6440  -18.0604   21.4004 C   0  0  0  0  0  0
  -29.8293  -17.2698   20.6020 C   0  0  0  0  0  0
  -29.4603  -19.8972   20.5229 C   0  0  0  0  0  0
  -28.6745  -23.8423   20.4115 C   0  0  0  0  0  0
  -28.3363  -25.1266   20.8633 C   0  0  0  0  0  0
  -28.9411  -23.4242   18.9928 C   0  0  0  0  0  0
  -28.7527  -21.8771   18.9697 C   0  0  0  0  0  0
  -28.8748  -22.4770   21.1939 C   0  0  1  0  0  0
  -28.0854  -25.4151   22.3330 C   0  0  0  0  0  0
  -27.7366  -22.1732   22.1815 C   0  0  0  0  0  0
  -30.4063  -19.4743   21.3794 N   0  0  0  0  0  0
  -29.0777  -21.2904   20.2789 N   0  0  0  0  0  0
  -29.6868  -15.8643   20.5424 N   0  0  0  0  0  0
  -28.7760  -18.4310   19.7099 S   0  0  0  0  0  0
  -31.4830  -12.6424   19.1547 H   0  0  0  0  0  0
  -30.4265  -11.5017   19.9481 H   0  0  0  0  0  0
  -29.8033  -11.7300   17.5235 H   0  0  0  0  0  0
  -29.6311  -13.4565   17.7055 H   0  0  0  0  0  0
  -27.9089  -11.2732   18.9212 H   0  0  0  0  0  0
  -27.3811  -12.5004   17.7996 H   0  0  0  0  0  0
  -27.6326  -14.2428   19.4624 H   0  0  0  0  0  0
  -28.7356  -12.1426   21.3973 H   0  0  0  0  0  0
  -28.4160  -13.8096   21.8058 H   0  0  0  0  0  0
  -25.2756   -9.5678   22.4757 H   0  0  0  0  0  0
  -23.9997   -7.4632   22.7469 H   0  0  0  0  0  0
  -21.0843   -8.8767   19.8946 H   0  0  0  0  0  0
  -22.3697  -10.9664   19.6162 H   0  0  0  0  0  0
  -21.1999   -7.6143   23.9714 H   0  0  0  0  0  0
  -21.1482   -6.0514   25.9075 H   0  0  0  0  0  0
  -22.0600   -2.7605   23.2841 H   0  0  0  0  0  0
  -22.4069  -11.9867   22.4814 H   0  0  0  0  0  0
  -21.1086  -13.1229   22.2615 H   0  0  0  0  0  0
  -24.6464  -15.8359   20.5228 H   0  0  0  0  0  0
  -26.2505  -15.6332   20.0415 H   0  0  0  0  0  0
  -26.7220  -32.5413   23.1072 H   0  0  0  0  0  0
  -25.0038  -33.9686   25.0375 H   0  0  0  0  0  0
  -22.7271  -31.2920   21.3864 H   0  0  0  0  0  0
  -23.3743  -35.9603   23.3328 H   0  0  0  0  0  0
  -24.3549  -36.8877   22.2055 H   0  0  0  0  0  0
  -23.7224  -37.6472   23.6649 H   0  0  0  0  0  0
  -26.1144  -31.5190   20.6012 H   0  0  0  0  0  0
  -26.8541  -30.8194   22.0118 H   0  0  0  0  0  0
  -28.1373  -28.9265   21.1978 H   0  0  0  0  0  0
  -26.0000  -25.8644   19.0570 H   0  0  0  0  0  0
  -23.9867  -27.2751   19.0244 H   0  0  0  0  0  0
  -23.7797  -30.5675   19.3972 H   0  0  0  0  0  0
  -22.7747  -29.2276   19.8563 H   0  0  0  0  0  0
  -25.1284  -36.1934   25.0825 H   0  0  0  0  0  0
  -20.9990  -28.3290   24.1388 H   0  0  0  0  0  0
  -20.5649  -26.2313   23.3618 H   0  0  0  0  0  0
  -21.6632  -26.7429   22.1226 H   0  0  0  0  0  0
  -19.6872  -25.6317   21.1235 H   0  0  0  0  0  0
  -19.6673  -27.3221   20.6743 H   0  0  0  0  0  0
  -17.4196  -26.6723   21.4046 H   0  0  0  0  0  0
  -18.0318  -26.0078   22.9022 H   0  0  0  0  0  0
  -19.7949  -30.7304   24.2251 H   0  0  0  0  0  0
  -17.5023  -31.6265   24.5193 H   0  0  0  0  0  0
  -15.5359  -30.2989   23.7651 H   0  0  0  0  0  0
  -15.8692  -28.0819   22.7070 H   0  0  0  0  0  0
  -24.5882  -30.7084   25.7781 H   0  0  0  0  0  0
  -24.8891  -32.2912   26.4859 H   0  0  0  0  0  0
  -25.8023  -30.8936   27.0233 H   0  0  0  0  0  0
  -26.2944  -29.6748   24.1208 H   0  0  0  0  0  0
  -27.3982  -29.7270   25.4751 H   0  0  0  0  0  0
  -27.8832  -30.4264   23.9492 H   0  0  0  0  0  0
  -27.2657  -33.3631   26.2066 H   0  0  0  0  0  0
  -28.3857  -32.6895   25.0326 H   0  0  0  0  0  0
  -28.0709  -31.8457   26.5420 H   0  0  0  0  0  0
  -28.2614  -38.0074   24.7511 H   0  0  0  0  0  0
  -28.1052  -36.2610   24.6304 H   0  0  0  0  0  0
  -27.2291  -37.1470   25.8875 H   0  0  0  0  0  0
  -20.9417  -29.8766   21.6861 H   0  0  0  0  0  0
  -26.0165  -38.2855   24.1412 H   0  0  0  0  0  0
  -31.3939  -17.6938   22.0873 H   0  0  0  0  0  0
  -29.9748  -23.6766   18.7585 H   0  0  0  0  0  0
  -28.2980  -23.9414   18.2802 H   0  0  0  0  0  0
  -29.3606  -21.4254   18.1844 H   0  0  0  0  0  0
  -27.7137  -21.6381   18.7413 H   0  0  0  0  0  0
  -29.7973  -22.5790   21.7668 H   0  0  0  0  0  0
  -27.0861  -25.0815   22.6125 H   0  0  0  0  0  0
  -28.1590  -26.4787   22.5584 H   0  0  0  0  0  0
  -28.8177  -24.9044   22.9586 H   0  0  0  0  0  0
  -26.7627  -22.1949   21.6924 H   0  0  0  0  0  0
  -27.7155  -22.8793   23.0078 H   0  0  0  0  0  0
  -27.8586  -21.1877   22.6308 H   0  0  0  0  0  0
  -28.7267  -15.5590   20.5193 H   0  0  0  0  0  0
  1 25  1  0  0  0
  1 30  2  0  0  0
  1 83  1  0  0  0
  2  3  1  0  0  0
  2 25  1  0  0  0
  2 85  1  0  0  0
  2 86  1  0  0  0
  3  4  1  0  0  0
  3 87  1  0  0  0
  3 88  1  0  0  0
  4  5  1  0  0  0
  4 89  1  0  0  0
  4 90  1  0  0  0
  5  6  1  0  0  0
  5 26  1  0  0  0
  5 91  1  0  0  0
  6 25  1  0  0  0
  6 92  1  0  0  0
  6 93  1  0  0  0
  7  8  2  0  0  0
  7 26  1  0  0  0
  7 29  1  0  0  0
  8  9  1  0  0  0
  8 22  1  0  0  0
  9 10  1  0  0  0
  9 27  2  0  0  0
 10 11  2  0  0  0
 10 15  1  0  0  0
 11 12  1  0  0  0
 11 94  1  0  0  0
 12 13  2  0  0  0
 12 95  1  0  0  0
 13 14  1  0  0  0
 13 31  1  0  0  0
 14 15  2  0  0  0
 14 96  1  0  0  0
 15 97  1  0  0  0
 16 17  2  0  0  0
 16 21  1  0  0  0
 16 31  1  0  0  0
 17 18  1  0  0  0
 17 98  1  0  0  0
 18 19  2  0  0  0
 18 99  1  0  0  0
 19 20  1  0  0  0
 19 24  1  0  0  0
 20 21  2  0  0  0
 20100  1  0  0  0
 21 23  1  0  0  0
 22 28  1  0  0  0
 22 32  2  0  0  0
 26 27  1  0  0  0
 28101  1  0  0  0
 28102  1  0  0  0
 29103  1  0  0  0
 29104  1  0  0  0
 33 34  1  0  0  0
 33 66  1  0  0  0
 33 70  2  0  0  0
 34 36  1  0  0  0
 34 59  1  0  0  0
 34105  1  0  0  0
 35 44  2  0  0  0
 35 45  1  0  0  0
 35 68  1  0  0  0
 36 56  1  0  0  0
 36106  1  0  0  0
 37 39  1  0  0  0
 37 47  1  0  0  0
 37 66  1  0  0  0
 37107  1  0  0  0
 38 43  2  0  0  0
 38 46  1  0  0  0
 38 47  1  0  0  0
 39 64  1  0  0  0
 39 67  2  0  0  0
 40 52  1  0  0  0
 40 53  2  0  0  0
 40 58  1  0  0  0
 41108  1  0  0  0
 41109  1  0  0  0
 41110  1  0  0  0
 41 48  1  0  0  0
 42 43  1  0  0  0
 42 66  1  0  0  0
 42111  1  0  0  0
 42112  1  0  0  0
 43 44  1  0  0  0
 44113  1  0  0  0
 45 46  2  0  0  0
 45114  1  0  0  0
 46115  1  0  0  0
 47116  1  0  0  0
 47117  1  0  0  0
 48 56  1  0  0  0
 48 65  1  0  0  0
 48118  1  0  0  0
 49 50  1  0  0  0
 49 53  1  0  0  0
 49 64  1  0  0  0
 49119  1  0  0  0
 50 51  1  0  0  0
 50120  1  0  0  0
 50121  1  0  0  0
 51 52  1  0  0  0
 51122  1  0  0  0
 51123  1  0  0  0
 52124  1  0  0  0
 52125  1  0  0  0
 53 54  1  0  0  0
 54 55  2  0  0  0
 54126  1  0  0  0
 55 57  1  0  0  0
 55127  1  0  0  0
 56 69  2  0  0  0
 57 58  2  0  0  0
 57128  1  0  0  0
 58129  1  0  0  0
 59 60  1  0  0  0
 59 61  1  0  0  0
 59 62  1  0  0  0
 60130  1  0  0  0
 60131  1  0  0  0
 60132  1  0  0  0
 61133  1  0  0  0
 61134  1  0  0  0
 61135  1  0  0  0
 62136  1  0  0  0
 62137  1  0  0  0
 62138  1  0  0  0
 63 65  1  0  0  0
 63139  1  0  0  0
 63140  1  0  0  0
 63141  1  0  0  0
 64142  1  0  0  0
 65143  1  0  0  0
 68 75  1  0  0  0
 71 72  2  0  0  0
 71 81  1  0  0  0
 71144  1  0  0  0
 72 83  1  0  0  0
 72 84  1  0  0  0
 73 81  2  0  0  0
 73 82  1  0  0  0
 73 84  1  0  0  0
 74 75  2  0  0  0
 74 76  1  0  0  0
 74 78  1  0  0  0
 75 79  1  0  0  0
 76 77  1  0  0  0
 76145  1  0  0  0
 76146  1  0  0  0
 77 82  1  0  0  0
 77147  1  0  0  0
 77148  1  0  0  0
 78 80  1  0  0  0
 78 82  1  0  0  0
 78149  1  0  0  0
 79150  1  0  0  0
 79151  1  0  0  0
 79152  1  0  0  0
 80153  1  0  0  0
 80154  1  0  0  0
 80155  1  0  0  0
 83156  1  0  0  0
M  ISO  4   1 100  68 101  75 101  83 100
M  END
> <chiral flag>
0

> <version>
0

> <s_m_source_file>
/data/baiqing/PycharmProjects/Reinvent-master-3.2/result/LINK_invent/BTK/process_docking_weight1_custom_product_contain_oxygen_bond_distance_aromatic_linkinvent_7_9_3/rearranged_h_0141.sdf

> <i_m_source_file_index>
85

> <r_mmod_Potential_Energy-OPLS-2005>
210.416122436523

> <r_mmod_Stretch_Energy-OPLS-2005>
116.796997070312

> <r_mmod_Bend_Energy-OPLS-2005>
190.801193237305

> <r_mmod_Torsional_Energy-OPLS-2005>
275.48779296875

> <r_mmod_Improper_Torsional_Energy-OPLS-2005>
7.13975715637207

> <r_mmod_Van_der_Waal_Energy-OPLS-2005>
103.868087768555

> <r_mmod_Electrostatic_Energy-OPLS-2005>
-363.513336181641

> <r_mmod_Solvation_Energy-OPLS-2005>
-218.494003295898

> <b_mmod_Minimization_Converged-OPLS-2005>
0

> <r_mmod_RMS_Derivative-OPLS-2005>
2.19518303871155

$$$$
85
                    3D
 Structure written by MMmdl.
173181  0  0  1  0            999 V2000
  -30.7012  -14.5111   20.6129 C   0  0  0  0  0  0
  -30.4167  -12.3509   19.4203 C   0  0  0  0  0  0
  -29.4811  -12.5167   18.2064 C   0  0  0  0  0  0
  -28.0049  -12.3611   18.6211 C   0  0  0  0  0  0
  -27.6474  -13.2133   19.8676 C   0  0  2  0  0  0
  -28.6933  -13.0188   20.9851 C   0  0  0  0  0  0
  -25.2522  -13.8175   20.5708 C   0  0  0  0  0  0
  -24.1790  -13.0466   20.9226 C   0  0  0  0  0  0
  -24.6339  -11.6917   20.8712 C   0  0  0  0  0  0
  -23.9011  -10.4307   21.0364 C   0  0  0  0  0  0
  -24.3574   -9.4229   21.9154 C   0  0  0  0  0  0
  -23.6278   -8.2248   22.0722 C   0  0  0  0  0  0
  -22.4247   -8.0260   21.3538 C   0  0  0  0  0  0
  -21.9877   -9.0225   20.4626 C   0  0  0  0  0  0
  -22.7180  -10.2117   20.3035 C   0  0  0  0  0  0
  -21.6856   -6.0717   22.5276 C   0  0  0  0  0  0
  -21.4009   -6.5630   23.8204 C   0  0  0  0  0  0
  -21.3671   -5.6786   24.9188 C   0  0  0  0  0  0
  -21.6056   -4.3047   24.7229 C   0  0  0  0  0  0
  -21.8833   -3.8130   23.4354 C   0  0  0  0  0  0
  -21.9183   -4.6951   22.3401 C   0  0  0  0  0  0
  -22.7812  -13.5227   21.1916 C   0  0  0  0  0  0
  -22.1659   -4.2138   21.0983 F   0  0  0  0  0  0
  -21.5645   -3.4531   25.7743 F   0  0  0  0  0  0
  -30.0109  -13.3487   20.4242 N   0  0  0  0  0  0
  -26.2937  -12.9347   20.3347 N   0  0  0  0  0  0
  -25.9265  -11.6502   20.5754 N   0  0  0  0  0  0
  -22.0466  -12.8180   22.0439 N   0  0  0  0  0  0
  -25.4259  -15.1903   20.4137 N   0  0  0  0  0  0
  -31.8289  -14.6883   20.1457 O   0  0  0  0  0  0
  -21.6639   -6.8847   21.4223 O   0  0  0  0  0  0
  -22.3462  -14.5534   20.6760 O   0  0  0  0  0  0
  -24.6136  -31.8686   23.2081 C   0  0  0  0  0  0
  -25.9005  -32.4836   23.8416 C   0  0  1  0  0  0
  -27.2397  -27.4196   20.1127 C   0  0  0  0  0  0
  -25.5870  -33.8638   24.2339 N   0  0  0  0  0  0
  -23.4078  -30.4879   21.5488 C   0  0  2  0  0  0
  -24.8562  -28.9431   20.1305 C   0  0  0  0  0  0
  -22.7397  -29.4669   22.4978 C   0  0  0  0  0  0
  -18.0279  -28.1432   22.8450 C   0  0  0  0  0  0
  -24.1486  -36.7334   23.2629 C   0  0  0  0  0  0
  -25.9364  -30.8271   21.3636 C   0  0  0  0  0  0
  -26.0147  -29.4520   20.7314 C   0  0  0  0  0  0
  -27.2110  -28.6914   20.7333 C   0  0  0  0  0  0
  -26.0680  -26.9280   19.5067 C   0  0  0  0  0  0
  -24.8768  -27.6791   19.5157 C   0  0  0  0  0  0
  -23.6213  -29.8172   20.1669 C   0  0  0  0  0  0
  -25.4094  -36.3117   24.0319 C   0  0  1  0  0  0
  -20.5867  -28.3696   23.1324 C   0  0  2  0  0  0
  -20.6799  -26.9452   22.5419 C   0  0  0  0  0  0
  -19.5784  -26.6415   21.5220 C   0  0  0  0  0  0
  -18.1935  -26.7968   22.1612 C   0  0  0  0  0  0
  -19.1528  -28.8861   23.2879 C   0  0  0  0  0  0
  -18.9460  -30.1451   23.8896 C   0  0  0  0  0  0
  -17.6474  -30.6597   24.0566 C   0  0  0  0  0  0
  -25.9032  -34.9482   23.5133 C   0  0  0  0  0  0
  -16.5354  -29.9108   23.6353 C   0  0  0  0  0  0
  -16.7264  -28.6559   23.0299 C   0  0  0  0  0  0
  -26.4468  -31.6611   25.0717 C   0  0  0  0  0  0
  -25.3747  -31.3748   26.1467 C   0  0  0  0  0  0
  -27.0279  -30.3037   24.6067 C   0  0  0  0  0  0
  -27.6019  -32.4337   25.7497 C   0  0  0  0  0  0
  -27.5571  -37.1827   24.8453 C   0  0  0  0  0  0
  -21.4120  -29.3048   22.3689 N   0  0  0  0  0  0
  -26.4285  -37.3782   23.9395 N   0  0  0  0  0  0
  -24.6709  -31.0777   22.0987 N   0  0  0  0  0  0
  -23.4133  -28.8220   23.3052 O   0  0  0  0  0  0
  -28.3891  -26.6710   19.9743 O   0  0  0  0  0  0
  -26.5584  -34.8924   22.4695 O   0  0  0  0  0  0
  -23.5312  -32.1418   23.7451 O   0  0  0  0  0  0
  -30.9595  -18.3975   23.5497 C   0  0  0  0  0  0
  -31.7085  -17.6932   24.5081 C   0  0  0  0  0  0
  -31.3388  -15.6499   23.2763 C   0  0  0  0  0  0
  -30.6056  -16.3425   22.2745 C   0  0  0  0  0  0
  -30.3936  -17.7675   22.4052 C   0  0  0  0  0  0
  -31.8927  -16.3159   24.3763 C   0  0  0  0  0  0
  -28.2592  -24.5992   21.3335 C   0  0  0  0  0  0
  -28.8312  -23.3743   21.5493 C   0  0  0  0  0  0
  -30.3457  -23.1914   21.5189 C   0  0  0  0  0  0
  -26.4689  -22.4181   21.8040 C   0  0  0  0  0  0
  -28.2070  -21.9072   23.4407 C   0  0  0  0  0  0
  -27.1752  -19.6841   21.2458 C   0  0  0  0  0  0
  -28.3531  -21.0366   19.5599 C   0  0  0  0  0  0
  -28.9012  -25.9777   21.1155 C   0  0  0  0  0  0
  -29.6800  -19.9697   21.4249 C   0  0  0  0  0  0
  -27.9982  -22.0910   21.9149 C   0  0  0  0  0  0
  -28.3227  -20.7251   21.0766 C   0  0  0  0  0  0
  -30.0436  -15.5244   21.2377 N   0  0  0  0  0  0
  -29.6461  -18.4990   21.4715 O   0  0  0  0  0  0
  -32.5775  -15.6303   25.3225 F   0  0  0  0  0  0
  -31.4574  -12.4646   19.1101 H   0  0  0  0  0  0
  -30.3394  -11.3460   19.8386 H   0  0  0  0  0  0
  -29.7342  -11.7978   17.4264 H   0  0  0  0  0  0
  -29.6333  -13.5058   17.7708 H   0  0  0  0  0  0
  -27.8187  -11.3060   18.8219 H   0  0  0  0  0  0
  -27.3561  -12.6253   17.7856 H   0  0  0  0  0  0
  -27.6774  -14.2572   19.5533 H   0  0  0  0  0  0
  -28.6882  -11.9836   21.3251 H   0  0  0  0  0  0
  -28.4463  -13.6120   21.8647 H   0  0  0  0  0  0
  -25.2721   -9.5735   22.4729 H   0  0  0  0  0  0
  -24.0021   -7.4632   22.7411 H   0  0  0  0  0  0
  -21.0832   -8.8729   19.8890 H   0  0  0  0  0  0
  -22.3633  -10.9660   19.6144 H   0  0  0  0  0  0
  -21.1999   -7.6139   23.9724 H   0  0  0  0  0  0
  -21.1481   -6.0512   25.9099 H   0  0  0  0  0  0
  -22.0584   -2.7588   23.2863 H   0  0  0  0  0  0
  -22.4105  -11.9855   22.4844 H   0  0  0  0  0  0
  -21.1082  -13.1142   22.2681 H   0  0  0  0  0  0
  -24.6610  -15.8490   20.5176 H   0  0  0  0  0  0
  -26.2821  -15.6196   20.0859 H   0  0  0  0  0  0
  -26.7057  -32.5572   23.1184 H   0  0  0  0  0  0
  -25.0063  -33.9869   25.0507 H   0  0  0  0  0  0
  -22.6979  -31.3035   21.4035 H   0  0  0  0  0  0
  -23.3736  -35.9693   23.3299 H   0  0  0  0  0  0
  -24.3599  -36.8936   22.2052 H   0  0  0  0  0  0
  -23.7289  -37.6549   23.6657 H   0  0  0  0  0  0
  -26.0468  -31.5747   20.5770 H   0  0  0  0  0  0
  -26.8264  -30.8993   21.9775 H   0  0  0  0  0  0
  -28.1101  -29.0884   21.1816 H   0  0  0  0  0  0
  -26.0875  -25.9629   19.0183 H   0  0  0  0  0  0
  -23.9908  -27.2754   19.0446 H   0  0  0  0  0  0
  -23.7462  -30.5950   19.4112 H   0  0  0  0  0  0
  -22.7420  -29.2439   19.8646 H   0  0  0  0  0  0
  -25.1314  -36.1965   25.0812 H   0  0  0  0  0  0
  -20.9957  -28.3275   24.1443 H   0  0  0  0  0  0
  -20.5776  -26.2311   23.3585 H   0  0  0  0  0  0
  -21.6669  -26.7568   22.1172 H   0  0  0  0  0  0
  -19.6984  -25.6329   21.1227 H   0  0  0  0  0  0
  -19.6736  -27.3239   20.6754 H   0  0  0  0  0  0
  -17.4228  -26.6673   21.3974 H   0  0  0  0  0  0
  -18.0316  -26.0131   22.9043 H   0  0  0  0  0  0
  -19.7923  -30.7253   24.2263 H   0  0  0  0  0  0
  -17.5037  -31.6273   24.5184 H   0  0  0  0  0  0
  -15.5355  -30.3026   23.7686 H   0  0  0  0  0  0
  -15.8652  -28.0900   22.7002 H   0  0  0  0  0  0
  -24.5900  -30.7101   25.7843 H   0  0  0  0  0  0
  -24.8968  -32.2923   26.4898 H   0  0  0  0  0  0
  -25.8091  -30.8953   27.0240 H   0  0  0  0  0  0
  -26.2816  -29.6814   24.1079 H   0  0  0  0  0  0
  -27.4021  -29.7246   25.4532 H   0  0  0  0  0  0
  -27.8682  -30.4357   23.9230 H   0  0  0  0  0  0
  -27.2583  -33.3610   26.2097 H   0  0  0  0  0  0
  -28.3807  -32.6922   25.0314 H   0  0  0  0  0  0
  -28.0689  -31.8445   26.5404 H   0  0  0  0  0  0
  -28.2590  -38.0121   24.7477 H   0  0  0  0  0  0
  -28.1071  -36.2655   24.6309 H   0  0  0  0  0  0
  -27.2297  -37.1486   25.8857 H   0  0  0  0  0  0
  -20.9268  -29.8737   21.6887 H   0  0  0  0  0  0
  -26.0173  -38.2853   24.1404 H   0  0  0  0  0  0
  -30.8353  -19.4393   23.7788 H   0  0  0  0  0  0
  -32.1219  -18.2080   25.3644 H   0  0  0  0  0  0
  -31.4802  -14.5796   23.2279 H   0  0  0  0  0  0
  -27.1885  -24.7016   21.3597 H   0  0  0  0  0  0
  -30.8916  -24.1288   21.5183 H   0  0  0  0  0  0
  -30.6441  -22.6614   20.6179 H   0  0  0  0  0  0
  -30.7184  -22.6472   22.3857 H   0  0  0  0  0  0
  -25.8335  -21.6053   22.1488 H   0  0  0  0  0  0
  -26.1654  -22.6736   20.7864 H   0  0  0  0  0  0
  -26.1632  -23.2455   22.4475 H   0  0  0  0  0  0
  -27.5806  -21.1195   23.8578 H   0  0  0  0  0  0
  -27.9582  -22.8308   23.9732 H   0  0  0  0  0  0
  -29.2360  -21.6886   23.7186 H   0  0  0  0  0  0
  -27.4068  -18.7258   20.7843 H   0  0  0  0  0  0
  -26.2582  -19.9988   20.7429 H   0  0  0  0  0  0
  -26.9406  -19.4889   22.2936 H   0  0  0  0  0  0
  -29.1814  -21.6896   19.2777 H   0  0  0  0  0  0
  -27.4320  -21.5176   19.2287 H   0  0  0  0  0  0
  -28.4592  -20.1154   18.9826 H   0  0  0  0  0  0
  -29.9729  -25.9009   20.9466 H   0  0  0  0  0  0
  -28.7615  -26.5804   22.0162 H   0  0  0  0  0  0
  -30.4226  -20.2069   20.6614 H   0  0  0  0  0  0
  -30.1167  -20.4377   22.2877 H   0  0  0  0  0  0
  -29.0410  -15.4359   21.2771 H   0  0  0  0  0  0
  1 25  1  0  0  0
  1 30  2  0  0  0
  1 88  1  0  0  0
  2  3  1  0  0  0
  2 25  1  0  0  0
  2 91  1  0  0  0
  2 92  1  0  0  0
  3  4  1  0  0  0
  3 93  1  0  0  0
  3 94  1  0  0  0
  4  5  1  0  0  0
  4 95  1  0  0  0
  4 96  1  0  0  0
  5  6  1  0  0  0
  5 26  1  0  0  0
  5 97  1  0  0  0
  6 25  1  0  0  0
  6 98  1  0  0  0
  6 99  1  0  0  0
  7  8  2  0  0  0
  7 26  1  0  0  0
  7 29  1  0  0  0
  8  9  1  0  0  0
  8 22  1  0  0  0
  9 10  1  0  0  0
  9 27  2  0  0  0
 10 11  2  0  0  0
 10 15  1  0  0  0
 11 12  1  0  0  0
 11100  1  0  0  0
 12 13  2  0  0  0
 12101  1  0  0  0
 13 14  1  0  0  0
 13 31  1  0  0  0
 14 15  2  0  0  0
 14102  1  0  0  0
 15103  1  0  0  0
 16 17  2  0  0  0
 16 21  1  0  0  0
 16 31  1  0  0  0
 17 18  1  0  0  0
 17104  1  0  0  0
 18 19  2  0  0  0
 18105  1  0  0  0
 19 20  1  0  0  0
 19 24  1  0  0  0
 20 21  2  0  0  0
 20106  1  0  0  0
 21 23  1  0  0  0
 22 28  1  0  0  0
 22 32  2  0  0  0
 26 27  1  0  0  0
 28107  1  0  0  0
 28108  1  0  0  0
 29109  1  0  0  0
 29110  1  0  0  0
 33 34  1  0  0  0
 33 66  1  0  0  0
 33 70  2  0  0  0
 34 36  1  0  0  0
 34 59  1  0  0  0
 34111  1  0  0  0
 35 44  2  0  0  0
 35 45  1  0  0  0
 35 68  1  0  0  0
 36 56  1  0  0  0
 36112  1  0  0  0
 37 39  1  0  0  0
 37 47  1  0  0  0
 37 66  1  0  0  0
 37113  1  0  0  0
 38 43  2  0  0  0
 38 46  1  0  0  0
 38 47  1  0  0  0
 39 64  1  0  0  0
 39 67  2  0  0  0
 40 52  1  0  0  0
 40 53  2  0  0  0
 40 58  1  0  0  0
 41114  1  0  0  0
 41115  1  0  0  0
 41116  1  0  0  0
 41 48  1  0  0  0
 42 43  1  0  0  0
 42 66  1  0  0  0
 42117  1  0  0  0
 42118  1  0  0  0
 43 44  1  0  0  0
 44119  1  0  0  0
 45 46  2  0  0  0
 45120  1  0  0  0
 46121  1  0  0  0
 47122  1  0  0  0
 47123  1  0  0  0
 48 56  1  0  0  0
 48 65  1  0  0  0
 48124  1  0  0  0
 49 50  1  0  0  0
 49 53  1  0  0  0
 49 64  1  0  0  0
 49125  1  0  0  0
 50 51  1  0  0  0
 50126  1  0  0  0
 50127  1  0  0  0
 51 52  1  0  0  0
 51128  1  0  0  0
 51129  1  0  0  0
 52130  1  0  0  0
 52131  1  0  0  0
 53 54  1  0  0  0
 54 55  2  0  0  0
 54132  1  0  0  0
 55 57  1  0  0  0
 55133  1  0  0  0
 56 69  2  0  0  0
 57 58  2  0  0  0
 57134  1  0  0  0
 58135  1  0  0  0
 59 60  1  0  0  0
 59 61  1  0  0  0
 59 62  1  0  0  0
 60136  1  0  0  0
 60137  1  0  0  0
 60138  1  0  0  0
 61139  1  0  0  0
 61140  1  0  0  0
 61141  1  0  0  0
 62142  1  0  0  0
 62143  1  0  0  0
 62144  1  0  0  0
 63 65  1  0  0  0
 63145  1  0  0  0
 63146  1  0  0  0
 63147  1  0  0  0
 64148  1  0  0  0
 65149  1  0  0  0
 68 84  1  0  0  0
 71 72  2  0  0  0
 71 75  1  0  0  0
 71150  1  0  0  0
 72 76  1  0  0  0
 72151  1  0  0  0
 73 74  1  0  0  0
 73 76  2  0  0  0
 73152  1  0  0  0
 74 75  2  0  0  0
 74 88  1  0  0  0
 75 89  1  0  0  0
 76 90  1  0  0  0
 77 78  2  0  0  0
 77 84  1  0  0  0
 77153  1  0  0  0
 78 79  1  0  0  0
 78 86  1  0  0  0
 79154  1  0  0  0
 79155  1  0  0  0
 79156  1  0  0  0
 80157  1  0  0  0
 80158  1  0  0  0
 80159  1  0  0  0
 80 86  1  0  0  0
 81 86  1  0  0  0
 81160  1  0  0  0
 81161  1  0  0  0
 81162  1  0  0  0
 82163  1  0  0  0
 82164  1  0  0  0
 82165  1  0  0  0
 82 87  1  0  0  0
 83 87  1  0  0  0
 83166  1  0  0  0
 83167  1  0  0  0
 83168  1  0  0  0
 84169  1  0  0  0
 84170  1  0  0  0
 85 87  1  0  0  0
 85 89  1  0  0  0
 85171  1  0  0  0
 85172  1  0  0  0
 86 87  1  0  0  0
 88173  1  0  0  0
M  ISO  4   1 100  68 101  84 101  88 100
M  END
> <chiral flag>
0

> <version>
0

> <s_m_source_file>
/data/baiqing/PycharmProjects/Reinvent-master-3.2/result/LINK_invent/BTK/process_docking_weight1_custom_product_contain_oxygen_bond_distance_aromatic_linkinvent_7_9_3/rearranged_h_0141.sdf

> <i_m_source_file_index>
86

> <r_mmod_Potential_Energy-OPLS-2005>
107.098999023438

> <r_mmod_Stretch_Energy-OPLS-2005>
76.7742691040039

> <r_mmod_Bend_Energy-OPLS-2005>
159.866790771484

> <r_mmod_Torsional_Energy-OPLS-2005>
292.760498046875

> <r_mmod_Improper_Torsional_Energy-OPLS-2005>
5.50176477432251

> <r_mmod_Van_der_Waal_Energy-OPLS-2005>
189.514190673828

> <r_mmod_Electrostatic_Energy-OPLS-2005>
-445.044342041016

> <r_mmod_Solvation_Energy-OPLS-2005>
-188.718658447266

> <b_mmod_Minimization_Converged-OPLS-2005>
0

> <r_mmod_RMS_Derivative-OPLS-2005>
6.18521928787231

$$$$
86
                    3D
 Structure written by MMmdl.
173182  0  0  1  0            999 V2000
  -30.7102  -14.4187   20.5907 C   0  0  0  0  0  0
  -30.4228  -12.2828   19.4005 C   0  0  0  0  0  0
  -29.4887  -12.4994   18.1933 C   0  0  0  0  0  0
  -28.0075  -12.3735   18.6076 C   0  0  0  0  0  0
  -27.6636  -13.1919   19.8815 C   0  0  2  0  0  0
  -28.7084  -12.9406   20.9902 C   0  0  0  0  0  0
  -25.2611  -13.8121   20.5678 C   0  0  0  0  0  0
  -24.1849  -13.0429   20.9172 C   0  0  0  0  0  0
  -24.6382  -11.6887   20.8740 C   0  0  0  0  0  0
  -23.9051  -10.4286   21.0415 C   0  0  0  0  0  0
  -24.3604   -9.4199   21.9190 C   0  0  0  0  0  0
  -23.6285   -8.2233   22.0756 C   0  0  0  0  0  0
  -22.4269   -8.0276   21.3545 C   0  0  0  0  0  0
  -21.9905   -9.0247   20.4645 C   0  0  0  0  0  0
  -22.7228  -10.2131   20.3061 C   0  0  0  0  0  0
  -21.6847   -6.0740   22.5282 C   0  0  0  0  0  0
  -21.4007   -6.5638   23.8220 C   0  0  0  0  0  0
  -21.3658   -5.6791   24.9182 C   0  0  0  0  0  0
  -21.6047   -4.3057   24.7229 C   0  0  0  0  0  0
  -21.8819   -3.8150   23.4351 C   0  0  0  0  0  0
  -21.9189   -4.6968   22.3407 C   0  0  0  0  0  0
  -22.7878  -13.5243   21.1832 C   0  0  0  0  0  0
  -22.1661   -4.2158   21.0981 F   0  0  0  0  0  0
  -21.5630   -3.4539   25.7739 F   0  0  0  0  0  0
  -30.0378  -13.2491   20.4359 N   0  0  0  0  0  0
  -26.3037  -12.9260   20.3404 N   0  0  0  0  0  0
  -25.9306  -11.6440   20.5792 N   0  0  0  0  0  0
  -22.0506  -12.8251   22.0383 N   0  0  0  0  0  0
  -25.4344  -15.1844   20.4063 N   0  0  0  0  0  0
  -31.8386  -14.6164   20.1297 O   0  0  0  0  0  0
  -21.6632   -6.8881   21.4242 O   0  0  0  0  0  0
  -22.3582  -14.5561   20.6693 O   0  0  0  0  0  0
  -24.6095  -31.8680   23.2135 C   0  0  0  0  0  0
  -25.8996  -32.4825   23.8417 C   0  0  1  0  0  0
  -27.2352  -27.4626   20.0953 C   0  0  0  0  0  0
  -25.5877  -33.8630   24.2338 N   0  0  0  0  0  0
  -23.3978  -30.4935   21.5525 C   0  0  2  0  0  0
  -24.8454  -28.9617   20.1160 C   0  0  0  0  0  0
  -22.7393  -29.4647   22.5001 C   0  0  0  0  0  0
  -18.0260  -28.1349   22.8498 C   0  0  0  0  0  0
  -24.1471  -36.7320   23.2643 C   0  0  0  0  0  0
  -25.9238  -30.8435   21.3647 C   0  0  0  0  0  0
  -26.0037  -29.4802   20.7116 C   0  0  0  0  0  0
  -27.2027  -28.7359   20.7032 C   0  0  0  0  0  0
  -26.0695  -26.9546   19.4898 C   0  0  0  0  0  0
  -24.8718  -27.6959   19.5043 C   0  0  0  0  0  0
  -23.6055  -29.8255   20.1668 C   0  0  0  0  0  0
  -25.4097  -36.3128   24.0345 C   0  0  1  0  0  0
  -20.5863  -28.3608   23.1325 C   0  0  2  0  0  0
  -20.6747  -26.9349   22.5417 C   0  0  0  0  0  0
  -19.5723  -26.6360   21.5209 C   0  0  0  0  0  0
  -18.1894  -26.7912   22.1611 C   0  0  0  0  0  0
  -19.1518  -28.8797   23.2908 C   0  0  0  0  0  0
  -18.9460  -30.1424   23.8887 C   0  0  0  0  0  0
  -17.6461  -30.6568   24.0551 C   0  0  0  0  0  0
  -25.9016  -34.9487   23.5138 C   0  0  0  0  0  0
  -16.5347  -29.9050   23.6340 C   0  0  0  0  0  0
  -16.7255  -28.6471   23.0349 C   0  0  0  0  0  0
  -26.4473  -31.6592   25.0726 C   0  0  0  0  0  0
  -25.3772  -31.3683   26.1494 C   0  0  0  0  0  0
  -27.0340  -30.3045   24.6090 C   0  0  0  0  0  0
  -27.6056  -32.4323   25.7464 C   0  0  0  0  0  0
  -27.5586  -37.1808   24.8468 C   0  0  0  0  0  0
  -21.4123  -29.2994   22.3749 N   0  0  0  0  0  0
  -26.4297  -37.3794   23.9421 N   0  0  0  0  0  0
  -24.6616  -31.0817   22.1018 N   0  0  0  0  0  0
  -23.4183  -28.8179   23.3020 O   0  0  0  0  0  0
  -28.3907  -26.7230   20.0604 O   0  0  0  0  0  0
  -26.5572  -34.8931   22.4695 O   0  0  0  0  0  0
  -23.5297  -32.1414   23.7556 O   0  0  0  0  0  0
  -31.8407  -18.3569   22.4197 C   0  0  0  0  0  0
  -31.2125  -19.4059   21.7316 C   0  0  0  0  0  0
  -31.4245  -17.0365   22.2019 C   0  0  0  0  0  0
  -29.7766  -17.8077   20.5370 C   0  0  0  0  0  0
  -30.1672  -19.1557   20.8141 C   0  0  0  0  0  0
  -30.4033  -16.7558   21.2705 C   0  0  0  0  0  0
  -26.7527  -24.3149   21.7734 C   0  0  0  0  0  0
  -27.8934  -24.5549   21.0972 C   0  0  0  0  0  0
  -28.9027  -16.4395   18.4148 C   0  0  0  0  0  0
  -28.9146  -17.8887   18.0358 C   0  0  0  0  0  0
  -28.7230  -17.4958   19.4918 C   0  0  0  0  0  0
  -27.1588  -20.1000   21.0175 C   0  0  0  0  0  0
  -28.7488  -21.4948   22.3169 C   0  0  0  0  0  0
  -29.5326  -20.3804   20.1331 C   0  0  0  0  0  0
  -28.5800  -23.5410   20.1745 C   0  0  0  0  0  0
  -28.5978  -25.9052   21.2120 C   0  0  0  0  0  0
  -28.3465  -21.0755   20.8808 C   0  0  0  0  0  0
  -29.9866  -15.4089   21.1379 N   0  0  0  0  0  0
  -27.8694  -22.2387   20.0693 N   0  3  0  0  0  0
  -31.4661  -12.3866   19.0976 H   0  0  0  0  0  0
  -30.3256  -11.2660   19.7844 H   0  0  0  0  0  0
  -29.7176  -11.7785   17.4072 H   0  0  0  0  0  0
  -29.6645  -13.4856   17.7608 H   0  0  0  0  0  0
  -27.7991  -11.3159   18.7795 H   0  0  0  0  0  0
  -27.3628  -12.6764   17.7822 H   0  0  0  0  0  0
  -27.7144  -14.2435   19.6136 H   0  0  0  0  0  0
  -28.6836  -11.8945   21.3007 H   0  0  0  0  0  0
  -28.4795  -13.5123   21.8910 H   0  0  0  0  0  0
  -25.2752   -9.5677   22.4757 H   0  0  0  0  0  0
  -23.9998   -7.4628   22.7474 H   0  0  0  0  0  0
  -21.0836   -8.8763   19.8950 H   0  0  0  0  0  0
  -22.3687  -10.9670   19.6165 H   0  0  0  0  0  0
  -21.1992   -7.6148   23.9725 H   0  0  0  0  0  0
  -21.1478   -6.0522   25.9084 H   0  0  0  0  0  0
  -22.0599   -2.7614   23.2846 H   0  0  0  0  0  0
  -22.4102  -11.9902   22.4768 H   0  0  0  0  0  0
  -21.1125  -13.1294   22.2581 H   0  0  0  0  0  0
  -24.6633  -15.8360   20.5077 H   0  0  0  0  0  0
  -26.2852  -15.6225   20.0797 H   0  0  0  0  0  0
  -26.7090  -32.5578   23.1214 H   0  0  0  0  0  0
  -25.0126  -33.9817   25.0549 H   0  0  0  0  0  0
  -22.6862  -31.3096   21.4148 H   0  0  0  0  0  0
  -23.3750  -35.9630   23.3304 H   0  0  0  0  0  0
  -24.3568  -36.8923   22.2057 H   0  0  0  0  0  0
  -23.7195  -37.6521   23.6645 H   0  0  0  0  0  0
  -26.0379  -31.6144   20.6017 H   0  0  0  0  0  0
  -26.8101  -30.8932   21.9850 H   0  0  0  0  0  0
  -28.1004  -29.1381   21.1529 H   0  0  0  0  0  0
  -26.0914  -25.9869   19.0105 H   0  0  0  0  0  0
  -23.9816  -27.2944   19.0394 H   0  0  0  0  0  0
  -23.7162  -30.6019   19.4093 H   0  0  0  0  0  0
  -22.7292  -29.2481   19.8675 H   0  0  0  0  0  0
  -25.1274  -36.1997   25.0840 H   0  0  0  0  0  0
  -20.9952  -28.3145   24.1444 H   0  0  0  0  0  0
  -20.5615  -26.2212   23.3587 H   0  0  0  0  0  0
  -21.6612  -26.7360   22.1227 H   0  0  0  0  0  0
  -19.6866  -25.6275   21.1213 H   0  0  0  0  0  0
  -19.6676  -27.3195   20.6761 H   0  0  0  0  0  0
  -17.4178  -26.6668   21.4002 H   0  0  0  0  0  0
  -18.0281  -26.0050   22.9001 H   0  0  0  0  0  0
  -19.7945  -30.7241   24.2226 H   0  0  0  0  0  0
  -17.5018  -31.6257   24.5123 H   0  0  0  0  0  0
  -15.5342  -30.2928   23.7680 H   0  0  0  0  0  0
  -15.8662  -28.0778   22.7045 H   0  0  0  0  0  0
  -24.5976  -30.6975   25.7851 H   0  0  0  0  0  0
  -24.8961  -32.2852   26.4927 H   0  0  0  0  0  0
  -25.8193  -30.8895   27.0241 H   0  0  0  0  0  0
  -26.2898  -29.6765   24.1185 H   0  0  0  0  0  0
  -27.4179  -29.7291   25.4522 H   0  0  0  0  0  0
  -27.8683  -30.4390   23.9194 H   0  0  0  0  0  0
  -27.2701  -33.3637   26.2020 H   0  0  0  0  0  0
  -28.3882  -32.6845   25.0302 H   0  0  0  0  0  0
  -28.0709  -31.8470   26.5398 H   0  0  0  0  0  0
  -28.2597  -38.0122   24.7554 H   0  0  0  0  0  0
  -28.1090  -36.2656   24.6245 H   0  0  0  0  0  0
  -27.2298  -37.1386   25.8868 H   0  0  0  0  0  0
  -20.9236  -29.8772   21.7063 H   0  0  0  0  0  0
  -26.0189  -38.2857   24.1475 H   0  0  0  0  0  0
  -32.6347  -18.5663   23.1235 H   0  0  0  0  0  0
  -31.5397  -20.4199   21.9205 H   0  0  0  0  0  0
  -31.8966  -16.2364   22.7554 H   0  0  0  0  0  0
  -26.2192  -23.3785   21.7255 H   0  0  0  0  0  0
  -26.3196  -25.0752   22.4074 H   0  0  0  0  0  0
  -29.8515  -15.9156   18.3381 H   0  0  0  0  0  0
  -28.0297  -15.8760   18.0925 H   0  0  0  0  0  0
  -28.0514  -18.2604   17.4872 H   0  0  0  0  0  0
  -29.8761  -18.2945   17.7263 H   0  0  0  0  0  0
  -27.7258  -17.5670   19.9191 H   0  0  0  0  0  0
  -27.4264  -19.2155   21.5963 H   0  0  0  0  0  0
  -26.7931  -19.7608   20.0482 H   0  0  0  0  0  0
  -26.3193  -20.5652   21.5346 H   0  0  0  0  0  0
  -28.9647  -20.6232   22.9363 H   0  0  0  0  0  0
  -27.9491  -22.0373   22.8189 H   0  0  0  0  0  0
  -29.6404  -22.1206   22.3355 H   0  0  0  0  0  0
  -29.2320  -20.1359   19.1191 H   0  0  0  0  0  0
  -30.3333  -21.1084   19.9947 H   0  0  0  0  0  0
  -29.6245  -23.4080   20.4577 H   0  0  0  0  0  0
  -28.5948  -23.9871   19.1793 H   0  0  0  0  0  0
  -29.6684  -25.7376   21.3405 H   0  0  0  0  0  0
  -28.2687  -26.4299   22.1107 H   0  0  0  0  0  0
  -29.0275  -15.1943   21.3607 H   0  0  0  0  0  0
  -27.9003  -21.9627   19.0996 H   0  0  0  0  0  0
  -26.9018  -22.4189   20.2779 H   0  0  0  0  0  0
  1 25  1  0  0  0
  1 30  2  0  0  0
  1 88  1  0  0  0
  2  3  1  0  0  0
  2 25  1  0  0  0
  2 90  1  0  0  0
  2 91  1  0  0  0
  3  4  1  0  0  0
  3 92  1  0  0  0
  3 93  1  0  0  0
  4  5  1  0  0  0
  4 94  1  0  0  0
  4 95  1  0  0  0
  5  6  1  0  0  0
  5 26  1  0  0  0
  5 96  1  0  0  0
  6 25  1  0  0  0
  6 97  1  0  0  0
  6 98  1  0  0  0
  7  8  2  0  0  0
  7 26  1  0  0  0
  7 29  1  0  0  0
  8  9  1  0  0  0
  8 22  1  0  0  0
  9 10  1  0  0  0
  9 27  2  0  0  0
 10 11  2  0  0  0
 10 15  1  0  0  0
 11 12  1  0  0  0
 11 99  1  0  0  0
 12 13  2  0  0  0
 12100  1  0  0  0
 13 14  1  0  0  0
 13 31  1  0  0  0
 14 15  2  0  0  0
 14101  1  0  0  0
 15102  1  0  0  0
 16 17  2  0  0  0
 16 21  1  0  0  0
 16 31  1  0  0  0
 17 18  1  0  0  0
 17103  1  0  0  0
 18 19  2  0  0  0
 18104  1  0  0  0
 19 20  1  0  0  0
 19 24  1  0  0  0
 20 21  2  0  0  0
 20105  1  0  0  0
 21 23  1  0  0  0
 22 28  1  0  0  0
 22 32  2  0  0  0
 26 27  1  0  0  0
 28106  1  0  0  0
 28107  1  0  0  0
 29108  1  0  0  0
 29109  1  0  0  0
 33 34  1  0  0  0
 33 66  1  0  0  0
 33 70  2  0  0  0
 34 36  1  0  0  0
 34 59  1  0  0  0
 34110  1  0  0  0
 35 44  2  0  0  0
 35 45  1  0  0  0
 35 68  1  0  0  0
 36 56  1  0  0  0
 36111  1  0  0  0
 37 39  1  0  0  0
 37 47  1  0  0  0
 37 66  1  0  0  0
 37112  1  0  0  0
 38 43  2  0  0  0
 38 46  1  0  0  0
 38 47  1  0  0  0
 39 64  1  0  0  0
 39 67  2  0  0  0
 40 52  1  0  0  0
 40 53  2  0  0  0
 40 58  1  0  0  0
 41113  1  0  0  0
 41114  1  0  0  0
 41115  1  0  0  0
 41 48  1  0  0  0
 42 43  1  0  0  0
 42 66  1  0  0  0
 42116  1  0  0  0
 42117  1  0  0  0
 43 44  1  0  0  0
 44118  1  0  0  0
 45 46  2  0  0  0
 45119  1  0  0  0
 46120  1  0  0  0
 47121  1  0  0  0
 47122  1  0  0  0
 48 56  1  0  0  0
 48 65  1  0  0  0
 48123  1  0  0  0
 49 50  1  0  0  0
 49 53  1  0  0  0
 49 64  1  0  0  0
 49124  1  0  0  0
 50 51  1  0  0  0
 50125  1  0  0  0
 50126  1  0  0  0
 51 52  1  0  0  0
 51127  1  0  0  0
 51128  1  0  0  0
 52129  1  0  0  0
 52130  1  0  0  0
 53 54  1  0  0  0
 54 55  2  0  0  0
 54131  1  0  0  0
 55 57  1  0  0  0
 55132  1  0  0  0
 56 69  2  0  0  0
 57 58  2  0  0  0
 57133  1  0  0  0
 58134  1  0  0  0
 59 60  1  0  0  0
 59 61  1  0  0  0
 59 62  1  0  0  0
 60135  1  0  0  0
 60136  1  0  0  0
 60137  1  0  0  0
 61138  1  0  0  0
 61139  1  0  0  0
 61140  1  0  0  0
 62141  1  0  0  0
 62142  1  0  0  0
 62143  1  0  0  0
 63 65  1  0  0  0
 63144  1  0  0  0
 63145  1  0  0  0
 63146  1  0  0  0
 64147  1  0  0  0
 65148  1  0  0  0
 68 86  1  0  0  0
 71 72  2  0  0  0
 71 73  1  0  0  0
 71149  1  0  0  0
 72 75  1  0  0  0
 72150  1  0  0  0
 73 76  2  0  0  0
 73151  1  0  0  0
 74 75  2  0  0  0
 74 76  1  0  0  0
 74 81  1  0  0  0
 75 84  1  0  0  0
 76 88  1  0  0  0
 77 78  2  0  0  0
 77152  1  0  0  0
 77153  1  0  0  0
 78 85  1  0  0  0
 78 86  1  0  0  0
 79 80  1  0  0  0
 79 81  1  0  0  0
 79154  1  0  0  0
 79155  1  0  0  0
 80 81  1  0  0  0
 80156  1  0  0  0
 80157  1  0  0  0
 81158  1  0  0  0
 82159  1  0  0  0
 82160  1  0  0  0
 82161  1  0  0  0
 82 87  1  0  0  0
 83 87  1  0  0  0
 83162  1  0  0  0
 83163  1  0  0  0
 83164  1  0  0  0
 84 87  1  0  0  0
 84165  1  0  0  0
 84166  1  0  0  0
 85 89  1  0  0  0
 85167  1  0  0  0
 85168  1  0  0  0
 86169  1  0  0  0
 86170  1  0  0  0
 87 89  1  0  0  0
 88171  1  0  0  0
 89172  1  0  0  0
 89173  1  0  0  0
M  CHG  1  89   1
M  ISO  4   1 100  68 101  86 101  88 100
M  END
> <chiral flag>
0

> <version>
0

> <s_m_source_file>
/data/baiqing/PycharmProjects/Reinvent-master-3.2/result/LINK_invent/BTK/process_docking_weight1_custom_product_contain_oxygen_bond_distance_aromatic_linkinvent_7_9_3/rearranged_h_0141.sdf

> <i_m_source_file_index>
87

> <r_mmod_Potential_Energy-OPLS-2005>
-114.207077026367

> <r_mmod_Stretch_Energy-OPLS-2005>
39.7014617919922

> <r_mmod_Bend_Energy-OPLS-2005>
103.857398986816

> <r_mmod_Torsional_Energy-OPLS-2005>
301.349243164062

> <r_mmod_Improper_Torsional_Energy-OPLS-2005>
3.86104297637939

> <r_mmod_Van_der_Waal_Energy-OPLS-2005>
144.041595458984

> <r_mmod_Electrostatic_Energy-OPLS-2005>
-270.049072265625

> <r_mmod_Solvation_Energy-OPLS-2005>
-445.999053955078

> <b_mmod_Minimization_Converged-OPLS-2005>
0

> <r_mmod_RMS_Derivative-OPLS-2005>
2.56380391120911

$$$$
87
                    3D
 Structure written by MMmdl.
163171  0  0  1  0            999 V2000
  -30.6297  -14.6200   20.5644 C   0  0  0  0  0  0
  -30.4487  -12.4089   19.4311 C   0  0  0  0  0  0
  -29.5015  -12.5405   18.2098 C   0  0  0  0  0  0
  -28.0207  -12.3675   18.6186 C   0  0  0  0  0  0
  -27.6552  -13.1904   19.8837 C   0  0  2  0  0  0
  -28.7067  -12.9463   20.9819 C   0  0  0  0  0  0
  -25.2586  -13.8052   20.5754 C   0  0  0  0  0  0
  -24.1820  -13.0362   20.9214 C   0  0  0  0  0  0
  -24.6336  -11.6830   20.8749 C   0  0  0  0  0  0
  -23.9010  -10.4232   21.0424 C   0  0  0  0  0  0
  -24.3580   -9.4175   21.9192 C   0  0  0  0  0  0
  -23.6260   -8.2215   22.0765 C   0  0  0  0  0  0
  -22.4247   -8.0249   21.3555 C   0  0  0  0  0  0
  -21.9878   -9.0234   20.4664 C   0  0  0  0  0  0
  -22.7206  -10.2103   20.3075 C   0  0  0  0  0  0
  -21.6834   -6.0712   22.5276 C   0  0  0  0  0  0
  -21.3987   -6.5630   23.8206 C   0  0  0  0  0  0
  -21.3650   -5.6787   24.9178 C   0  0  0  0  0  0
  -21.6045   -4.3047   24.7228 C   0  0  0  0  0  0
  -21.8830   -3.8134   23.4352 C   0  0  0  0  0  0
  -21.9188   -4.6938   22.3405 C   0  0  0  0  0  0
  -22.7875  -13.5241   21.1839 C   0  0  0  0  0  0
  -22.1669   -4.2130   21.0983 F   0  0  0  0  0  0
  -21.5632   -3.4542   25.7740 F   0  0  0  0  0  0
  -30.0160  -13.3852   20.4590 N   0  0  0  0  0  0
  -26.2986  -12.9181   20.3440 N   0  0  0  0  0  0
  -25.9247  -11.6361   20.5752 N   0  0  0  0  0  0
  -22.0480  -12.8267   22.0380 N   0  0  0  0  0  0
  -25.4321  -15.1743   20.4187 N   0  0  0  0  0  0
  -31.7405  -14.8156   20.0544 O   0  0  0  0  0  0
  -21.6628   -6.8852   21.4236 O   0  0  0  0  0  0
  -22.3611  -14.5569   20.6678 O   0  0  0  0  0  0
  -24.6192  -31.8663   23.2168 C   0  0  0  0  0  0
  -25.9070  -32.4832   23.8454 C   0  0  1  0  0  0
  -27.2108  -27.3517   20.1026 C   0  0  0  0  0  0
  -25.5910  -33.8649   24.2355 N   0  0  0  0  0  0
  -23.4083  -30.4978   21.5569 C   0  0  2  0  0  0
  -24.8576  -28.9843   20.1033 C   0  0  0  0  0  0
  -22.7451  -29.4627   22.4937 C   0  0  0  0  0  0
  -18.0277  -28.1347   22.8396 C   0  0  0  0  0  0
  -24.1475  -36.7307   23.2635 C   0  0  0  0  0  0
  -25.9519  -30.8138   21.3860 C   0  0  0  0  0  0
  -26.0300  -29.4514   20.7092 C   0  0  0  0  0  0
  -27.2118  -28.6509   20.6960 C   0  0  0  0  0  0
  -26.0111  -26.9626   19.4526 C   0  0  0  0  0  0
  -24.8549  -27.7511   19.4516 C   0  0  0  0  0  0
  -23.6256  -29.8574   20.1641 C   0  0  0  0  0  0
  -25.4102  -36.3120   24.0333 C   0  0  1  0  0  0
  -20.5850  -28.3643   23.1367 C   0  0  2  0  0  0
  -20.6738  -26.9327   22.5589 C   0  0  0  0  0  0
  -19.5835  -26.6393   21.5220 C   0  0  0  0  0  0
  -18.1979  -26.7892   22.1508 C   0  0  0  0  0  0
  -19.1486  -28.8808   23.2890 C   0  0  0  0  0  0
  -18.9369  -30.1387   23.8940 C   0  0  0  0  0  0
  -17.6332  -30.6456   24.0597 C   0  0  0  0  0  0
  -25.9031  -34.9488   23.5119 C   0  0  0  0  0  0
  -16.5251  -29.8983   23.6214 C   0  0  0  0  0  0
  -16.7246  -28.6459   23.0133 C   0  0  0  0  0  0
  -26.4476  -31.6641   25.0806 C   0  0  0  0  0  0
  -25.3735  -31.3771   26.1543 C   0  0  0  0  0  0
  -27.0305  -30.3081   24.6226 C   0  0  0  0  0  0
  -27.6037  -32.4382   25.7565 C   0  0  0  0  0  0
  -27.5575  -37.1815   24.8465 C   0  0  0  0  0  0
  -21.4170  -29.2954   22.3667 N   0  0  0  0  0  0
  -26.4280  -37.3812   23.9410 N   0  0  0  0  0  0
  -24.6786  -31.0723   22.1096 N   0  0  0  0  0  0
  -23.4209  -28.8204   23.3015 O   0  0  0  0  0  0
  -28.3059  -26.4686   20.2195 O   0  0  0  0  0  0
  -26.5590  -34.8928   22.4677 O   0  0  0  0  0  0
  -23.5373  -32.1442   23.7540 O   0  0  0  0  0  0
  -31.0377  -18.0452   21.6768 C   0  0  0  0  0  0
  -31.0682  -19.4670   21.6432 C   0  0  0  0  0  0
  -29.3144  -19.4577   20.0007 C   0  0  0  0  0  0
  -30.1193  -17.2801   20.9074 C   0  0  0  0  0  0
  -29.2524  -18.0315   20.0407 C   0  0  0  0  0  0
  -30.1732  -20.2114   20.8379 C   0  0  0  0  0  0
  -29.8814  -15.8124   21.2826 C   0  0  0  0  0  0
  -28.2476  -17.3778   19.1550 C   0  0  0  0  0  0
  -29.1015  -22.5079   20.7595 C   0  0  0  0  0  0
  -26.8931  -18.0682   18.9879 C   0  0  0  0  0  0
  -26.8628  -24.7741   21.2744 C   0  0  0  0  0  0
  -27.8358  -24.5160   18.8216 C   0  0  0  0  0  0
  -29.2766  -24.0881   20.8256 C   0  0  0  0  0  0
  -28.0686  -24.9941   20.2869 C   0  0  0  0  0  0
  -29.0647  -15.6498   22.2375 N   0  0  0  0  0  0
  -30.1684  -21.6692   20.8778 N   0  0  0  0  0  0
  -28.4423  -16.3113   18.5747 O   0  0  0  0  0  0
  -27.9716  -22.0341   20.6107 O   0  0  0  0  0  0
  -31.4831  -12.5612   19.1182 H   0  0  0  0  0  0
  -30.4120  -11.3966   19.8346 H   0  0  0  0  0  0
  -29.7640  -11.7967   17.4559 H   0  0  0  0  0  0
  -29.6344  -13.5167   17.7361 H   0  0  0  0  0  0
  -27.8578  -11.3067   18.8159 H   0  0  0  0  0  0
  -27.3595  -12.6279   17.7913 H   0  0  0  0  0  0
  -27.6910  -14.2409   19.6161 H   0  0  0  0  0  0
  -28.7457  -11.8790   21.2127 H   0  0  0  0  0  0
  -28.4232  -13.3850   21.9320 H   0  0  0  0  0  0
  -25.2735   -9.5649   22.4763 H   0  0  0  0  0  0
  -23.9958   -7.4623   22.7490 H   0  0  0  0  0  0
  -21.0812   -8.8768   19.8989 H   0  0  0  0  0  0
  -22.3677  -10.9650   19.6182 H   0  0  0  0  0  0
  -21.1966   -7.6127   23.9701 H   0  0  0  0  0  0
  -21.1474   -6.0521   25.9076 H   0  0  0  0  0  0
  -22.0616   -2.7594   23.2869 H   0  0  0  0  0  0
  -22.4059  -11.9902   22.4755 H   0  0  0  0  0  0
  -21.1137  -13.1375   22.2611 H   0  0  0  0  0  0
  -24.6838  -15.8419   20.5667 H   0  0  0  0  0  0
  -26.2958  -15.5979   20.1105 H   0  0  0  0  0  0
  -26.7118  -32.5560   23.1207 H   0  0  0  0  0  0
  -25.0047  -33.9805   25.0488 H   0  0  0  0  0  0
  -22.6986  -31.3185   21.4298 H   0  0  0  0  0  0
  -23.3742  -35.9633   23.3310 H   0  0  0  0  0  0
  -24.3539  -36.8925   22.2043 H   0  0  0  0  0  0
  -23.7235  -37.6512   23.6649 H   0  0  0  0  0  0
  -26.0839  -31.5953   20.6361 H   0  0  0  0  0  0
  -26.8281  -30.8533   22.0200 H   0  0  0  0  0  0
  -28.1079  -29.0060   21.1853 H   0  0  0  0  0  0
  -25.8876  -26.0109   18.9665 H   0  0  0  0  0  0
  -23.9596  -27.3970   18.9606 H   0  0  0  0  0  0
  -23.7496  -30.6513   19.4267 H   0  0  0  0  0  0
  -22.7494  -29.2965   19.8361 H   0  0  0  0  0  0
  -25.1283  -36.1962   25.0823 H   0  0  0  0  0  0
  -20.9982  -28.3279   24.1468 H   0  0  0  0  0  0
  -20.5388  -26.2274   23.3818 H   0  0  0  0  0  0
  -21.6667  -26.7220   22.1627 H   0  0  0  0  0  0
  -19.6977  -25.6337   21.1172 H   0  0  0  0  0  0
  -19.6936  -27.3342   20.6901 H   0  0  0  0  0  0
  -17.4377  -26.6549   21.3798 H   0  0  0  0  0  0
  -18.0242  -26.0013   22.8855 H   0  0  0  0  0  0
  -19.7773  -30.7266   24.2372 H   0  0  0  0  0  0
  -17.4787  -31.6055   24.5321 H   0  0  0  0  0  0
  -15.5226  -30.2833   23.7494 H   0  0  0  0  0  0
  -15.8699  -28.0833   22.6609 H   0  0  0  0  0  0
  -24.5889  -30.7130   25.7885 H   0  0  0  0  0  0
  -24.8935  -32.2939   26.4986 H   0  0  0  0  0  0
  -25.8076  -30.8947   27.0304 H   0  0  0  0  0  0
  -26.2863  -29.6886   24.1204 H   0  0  0  0  0  0
  -27.3959  -29.7291   25.4707 H   0  0  0  0  0  0
  -27.8762  -30.4375   23.9476 H   0  0  0  0  0  0
  -27.2618  -33.3652   26.2171 H   0  0  0  0  0  0
  -28.3830  -32.6992   25.0401 H   0  0  0  0  0  0
  -28.0709  -31.8505   26.5471 H   0  0  0  0  0  0
  -28.2599  -38.0104   24.7504 H   0  0  0  0  0  0
  -28.1056  -36.2637   24.6293 H   0  0  0  0  0  0
  -27.2276  -37.1483   25.8862 H   0  0  0  0  0  0
  -20.9294  -29.8617   21.6839 H   0  0  0  0  0  0
  -26.0159  -38.2867   24.1466 H   0  0  0  0  0  0
  -31.6770  -17.5370   22.3853 H   0  0  0  0  0  0
  -31.7519  -19.9825   22.3034 H   0  0  0  0  0  0
  -28.6631  -19.9932   19.3250 H   0  0  0  0  0  0
  -26.4765  -18.3399   19.9598 H   0  0  0  0  0  0
  -26.1847  -17.4027   18.4940 H   0  0  0  0  0  0
  -26.9810  -18.9645   18.3769 H   0  0  0  0  0  0
  -26.9143  -23.8522   21.8487 H   0  0  0  0  0  0
  -25.8966  -24.7382   20.7729 H   0  0  0  0  0  0
  -26.8184  -25.5589   22.0291 H   0  0  0  0  0  0
  -27.6156  -25.3207   18.1249 H   0  0  0  0  0  0
  -27.0397  -23.7761   18.7512 H   0  0  0  0  0  0
  -28.7337  -24.0508   18.4105 H   0  0  0  0  0  0
  -30.1881  -24.3507   20.2854 H   0  0  0  0  0  0
  -29.4858  -24.3583   21.8598 H   0  0  0  0  0  0
  -28.7189  -16.5406   22.5743 H   0  0  0  0  0  0
  -31.0483  -22.1095   21.1010 H   0  0  0  0  0  0
  1 25  1  0  0  0
  1 30  2  0  0  0
  1 77  1  0  0  0
  2  3  1  0  0  0
  2 25  1  0  0  0
  2 89  1  0  0  0
  2 90  1  0  0  0
  3  4  1  0  0  0
  3 91  1  0  0  0
  3 92  1  0  0  0
  4  5  1  0  0  0
  4 93  1  0  0  0
  4 94  1  0  0  0
  5  6  1  0  0  0
  5 26  1  0  0  0
  5 95  1  0  0  0
  6 25  1  0  0  0
  6 96  1  0  0  0
  6 97  1  0  0  0
  7  8  2  0  0  0
  7 26  1  0  0  0
  7 29  1  0  0  0
  8  9  1  0  0  0
  8 22  1  0  0  0
  9 10  1  0  0  0
  9 27  2  0  0  0
 10 11  2  0  0  0
 10 15  1  0  0  0
 11 12  1  0  0  0
 11 98  1  0  0  0
 12 13  2  0  0  0
 12 99  1  0  0  0
 13 14  1  0  0  0
 13 31  1  0  0  0
 14 15  2  0  0  0
 14100  1  0  0  0
 15101  1  0  0  0
 16 17  2  0  0  0
 16 21  1  0  0  0
 16 31  1  0  0  0
 17 18  1  0  0  0
 17102  1  0  0  0
 18 19  2  0  0  0
 18103  1  0  0  0
 19 20  1  0  0  0
 19 24  1  0  0  0
 20 21  2  0  0  0
 20104  1  0  0  0
 21 23  1  0  0  0
 22 28  1  0  0  0
 22 32  2  0  0  0
 26 27  1  0  0  0
 28105  1  0  0  0
 28106  1  0  0  0
 29107  1  0  0  0
 29108  1  0  0  0
 33 34  1  0  0  0
 33 66  1  0  0  0
 33 70  2  0  0  0
 34 36  1  0  0  0
 34 59  1  0  0  0
 34109  1  0  0  0
 35 44  2  0  0  0
 35 45  1  0  0  0
 35 68  1  0  0  0
 36 56  1  0  0  0
 36110  1  0  0  0
 37 39  1  0  0  0
 37 47  1  0  0  0
 37 66  1  0  0  0
 37111  1  0  0  0
 38 43  2  0  0  0
 38 46  1  0  0  0
 38 47  1  0  0  0
 39 64  1  0  0  0
 39 67  2  0  0  0
 40 52  1  0  0  0
 40 53  2  0  0  0
 40 58  1  0  0  0
 41112  1  0  0  0
 41113  1  0  0  0
 41114  1  0  0  0
 41 48  1  0  0  0
 42 43  1  0  0  0
 42 66  1  0  0  0
 42115  1  0  0  0
 42116  1  0  0  0
 43 44  1  0  0  0
 44117  1  0  0  0
 45 46  2  0  0  0
 45118  1  0  0  0
 46119  1  0  0  0
 47120  1  0  0  0
 47121  1  0  0  0
 48 56  1  0  0  0
 48 65  1  0  0  0
 48122  1  0  0  0
 49 50  1  0  0  0
 49 53  1  0  0  0
 49 64  1  0  0  0
 49123  1  0  0  0
 50 51  1  0  0  0
 50124  1  0  0  0
 50125  1  0  0  0
 51 52  1  0  0  0
 51126  1  0  0  0
 51127  1  0  0  0
 52128  1  0  0  0
 52129  1  0  0  0
 53 54  1  0  0  0
 54 55  2  0  0  0
 54130  1  0  0  0
 55 57  1  0  0  0
 55131  1  0  0  0
 56 69  2  0  0  0
 57 58  2  0  0  0
 57132  1  0  0  0
 58133  1  0  0  0
 59 60  1  0  0  0
 59 61  1  0  0  0
 59 62  1  0  0  0
 60134  1  0  0  0
 60135  1  0  0  0
 60136  1  0  0  0
 61137  1  0  0  0
 61138  1  0  0  0
 61139  1  0  0  0
 62140  1  0  0  0
 62141  1  0  0  0
 62142  1  0  0  0
 63 65  1  0  0  0
 63143  1  0  0  0
 63144  1  0  0  0
 63145  1  0  0  0
 64146  1  0  0  0
 65147  1  0  0  0
 68 84  1  0  0  0
 71 72  2  0  0  0
 71 74  1  0  0  0
 71148  1  0  0  0
 72 76  1  0  0  0
 72149  1  0  0  0
 73 75  1  0  0  0
 73 76  2  0  0  0
 73150  1  0  0  0
 74 75  2  0  0  0
 74 77  1  0  0  0
 75 78  1  0  0  0
 76 86  1  0  0  0
 77 85  2  0  0  0
 78 80  1  0  0  0
 78 87  2  0  0  0
 79 83  1  0  0  0
 79 86  1  0  0  0
 79 88  2  0  0  0
 80151  1  0  0  0
 80152  1  0  0  0
 80153  1  0  0  0
 81154  1  0  0  0
 81155  1  0  0  0
 81156  1  0  0  0
 81 84  1  0  0  0
 82 84  1  0  0  0
 82157  1  0  0  0
 82158  1  0  0  0
 82159  1  0  0  0
 83 84  1  0  0  0
 83160  1  0  0  0
 83161  1  0  0  0
 85162  1  0  0  0
 86163  1  0  0  0
M  ISO  4   1 100  68 101  77 100  84 101
M  END
> <chiral flag>
0

> <version>
0

> <s_m_source_file>
/data/baiqing/PycharmProjects/Reinvent-master-3.2/result/LINK_invent/BTK/process_docking_weight1_custom_product_contain_oxygen_bond_distance_aromatic_linkinvent_7_9_3/rearranged_h_0141.sdf

> <i_m_source_file_index>
88

> <r_mmod_Potential_Energy-OPLS-2005>
224.469207763672

> <r_mmod_Stretch_Energy-OPLS-2005>
96.7828216552734

> <r_mmod_Bend_Energy-OPLS-2005>
157.665802001953

> <r_mmod_Torsional_Energy-OPLS-2005>
260.228851318359

> <r_mmod_Improper_Torsional_Energy-OPLS-2005>
5.14621210098267

> <r_mmod_Van_der_Waal_Energy-OPLS-2005>
187.041473388672

> <r_mmod_Electrostatic_Energy-OPLS-2005>
-317.399353027344

> <r_mmod_Solvation_Energy-OPLS-2005>
-209.514083862305

> <b_mmod_Minimization_Converged-OPLS-2005>
0

> <r_mmod_RMS_Derivative-OPLS-2005>
6.28160047531128

$$$$
88
                    3D
 Structure written by MMmdl.
184192  0  0  1  0            999 V2000
  -30.5991  -14.6942   20.4649 C   0  0  0  0  0  0
  -30.4312  -12.4213   19.4591 C   0  0  0  0  0  0
  -29.5072  -12.5459   18.2279 C   0  0  0  0  0  0
  -28.0319  -12.3737   18.6386 C   0  0  0  0  0  0
  -27.6514  -13.2271   19.8755 C   0  0  2  0  0  0
  -28.6974  -13.0896   21.0034 C   0  0  0  0  0  0
  -25.2562  -13.8201   20.5717 C   0  0  0  0  0  0
  -24.1830  -13.0445   20.9171 C   0  0  0  0  0  0
  -24.6425  -11.6919   20.8737 C   0  0  0  0  0  0
  -23.9083  -10.4304   21.0401 C   0  0  0  0  0  0
  -24.3618   -9.4211   21.9164 C   0  0  0  0  0  0
  -23.6307   -8.2235   22.0753 C   0  0  0  0  0  0
  -22.4291   -8.0277   21.3526 C   0  0  0  0  0  0
  -21.9917   -9.0247   20.4620 C   0  0  0  0  0  0
  -22.7251  -10.2131   20.3056 C   0  0  0  0  0  0
  -21.6858   -6.0740   22.5289 C   0  0  0  0  0  0
  -21.4005   -6.5639   23.8224 C   0  0  0  0  0  0
  -21.3678   -5.6797   24.9177 C   0  0  0  0  0  0
  -21.6081   -4.3066   24.7225 C   0  0  0  0  0  0
  -21.8826   -3.8142   23.4348 C   0  0  0  0  0  0
  -21.9211   -4.6960   22.3414 C   0  0  0  0  0  0
  -22.7840  -13.5196   21.1877 C   0  0  0  0  0  0
  -22.1666   -4.2156   21.0978 F   0  0  0  0  0  0
  -21.5639   -3.4543   25.7729 F   0  0  0  0  0  0
  -30.0069  -13.4508   20.4385 N   0  0  0  0  0  0
  -26.2997  -12.9386   20.3379 N   0  0  0  0  0  0
  -25.9356  -11.6524   20.5732 N   0  0  0  0  0  0
  -22.0527  -12.8117   22.0408 N   0  0  0  0  0  0
  -25.4321  -15.1939   20.4149 N   0  0  0  0  0  0
  -31.7470  -14.8417   20.0316 O   0  0  0  0  0  0
  -21.6654   -6.8870   21.4245 O   0  0  0  0  0  0
  -22.3504  -14.5522   20.6803 O   0  0  0  0  0  0
  -24.6281  -31.8569   23.2000 C   0  0  0  0  0  0
  -25.9125  -32.4765   23.8358 C   0  0  1  0  0  0
  -27.2300  -27.3009   20.1278 C   0  0  0  0  0  0
  -25.5947  -33.8573   24.2315 N   0  0  0  0  0  0
  -23.4247  -30.4787   21.5402 C   0  0  2  0  0  0
  -24.8783  -28.9388   20.1033 C   0  0  0  0  0  0
  -22.7509  -29.4567   22.4875 C   0  0  0  0  0  0
  -18.0304  -28.1367   22.8470 C   0  0  0  0  0  0
  -24.1508  -36.7261   23.2629 C   0  0  0  0  0  0
  -25.9692  -30.7839   21.3792 C   0  0  0  0  0  0
  -26.0454  -29.4102   20.7229 C   0  0  0  0  0  0
  -27.2200  -28.6004   20.7322 C   0  0  0  0  0  0
  -26.0494  -26.9039   19.4583 C   0  0  0  0  0  0
  -24.8854  -27.6949   19.4590 C   0  0  0  0  0  0
  -23.6484  -29.8202   20.1526 C   0  0  0  0  0  0
  -25.4130  -36.3080   24.0348 C   0  0  1  0  0  0
  -20.5903  -28.3686   23.1267 C   0  0  2  0  0  0
  -20.6801  -26.9405   22.5390 C   0  0  0  0  0  0
  -19.5771  -26.6376   21.5202 C   0  0  0  0  0  0
  -18.1943  -26.7913   22.1612 C   0  0  0  0  0  0
  -19.1552  -28.8848   23.2870 C   0  0  0  0  0  0
  -18.9475  -30.1461   23.8869 C   0  0  0  0  0  0
  -17.6464  -30.6565   24.0549 C   0  0  0  0  0  0
  -25.9063  -34.9442   23.5120 C   0  0  0  0  0  0
  -16.5367  -29.9048   23.6326 C   0  0  0  0  0  0
  -16.7294  -28.6477   23.0333 C   0  0  0  0  0  0
  -26.4510  -31.6521   25.0679 C   0  0  0  0  0  0
  -25.3749  -31.3601   26.1383 C   0  0  0  0  0  0
  -27.0335  -30.2950   24.6061 C   0  0  0  0  0  0
  -27.6066  -32.4195   25.7494 C   0  0  0  0  0  0
  -27.5594  -37.1798   24.8474 C   0  0  0  0  0  0
  -21.4206  -29.3033   22.3664 N   0  0  0  0  0  0
  -26.4299  -37.3774   23.9419 N   0  0  0  0  0  0
  -24.6911  -31.0570   22.0958 N   0  0  0  0  0  0
  -23.4239  -28.8121   23.2963 O   0  0  0  0  0  0
  -28.3373  -26.4318   20.2099 O   0  0  0  0  0  0
  -26.5598  -34.8909   22.4657 O   0  0  0  0  0  0
  -23.5441  -32.1356   23.7324 O   0  0  0  0  0  0
  -29.7951  -18.3803   20.8102 C   0  0  0  0  0  0
  -28.8201  -19.4982   18.8878 C   0  0  0  0  0  0
  -28.9888  -17.0544   18.9351 C   0  0  0  0  0  0
  -29.4241  -19.6205   20.1521 C   0  0  0  0  0  0
  -29.6124  -17.0738   20.2084 C   0  0  0  0  0  0
  -28.5556  -18.2400   18.2939 C   0  0  0  0  0  0
  -24.4744  -20.9194   16.0489 C   0  0  0  0  0  0
  -24.4947  -19.9688   13.7485 C   0  0  0  0  0  0
  -26.4028  -21.3526   14.5412 C   0  0  0  0  0  0
  -30.5519  -24.2929   20.4064 C   0  0  0  0  0  0
  -28.7665  -23.8746   22.1294 C   0  0  0  0  0  0
  -25.0952  -17.9711   16.1628 C   0  0  0  0  0  0
  -26.8425  -18.1953   14.3868 C   0  0  0  0  0  0
  -29.6502  -21.0826   20.7332 C   0  0  0  0  0  0
  -28.8962  -22.3587   20.0759 C   0  0  0  0  0  0
  -28.1685  -24.9777   19.9118 C   0  0  0  0  0  0
  -27.1586  -19.2781   16.6241 C   0  0  0  0  0  0
  -25.3882  -20.2652   14.9806 C   0  0  0  0  0  0
  -29.0941  -23.8656   20.6228 C   0  0  0  0  0  0
  -26.1117  -18.9507   15.5238 C   0  0  0  0  0  0
  -29.8503  -15.7776   20.8821 N   0  0  0  0  0  0
  -27.8493  -18.1182   17.1082 O   0  0  0  0  0  0
  -31.4715  -12.5404   19.1584 H   0  0  0  0  0  0
  -30.3546  -11.4218   19.8898 H   0  0  0  0  0  0
  -29.7648  -11.8168   17.4603 H   0  0  0  0  0  0
  -29.6450  -13.5323   17.7784 H   0  0  0  0  0  0
  -27.8635  -11.3160   18.8441 H   0  0  0  0  0  0
  -27.3779  -12.6287   17.8050 H   0  0  0  0  0  0
  -27.6636  -14.2654   19.5465 H   0  0  0  0  0  0
  -28.7188  -12.0658   21.3826 H   0  0  0  0  0  0
  -28.4381  -13.7148   21.8573 H   0  0  0  0  0  0
  -25.2774   -9.5670   22.4716 H   0  0  0  0  0  0
  -24.0061   -7.4604   22.7459 H   0  0  0  0  0  0
  -21.0871   -8.8751   19.8878 H   0  0  0  0  0  0
  -22.3750  -10.9651   19.6140 H   0  0  0  0  0  0
  -21.1986   -7.6149   23.9702 H   0  0  0  0  0  0
  -21.1484   -6.0529   25.9082 H   0  0  0  0  0  0
  -22.0602   -2.7605   23.2847 H   0  0  0  0  0  0
  -22.4191  -11.9754   22.4710 H   0  0  0  0  0  0
  -21.1128  -13.1060   22.2670 H   0  0  0  0  0  0
  -24.6677  -15.8520   20.5131 H   0  0  0  0  0  0
  -26.2940  -15.6255   20.1073 H   0  0  0  0  0  0
  -26.7172  -32.5442   23.1105 H   0  0  0  0  0  0
  -25.0231  -33.9738   25.0547 H   0  0  0  0  0  0
  -22.7185  -31.2979   21.3946 H   0  0  0  0  0  0
  -23.3800  -35.9557   23.3274 H   0  0  0  0  0  0
  -24.3619  -36.8880   22.2046 H   0  0  0  0  0  0
  -23.7223  -37.6445   23.6644 H   0  0  0  0  0  0
  -26.1041  -31.5495   20.6136 H   0  0  0  0  0  0
  -26.8463  -30.8335   22.0130 H   0  0  0  0  0  0
  -28.1097  -28.9476   21.2424 H   0  0  0  0  0  0
  -25.9931  -25.9668   18.9274 H   0  0  0  0  0  0
  -24.0024  -27.3365   18.9496 H   0  0  0  0  0  0
  -23.7754  -30.6011   19.4015 H   0  0  0  0  0  0
  -22.7723  -29.2516   19.8399 H   0  0  0  0  0  0
  -25.1302  -36.1931   25.0841 H   0  0  0  0  0  0
  -21.0004  -28.3245   24.1387 H   0  0  0  0  0  0
  -20.5723  -26.2276   23.3588 H   0  0  0  0  0  0
  -21.6669  -26.7404   22.1176 H   0  0  0  0  0  0
  -19.6937  -25.6289   21.1236 H   0  0  0  0  0  0
  -19.6728  -27.3202   20.6750 H   0  0  0  0  0  0
  -17.4222  -26.6677   21.4014 H   0  0  0  0  0  0
  -18.0337  -26.0053   22.9013 H   0  0  0  0  0  0
  -19.7945  -30.7300   24.2217 H   0  0  0  0  0  0
  -17.5004  -31.6249   24.5147 H   0  0  0  0  0  0
  -15.5364  -30.2943   23.7642 H   0  0  0  0  0  0
  -15.8710  -28.0807   22.7015 H   0  0  0  0  0  0
  -24.6009  -30.6858   25.7704 H   0  0  0  0  0  0
  -24.8849  -32.2735   26.4761 H   0  0  0  0  0  0
  -25.8113  -30.8834   27.0170 H   0  0  0  0  0  0
  -26.2882  -29.6716   24.1096 H   0  0  0  0  0  0
  -27.4092  -29.7165   25.4512 H   0  0  0  0  0  0
  -27.8751  -30.4280   23.9251 H   0  0  0  0  0  0
  -27.2695  -33.3506   26.2066 H   0  0  0  0  0  0
  -28.3928  -32.6683   25.0352 H   0  0  0  0  0  0
  -28.0644  -31.8257   26.5417 H   0  0  0  0  0  0
  -28.2571  -38.0133   24.7529 H   0  0  0  0  0  0
  -28.1125  -36.2642   24.6291 H   0  0  0  0  0  0
  -27.2290  -37.1432   25.8870 H   0  0  0  0  0  0
  -20.9383  -29.8807   21.6920 H   0  0  0  0  0  0
  -26.0181  -38.2846   24.1396 H   0  0  0  0  0  0
  -30.2313  -18.4340   21.7989 H   0  0  0  0  0  0
  -28.5300  -20.4041   18.3786 H   0  0  0  0  0  0
  -28.7842  -16.1081   18.4555 H   0  0  0  0  0  0
  -24.0188  -21.8349   15.6679 H   0  0  0  0  0  0
  -25.0184  -21.1966   16.9522 H   0  0  0  0  0  0
  -23.6484  -20.2695   16.3405 H   0  0  0  0  0  0
  -23.9314  -20.8547   13.4507 H   0  0  0  0  0  0
  -23.7639  -19.1848   13.9411 H   0  0  0  0  0  0
  -25.0818  -19.6728   12.8781 H   0  0  0  0  0  0
  -25.8970  -22.2079   14.0910 H   0  0  0  0  0  0
  -27.1080  -20.9831   13.7975 H   0  0  0  0  0  0
  -26.9787  -21.7533   15.3759 H   0  0  0  0  0  0
  -31.2516  -23.6413   20.9300 H   0  0  0  0  0  0
  -30.7168  -25.3076   20.7702 H   0  0  0  0  0  0
  -30.8147  -24.2775   19.3474 H   0  0  0  0  0  0
  -29.5673  -23.4242   22.7215 H   0  0  0  0  0  0
  -27.8510  -23.3175   22.3333 H   0  0  0  0  0  0
  -28.6167  -24.8909   22.4955 H   0  0  0  0  0  0
  -25.5785  -17.0448   16.4743 H   0  0  0  0  0  0
  -24.2934  -17.6923   15.4834 H   0  0  0  0  0  0
  -24.6439  -18.3924   17.0619 H   0  0  0  0  0  0
  -27.3798  -17.3270   14.7705 H   0  0  0  0  0  0
  -27.5792  -18.8213   13.8843 H   0  0  0  0  0  0
  -26.1561  -17.8140   13.6322 H   0  0  0  0  0  0
  -30.7229  -21.2644   20.6718 H   0  0  0  0  0  0
  -29.4249  -21.0495   21.7990 H   0  0  0  0  0  0
  -27.8292  -22.1469   20.1051 H   0  0  0  0  0  0
  -29.1494  -22.3901   19.0165 H   0  0  0  0  0  0
  -27.1460  -24.6746   20.1340 H   0  0  0  0  0  0
  -28.2772  -24.8778   18.8307 H   0  0  0  0  0  0
  -26.6417  -19.7599   17.4541 H   0  0  0  0  0  0
  -27.9121  -19.9686   16.2480 H   0  0  0  0  0  0
  -29.0740  -15.4875   21.4610 H   0  0  0  0  0  0
  1 25  1  0  0  0
  1 30  2  0  0  0
  1 91  1  0  0  0
  2  3  1  0  0  0
  2 25  1  0  0  0
  2 93  1  0  0  0
  2 94  1  0  0  0
  3  4  1  0  0  0
  3 95  1  0  0  0
  3 96  1  0  0  0
  4  5  1  0  0  0
  4 97  1  0  0  0
  4 98  1  0  0  0
  5  6  1  0  0  0
  5 26  1  0  0  0
  5 99  1  0  0  0
  6 25  1  0  0  0
  6100  1  0  0  0
  6101  1  0  0  0
  7  8  2  0  0  0
  7 26  1  0  0  0
  7 29  1  0  0  0
  8  9  1  0  0  0
  8 22  1  0  0  0
  9 10  1  0  0  0
  9 27  2  0  0  0
 10 11  2  0  0  0
 10 15  1  0  0  0
 11 12  1  0  0  0
 11102  1  0  0  0
 12 13  2  0  0  0
 12103  1  0  0  0
 13 14  1  0  0  0
 13 31  1  0  0  0
 14 15  2  0  0  0
 14104  1  0  0  0
 15105  1  0  0  0
 16 17  2  0  0  0
 16 21  1  0  0  0
 16 31  1  0  0  0
 17 18  1  0  0  0
 17106  1  0  0  0
 18 19  2  0  0  0
 18107  1  0  0  0
 19 20  1  0  0  0
 19 24  1  0  0  0
 20 21  2  0  0  0
 20108  1  0  0  0
 21 23  1  0  0  0
 22 28  1  0  0  0
 22 32  2  0  0  0
 26 27  1  0  0  0
 28109  1  0  0  0
 28110  1  0  0  0
 29111  1  0  0  0
 29112  1  0  0  0
 33 34  1  0  0  0
 33 66  1  0  0  0
 33 70  2  0  0  0
 34 36  1  0  0  0
 34 59  1  0  0  0
 34113  1  0  0  0
 35 44  2  0  0  0
 35 45  1  0  0  0
 35 68  1  0  0  0
 36 56  1  0  0  0
 36114  1  0  0  0
 37 39  1  0  0  0
 37 47  1  0  0  0
 37 66  1  0  0  0
 37115  1  0  0  0
 38 43  2  0  0  0
 38 46  1  0  0  0
 38 47  1  0  0  0
 39 64  1  0  0  0
 39 67  2  0  0  0
 40 52  1  0  0  0
 40 53  2  0  0  0
 40 58  1  0  0  0
 41116  1  0  0  0
 41117  1  0  0  0
 41118  1  0  0  0
 41 48  1  0  0  0
 42 43  1  0  0  0
 42 66  1  0  0  0
 42119  1  0  0  0
 42120  1  0  0  0
 43 44  1  0  0  0
 44121  1  0  0  0
 45 46  2  0  0  0
 45122  1  0  0  0
 46123  1  0  0  0
 47124  1  0  0  0
 47125  1  0  0  0
 48 56  1  0  0  0
 48 65  1  0  0  0
 48126  1  0  0  0
 49 50  1  0  0  0
 49 53  1  0  0  0
 49 64  1  0  0  0
 49127  1  0  0  0
 50 51  1  0  0  0
 50128  1  0  0  0
 50129  1  0  0  0
 51 52  1  0  0  0
 51130  1  0  0  0
 51131  1  0  0  0
 52132  1  0  0  0
 52133  1  0  0  0
 53 54  1  0  0  0
 54 55  2  0  0  0
 54134  1  0  0  0
 55 57  1  0  0  0
 55135  1  0  0  0
 56 69  2  0  0  0
 57 58  2  0  0  0
 57136  1  0  0  0
 58137  1  0  0  0
 59 60  1  0  0  0
 59 61  1  0  0  0
 59 62  1  0  0  0
 60138  1  0  0  0
 60139  1  0  0  0
 60140  1  0  0  0
 61141  1  0  0  0
 61142  1  0  0  0
 61143  1  0  0  0
 62144  1  0  0  0
 62145  1  0  0  0
 62146  1  0  0  0
 63 65  1  0  0  0
 63147  1  0  0  0
 63148  1  0  0  0
 63149  1  0  0  0
 64150  1  0  0  0
 65151  1  0  0  0
 68 86  1  0  0  0
 71 74  2  0  0  0
 71 75  1  0  0  0
 71152  1  0  0  0
 72 74  1  0  0  0
 72 76  2  0  0  0
 72153  1  0  0  0
 73 75  2  0  0  0
 73 76  1  0  0  0
 73154  1  0  0  0
 74 84  1  0  0  0
 75 91  1  0  0  0
 76 92  1  0  0  0
 77155  1  0  0  0
 77156  1  0  0  0
 77157  1  0  0  0
 77 88  1  0  0  0
 78 88  1  0  0  0
 78158  1  0  0  0
 78159  1  0  0  0
 78160  1  0  0  0
 79 88  1  0  0  0
 79161  1  0  0  0
 79162  1  0  0  0
 79163  1  0  0  0
 80164  1  0  0  0
 80165  1  0  0  0
 80166  1  0  0  0
 80 89  1  0  0  0
 81 89  1  0  0  0
 81167  1  0  0  0
 81168  1  0  0  0
 81169  1  0  0  0
 82170  1  0  0  0
 82171  1  0  0  0
 82172  1  0  0  0
 82 90  1  0  0  0
 83 90  1  0  0  0
 83173  1  0  0  0
 83174  1  0  0  0
 83175  1  0  0  0
 84 85  1  0  0  0
 84176  1  0  0  0
 84177  1  0  0  0
 85 89  1  0  0  0
 85178  1  0  0  0
 85179  1  0  0  0
 86 89  1  0  0  0
 86180  1  0  0  0
 86181  1  0  0  0
 87 90  1  0  0  0
 87 92  1  0  0  0
 87182  1  0  0  0
 87183  1  0  0  0
 88 90  1  0  0  0
 91184  1  0  0  0
M  ISO  4   1 100  68 101  86 101  91 100
M  END
> <chiral flag>
0

> <version>
0

> <s_m_source_file>
/data/baiqing/PycharmProjects/Reinvent-master-3.2/result/LINK_invent/BTK/process_docking_weight1_custom_product_contain_oxygen_bond_distance_aromatic_linkinvent_7_9_3/rearranged_h_0141.sdf

> <i_m_source_file_index>
89

> <r_mmod_Potential_Energy-OPLS-2005>
225.507095336914

> <r_mmod_Stretch_Energy-OPLS-2005>
119.44108581543

> <r_mmod_Bend_Energy-OPLS-2005>
176.243942260742

> <r_mmod_Torsional_Energy-OPLS-2005>
285.374450683594

> <r_mmod_Improper_Torsional_Energy-OPLS-2005>
5.78696441650391

> <r_mmod_Van_der_Waal_Energy-OPLS-2005>
160.048736572266

> <r_mmod_Electrostatic_Energy-OPLS-2005>
-393.307861328125

> <r_mmod_Solvation_Energy-OPLS-2005>
-191.942825317383

> <b_mmod_Minimization_Converged-OPLS-2005>
0

> <r_mmod_RMS_Derivative-OPLS-2005>
4.97878170013428

$$$$
89
                    3D
 Structure written by MMmdl.
180188  0  0  1  0            999 V2000
  -30.6933  -14.5298   20.5323 C   0  0  0  0  0  0
  -30.4207  -12.3320   19.4267 C   0  0  0  0  0  0
  -29.4917  -12.4918   18.2051 C   0  0  0  0  0  0
  -28.0147  -12.3516   18.6209 C   0  0  0  0  0  0
  -27.6553  -13.2104   19.8645 C   0  0  2  0  0  0
  -28.7031  -13.0401   20.9886 C   0  0  0  0  0  0
  -25.2591  -13.8160   20.5668 C   0  0  0  0  0  0
  -24.1852  -13.0443   20.9166 C   0  0  0  0  0  0
  -24.6411  -11.6906   20.8731 C   0  0  0  0  0  0
  -23.9082  -10.4293   21.0416 C   0  0  0  0  0  0
  -24.3630   -9.4217   21.9202 C   0  0  0  0  0  0
  -23.6304   -8.2254   22.0768 C   0  0  0  0  0  0
  -22.4290   -8.0289   21.3547 C   0  0  0  0  0  0
  -21.9933   -9.0260   20.4651 C   0  0  0  0  0  0
  -22.7261  -10.2140   20.3063 C   0  0  0  0  0  0
  -21.6857   -6.0741   22.5281 C   0  0  0  0  0  0
  -21.4014   -6.5643   23.8205 C   0  0  0  0  0  0
  -21.3666   -5.6798   24.9164 C   0  0  0  0  0  0
  -21.6043   -4.3063   24.7225 C   0  0  0  0  0  0
  -21.8820   -3.8152   23.4345 C   0  0  0  0  0  0
  -21.9197   -4.6967   22.3398 C   0  0  0  0  0  0
  -22.7883  -13.5248   21.1829 C   0  0  0  0  0  0
  -22.1660   -4.2157   21.0975 F   0  0  0  0  0  0
  -21.5639   -3.4544   25.7734 F   0  0  0  0  0  0
  -30.0235  -13.3466   20.4175 N   0  0  0  0  0  0
  -26.3016  -12.9329   20.3347 N   0  0  0  0  0  0
  -25.9344  -11.6484   20.5785 N   0  0  0  0  0  0
  -22.0510  -12.8215   22.0352 N   0  0  0  0  0  0
  -25.4307  -15.1879   20.4032 N   0  0  0  0  0  0
  -31.8468  -14.6648   20.1143 O   0  0  0  0  0  0
  -21.6644   -6.8893   21.4247 O   0  0  0  0  0  0
  -22.3564  -14.5568   20.6693 O   0  0  0  0  0  0
  -24.6229  -31.8628   23.2044 C   0  0  0  0  0  0
  -25.9088  -32.4807   23.8343 C   0  0  1  0  0  0
  -27.2070  -27.3219   20.1024 C   0  0  0  0  0  0
  -25.5939  -33.8606   24.2265 N   0  0  0  0  0  0
  -23.4137  -30.4876   21.5505 C   0  0  2  0  0  0
  -24.8489  -28.9506   20.1116 C   0  0  0  0  0  0
  -22.7471  -29.4614   22.4975 C   0  0  0  0  0  0
  -18.0283  -28.1407   22.8459 C   0  0  0  0  0  0
  -24.1521  -36.7326   23.2637 C   0  0  0  0  0  0
  -25.9545  -30.7902   21.3780 C   0  0  0  0  0  0
  -26.0186  -29.4187   20.7194 C   0  0  0  0  0  0
  -27.1919  -28.6128   20.7127 C   0  0  0  0  0  0
  -26.0195  -26.9283   19.4471 C   0  0  0  0  0  0
  -24.8524  -27.7076   19.4687 C   0  0  0  0  0  0
  -23.6201  -29.8326   20.1613 C   0  0  0  0  0  0
  -25.4141  -36.3097   24.0320 C   0  0  1  0  0  0
  -20.5879  -28.3667   23.1324 C   0  0  2  0  0  0
  -20.6788  -26.9407   22.5421 C   0  0  0  0  0  0
  -19.5755  -26.6361   21.5247 C   0  0  0  0  0  0
  -18.1918  -26.7948   22.1616 C   0  0  0  0  0  0
  -19.1536  -28.8855   23.2881 C   0  0  0  0  0  0
  -18.9477  -30.1469   23.8869 C   0  0  0  0  0  0
  -17.6474  -30.6586   24.0564 C   0  0  0  0  0  0
  -25.9068  -34.9458   23.5073 C   0  0  0  0  0  0
  -16.5363  -29.9086   23.6362 C   0  0  0  0  0  0
  -16.7280  -28.6535   23.0307 C   0  0  0  0  0  0
  -26.4469  -31.6622   25.0725 C   0  0  0  0  0  0
  -25.3687  -31.3752   26.1438 C   0  0  0  0  0  0
  -27.0374  -30.3088   24.6156 C   0  0  0  0  0  0
  -27.5990  -32.4385   25.7514 C   0  0  0  0  0  0
  -27.5589  -37.1823   24.8449 C   0  0  0  0  0  0
  -21.4179  -29.3059   22.3766 N   0  0  0  0  0  0
  -26.4314  -37.3786   23.9383 N   0  0  0  0  0  0
  -24.6836  -31.0627   22.1016 N   0  0  0  0  0  0
  -23.4235  -28.8144   23.3020 O   0  0  0  0  0  0
  -28.3814  -26.5519   20.1297 O   0  0  0  0  0  0
  -26.5620  -34.8898   22.4631 O   0  0  0  0  0  0
  -23.5394  -32.1443   23.7371 O   0  0  0  0  0  0
  -31.1713  -19.5743   21.9639 C   0  0  0  0  0  0
  -29.4692  -18.0407   21.1289 C   0  0  0  0  0  0
  -31.7013  -17.2181   21.6536 C   0  0  0  0  0  0
  -29.8505  -19.3616   21.5153 C   0  0  0  0  0  0
  -32.1105  -18.5165   22.0403 C   0  0  0  0  0  0
  -30.3872  -16.9520   21.2020 C   0  0  0  0  0  0
  -28.8775  -20.4813   21.6532 C   0  0  0  0  0  0
  -33.3900  -18.5568   24.1754 C   0  0  0  0  0  0
  -34.0455  -20.1608   22.3598 C   0  0  0  0  0  0
  -34.5655  -17.7511   22.1139 C   0  0  0  0  0  0
  -27.1844  -23.0999   22.2657 C   0  0  0  0  0  0
  -29.4074  -23.1492   23.3887 C   0  0  0  0  0  0
  -29.6115  -25.0419   18.8659 C   0  0  0  0  0  0
  -27.3715  -24.2112   19.4156 C   0  0  0  0  0  0
  -29.1683  -24.4387   21.2785 C   0  0  0  0  0  0
  -33.5085  -18.7443   22.6528 C   0  0  0  0  0  0
  -28.7111  -23.0864   22.0083 C   0  0  0  0  0  0
  -28.5334  -25.0763   19.9654 C   0  0  0  0  0  0
  -27.6888  -20.1786   22.1718 N   0  0  0  0  0  0
  -29.9548  -15.5986   20.9261 N   0  0  0  0  0  0
  -29.2041  -21.7882   21.3912 N   0  3  0  0  0  0
  -31.4662  -12.4240   19.1233 H   0  0  0  0  0  0
  -30.3222  -11.3336   19.8542 H   0  0  0  0  0  0
  -29.7345  -11.7470   17.4469 H   0  0  0  0  0  0
  -29.6499  -13.4661   17.7399 H   0  0  0  0  0  0
  -27.8307  -11.2972   18.8313 H   0  0  0  0  0  0
  -27.3619  -12.6075   17.7858 H   0  0  0  0  0  0
  -27.6834  -14.2500   19.5402 H   0  0  0  0  0  0
  -28.6955  -12.0167   21.3686 H   0  0  0  0  0  0
  -28.4705  -13.6757   21.8442 H   0  0  0  0  0  0
  -25.2781   -9.5686   22.4772 H   0  0  0  0  0  0
  -24.0004   -7.4653   22.7496 H   0  0  0  0  0  0
  -21.0870   -8.8801   19.8942 H   0  0  0  0  0  0
  -22.3755  -10.9686   19.6167 H   0  0  0  0  0  0
  -21.2001   -7.6151   23.9718 H   0  0  0  0  0  0
  -21.1479   -6.0521   25.9069 H   0  0  0  0  0  0
  -22.0594   -2.7616   23.2840 H   0  0  0  0  0  0
  -22.4112  -11.9861   22.4711 H   0  0  0  0  0  0
  -21.1139  -13.1258   22.2573 H   0  0  0  0  0  0
  -24.6572  -15.8379   20.4934 H   0  0  0  0  0  0
  -26.2704  -15.6228   20.0445 H   0  0  0  0  0  0
  -26.7152  -32.5446   23.1067 H   0  0  0  0  0  0
  -25.0179  -33.9790   25.0468 H   0  0  0  0  0  0
  -22.7062  -31.3068   21.4128 H   0  0  0  0  0  0
  -23.3787  -35.9659   23.3292 H   0  0  0  0  0  0
  -24.3615  -36.8965   22.2058 H   0  0  0  0  0  0
  -23.7273  -37.6517   23.6672 H   0  0  0  0  0  0
  -26.0913  -31.5578   20.6149 H   0  0  0  0  0  0
  -26.8335  -30.8278   22.0082 H   0  0  0  0  0  0
  -28.0906  -28.9702   21.1935 H   0  0  0  0  0  0
  -25.9347  -26.0359   18.8641 H   0  0  0  0  0  0
  -23.9669  -27.3540   18.9582 H   0  0  0  0  0  0
  -23.7340  -30.6137   19.4111 H   0  0  0  0  0  0
  -22.7377  -29.2667   19.8570 H   0  0  0  0  0  0
  -25.1337  -36.1948   25.0823 H   0  0  0  0  0  0
  -20.9926  -28.3211   24.1461 H   0  0  0  0  0  0
  -20.5809  -26.2261   23.3615 H   0  0  0  0  0  0
  -21.6636  -26.7516   22.1134 H   0  0  0  0  0  0
  -19.6941  -25.6274   21.1277 H   0  0  0  0  0  0
  -19.6696  -27.3163   20.6781 H   0  0  0  0  0  0
  -17.4217  -26.6726   21.3985 H   0  0  0  0  0  0
  -18.0242  -26.0110   22.9021 H   0  0  0  0  0  0
  -19.7958  -30.7290   24.2187 H   0  0  0  0  0  0
  -17.5039  -31.6270   24.5148 H   0  0  0  0  0  0
  -15.5359  -30.2970   23.7723 H   0  0  0  0  0  0
  -15.8688  -28.0878   22.6977 H   0  0  0  0  0  0
  -24.5816  -30.7183   25.7722 H   0  0  0  0  0  0
  -24.8940  -32.2940   26.4899 H   0  0  0  0  0  0
  -25.7970  -30.8858   27.0193 H   0  0  0  0  0  0
  -26.2984  -29.6827   24.1148 H   0  0  0  0  0  0
  -27.4139  -29.7327   25.4605 H   0  0  0  0  0  0
  -27.8783  -30.4490   23.9364 H   0  0  0  0  0  0
  -27.2562  -33.3666   26.2088 H   0  0  0  0  0  0
  -28.3797  -32.6996   25.0366 H   0  0  0  0  0  0
  -28.0666  -31.8547   26.5447 H   0  0  0  0  0  0
  -28.2560  -38.0161   24.7524 H   0  0  0  0  0  0
  -28.1140  -36.2684   24.6266 H   0  0  0  0  0  0
  -27.2289  -37.1430   25.8841 H   0  0  0  0  0  0
  -20.9335  -29.8881   21.7077 H   0  0  0  0  0  0
  -26.0216  -38.2876   24.1344 H   0  0  0  0  0  0
  -31.4314  -20.5555   22.3311 H   0  0  0  0  0  0
  -28.4505  -17.8514   20.8218 H   0  0  0  0  0  0
  -32.3897  -16.3976   21.7658 H   0  0  0  0  0  0
  -32.7031  -19.2802   24.6157 H   0  0  0  0  0  0
  -34.3523  -18.6717   24.6747 H   0  0  0  0  0  0
  -33.0105  -17.5639   24.4205 H   0  0  0  0  0  0
  -33.4623  -20.9429   22.8429 H   0  0  0  0  0  0
  -34.0651  -20.3652   21.2892 H   0  0  0  0  0  0
  -35.0645  -20.2771   22.7307 H   0  0  0  0  0  0
  -34.3791  -16.7238   22.4254 H   0  0  0  0  0  0
  -35.5610  -17.9938   22.4868 H   0  0  0  0  0  0
  -34.6176  -17.7706   21.0247 H   0  0  0  0  0  0
  -26.7860  -24.1184   22.2696 H   0  0  0  0  0  0
  -26.9281  -22.6796   23.2378 H   0  0  0  0  0  0
  -26.6345  -22.5448   21.5051 H   0  0  0  0  0  0
  -29.0075  -23.9508   24.0098 H   0  0  0  0  0  0
  -30.4805  -23.3285   23.2823 H   0  0  0  0  0  0
  -29.2949  -22.2220   23.9517 H   0  0  0  0  0  0
  -29.8989  -24.0179   18.6199 H   0  0  0  0  0  0
  -30.5155  -25.5705   19.1699 H   0  0  0  0  0  0
  -29.2620  -25.5113   17.9445 H   0  0  0  0  0  0
  -27.6435  -23.1554   19.4137 H   0  0  0  0  0  0
  -27.1365  -24.4325   18.3732 H   0  0  0  0  0  0
  -26.4596  -24.3035   20.0037 H   0  0  0  0  0  0
  -30.2462  -24.3567   21.1274 H   0  0  0  0  0  0
  -29.0963  -25.2262   22.0299 H   0  0  0  0  0  0
  -27.4832  -19.2218   22.4209 H   0  0  0  0  0  0
  -26.9934  -20.8830   22.3528 H   0  0  0  0  0  0
  -28.9705  -15.4130   21.0394 H   0  0  0  0  0  0
  -30.0848  -21.8715   20.8955 H   0  0  0  0  0  0
  1 25  1  0  0  0
  1 30  2  0  0  0
  1 90  1  0  0  0
  2  3  1  0  0  0
  2 25  1  0  0  0
  2 92  1  0  0  0
  2 93  1  0  0  0
  3  4  1  0  0  0
  3 94  1  0  0  0
  3 95  1  0  0  0
  4  5  1  0  0  0
  4 96  1  0  0  0
  4 97  1  0  0  0
  5  6  1  0  0  0
  5 26  1  0  0  0
  5 98  1  0  0  0
  6 25  1  0  0  0
  6 99  1  0  0  0
  6100  1  0  0  0
  7  8  2  0  0  0
  7 26  1  0  0  0
  7 29  1  0  0  0
  8  9  1  0  0  0
  8 22  1  0  0  0
  9 10  1  0  0  0
  9 27  2  0  0  0
 10 11  2  0  0  0
 10 15  1  0  0  0
 11 12  1  0  0  0
 11101  1  0  0  0
 12 13  2  0  0  0
 12102  1  0  0  0
 13 14  1  0  0  0
 13 31  1  0  0  0
 14 15  2  0  0  0
 14103  1  0  0  0
 15104  1  0  0  0
 16 17  2  0  0  0
 16 21  1  0  0  0
 16 31  1  0  0  0
 17 18  1  0  0  0
 17105  1  0  0  0
 18 19  2  0  0  0
 18106  1  0  0  0
 19 20  1  0  0  0
 19 24  1  0  0  0
 20 21  2  0  0  0
 20107  1  0  0  0
 21 23  1  0  0  0
 22 28  1  0  0  0
 22 32  2  0  0  0
 26 27  1  0  0  0
 28108  1  0  0  0
 28109  1  0  0  0
 29110  1  0  0  0
 29111  1  0  0  0
 33 34  1  0  0  0
 33 66  1  0  0  0
 33 70  2  0  0  0
 34 36  1  0  0  0
 34 59  1  0  0  0
 34112  1  0  0  0
 35 44  2  0  0  0
 35 45  1  0  0  0
 35 68  1  0  0  0
 36 56  1  0  0  0
 36113  1  0  0  0
 37 39  1  0  0  0
 37 47  1  0  0  0
 37 66  1  0  0  0
 37114  1  0  0  0
 38 43  2  0  0  0
 38 46  1  0  0  0
 38 47  1  0  0  0
 39 64  1  0  0  0
 39 67  2  0  0  0
 40 52  1  0  0  0
 40 53  2  0  0  0
 40 58  1  0  0  0
 41115  1  0  0  0
 41116  1  0  0  0
 41117  1  0  0  0
 41 48  1  0  0  0
 42 43  1  0  0  0
 42 66  1  0  0  0
 42118  1  0  0  0
 42119  1  0  0  0
 43 44  1  0  0  0
 44120  1  0  0  0
 45 46  2  0  0  0
 45121  1  0  0  0
 46122  1  0  0  0
 47123  1  0  0  0
 47124  1  0  0  0
 48 56  1  0  0  0
 48 65  1  0  0  0
 48125  1  0  0  0
 49 50  1  0  0  0
 49 53  1  0  0  0
 49 64  1  0  0  0
 49126  1  0  0  0
 50 51  1  0  0  0
 50127  1  0  0  0
 50128  1  0  0  0
 51 52  1  0  0  0
 51129  1  0  0  0
 51130  1  0  0  0
 52131  1  0  0  0
 52132  1  0  0  0
 53 54  1  0  0  0
 54 55  2  0  0  0
 54133  1  0  0  0
 55 57  1  0  0  0
 55134  1  0  0  0
 56 69  2  0  0  0
 57 58  2  0  0  0
 57135  1  0  0  0
 58136  1  0  0  0
 59 60  1  0  0  0
 59 61  1  0  0  0
 59 62  1  0  0  0
 60137  1  0  0  0
 60138  1  0  0  0
 60139  1  0  0  0
 61140  1  0  0  0
 61141  1  0  0  0
 61142  1  0  0  0
 62143  1  0  0  0
 62144  1  0  0  0
 62145  1  0  0  0
 63 65  1  0  0  0
 63146  1  0  0  0
 63147  1  0  0  0
 63148  1  0  0  0
 64149  1  0  0  0
 65150  1  0  0  0
 68 88  1  0  0  0
 71 74  2  0  0  0
 71 75  1  0  0  0
 71151  1  0  0  0
 72 74  1  0  0  0
 72 76  2  0  0  0
 72152  1  0  0  0
 73 75  2  0  0  0
 73 76  1  0  0  0
 73153  1  0  0  0
 74 77  1  0  0  0
 75 86  1  0  0  0
 76 90  1  0  0  0
 77 89  1  0  0  0
 77 91  2  0  0  0
 78154  1  0  0  0
 78155  1  0  0  0
 78156  1  0  0  0
 78 86  1  0  0  0
 79 86  1  0  0  0
 79157  1  0  0  0
 79158  1  0  0  0
 79159  1  0  0  0
 80 86  1  0  0  0
 80160  1  0  0  0
 80161  1  0  0  0
 80162  1  0  0  0
 81163  1  0  0  0
 81164  1  0  0  0
 81165  1  0  0  0
 81 87  1  0  0  0
 82 87  1  0  0  0
 82166  1  0  0  0
 82167  1  0  0  0
 82168  1  0  0  0
 83169  1  0  0  0
 83170  1  0  0  0
 83171  1  0  0  0
 83 88  1  0  0  0
 84 88  1  0  0  0
 84172  1  0  0  0
 84173  1  0  0  0
 84174  1  0  0  0
 85 87  1  0  0  0
 85 88  1  0  0  0
 85175  1  0  0  0
 85176  1  0  0  0
 87 91  1  0  0  0
 89177  1  0  0  0
 89178  1  0  0  0
 90179  1  0  0  0
 91180  1  0  0  0
M  CHG  1  91   1
M  ISO  4   1 100  68 101  88 101  90 100
M  END
> <chiral flag>
0

> <version>
0

> <s_m_source_file>
/data/baiqing/PycharmProjects/Reinvent-master-3.2/result/LINK_invent/BTK/process_docking_weight1_custom_product_contain_oxygen_bond_distance_aromatic_linkinvent_7_9_3/rearranged_h_0141.sdf

> <i_m_source_file_index>
90

> <r_mmod_Potential_Energy-OPLS-2005>
-41.7418556213379

> <r_mmod_Stretch_Energy-OPLS-2005>
75.6579742431641

> <r_mmod_Bend_Energy-OPLS-2005>
197.848617553711

> <r_mmod_Torsional_Energy-OPLS-2005>
262.452972412109

> <r_mmod_Improper_Torsional_Energy-OPLS-2005>
7.95136165618896

> <r_mmod_Van_der_Waal_Energy-OPLS-2005>
183.486251831055

> <r_mmod_Electrostatic_Energy-OPLS-2005>
-410.944915771484

> <r_mmod_Solvation_Energy-OPLS-2005>
-388.371856689453

> <b_mmod_Minimization_Converged-OPLS-2005>
0

> <r_mmod_RMS_Derivative-OPLS-2005>
3.88031649589539

$$$$
90
                    3D
 Structure written by MMmdl.
167175  0  0  1  0            999 V2000
  -30.7369  -14.4905   20.5569 C   0  0  0  0  0  0
  -30.4079  -12.3119   19.4436 C   0  0  0  0  0  0
  -29.4928  -12.4961   18.2166 C   0  0  0  0  0  0
  -28.0157  -12.3578   18.6284 C   0  0  0  0  0  0
  -27.6568  -13.2173   19.8707 C   0  0  2  0  0  0
  -28.6988  -13.0486   21.0014 C   0  0  0  0  0  0
  -25.2567  -13.8184   20.5698 C   0  0  0  0  0  0
  -24.1830  -13.0447   20.9190 C   0  0  0  0  0  0
  -24.6394  -11.6918   20.8734 C   0  0  0  0  0  0
  -23.9062  -10.4299   21.0395 C   0  0  0  0  0  0
  -24.3614   -9.4217   21.9177 C   0  0  0  0  0  0
  -23.6295   -8.2248   22.0749 C   0  0  0  0  0  0
  -22.4277   -8.0277   21.3538 C   0  0  0  0  0  0
  -21.9907   -9.0252   20.4640 C   0  0  0  0  0  0
  -22.7233  -10.2135   20.3049 C   0  0  0  0  0  0
  -21.6856   -6.0737   22.5275 C   0  0  0  0  0  0
  -21.4013   -6.5640   23.8210 C   0  0  0  0  0  0
  -21.3663   -5.6793   24.9171 C   0  0  0  0  0  0
  -21.6044   -4.3052   24.7218 C   0  0  0  0  0  0
  -21.8819   -3.8146   23.4340 C   0  0  0  0  0  0
  -21.9197   -4.6965   22.3399 C   0  0  0  0  0  0
  -22.7852  -13.5237   21.1856 C   0  0  0  0  0  0
  -22.1663   -4.2151   21.0974 F   0  0  0  0  0  0
  -21.5634   -3.4537   25.7733 F   0  0  0  0  0  0
  -30.0293  -13.3301   20.4418 N   0  0  0  0  0  0
  -26.3005  -12.9371   20.3362 N   0  0  0  0  0  0
  -25.9324  -11.6524   20.5775 N   0  0  0  0  0  0
  -22.0498  -12.8217   22.0406 N   0  0  0  0  0  0
  -25.4289  -15.1904   20.4107 N   0  0  0  0  0  0
  -31.8602  -14.5949   20.0605 O   0  0  0  0  0  0
  -21.6643   -6.8877   21.4234 O   0  0  0  0  0  0
  -22.3532  -14.5545   20.6712 O   0  0  0  0  0  0
  -24.6161  -31.8677   23.2098 C   0  0  0  0  0  0
  -25.9052  -32.4819   23.8388 C   0  0  1  0  0  0
  -27.2285  -27.4095   20.0905 C   0  0  0  0  0  0
  -25.5914  -33.8621   24.2314 N   0  0  0  0  0  0
  -23.4044  -30.4929   21.5493 C   0  0  2  0  0  0
  -24.8491  -28.9590   20.1116 C   0  0  0  0  0  0
  -22.7420  -29.4663   22.4962 C   0  0  0  0  0  0
  -18.0281  -28.1379   22.8493 C   0  0  0  0  0  0
  -24.1497  -36.7308   23.2644 C   0  0  0  0  0  0
  -25.9373  -30.8199   21.3729 C   0  0  0  0  0  0
  -26.0084  -29.4537   20.7190 C   0  0  0  0  0  0
  -27.1949  -28.6813   20.7164 C   0  0  0  0  0  0
  -26.0548  -26.9532   19.4519 C   0  0  0  0  0  0
  -24.8668  -27.7055   19.4799 C   0  0  0  0  0  0
  -23.6135  -29.8293   20.1625 C   0  0  0  0  0  0
  -25.4121  -36.3102   24.0332 C   0  0  1  0  0  0
  -20.5877  -28.3666   23.1308 C   0  0  2  0  0  0
  -20.6775  -26.9396   22.5415 C   0  0  0  0  0  0
  -19.5753  -26.6377   21.5221 C   0  0  0  0  0  0
  -18.1928  -26.7929   22.1623 C   0  0  0  0  0  0
  -19.1531  -28.8838   23.2905 C   0  0  0  0  0  0
  -18.9459  -30.1453   23.8902 C   0  0  0  0  0  0
  -17.6458  -30.6585   24.0567 C   0  0  0  0  0  0
  -25.9046  -34.9475   23.5112 C   0  0  0  0  0  0
  -16.5349  -29.9087   23.6334 C   0  0  0  0  0  0
  -16.7269  -28.6509   23.0334 C   0  0  0  0  0  0
  -26.4481  -31.6609   25.0725 C   0  0  0  0  0  0
  -25.3742  -31.3713   26.1471 C   0  0  0  0  0  0
  -27.0318  -30.3047   24.6131 C   0  0  0  0  0  0
  -27.6066  -32.4333   25.7473 C   0  0  0  0  0  0
  -27.5588  -37.1809   24.8468 C   0  0  0  0  0  0
  -21.4144  -29.3036   22.3705 N   0  0  0  0  0  0
  -26.4307  -37.3787   23.9406 N   0  0  0  0  0  0
  -24.6703  -31.0762   22.1007 N   0  0  0  0  0  0
  -23.4195  -28.8208   23.3004 O   0  0  0  0  0  0
  -28.3986  -26.6682   20.1419 O   0  0  0  0  0  0
  -26.5607  -34.8927   22.4674 O   0  0  0  0  0  0
  -23.5346  -32.1433   23.7477 O   0  0  0  0  0  0
  -32.3405  -18.6172   21.1243 C   0  0  0  0  0  0
  -31.3942  -19.6511   21.1826 C   0  0  0  0  0  0
  -31.9274  -17.2755   21.1299 C   0  0  0  0  0  0
  -29.6069  -17.9960   21.2454 C   0  0  0  0  0  0
  -30.0110  -19.3701   21.2744 C   0  0  0  0  0  0
  -30.5521  -16.9329   21.1506 C   0  0  0  0  0  0
  -29.0053  -21.4986   20.2128 C   0  0  0  0  0  0
  -27.5809  -20.0875   21.7017 C   0  0  0  0  0  0
  -29.4619  -21.3238   22.7541 C   0  0  0  0  0  0
  -26.8237  -23.4710   19.6327 C   0  0  0  0  0  0
  -27.7246  -24.4219   21.7492 C   0  0  0  0  0  0
  -29.2863  -23.0301   20.2826 C   0  0  0  0  0  0
  -28.5190  -25.3758   19.5012 C   0  0  0  0  0  0
  -29.0322  -20.5677   21.4730 C   0  0  0  0  0  0
  -28.0912  -24.0711   20.2920 C   0  0  0  0  0  0
  -30.1041  -15.5570   21.1099 N   0  0  0  0  0  0
  -28.7617  -21.0034   19.1076 O   0  0  0  0  0  0
  -31.4559  -12.3746   19.1446 H   0  0  0  0  0  0
  -30.2851  -11.3128   19.8642 H   0  0  0  0  0  0
  -29.7362  -11.7579   17.4513 H   0  0  0  0  0  0
  -29.6636  -13.4750   17.7657 H   0  0  0  0  0  0
  -27.8333  -11.3045   18.8422 H   0  0  0  0  0  0
  -27.3646  -12.6127   17.7919 H   0  0  0  0  0  0
  -27.6878  -14.2580   19.5466 H   0  0  0  0  0  0
  -28.6747  -12.0317   21.3951 H   0  0  0  0  0  0
  -28.4610  -13.6967   21.8454 H   0  0  0  0  0  0
  -25.2761   -9.5701   22.4750 H   0  0  0  0  0  0
  -24.0012   -7.4642   22.7466 H   0  0  0  0  0  0
  -21.0843   -8.8757   19.8947 H   0  0  0  0  0  0
  -22.3680  -10.9667   19.6156 H   0  0  0  0  0  0
  -21.1994   -7.6149   23.9713 H   0  0  0  0  0  0
  -21.1490   -6.0522   25.9076 H   0  0  0  0  0  0
  -22.0596   -2.7608   23.2837 H   0  0  0  0  0  0
  -22.4116  -11.9874   22.4785 H   0  0  0  0  0  0
  -21.1116  -13.1228   22.2616 H   0  0  0  0  0  0
  -24.6611  -15.8452   20.5139 H   0  0  0  0  0  0
  -26.2799  -15.6272   20.0790 H   0  0  0  0  0  0
  -26.7114  -32.5517   23.1141 H   0  0  0  0  0  0
  -25.0097  -33.9800   25.0479 H   0  0  0  0  0  0
  -22.6937  -31.3108   21.4101 H   0  0  0  0  0  0
  -23.3763  -35.9639   23.3310 H   0  0  0  0  0  0
  -24.3592  -36.8911   22.2056 H   0  0  0  0  0  0
  -23.7244  -37.6510   23.6658 H   0  0  0  0  0  0
  -26.0597  -31.5855   20.6051 H   0  0  0  0  0  0
  -26.8226  -30.8673   21.9949 H   0  0  0  0  0  0
  -28.0849  -29.0551   21.2027 H   0  0  0  0  0  0
  -26.0311  -26.0246   18.9108 H   0  0  0  0  0  0
  -23.9789  -27.3229   18.9971 H   0  0  0  0  0  0
  -23.7235  -30.6065   19.4055 H   0  0  0  0  0  0
  -22.7370  -29.2523   19.8624 H   0  0  0  0  0  0
  -25.1292  -36.1968   25.0823 H   0  0  0  0  0  0
  -20.9974  -28.3227   24.1427 H   0  0  0  0  0  0
  -20.5693  -26.2262   23.3599 H   0  0  0  0  0  0
  -21.6639  -26.7448   22.1186 H   0  0  0  0  0  0
  -19.6915  -25.6291   21.1236 H   0  0  0  0  0  0
  -19.6702  -27.3205   20.6766 H   0  0  0  0  0  0
  -17.4202  -26.6697   21.4019 H   0  0  0  0  0  0
  -18.0309  -26.0065   22.9004 H   0  0  0  0  0  0
  -19.7938  -30.7274   24.2253 H   0  0  0  0  0  0
  -17.5015  -31.6270   24.5166 H   0  0  0  0  0  0
  -15.5352  -30.2982   23.7671 H   0  0  0  0  0  0
  -15.8669  -28.0853   22.7009 H   0  0  0  0  0  0
  -24.5934  -30.7043   25.7793 H   0  0  0  0  0  0
  -24.8929  -32.2870   26.4920 H   0  0  0  0  0  0
  -25.8098  -30.8878   27.0227 H   0  0  0  0  0  0
  -26.2863  -29.6789   24.1216 H   0  0  0  0  0  0
  -27.4102  -29.7305   25.4599 H   0  0  0  0  0  0
  -27.8691  -30.4347   23.9270 H   0  0  0  0  0  0
  -27.2709  -33.3640   26.2058 H   0  0  0  0  0  0
  -28.3869  -32.6883   25.0287 H   0  0  0  0  0  0
  -28.0747  -31.8455   26.5376 H   0  0  0  0  0  0
  -28.2603  -38.0106   24.7506 H   0  0  0  0  0  0
  -28.1076  -36.2636   24.6294 H   0  0  0  0  0  0
  -27.2304  -37.1441   25.8869 H   0  0  0  0  0  0
  -20.9290  -29.8758   21.6939 H   0  0  0  0  0  0
  -26.0189  -38.2864   24.1406 H   0  0  0  0  0  0
  -33.3951  -18.8542   21.0878 H   0  0  0  0  0  0
  -31.7497  -20.6722   21.1897 H   0  0  0  0  0  0
  -32.7033  -16.5258   21.1145 H   0  0  0  0  0  0
  -28.5594  -17.7393   21.3014 H   0  0  0  0  0  0
  -27.1973  -19.5283   20.8472 H   0  0  0  0  0  0
  -26.9057  -20.9293   21.8590 H   0  0  0  0  0  0
  -27.5045  -19.4495   22.5826 H   0  0  0  0  0  0
  -30.4523  -21.7710   22.6738 H   0  0  0  0  0  0
  -29.4923  -20.6440   23.6066 H   0  0  0  0  0  0
  -28.7704  -22.1197   23.0177 H   0  0  0  0  0  0
  -26.5075  -22.5480   20.1174 H   0  0  0  0  0  0
  -26.9854  -23.2468   18.5777 H   0  0  0  0  0  0
  -25.9621  -24.1279   19.7096 H   0  0  0  0  0  0
  -27.3046  -23.5667   22.2762 H   0  0  0  0  0  0
  -26.9683  -25.2050   21.7954 H   0  0  0  0  0  0
  -28.5920  -24.7739   22.3084 H   0  0  0  0  0  0
  -29.8778  -23.2118   19.3857 H   0  0  0  0  0  0
  -29.9733  -23.2476   21.0987 H   0  0  0  0  0  0
  -28.0883  -25.3957   18.4997 H   0  0  0  0  0  0
  -29.5887  -25.3160   19.2979 H   0  0  0  0  0  0
  -29.1579  -15.3822   21.4123 H   0  0  0  0  0  0
  1 25  1  0  0  0
  1 30  2  0  0  0
  1 86  1  0  0  0
  2  3  1  0  0  0
  2 25  1  0  0  0
  2 88  1  0  0  0
  2 89  1  0  0  0
  3  4  1  0  0  0
  3 90  1  0  0  0
  3 91  1  0  0  0
  4  5  1  0  0  0
  4 92  1  0  0  0
  4 93  1  0  0  0
  5  6  1  0  0  0
  5 26  1  0  0  0
  5 94  1  0  0  0
  6 25  1  0  0  0
  6 95  1  0  0  0
  6 96  1  0  0  0
  7  8  2  0  0  0
  7 26  1  0  0  0
  7 29  1  0  0  0
  8  9  1  0  0  0
  8 22  1  0  0  0
  9 10  1  0  0  0
  9 27  2  0  0  0
 10 11  2  0  0  0
 10 15  1  0  0  0
 11 12  1  0  0  0
 11 97  1  0  0  0
 12 13  2  0  0  0
 12 98  1  0  0  0
 13 14  1  0  0  0
 13 31  1  0  0  0
 14 15  2  0  0  0
 14 99  1  0  0  0
 15100  1  0  0  0
 16 17  2  0  0  0
 16 21  1  0  0  0
 16 31  1  0  0  0
 17 18  1  0  0  0
 17101  1  0  0  0
 18 19  2  0  0  0
 18102  1  0  0  0
 19 20  1  0  0  0
 19 24  1  0  0  0
 20 21  2  0  0  0
 20103  1  0  0  0
 21 23  1  0  0  0
 22 28  1  0  0  0
 22 32  2  0  0  0
 26 27  1  0  0  0
 28104  1  0  0  0
 28105  1  0  0  0
 29106  1  0  0  0
 29107  1  0  0  0
 33 34  1  0  0  0
 33 66  1  0  0  0
 33 70  2  0  0  0
 34 36  1  0  0  0
 34 59  1  0  0  0
 34108  1  0  0  0
 35 44  2  0  0  0
 35 45  1  0  0  0
 35 68  1  0  0  0
 36 56  1  0  0  0
 36109  1  0  0  0
 37 39  1  0  0  0
 37 47  1  0  0  0
 37 66  1  0  0  0
 37110  1  0  0  0
 38 43  2  0  0  0
 38 46  1  0  0  0
 38 47  1  0  0  0
 39 64  1  0  0  0
 39 67  2  0  0  0
 40 52  1  0  0  0
 40 53  2  0  0  0
 40 58  1  0  0  0
 41111  1  0  0  0
 41112  1  0  0  0
 41113  1  0  0  0
 41 48  1  0  0  0
 42 43  1  0  0  0
 42 66  1  0  0  0
 42114  1  0  0  0
 42115  1  0  0  0
 43 44  1  0  0  0
 44116  1  0  0  0
 45 46  2  0  0  0
 45117  1  0  0  0
 46118  1  0  0  0
 47119  1  0  0  0
 47120  1  0  0  0
 48 56  1  0  0  0
 48 65  1  0  0  0
 48121  1  0  0  0
 49 50  1  0  0  0
 49 53  1  0  0  0
 49 64  1  0  0  0
 49122  1  0  0  0
 50 51  1  0  0  0
 50123  1  0  0  0
 50124  1  0  0  0
 51 52  1  0  0  0
 51125  1  0  0  0
 51126  1  0  0  0
 52127  1  0  0  0
 52128  1  0  0  0
 53 54  1  0  0  0
 54 55  2  0  0  0
 54129  1  0  0  0
 55 57  1  0  0  0
 55130  1  0  0  0
 56 69  2  0  0  0
 57 58  2  0  0  0
 57131  1  0  0  0
 58132  1  0  0  0
 59 60  1  0  0  0
 59 61  1  0  0  0
 59 62  1  0  0  0
 60133  1  0  0  0
 60134  1  0  0  0
 60135  1  0  0  0
 61136  1  0  0  0
 61137  1  0  0  0
 61138  1  0  0  0
 62139  1  0  0  0
 62140  1  0  0  0
 62141  1  0  0  0
 63 65  1  0  0  0
 63142  1  0  0  0
 63143  1  0  0  0
 63144  1  0  0  0
 64145  1  0  0  0
 65146  1  0  0  0
 68 83  1  0  0  0
 71 72  2  0  0  0
 71 73  1  0  0  0
 71147  1  0  0  0
 72 75  1  0  0  0
 72148  1  0  0  0
 73 76  2  0  0  0
 73149  1  0  0  0
 74 75  2  0  0  0
 74 76  1  0  0  0
 74150  1  0  0  0
 75 84  1  0  0  0
 76 86  1  0  0  0
 77 82  1  0  0  0
 77 84  1  0  0  0
 77 87  2  0  0  0
 78151  1  0  0  0
 78152  1  0  0  0
 78153  1  0  0  0
 78 84  1  0  0  0
 79 84  1  0  0  0
 79154  1  0  0  0
 79155  1  0  0  0
 79156  1  0  0  0
 80157  1  0  0  0
 80158  1  0  0  0
 80159  1  0  0  0
 80 85  1  0  0  0
 81 85  1  0  0  0
 81160  1  0  0  0
 81161  1  0  0  0
 81162  1  0  0  0
 82 85  1  0  0  0
 82163  1  0  0  0
 82164  1  0  0  0
 83 85  1  0  0  0
 83165  1  0  0  0
 83166  1  0  0  0
 86167  1  0  0  0
M  ISO  4   1 100  68 101  83 101  86 100
M  END
> <chiral flag>
0

> <version>
0

> <s_m_source_file>
/data/baiqing/PycharmProjects/Reinvent-master-3.2/result/LINK_invent/BTK/process_docking_weight1_custom_product_contain_oxygen_bond_distance_aromatic_linkinvent_7_9_3/rearranged_h_0141.sdf

> <i_m_source_file_index>
91

> <r_mmod_Potential_Energy-OPLS-2005>
75.8864135742188

> <r_mmod_Stretch_Energy-OPLS-2005>
57.4201202392578

> <r_mmod_Bend_Energy-OPLS-2005>
140.475936889648

> <r_mmod_Torsional_Energy-OPLS-2005>
234.578155517578

> <r_mmod_Improper_Torsional_Energy-OPLS-2005>
3.36096692085266

> <r_mmod_Van_der_Waal_Energy-OPLS-2005>
172.584335327148

> <r_mmod_Electrostatic_Energy-OPLS-2005>
-343.670379638672

> <r_mmod_Solvation_Energy-OPLS-2005>
-207.479034423828

> <b_mmod_Minimization_Converged-OPLS-2005>
0

> <r_mmod_RMS_Derivative-OPLS-2005>
1.3642373085022

$$$$
91
                    3D
 Structure written by MMmdl.
161169  0  0  1  0            999 V2000
  -30.6311  -14.6847   20.4478 C   0  0  0  0  0  0
  -30.4164  -12.4190   19.4575 C   0  0  0  0  0  0
  -29.5007  -12.4921   18.2206 C   0  0  0  0  0  0
  -28.0226  -12.3390   18.6282 C   0  0  0  0  0  0
  -27.6343  -13.2323   19.8377 C   0  0  2  0  0  0
  -28.6743  -13.1527   20.9737 C   0  0  0  0  0  0
  -25.2478  -13.8207   20.5673 C   0  0  0  0  0  0
  -24.1783  -13.0438   20.9230 C   0  0  0  0  0  0
  -24.6377  -11.6921   20.8719 C   0  0  0  0  0  0
  -23.9059  -10.4280   21.0375 C   0  0  0  0  0  0
  -24.3624   -9.4206   21.9159 C   0  0  0  0  0  0
  -23.6305   -8.2233   22.0748 C   0  0  0  0  0  0
  -22.4294   -8.0243   21.3529 C   0  0  0  0  0  0
  -21.9901   -9.0215   20.4650 C   0  0  0  0  0  0
  -22.7225  -10.2099   20.3036 C   0  0  0  0  0  0
  -21.6873   -6.0712   22.5286 C   0  0  0  0  0  0
  -21.3999   -6.5629   23.8207 C   0  0  0  0  0  0
  -21.3660   -5.6795   24.9185 C   0  0  0  0  0  0
  -21.6066   -4.3056   24.7252 C   0  0  0  0  0  0
  -21.8824   -3.8136   23.4376 C   0  0  0  0  0  0
  -21.9200   -4.6938   22.3422 C   0  0  0  0  0  0
  -22.7814  -13.5201   21.1940 C   0  0  0  0  0  0
  -22.1674   -4.2123   21.0999 F   0  0  0  0  0  0
  -21.5635   -3.4548   25.7773 F   0  0  0  0  0  0
  -29.9818  -13.4784   20.3940 N   0  0  0  0  0  0
  -26.2883  -12.9400   20.3190 N   0  0  0  0  0  0
  -25.9287  -11.6554   20.5686 N   0  0  0  0  0  0
  -22.0494  -12.8125   22.0480 N   0  0  0  0  0  0
  -25.4180  -15.1926   20.4097 N   0  0  0  0  0  0
  -31.8311  -14.7287   20.1645 O   0  0  0  0  0  0
  -21.6647   -6.8852   21.4248 O   0  0  0  0  0  0
  -22.3475  -14.5493   20.6800 O   0  0  0  0  0  0
  -24.6278  -31.8548   23.1985 C   0  0  0  0  0  0
  -25.9144  -32.4714   23.8322 C   0  0  1  0  0  0
  -27.2084  -27.2826   20.1011 C   0  0  0  0  0  0
  -25.5972  -33.8525   24.2241 N   0  0  0  0  0  0
  -23.4224  -30.4799   21.5393 C   0  0  2  0  0  0
  -24.8668  -28.9332   20.1022 C   0  0  0  0  0  0
  -22.7485  -29.4597   22.4879 C   0  0  0  0  0  0
  -18.0287  -28.1375   22.8506 C   0  0  0  0  0  0
  -24.1513  -36.7270   23.2639 C   0  0  0  0  0  0
  -25.9691  -30.7639   21.3841 C   0  0  0  0  0  0
  -26.0325  -29.3910   20.7258 C   0  0  0  0  0  0
  -27.2010  -28.5690   20.7309 C   0  0  0  0  0  0
  -26.0308  -26.9056   19.4239 C   0  0  0  0  0  0
  -24.8672  -27.6956   19.4447 C   0  0  0  0  0  0
  -23.6387  -29.8169   20.1540 C   0  0  0  0  0  0
  -25.4134  -36.3024   24.0313 C   0  0  1  0  0  0
  -20.5897  -28.3683   23.1259 C   0  0  2  0  0  0
  -20.6767  -26.9395   22.5387 C   0  0  0  0  0  0
  -19.5736  -26.6366   21.5199 C   0  0  0  0  0  0
  -18.1922  -26.7920   22.1626 C   0  0  0  0  0  0
  -19.1545  -28.8843   23.2899 C   0  0  0  0  0  0
  -18.9459  -30.1450   23.8906 C   0  0  0  0  0  0
  -17.6456  -30.6575   24.0564 C   0  0  0  0  0  0
  -25.9069  -34.9407   23.5060 C   0  0  0  0  0  0
  -16.5355  -29.9062   23.6339 C   0  0  0  0  0  0
  -16.7280  -28.6482   23.0375 C   0  0  0  0  0  0
  -26.4516  -31.6552   25.0725 C   0  0  0  0  0  0
  -25.3734  -31.3720   26.1446 C   0  0  0  0  0  0
  -27.0403  -30.2980   24.6232 C   0  0  0  0  0  0
  -27.6055  -32.4340   25.7473 C   0  0  0  0  0  0
  -27.5581  -37.1774   24.8458 C   0  0  0  0  0  0
  -21.4199  -29.3047   22.3650 N   0  0  0  0  0  0
  -26.4285  -37.3735   23.9396 N   0  0  0  0  0  0
  -24.6917  -31.0544   22.0953 N   0  0  0  0  0  0
  -23.4198  -28.8129   23.2954 O   0  0  0  0  0  0
  -28.3167  -26.4210   20.1690 O   0  0  0  0  0  0
  -26.5631  -34.8867   22.4612 O   0  0  0  0  0  0
  -23.5441  -32.1391   23.7300 O   0  0  0  0  0  0
  -29.2404  -18.3492   20.4972 C   0  0  0  0  0  0
  -30.8747  -20.0116   19.8047 C   0  0  0  0  0  0
  -31.5098  -17.6570   20.0014 C   0  0  0  0  0  0
  -29.5547  -19.7450   20.2283 C   0  0  0  0  0  0
  -30.2009  -17.2638   20.3789 C   0  0  0  0  0  0
  -31.8347  -18.9931   19.7137 C   0  0  0  0  0  0
  -28.9044  -22.4859   20.4058 C   0  0  0  0  0  0
  -25.5250  -22.3317   20.3759 C   0  0  0  0  0  0
  -27.5052  -24.1052   21.7655 C   0  0  0  0  0  0
  -28.4977  -20.9326   20.3288 C   0  0  0  0  0  0
  -26.5388  -23.1912   19.5857 C   0  0  0  0  0  0
  -28.3630  -25.0407   19.5804 C   0  0  0  0  0  0
  -27.8348  -23.6861   20.3176 C   0  0  2  0  0  0
  -29.8729  -15.8336   20.6186 N   0  0  0  0  0  0
  -30.0734  -22.7894   20.6568 O   0  0  0  0  0  0
  -33.0980  -19.3053   19.3381 F   0  0  0  0  0  0
  -31.4554  -12.5372   19.1472 H   0  0  0  0  0  0
  -30.3509  -11.4383   19.9334 H   0  0  0  0  0  0
  -29.7707  -11.7123   17.5075 H   0  0  0  0  0  0
  -29.6491  -13.4413   17.7059 H   0  0  0  0  0  0
  -27.8644  -11.2896   18.8779 H   0  0  0  0  0  0
  -27.3754  -12.5501   17.7758 H   0  0  0  0  0  0
  -27.6308  -14.2582   19.4667 H   0  0  0  0  0  0
  -28.6934  -12.1551   21.4138 H   0  0  0  0  0  0
  -28.4200  -13.8443   21.7779 H   0  0  0  0  0  0
  -25.2776   -9.5694   22.4724 H   0  0  0  0  0  0
  -24.0051   -7.4625   22.7434 H   0  0  0  0  0  0
  -21.0846   -8.8695   19.8946 H   0  0  0  0  0  0
  -22.3666  -10.9614   19.6121 H   0  0  0  0  0  0
  -21.1956   -7.6138   23.9703 H   0  0  0  0  0  0
  -21.1493   -6.0532   25.9088 H   0  0  0  0  0  0
  -22.0605   -2.7595   23.2902 H   0  0  0  0  0  0
  -22.4179  -11.9783   22.4798 H   0  0  0  0  0  0
  -21.1082  -13.1029   22.2699 H   0  0  0  0  0  0
  -24.6501  -15.8467   20.5140 H   0  0  0  0  0  0
  -26.2566  -15.6245   20.0418 H   0  0  0  0  0  0
  -26.7198  -32.5349   23.1050 H   0  0  0  0  0  0
  -25.0186  -33.9680   25.0425 H   0  0  0  0  0  0
  -22.7211  -31.3044   21.3944 H   0  0  0  0  0  0
  -23.3738  -35.9640   23.3289 H   0  0  0  0  0  0
  -24.3614  -36.8911   22.2057 H   0  0  0  0  0  0
  -23.7294  -37.6469   23.6683 H   0  0  0  0  0  0
  -26.1199  -31.5210   20.6134 H   0  0  0  0  0  0
  -26.8414  -30.8017   22.0220 H   0  0  0  0  0  0
  -28.0883  -28.9072   21.2483 H   0  0  0  0  0  0
  -25.9811  -25.9969   18.8591 H   0  0  0  0  0  0
  -23.9849  -27.3506   18.9261 H   0  0  0  0  0  0
  -23.7567  -30.5912   19.3955 H   0  0  0  0  0  0
  -22.7596  -29.2464   19.8510 H   0  0  0  0  0  0
  -25.1309  -36.1838   25.0801 H   0  0  0  0  0  0
  -21.0032  -28.3229   24.1358 H   0  0  0  0  0  0
  -20.5645  -26.2286   23.3597 H   0  0  0  0  0  0
  -21.6633  -26.7388   22.1182 H   0  0  0  0  0  0
  -19.6885  -25.6268   21.1230 H   0  0  0  0  0  0
  -19.6648  -27.3178   20.6729 H   0  0  0  0  0  0
  -17.4183  -26.6700   21.4025 H   0  0  0  0  0  0
  -18.0335  -26.0045   22.9007 H   0  0  0  0  0  0
  -19.7935  -30.7300   24.2242 H   0  0  0  0  0  0
  -17.4992  -31.6254   24.5168 H   0  0  0  0  0  0
  -15.5357  -30.2958   23.7631 H   0  0  0  0  0  0
  -15.8700  -28.0785   22.7084 H   0  0  0  0  0  0
  -24.5895  -30.7085   25.7759 H   0  0  0  0  0  0
  -24.8950  -32.2918   26.4849 H   0  0  0  0  0  0
  -25.8045  -30.8894   27.0227 H   0  0  0  0  0  0
  -26.3016  -29.6673   24.1273 H   0  0  0  0  0  0
  -27.4114  -29.7291   25.4755 H   0  0  0  0  0  0
  -27.8866  -30.4263   23.9484 H   0  0  0  0  0  0
  -27.2631  -33.3643   26.2016 H   0  0  0  0  0  0
  -28.3845  -32.6898   25.0280 H   0  0  0  0  0  0
  -28.0744  -31.8507   26.5403 H   0  0  0  0  0  0
  -28.2548  -38.0118   24.7525 H   0  0  0  0  0  0
  -28.1124  -36.2626   24.6247 H   0  0  0  0  0  0
  -27.2327  -37.1407   25.8876 H   0  0  0  0  0  0
  -20.9344  -29.8821   21.6920 H   0  0  0  0  0  0
  -26.0143  -38.2785   24.1403 H   0  0  0  0  0  0
  -28.2295  -18.1058   20.7903 H   0  0  0  0  0  0
  -31.1918  -21.0074   19.5418 H   0  0  0  0  0  0
  -32.3167  -16.9523   19.9012 H   0  0  0  0  0  0
  -24.6389  -22.1437   19.7679 H   0  0  0  0  0  0
  -25.1719  -22.8521   21.2672 H   0  0  0  0  0  0
  -25.9083  -21.3600   20.6780 H   0  0  0  0  0  0
  -27.2272  -23.2534   22.3873 H   0  0  0  0  0  0
  -26.6800  -24.8153   21.7880 H   0  0  0  0  0  0
  -28.3586  -24.5878   22.2422 H   0  0  0  0  0  0
  -27.8978  -20.7347   21.2165 H   0  0  0  0  0  0
  -27.8250  -20.8098   19.4807 H   0  0  0  0  0  0
  -25.9610  -24.0434   19.2534 H   0  0  0  0  0  0
  -26.8070  -22.6818   18.6561 H   0  0  0  0  0  0
  -27.9725  -25.0777   18.5631 H   0  0  0  0  0  0
  -29.4296  -24.9030   19.3983 H   0  0  0  0  0  0
  -28.9067  -15.6467   20.8424 H   0  0  0  0  0  0
  1 25  1  0  0  0
  1 30  2  0  0  0
  1 84  1  0  0  0
  2  3  1  0  0  0
  2 25  1  0  0  0
  2 87  1  0  0  0
  2 88  1  0  0  0
  3  4  1  0  0  0
  3 89  1  0  0  0
  3 90  1  0  0  0
  4  5  1  0  0  0
  4 91  1  0  0  0
  4 92  1  0  0  0
  5  6  1  0  0  0
  5 26  1  0  0  0
  5 93  1  0  0  0
  6 25  1  0  0  0
  6 94  1  0  0  0
  6 95  1  0  0  0
  7  8  2  0  0  0
  7 26  1  0  0  0
  7 29  1  0  0  0
  8  9  1  0  0  0
  8 22  1  0  0  0
  9 10  1  0  0  0
  9 27  2  0  0  0
 10 11  2  0  0  0
 10 15  1  0  0  0
 11 12  1  0  0  0
 11 96  1  0  0  0
 12 13  2  0  0  0
 12 97  1  0  0  0
 13 14  1  0  0  0
 13 31  1  0  0  0
 14 15  2  0  0  0
 14 98  1  0  0  0
 15 99  1  0  0  0
 16 17  2  0  0  0
 16 21  1  0  0  0
 16 31  1  0  0  0
 17 18  1  0  0  0
 17100  1  0  0  0
 18 19  2  0  0  0
 18101  1  0  0  0
 19 20  1  0  0  0
 19 24  1  0  0  0
 20 21  2  0  0  0
 20102  1  0  0  0
 21 23  1  0  0  0
 22 28  1  0  0  0
 22 32  2  0  0  0
 26 27  1  0  0  0
 28103  1  0  0  0
 28104  1  0  0  0
 29105  1  0  0  0
 29106  1  0  0  0
 33 34  1  0  0  0
 33 66  1  0  0  0
 33 70  2  0  0  0
 34 36  1  0  0  0
 34 59  1  0  0  0
 34107  1  0  0  0
 35 44  2  0  0  0
 35 45  1  0  0  0
 35 68  1  0  0  0
 36 56  1  0  0  0
 36108  1  0  0  0
 37 39  1  0  0  0
 37 47  1  0  0  0
 37 66  1  0  0  0
 37109  1  0  0  0
 38 43  2  0  0  0
 38 46  1  0  0  0
 38 47  1  0  0  0
 39 64  1  0  0  0
 39 67  2  0  0  0
 40 52  1  0  0  0
 40 53  2  0  0  0
 40 58  1  0  0  0
 41110  1  0  0  0
 41111  1  0  0  0
 41112  1  0  0  0
 41 48  1  0  0  0
 42 43  1  0  0  0
 42 66  1  0  0  0
 42113  1  0  0  0
 42114  1  0  0  0
 43 44  1  0  0  0
 44115  1  0  0  0
 45 46  2  0  0  0
 45116  1  0  0  0
 46117  1  0  0  0
 47118  1  0  0  0
 47119  1  0  0  0
 48 56  1  0  0  0
 48 65  1  0  0  0
 48120  1  0  0  0
 49 50  1  0  0  0
 49 53  1  0  0  0
 49 64  1  0  0  0
 49121  1  0  0  0
 50 51  1  0  0  0
 50122  1  0  0  0
 50123  1  0  0  0
 51 52  1  0  0  0
 51124  1  0  0  0
 51125  1  0  0  0
 52126  1  0  0  0
 52127  1  0  0  0
 53 54  1  0  0  0
 54 55  2  0  0  0
 54128  1  0  0  0
 55 57  1  0  0  0
 55129  1  0  0  0
 56 69  2  0  0  0
 57 58  2  0  0  0
 57130  1  0  0  0
 58131  1  0  0  0
 59 60  1  0  0  0
 59 61  1  0  0  0
 59 62  1  0  0  0
 60132  1  0  0  0
 60133  1  0  0  0
 60134  1  0  0  0
 61135  1  0  0  0
 61136  1  0  0  0
 61137  1  0  0  0
 62138  1  0  0  0
 62139  1  0  0  0
 62140  1  0  0  0
 63 65  1  0  0  0
 63141  1  0  0  0
 63142  1  0  0  0
 63143  1  0  0  0
 64144  1  0  0  0
 65145  1  0  0  0
 68 82  1  0  0  0
 71 74  2  0  0  0
 71 75  1  0  0  0
 71146  1  0  0  0
 72 74  1  0  0  0
 72 76  2  0  0  0
 72147  1  0  0  0
 73 75  2  0  0  0
 73 76  1  0  0  0
 73148  1  0  0  0
 74 80  1  0  0  0
 75 84  1  0  0  0
 76 86  1  0  0  0
 77 80  1  0  0  0
 77 85  2  0  0  0
 77 83  1  0  0  0
 78 81  1  0  0  0
 78149  1  0  0  0
 78150  1  0  0  0
 78151  1  0  0  0
 79152  1  0  0  0
 79153  1  0  0  0
 79154  1  0  0  0
 79 83  1  0  0  0
 80155  1  0  0  0
 80156  1  0  0  0
 81 83  1  0  0  0
 81157  1  0  0  0
 81158  1  0  0  0
 82 83  1  0  0  0
 82159  1  0  0  0
 82160  1  0  0  0
 84161  1  0  0  0
M  ISO  4   1 100  68 101  82 101  84 100
M  END
> <chiral flag>
0

> <version>
0

> <s_m_source_file>
/data/baiqing/PycharmProjects/Reinvent-master-3.2/result/LINK_invent/BTK/process_docking_weight1_custom_product_contain_oxygen_bond_distance_aromatic_linkinvent_7_9_3/rearranged_h_0141.sdf

> <i_m_source_file_index>
92

> <r_mmod_Potential_Energy-OPLS-2005>
255.574630737305

> <r_mmod_Stretch_Energy-OPLS-2005>
121.359085083008

> <r_mmod_Bend_Energy-OPLS-2005>
180.475433349609

> <r_mmod_Torsional_Energy-OPLS-2005>
228.94548034668

> <r_mmod_Improper_Torsional_Energy-OPLS-2005>
5.7541446685791

> <r_mmod_Van_der_Waal_Energy-OPLS-2005>
159.636413574219

> <r_mmod_Electrostatic_Energy-OPLS-2005>
-295.791900634766

> <r_mmod_Solvation_Energy-OPLS-2005>
-214.625778198242

> <b_mmod_Minimization_Converged-OPLS-2005>
0

> <r_mmod_RMS_Derivative-OPLS-2005>
4.24925470352173

$$$$
92
                    3D
 Structure written by MMmdl.
165174  0  0  1  0            999 V2000
  -30.6417  -14.6264   20.4806 C   0  0  0  0  0  0
  -30.4329  -12.3801   19.4529 C   0  0  0  0  0  0
  -29.5069  -12.4985   18.2224 C   0  0  0  0  0  0
  -28.0286  -12.3486   18.6324 C   0  0  0  0  0  0
  -27.6537  -13.2206   19.8605 C   0  0  2  0  0  0
  -28.6973  -13.0819   20.9917 C   0  0  0  0  0  0
  -25.2562  -13.8178   20.5707 C   0  0  0  0  0  0
  -24.1821  -13.0436   20.9187 C   0  0  0  0  0  0
  -24.6383  -11.6906   20.8715 C   0  0  0  0  0  0
  -23.9050  -10.4286   21.0384 C   0  0  0  0  0  0
  -24.3590   -9.4204   21.9174 C   0  0  0  0  0  0
  -23.6271   -8.2241   22.0745 C   0  0  0  0  0  0
  -22.4261   -8.0267   21.3538 C   0  0  0  0  0  0
  -21.9889   -9.0241   20.4648 C   0  0  0  0  0  0
  -22.7214  -10.2124   20.3047 C   0  0  0  0  0  0
  -21.6852   -6.0718   22.5282 C   0  0  0  0  0  0
  -21.4016   -6.5627   23.8216 C   0  0  0  0  0  0
  -21.3657   -5.6782   24.9182 C   0  0  0  0  0  0
  -21.6048   -4.3043   24.7234 C   0  0  0  0  0  0
  -21.8820   -3.8132   23.4357 C   0  0  0  0  0  0
  -21.9187   -4.6943   22.3412 C   0  0  0  0  0  0
  -22.7846  -13.5230   21.1847 C   0  0  0  0  0  0
  -22.1655   -4.2125   21.0984 F   0  0  0  0  0  0
  -21.5623   -3.4532   25.7748 F   0  0  0  0  0  0
  -30.0145  -13.4096   20.4276 N   0  0  0  0  0  0
  -26.2986  -12.9374   20.3310 N   0  0  0  0  0  0
  -25.9317  -11.6518   20.5726 N   0  0  0  0  0  0
  -22.0457  -12.8244   22.0398 N   0  0  0  0  0  0
  -25.4278  -15.1908   20.4179 N   0  0  0  0  0  0
  -31.8075  -14.7532   20.0938 O   0  0  0  0  0  0
  -21.6628   -6.8857   21.4245 O   0  0  0  0  0  0
  -22.3542  -14.5539   20.6685 O   0  0  0  0  0  0
  -24.6250  -31.8586   23.2023 C   0  0  0  0  0  0
  -25.9102  -32.4772   23.8349 C   0  0  1  0  0  0
  -27.2368  -27.3477   20.1017 C   0  0  0  0  0  0
  -25.5917  -33.8577   24.2270 N   0  0  0  0  0  0
  -23.4174  -30.4803   21.5437 C   0  0  2  0  0  0
  -24.8639  -28.9320   20.1081 C   0  0  0  0  0  0
  -22.7471  -29.4609   22.4952 C   0  0  0  0  0  0
  -18.0280  -28.1393   22.8488 C   0  0  0  0  0  0
  -24.1485  -36.7289   23.2646 C   0  0  0  0  0  0
  -25.9538  -30.7958   21.3694 C   0  0  0  0  0  0
  -26.0283  -29.4254   20.7106 C   0  0  0  0  0  0
  -27.2116  -28.6370   20.7083 C   0  0  0  0  0  0
  -26.0445  -26.8810   19.5085 C   0  0  0  0  0  0
  -24.8716  -27.6630   19.5032 C   0  0  0  0  0  0
  -23.6294  -29.8091   20.1601 C   0  0  0  0  0  0
  -25.4112  -36.3083   24.0334 C   0  0  1  0  0  0
  -20.5880  -28.3686   23.1297 C   0  0  2  0  0  0
  -20.6771  -26.9415   22.5416 C   0  0  0  0  0  0
  -19.5746  -26.6392   21.5216 C   0  0  0  0  0  0
  -18.1925  -26.7938   22.1627 C   0  0  0  0  0  0
  -19.1534  -28.8857   23.2886 C   0  0  0  0  0  0
  -18.9458  -30.1466   23.8893 C   0  0  0  0  0  0
  -17.6456  -30.6595   24.0570 C   0  0  0  0  0  0
  -25.9038  -34.9450   23.5104 C   0  0  0  0  0  0
  -16.5345  -29.9094   23.6340 C   0  0  0  0  0  0
  -16.7268  -28.6517   23.0348 C   0  0  0  0  0  0
  -26.4496  -31.6598   25.0726 C   0  0  0  0  0  0
  -25.3738  -31.3739   26.1467 C   0  0  0  0  0  0
  -27.0343  -30.3025   24.6179 C   0  0  0  0  0  0
  -27.6065  -32.4334   25.7482 C   0  0  0  0  0  0
  -27.5573  -37.1800   24.8465 C   0  0  0  0  0  0
  -21.4183  -29.3033   22.3697 N   0  0  0  0  0  0
  -26.4286  -37.3775   23.9408 N   0  0  0  0  0  0
  -24.6838  -31.0612   22.0960 N   0  0  0  0  0  0
  -23.4198  -28.8159   23.3034 O   0  0  0  0  0  0
  -28.3672  -26.5331   20.2135 O   0  0  0  0  0  0
  -26.5616  -34.8919   22.4671 O   0  0  0  0  0  0
  -23.5419  -32.1382   23.7359 O   0  0  0  0  0  0
  -29.5387  -18.1997   21.0796 C   0  0  0  0  0  0
  -30.4986  -19.2193   19.2390 C   0  0  0  0  0  0
  -29.8379  -19.4677   20.4171 C   0  0  0  0  0  0
  -30.0136  -17.0406   20.4573 C   0  0  0  0  0  0
  -28.8453  -24.1161   19.2565 C   0  0  0  0  0  0
  -27.0479  -23.1007   20.7993 C   0  0  0  0  0  0
  -27.2464  -21.6057   20.5600 C   0  0  0  0  0  0
  -28.5456  -23.3239   20.5542 C   0  0  2  0  0  0
  -29.4196  -23.7839   21.7319 C   0  0  0  0  0  0
  -30.4195  -26.0820   19.2509 C   0  0  0  0  0  0
  -28.4789  -26.1756   17.7242 C   0  0  0  0  0  0
  -29.6187  -20.9145   20.9600 C   0  0  0  0  0  0
  -28.9267  -25.7104   19.1368 C   0  0  0  0  0  0
  -29.8863  -15.7126   20.8469 N   0  0  0  0  0  0
  -28.6553  -21.8376   20.2361 N   0  3  1  0  0  0
  -29.0728  -23.4880   18.2163 O   0  0  0  0  0  0
  -30.7872  -17.5181   18.9581 S   0  0  0  0  0  0
  -31.4748  -12.4912   19.1469 H   0  0  0  0  0  0
  -30.3589  -11.3856   19.8954 H   0  0  0  0  0  0
  -29.7652  -11.7369   17.4860 H   0  0  0  0  0  0
  -29.6599  -13.4613   17.7318 H   0  0  0  0  0  0
  -27.8579  -11.2962   18.8637 H   0  0  0  0  0  0
  -27.3763  -12.5805   17.7894 H   0  0  0  0  0  0
  -27.6719  -14.2553   19.5173 H   0  0  0  0  0  0
  -28.7018  -12.0649   21.3871 H   0  0  0  0  0  0
  -28.4450  -13.7286   21.8327 H   0  0  0  0  0  0
  -25.2722   -9.5685   22.4765 H   0  0  0  0  0  0
  -23.9968   -7.4635   22.7474 H   0  0  0  0  0  0
  -21.0813   -8.8758   19.8975 H   0  0  0  0  0  0
  -22.3653  -10.9653   19.6159 H   0  0  0  0  0  0
  -21.2023   -7.6136   23.9712 H   0  0  0  0  0  0
  -21.1481   -6.0513   25.9081 H   0  0  0  0  0  0
  -22.0606   -2.7592   23.2870 H   0  0  0  0  0  0
  -22.4031  -11.9911   22.4827 H   0  0  0  0  0  0
  -21.1082  -13.1325   22.2563 H   0  0  0  0  0  0
  -24.6612  -15.8437   20.5392 H   0  0  0  0  0  0
  -26.2809  -15.6369   20.1044 H   0  0  0  0  0  0
  -26.7182  -32.5438   23.1112 H   0  0  0  0  0  0
  -25.0064  -33.9706   25.0417 H   0  0  0  0  0  0
  -22.7105  -31.2996   21.3999 H   0  0  0  0  0  0
  -23.3746  -35.9616   23.3306 H   0  0  0  0  0  0
  -24.3583  -36.8911   22.2059 H   0  0  0  0  0  0
  -23.7226  -37.6490   23.6670 H   0  0  0  0  0  0
  -26.0834  -31.5619   20.6036 H   0  0  0  0  0  0
  -26.8350  -30.8425   21.9984 H   0  0  0  0  0  0
  -28.1043  -29.0020   21.1966 H   0  0  0  0  0  0
  -25.9974  -25.8868   19.0890 H   0  0  0  0  0  0
  -23.9714  -27.2675   19.0510 H   0  0  0  0  0  0
  -23.7429  -30.5815   19.3990 H   0  0  0  0  0  0
  -22.7501  -29.2337   19.8636 H   0  0  0  0  0  0
  -25.1297  -36.1932   25.0826 H   0  0  0  0  0  0
  -20.9968  -28.3261   24.1416 H   0  0  0  0  0  0
  -20.5676  -26.2292   23.3615 H   0  0  0  0  0  0
  -21.6640  -26.7454   22.1201 H   0  0  0  0  0  0
  -19.6907  -25.6303   21.1247 H   0  0  0  0  0  0
  -19.6687  -27.3204   20.6750 H   0  0  0  0  0  0
  -17.4199  -26.6689   21.4028 H   0  0  0  0  0  0
  -18.0321  -26.0082   22.9026 H   0  0  0  0  0  0
  -19.7930  -30.7292   24.2252 H   0  0  0  0  0  0
  -17.5007  -31.6267   24.5187 H   0  0  0  0  0  0
  -15.5346  -30.2987   23.7682 H   0  0  0  0  0  0
  -15.8667  -28.0847   22.7046 H   0  0  0  0  0  0
  -24.5875  -30.7138   25.7790 H   0  0  0  0  0  0
  -24.8977  -32.2910   26.4948 H   0  0  0  0  0  0
  -25.8063  -30.8867   27.0213 H   0  0  0  0  0  0
  -26.2909  -29.6761   24.1233 H   0  0  0  0  0  0
  -27.4080  -29.7309   25.4684 H   0  0  0  0  0  0
  -27.8765  -30.4316   23.9374 H   0  0  0  0  0  0
  -27.2693  -33.3643   26.2051 H   0  0  0  0  0  0
  -28.3873  -32.6877   25.0301 H   0  0  0  0  0  0
  -28.0740  -31.8470   26.5400 H   0  0  0  0  0  0
  -28.2609  -38.0081   24.7509 H   0  0  0  0  0  0
  -28.1058  -36.2618   24.6304 H   0  0  0  0  0  0
  -27.2301  -37.1466   25.8873 H   0  0  0  0  0  0
  -20.9375  -29.8751   21.6900 H   0  0  0  0  0  0
  -26.0179  -38.2858   24.1392 H   0  0  0  0  0  0
  -29.0246  -18.1910   22.0308 H   0  0  0  0  0  0
  -30.8897  -19.9346   18.5247 H   0  0  0  0  0  0
  -26.7247  -23.3395   21.8134 H   0  0  0  0  0  0
  -26.3917  -23.5672   20.0619 H   0  0  0  0  0  0
  -26.6807  -21.2079   19.7179 H   0  0  0  0  0  0
  -27.0907  -21.0083   21.4595 H   0  0  0  0  0  0
  -29.2073  -24.8182   22.0028 H   0  0  0  0  0  0
  -30.4854  -23.7232   21.5072 H   0  0  0  0  0  0
  -29.2343  -23.1937   22.6297 H   0  0  0  0  0  0
  -31.0290  -25.5514   18.5171 H   0  0  0  0  0  0
  -30.8230  -25.8527   20.2381 H   0  0  0  0  0  0
  -30.5727  -27.1499   19.0843 H   0  0  0  0  0  0
  -29.1477  -25.7960   16.9507 H   0  0  0  0  0  0
  -28.4866  -27.2621   17.6355 H   0  0  0  0  0  0
  -27.4823  -25.8218   17.4648 H   0  0  0  0  0  0
  -30.5885  -21.4120   20.9573 H   0  0  0  0  0  0
  -29.3378  -20.8667   22.0118 H   0  0  0  0  0  0
  -29.0300  -15.4835   21.3284 H   0  0  0  0  0  0
  -28.8138  -21.7966   19.2360 H   0  0  0  0  0  0
  1 25  1  0  0  0
  1 30  2  0  0  0
  1 84  1  0  0  0
  2  3  1  0  0  0
  2 25  1  0  0  0
  2 88  1  0  0  0
  2 89  1  0  0  0
  3  4  1  0  0  0
  3 90  1  0  0  0
  3 91  1  0  0  0
  4  5  1  0  0  0
  4 92  1  0  0  0
  4 93  1  0  0  0
  5  6  1  0  0  0
  5 26  1  0  0  0
  5 94  1  0  0  0
  6 25  1  0  0  0
  6 95  1  0  0  0
  6 96  1  0  0  0
  7  8  2  0  0  0
  7 26  1  0  0  0
  7 29  1  0  0  0
  8  9  1  0  0  0
  8 22  1  0  0  0
  9 10  1  0  0  0
  9 27  2  0  0  0
 10 11  2  0  0  0
 10 15  1  0  0  0
 11 12  1  0  0  0
 11 97  1  0  0  0
 12 13  2  0  0  0
 12 98  1  0  0  0
 13 14  1  0  0  0
 13 31  1  0  0  0
 14 15  2  0  0  0
 14 99  1  0  0  0
 15100  1  0  0  0
 16 17  2  0  0  0
 16 21  1  0  0  0
 16 31  1  0  0  0
 17 18  1  0  0  0
 17101  1  0  0  0
 18 19  2  0  0  0
 18102  1  0  0  0
 19 20  1  0  0  0
 19 24  1  0  0  0
 20 21  2  0  0  0
 20103  1  0  0  0
 21 23  1  0  0  0
 22 28  1  0  0  0
 22 32  2  0  0  0
 26 27  1  0  0  0
 28104  1  0  0  0
 28105  1  0  0  0
 29106  1  0  0  0
 29107  1  0  0  0
 33 34  1  0  0  0
 33 66  1  0  0  0
 33 70  2  0  0  0
 34 36  1  0  0  0
 34 59  1  0  0  0
 34108  1  0  0  0
 35 44  2  0  0  0
 35 45  1  0  0  0
 35 68  1  0  0  0
 36 56  1  0  0  0
 36109  1  0  0  0
 37 39  1  0  0  0
 37 47  1  0  0  0
 37 66  1  0  0  0
 37110  1  0  0  0
 38 43  2  0  0  0
 38 46  1  0  0  0
 38 47  1  0  0  0
 39 64  1  0  0  0
 39 67  2  0  0  0
 40 52  1  0  0  0
 40 53  2  0  0  0
 40 58  1  0  0  0
 41111  1  0  0  0
 41112  1  0  0  0
 41113  1  0  0  0
 41 48  1  0  0  0
 42 43  1  0  0  0
 42 66  1  0  0  0
 42114  1  0  0  0
 42115  1  0  0  0
 43 44  1  0  0  0
 44116  1  0  0  0
 45 46  2  0  0  0
 45117  1  0  0  0
 46118  1  0  0  0
 47119  1  0  0  0
 47120  1  0  0  0
 48 56  1  0  0  0
 48 65  1  0  0  0
 48121  1  0  0  0
 49 50  1  0  0  0
 49 53  1  0  0  0
 49 64  1  0  0  0
 49122  1  0  0  0
 50 51  1  0  0  0
 50123  1  0  0  0
 50124  1  0  0  0
 51 52  1  0  0  0
 51125  1  0  0  0
 51126  1  0  0  0
 52127  1  0  0  0
 52128  1  0  0  0
 53 54  1  0  0  0
 54 55  2  0  0  0
 54129  1  0  0  0
 55 57  1  0  0  0
 55130  1  0  0  0
 56 69  2  0  0  0
 57 58  2  0  0  0
 57131  1  0  0  0
 58132  1  0  0  0
 59 60  1  0  0  0
 59 61  1  0  0  0
 59 62  1  0  0  0
 60133  1  0  0  0
 60134  1  0  0  0
 60135  1  0  0  0
 61136  1  0  0  0
 61137  1  0  0  0
 61138  1  0  0  0
 62139  1  0  0  0
 62140  1  0  0  0
 62141  1  0  0  0
 63 65  1  0  0  0
 63142  1  0  0  0
 63143  1  0  0  0
 63144  1  0  0  0
 64145  1  0  0  0
 65146  1  0  0  0
 68 83  1  0  0  0
 71 73  1  0  0  0
 71 74  2  0  0  0
 71147  1  0  0  0
 72 73  2  0  0  0
 72 87  1  0  0  0
 72148  1  0  0  0
 73 82  1  0  0  0
 74 84  1  0  0  0
 74 87  1  0  0  0
 75 83  1  0  0  0
 75 86  2  0  0  0
 75 78  1  0  0  0
 76 77  1  0  0  0
 76 78  1  0  0  0
 76149  1  0  0  0
 76150  1  0  0  0
 77 85  1  0  0  0
 77151  1  0  0  0
 77152  1  0  0  0
 78 79  1  0  0  0
 78 85  1  0  0  0
 79153  1  0  0  0
 79154  1  0  0  0
 79155  1  0  0  0
 80156  1  0  0  0
 80157  1  0  0  0
 80158  1  0  0  0
 80 83  1  0  0  0
 81 83  1  0  0  0
 81159  1  0  0  0
 81160  1  0  0  0
 81161  1  0  0  0
 82162  1  0  0  0
 82163  1  0  0  0
 82 85  1  0  0  0
 84164  1  0  0  0
 85165  1  0  0  0
M  CHG  1  85   1
M  ISO  4   1 100  68 101  83 101  84 100
M  END
> <chiral flag>
0

> <version>
0

> <s_m_source_file>
/data/baiqing/PycharmProjects/Reinvent-master-3.2/result/LINK_invent/BTK/process_docking_weight1_custom_product_contain_oxygen_bond_distance_aromatic_linkinvent_7_9_3/rearranged_h_0141.sdf

> <i_m_source_file_index>
93

> <r_mmod_Potential_Energy-OPLS-2005>
-79.7767639160156

> <r_mmod_Stretch_Energy-OPLS-2005>
80.6243133544922

> <r_mmod_Bend_Energy-OPLS-2005>
185.211837768555

> <r_mmod_Torsional_Energy-OPLS-2005>
280.438934326172

> <r_mmod_Improper_Torsional_Energy-OPLS-2005>
4.63227701187134

> <r_mmod_Van_der_Waal_Energy-OPLS-2005>
124.994583129883

> <r_mmod_Electrostatic_Energy-OPLS-2005>
-348.795532226562

> <r_mmod_Solvation_Energy-OPLS-2005>
-450.093353271484

> <b_mmod_Minimization_Converged-OPLS-2005>
0

> <r_mmod_RMS_Derivative-OPLS-2005>
1.95089244842529

$$$$
93
                    3D
 Structure written by MMmdl.
162170  0  0  1  0            999 V2000
  -30.6875  -14.5053   20.5632 C   0  0  0  0  0  0
  -30.4361  -12.3223   19.4355 C   0  0  0  0  0  0
  -29.5077  -12.5017   18.2145 C   0  0  0  0  0  0
  -28.0280  -12.3557   18.6230 C   0  0  0  0  0  0
  -27.6650  -13.2021   19.8742 C   0  0  2  0  0  0
  -28.7081  -12.9969   20.9971 C   0  0  0  0  0  0
  -25.2622  -13.8154   20.5640 C   0  0  0  0  0  0
  -24.1857  -13.0451   20.9146 C   0  0  0  0  0  0
  -24.6396  -11.6917   20.8712 C   0  0  0  0  0  0
  -23.9065  -10.4310   21.0386 C   0  0  0  0  0  0
  -24.3627   -9.4234   21.9172 C   0  0  0  0  0  0
  -23.6312   -8.2265   22.0764 C   0  0  0  0  0  0
  -22.4294   -8.0280   21.3544 C   0  0  0  0  0  0
  -21.9912   -9.0247   20.4648 C   0  0  0  0  0  0
  -22.7234  -10.2137   20.3050 C   0  0  0  0  0  0
  -21.6865   -6.0733   22.5275 C   0  0  0  0  0  0
  -21.4006   -6.5639   23.8207 C   0  0  0  0  0  0
  -21.3658   -5.6791   24.9167 C   0  0  0  0  0  0
  -21.6055   -4.3051   24.7210 C   0  0  0  0  0  0
  -21.8833   -3.8144   23.4327 C   0  0  0  0  0  0
  -21.9204   -4.6964   22.3384 C   0  0  0  0  0  0
  -22.7886  -13.5271   21.1791 C   0  0  0  0  0  0
  -22.1673   -4.2167   21.0960 F   0  0  0  0  0  0
  -21.5639   -3.4524   25.7705 F   0  0  0  0  0  0
  -30.0367  -13.3130   20.4479 N   0  0  0  0  0  0
  -26.3046  -12.9305   20.3340 N   0  0  0  0  0  0
  -25.9329  -11.6474   20.5754 N   0  0  0  0  0  0
  -22.0521  -12.8269   22.0348 N   0  0  0  0  0  0
  -25.4352  -15.1865   20.3977 N   0  0  0  0  0  0
  -31.8210  -14.6883   20.1075 O   0  0  0  0  0  0
  -21.6668   -6.8870   21.4232 O   0  0  0  0  0  0
  -22.3565  -14.5566   20.6628 O   0  0  0  0  0  0
  -24.6149  -31.8678   23.2078 C   0  0  0  0  0  0
  -25.9042  -32.4822   23.8378 C   0  0  1  0  0  0
  -27.2447  -27.4347   20.0903 C   0  0  0  0  0  0
  -25.5891  -33.8617   24.2325 N   0  0  0  0  0  0
  -23.4032  -30.4893   21.5488 C   0  0  2  0  0  0
  -24.8484  -28.9503   20.1168 C   0  0  0  0  0  0
  -22.7420  -29.4656   22.4996 C   0  0  0  0  0  0
  -18.0281  -28.1378   22.8495 C   0  0  0  0  0  0
  -24.1488  -36.7325   23.2638 C   0  0  0  0  0  0
  -25.9302  -30.8346   21.3567 C   0  0  0  0  0  0
  -26.0079  -29.4656   20.7081 C   0  0  0  0  0  0
  -27.2052  -28.7163   20.6883 C   0  0  0  0  0  0
  -26.0584  -26.9258   19.5071 C   0  0  0  0  0  0
  -24.8684  -27.6793   19.5158 C   0  0  0  0  0  0
  -23.6109  -29.8178   20.1647 C   0  0  0  0  0  0
  -25.4106  -36.3117   24.0343 C   0  0  1  0  0  0
  -20.5869  -28.3657   23.1329 C   0  0  2  0  0  0
  -20.6763  -26.9395   22.5419 C   0  0  0  0  0  0
  -19.5744  -26.6396   21.5214 C   0  0  0  0  0  0
  -18.1929  -26.7929   22.1632 C   0  0  0  0  0  0
  -19.1526  -28.8831   23.2911 C   0  0  0  0  0  0
  -18.9452  -30.1441   23.8914 C   0  0  0  0  0  0
  -17.6450  -30.6583   24.0562 C   0  0  0  0  0  0
  -25.9033  -34.9475   23.5140 C   0  0  0  0  0  0
  -16.5343  -29.9082   23.6318 C   0  0  0  0  0  0
  -16.7266  -28.6502   23.0334 C   0  0  0  0  0  0
  -26.4456  -31.6583   25.0696 C   0  0  0  0  0  0
  -25.3721  -31.3686   26.1441 C   0  0  0  0  0  0
  -27.0273  -30.3027   24.6051 C   0  0  0  0  0  0
  -27.6058  -32.4276   25.7458 C   0  0  0  0  0  0
  -27.5590  -37.1809   24.8468 C   0  0  0  0  0  0
  -21.4144  -29.3031   22.3738 N   0  0  0  0  0  0
  -26.4299  -37.3800   23.9421 N   0  0  0  0  0  0
  -24.6683  -31.0781   22.0971 N   0  0  0  0  0  0
  -23.4191  -28.8211   23.3047 O   0  0  0  0  0  0
  -28.4415  -26.7456   20.1013 O   0  0  0  0  0  0
  -26.5599  -34.8926   22.4702 O   0  0  0  0  0  0
  -23.5344  -32.1412   23.7471 O   0  0  0  0  0  0
  -29.1729  -19.1089   20.2752 C   0  0  0  0  0  0
  -31.5114  -18.9595   20.8808 C   0  0  0  0  0  0
  -29.0293  -17.7173   20.4955 C   0  0  0  0  0  0
  -31.3752  -17.5681   21.1000 C   0  0  0  0  0  0
  -30.4197  -19.7516   20.4510 C   0  0  0  0  0  0
  -30.1352  -16.9227   20.8819 C   0  0  0  0  0  0
  -30.6233  -21.1980   20.1142 C   0  0  0  0  0  0
  -30.9627  -25.9119   20.0023 C   0  0  0  0  0  0
  -30.2996  -24.2179   18.3301 C   0  0  0  0  0  0
  -29.5760  -22.2400   20.5655 C   0  0  0  0  0  0
  -30.1113  -23.6889   20.8352 C   0  0  0  0  0  0
  -28.4896  -25.3736   19.6788 C   0  0  0  0  0  0
  -29.9412  -24.7826   19.7194 C   0  0  0  0  0  0
  -31.6667  -21.5617   19.4967 N   0  0  0  0  0  0
  -29.9518  -15.5149   21.0805 N   0  0  0  0  0  0
  -31.4804  -12.4314   19.1420 H   0  0  0  0  0  0
  -30.3454  -11.3124   19.8427 H   0  0  0  0  0  0
  -29.7573  -11.7679   17.4456 H   0  0  0  0  0  0
  -29.6723  -13.4822   17.7653 H   0  0  0  0  0  0
  -27.8527  -11.2981   18.8290 H   0  0  0  0  0  0
  -27.3778  -12.6127   17.7855 H   0  0  0  0  0  0
  -27.7052  -14.2474   19.5697 H   0  0  0  0  0  0
  -28.6952  -11.9607   21.3381 H   0  0  0  0  0  0
  -28.4665  -13.5955   21.8766 H   0  0  0  0  0  0
  -25.2792   -9.5732   22.4709 H   0  0  0  0  0  0
  -24.0042   -7.4685   22.7490 H   0  0  0  0  0  0
  -21.0846   -8.8756   19.8962 H   0  0  0  0  0  0
  -22.3692  -10.9661   19.6149 H   0  0  0  0  0  0
  -21.1986   -7.6150   23.9700 H   0  0  0  0  0  0
  -21.1474   -6.0520   25.9075 H   0  0  0  0  0  0
  -22.0613   -2.7606   23.2818 H   0  0  0  0  0  0
  -22.4145  -11.9972   22.4803 H   0  0  0  0  0  0
  -21.1125  -13.1290   22.2495 H   0  0  0  0  0  0
  -24.6666  -15.8410   20.4894 H   0  0  0  0  0  0
  -26.2754  -15.6167   20.0328 H   0  0  0  0  0  0
  -26.7121  -32.5532   23.1152 H   0  0  0  0  0  0
  -24.9997  -33.9765   25.0436 H   0  0  0  0  0  0
  -22.6913  -31.3057   21.4068 H   0  0  0  0  0  0
  -23.3753  -35.9656   23.3288 H   0  0  0  0  0  0
  -24.3590  -36.8943   22.2056 H   0  0  0  0  0  0
  -23.7222  -37.6523   23.6646 H   0  0  0  0  0  0
  -26.0318  -31.5982   20.5838 H   0  0  0  0  0  0
  -26.8231  -30.8947   21.9681 H   0  0  0  0  0  0
  -28.1052  -29.1161   21.1331 H   0  0  0  0  0  0
  -26.0320  -25.9510   19.0442 H   0  0  0  0  0  0
  -23.9730  -27.2728   19.0650 H   0  0  0  0  0  0
  -23.7193  -30.5884   19.4021 H   0  0  0  0  0  0
  -22.7350  -29.2361   19.8724 H   0  0  0  0  0  0
  -25.1278  -36.1984   25.0836 H   0  0  0  0  0  0
  -20.9955  -28.3208   24.1452 H   0  0  0  0  0  0
  -20.5668  -26.2263   23.3598 H   0  0  0  0  0  0
  -21.6634  -26.7443   22.1206 H   0  0  0  0  0  0
  -19.6898  -25.6312   21.1229 H   0  0  0  0  0  0
  -19.6683  -27.3219   20.6755 H   0  0  0  0  0  0
  -17.4196  -26.6684   21.4032 H   0  0  0  0  0  0
  -18.0320  -26.0058   22.9016 H   0  0  0  0  0  0
  -19.7919  -30.7263   24.2297 H   0  0  0  0  0  0
  -17.4995  -31.6264   24.5164 H   0  0  0  0  0  0
  -15.5338  -30.2987   23.7623 H   0  0  0  0  0  0
  -15.8675  -28.0831   22.7022 H   0  0  0  0  0  0
  -24.5935  -30.6978   25.7784 H   0  0  0  0  0  0
  -24.8845  -32.2821   26.4853 H   0  0  0  0  0  0
  -25.8068  -30.8895   27.0222 H   0  0  0  0  0  0
  -26.2798  -29.6799   24.1120 H   0  0  0  0  0  0
  -27.4061  -29.7251   25.4496 H   0  0  0  0  0  0
  -27.8625  -30.4359   23.9175 H   0  0  0  0  0  0
  -27.2734  -33.3610   26.2019 H   0  0  0  0  0  0
  -28.3882  -32.6767   25.0274 H   0  0  0  0  0  0
  -28.0695  -31.8376   26.5372 H   0  0  0  0  0  0
  -28.2608  -38.0108   24.7524 H   0  0  0  0  0  0
  -28.1083  -36.2637   24.6278 H   0  0  0  0  0  0
  -27.2307  -37.1444   25.8871 H   0  0  0  0  0  0
  -20.9298  -29.8746   21.6952 H   0  0  0  0  0  0
  -26.0191  -38.2888   24.1405 H   0  0  0  0  0  0
  -28.3223  -19.6819   19.9315 H   0  0  0  0  0  0
  -32.4776  -19.4205   21.0333 H   0  0  0  0  0  0
  -28.0611  -17.2639   20.3312 H   0  0  0  0  0  0
  -32.2347  -17.0017   21.4328 H   0  0  0  0  0  0
  -31.9918  -25.5539   19.9574 H   0  0  0  0  0  0
  -30.8176  -26.3502   20.9895 H   0  0  0  0  0  0
  -30.8778  -26.7185   19.2717 H   0  0  0  0  0  0
  -31.3338  -23.8777   18.2981 H   0  0  0  0  0  0
  -30.1946  -24.9734   17.5510 H   0  0  0  0  0  0
  -29.6627  -23.3792   18.0517 H   0  0  0  0  0  0
  -29.1497  -21.8723   21.5003 H   0  0  0  0  0  0
  -28.7431  -22.2598   19.8628 H   0  0  0  0  0  0
  -31.1612  -23.6229   21.1243 H   0  0  0  0  0  0
  -29.6228  -24.0678   21.7345 H   0  0  0  0  0  0
  -27.8159  -24.7800   20.2962 H   0  0  0  0  0  0
  -28.1090  -25.3146   18.6586 H   0  0  0  0  0  0
  -32.2610  -20.7732   19.2673 H   0  0  0  0  0  0
  -29.0349  -15.2312   21.3886 H   0  0  0  0  0  0
  1 25  1  0  0  0
  1 30  2  0  0  0
  1 85  1  0  0  0
  2  3  1  0  0  0
  2 25  1  0  0  0
  2 86  1  0  0  0
  2 87  1  0  0  0
  3  4  1  0  0  0
  3 88  1  0  0  0
  3 89  1  0  0  0
  4  5  1  0  0  0
  4 90  1  0  0  0
  4 91  1  0  0  0
  5  6  1  0  0  0
  5 26  1  0  0  0
  5 92  1  0  0  0
  6 25  1  0  0  0
  6 93  1  0  0  0
  6 94  1  0  0  0
  7  8  2  0  0  0
  7 26  1  0  0  0
  7 29  1  0  0  0
  8  9  1  0  0  0
  8 22  1  0  0  0
  9 10  1  0  0  0
  9 27  2  0  0  0
 10 11  2  0  0  0
 10 15  1  0  0  0
 11 12  1  0  0  0
 11 95  1  0  0  0
 12 13  2  0  0  0
 12 96  1  0  0  0
 13 14  1  0  0  0
 13 31  1  0  0  0
 14 15  2  0  0  0
 14 97  1  0  0  0
 15 98  1  0  0  0
 16 17  2  0  0  0
 16 21  1  0  0  0
 16 31  1  0  0  0
 17 18  1  0  0  0
 17 99  1  0  0  0
 18 19  2  0  0  0
 18100  1  0  0  0
 19 20  1  0  0  0
 19 24  1  0  0  0
 20 21  2  0  0  0
 20101  1  0  0  0
 21 23  1  0  0  0
 22 28  1  0  0  0
 22 32  2  0  0  0
 26 27  1  0  0  0
 28102  1  0  0  0
 28103  1  0  0  0
 29104  1  0  0  0
 29105  1  0  0  0
 33 34  1  0  0  0
 33 66  1  0  0  0
 33 70  2  0  0  0
 34 36  1  0  0  0
 34 59  1  0  0  0
 34106  1  0  0  0
 35 44  2  0  0  0
 35 45  1  0  0  0
 35 68  1  0  0  0
 36 56  1  0  0  0
 36107  1  0  0  0
 37 39  1  0  0  0
 37 47  1  0  0  0
 37 66  1  0  0  0
 37108  1  0  0  0
 38 43  2  0  0  0
 38 46  1  0  0  0
 38 47  1  0  0  0
 39 64  1  0  0  0
 39 67  2  0  0  0
 40 52  1  0  0  0
 40 53  2  0  0  0
 40 58  1  0  0  0
 41109  1  0  0  0
 41110  1  0  0  0
 41111  1  0  0  0
 41 48  1  0  0  0
 42 43  1  0  0  0
 42 66  1  0  0  0
 42112  1  0  0  0
 42113  1  0  0  0
 43 44  1  0  0  0
 44114  1  0  0  0
 45 46  2  0  0  0
 45115  1  0  0  0
 46116  1  0  0  0
 47117  1  0  0  0
 47118  1  0  0  0
 48 56  1  0  0  0
 48 65  1  0  0  0
 48119  1  0  0  0
 49 50  1  0  0  0
 49 53  1  0  0  0
 49 64  1  0  0  0
 49120  1  0  0  0
 50 51  1  0  0  0
 50121  1  0  0  0
 50122  1  0  0  0
 51 52  1  0  0  0
 51123  1  0  0  0
 51124  1  0  0  0
 52125  1  0  0  0
 52126  1  0  0  0
 53 54  1  0  0  0
 54 55  2  0  0  0
 54127  1  0  0  0
 55 57  1  0  0  0
 55128  1  0  0  0
 56 69  2  0  0  0
 57 58  2  0  0  0
 57129  1  0  0  0
 58130  1  0  0  0
 59 60  1  0  0  0
 59 61  1  0  0  0
 59 62  1  0  0  0
 60131  1  0  0  0
 60132  1  0  0  0
 60133  1  0  0  0
 61134  1  0  0  0
 61135  1  0  0  0
 61136  1  0  0  0
 62137  1  0  0  0
 62138  1  0  0  0
 62139  1  0  0  0
 63 65  1  0  0  0
 63140  1  0  0  0
 63141  1  0  0  0
 63142  1  0  0  0
 64143  1  0  0  0
 65144  1  0  0  0
 68 82  1  0  0  0
 71 73  2  0  0  0
 71 75  1  0  0  0
 71145  1  0  0  0
 72 74  1  0  0  0
 72 75  2  0  0  0
 72146  1  0  0  0
 73 76  1  0  0  0
 73147  1  0  0  0
 74 76  2  0  0  0
 74148  1  0  0  0
 75 77  1  0  0  0
 76 85  1  0  0  0
 77 80  1  0  0  0
 77 84  2  0  0  0
 78149  1  0  0  0
 78150  1  0  0  0
 78151  1  0  0  0
 78 83  1  0  0  0
 79 83  1  0  0  0
 79152  1  0  0  0
 79153  1  0  0  0
 79154  1  0  0  0
 80 81  1  0  0  0
 80155  1  0  0  0
 80156  1  0  0  0
 81 83  1  0  0  0
 81157  1  0  0  0
 81158  1  0  0  0
 82 83  1  0  0  0
 82159  1  0  0  0
 82160  1  0  0  0
 84161  1  0  0  0
 85162  1  0  0  0
M  ISO  4   1 100  68 101  82 101  85 100
M  END
> <chiral flag>
0

> <version>
0

> <s_m_source_file>
/data/baiqing/PycharmProjects/Reinvent-master-3.2/result/LINK_invent/BTK/process_docking_weight1_custom_product_contain_oxygen_bond_distance_aromatic_linkinvent_7_9_3/rearranged_h_0141.sdf

> <i_m_source_file_index>
94

> <r_mmod_Potential_Energy-OPLS-2005>
0.0560380332171917

> <r_mmod_Stretch_Energy-OPLS-2005>
45.2573623657227

> <r_mmod_Bend_Energy-OPLS-2005>
111.20280456543

> <r_mmod_Torsional_Energy-OPLS-2005>
254.95539855957

> <r_mmod_Improper_Torsional_Energy-OPLS-2005>
4.7180643081665

> <r_mmod_Van_der_Waal_Energy-OPLS-2005>
163.402450561523

> <r_mmod_Electrostatic_Energy-OPLS-2005>
-386.159759521484

> <r_mmod_Solvation_Energy-OPLS-2005>
-208.218276977539

> <b_mmod_Minimization_Converged-OPLS-2005>
0

> <r_mmod_RMS_Derivative-OPLS-2005>
3.02592587471008

$$$$
94
                    3D
 Structure written by MMmdl.
168178  0  0  1  0            999 V2000
  -30.6874  -14.4553   20.5824 C   0  0  0  0  0  0
  -30.4267  -12.3038   19.4089 C   0  0  0  0  0  0
  -29.4920  -12.5107   18.1991 C   0  0  0  0  0  0
  -28.0114  -12.3756   18.6098 C   0  0  0  0  0  0
  -27.6627  -13.2015   19.8766 C   0  0  2  0  0  0
  -28.7033  -12.9579   20.9929 C   0  0  0  0  0  0
  -25.2603  -13.8143   20.5676 C   0  0  0  0  0  0
  -24.1844  -13.0431   20.9168 C   0  0  0  0  0  0
  -24.6382  -11.6894   20.8703 C   0  0  0  0  0  0
  -23.9041  -10.4287   21.0380 C   0  0  0  0  0  0
  -24.3604   -9.4214   21.9163 C   0  0  0  0  0  0
  -23.6295   -8.2240   22.0743 C   0  0  0  0  0  0
  -22.4276   -8.0262   21.3539 C   0  0  0  0  0  0
  -21.9893   -9.0229   20.4641 C   0  0  0  0  0  0
  -22.7205  -10.2121   20.3045 C   0  0  0  0  0  0
  -21.6866   -6.0717   22.5264 C   0  0  0  0  0  0
  -21.4023   -6.5628   23.8193 C   0  0  0  0  0  0
  -21.3665   -5.6784   24.9159 C   0  0  0  0  0  0
  -21.6045   -4.3043   24.7215 C   0  0  0  0  0  0
  -21.8826   -3.8132   23.4339 C   0  0  0  0  0  0
  -21.9209   -4.6948   22.3395 C   0  0  0  0  0  0
  -22.7871  -13.5233   21.1835 C   0  0  0  0  0  0
  -22.1669   -4.2132   21.0969 F   0  0  0  0  0  0
  -21.5639   -3.4533   25.7732 F   0  0  0  0  0  0
  -30.0348  -13.2712   20.4429 N   0  0  0  0  0  0
  -26.3032  -12.9300   20.3369 N   0  0  0  0  0  0
  -25.9314  -11.6459   20.5748 N   0  0  0  0  0  0
  -22.0533  -12.8221   22.0398 N   0  0  0  0  0  0
  -25.4346  -15.1859   20.4057 N   0  0  0  0  0  0
  -31.8191  -14.6580   20.1273 O   0  0  0  0  0  0
  -21.6658   -6.8851   21.4218 O   0  0  0  0  0  0
  -22.3544  -14.5539   20.6696 O   0  0  0  0  0  0
  -24.6109  -31.8701   23.2117 C   0  0  0  0  0  0
  -25.9009  -32.4842   23.8411 C   0  0  1  0  0  0
  -27.2465  -27.4594   20.1056 C   0  0  0  0  0  0
  -25.5864  -33.8636   24.2337 N   0  0  0  0  0  0
  -23.3989  -30.4900   21.5520 C   0  0  2  0  0  0
  -24.8504  -28.9559   20.1215 C   0  0  0  0  0  0
  -22.7395  -29.4651   22.5025 C   0  0  0  0  0  0
  -18.0265  -28.1390   22.8484 C   0  0  0  0  0  0
  -24.1479  -36.7319   23.2643 C   0  0  0  0  0  0
  -25.9235  -30.8432   21.3616 C   0  0  0  0  0  0
  -26.0052  -29.4753   20.7205 C   0  0  0  0  0  0
  -27.2066  -28.7340   20.7154 C   0  0  0  0  0  0
  -26.0820  -26.9526   19.4958 C   0  0  0  0  0  0
  -24.8814  -27.6895   19.5099 C   0  0  0  0  0  0
  -23.6080  -29.8177   20.1683 C   0  0  0  0  0  0
  -25.4104  -36.3125   24.0346 C   0  0  1  0  0  0
  -20.5847  -28.3648   23.1339 C   0  0  2  0  0  0
  -20.6751  -26.9392   22.5428 C   0  0  0  0  0  0
  -19.5740  -26.6391   21.5212 C   0  0  0  0  0  0
  -18.1916  -26.7941   22.1616 C   0  0  0  0  0  0
  -19.1511  -28.8839   23.2904 C   0  0  0  0  0  0
  -18.9447  -30.1450   23.8910 C   0  0  0  0  0  0
  -17.6449  -30.6587   24.0561 C   0  0  0  0  0  0
  -25.9030  -34.9492   23.5150 C   0  0  0  0  0  0
  -16.5339  -29.9092   23.6316 C   0  0  0  0  0  0
  -16.7254  -28.6514   23.0326 C   0  0  0  0  0  0
  -26.4462  -31.6610   25.0723 C   0  0  0  0  0  0
  -25.3742  -31.3698   26.1478 C   0  0  0  0  0  0
  -27.0286  -30.3060   24.6069 C   0  0  0  0  0  0
  -27.6048  -32.4328   25.7469 C   0  0  0  0  0  0
  -27.5585  -37.1819   24.8469 C   0  0  0  0  0  0
  -21.4123  -29.3011   22.3749 N   0  0  0  0  0  0
  -26.4301  -37.3807   23.9411 N   0  0  0  0  0  0
  -24.6624  -31.0825   22.1009 N   0  0  0  0  0  0
  -23.4175  -28.8212   23.3073 O   0  0  0  0  0  0
  -28.3942  -26.7035   20.0348 O   0  0  0  0  0  0
  -26.5604  -34.8943   22.4718 O   0  0  0  0  0  0
  -23.5311  -32.1451   23.7530 O   0  0  0  0  0  0
  -31.6812  -18.7353   21.6684 C   0  0  0  0  0  0
  -31.4491  -17.3416   21.6065 C   0  0  0  0  0  0
  -29.1966  -17.7318   20.7204 C   0  0  0  0  0  0
  -30.6603  -19.6064   21.2486 C   0  0  0  0  0  0
  -29.4536  -19.1158   20.7746 C   0  0  0  0  0  0
  -30.2125  -16.8323   21.1311 C   0  0  0  0  0  0
  -28.7069  -25.0192   21.7923 C   0  0  0  0  0  0
  -30.6896  -21.1151   21.2498 C   0  0  0  0  0  0
  -28.5315  -20.2289   20.3529 C   0  0  0  0  0  0
  -29.7182  -23.8242   19.8126 C   0  0  0  0  0  0
  -28.5701  -22.5565   21.4840 C   0  0  0  0  0  0
  -29.5024  -22.3936   19.3092 C   0  0  2  0  0  0
  -29.3337  -21.5501   20.5912 C   0  0  1  0  0  0
  -30.5446  -21.9291   18.2764 C   0  0  0  0  0  0
  -30.5863  -26.6657   21.0961 C   0  0  0  0  0  0
  -29.0749  -26.4310   21.2654 C   0  0  1  0  0  0
  -28.9871  -23.9038   21.0741 N   0  0  0  0  0  0
  -29.9373  -15.4378   21.1128 N   0  0  0  0  0  0
  -28.1237  -24.9403   22.8785 O   0  0  0  0  0  0
  -31.4679  -12.4186   19.1021 H   0  0  0  0  0  0
  -30.3372  -11.2875   19.7942 H   0  0  0  0  0  0
  -29.7278  -11.7900   17.4149 H   0  0  0  0  0  0
  -29.6644  -13.4984   17.7673 H   0  0  0  0  0  0
  -27.8106  -11.3179   18.7866 H   0  0  0  0  0  0
  -27.3656  -12.6714   17.7821 H   0  0  0  0  0  0
  -27.7109  -14.2539   19.5954 H   0  0  0  0  0  0
  -28.6799  -11.9155   21.3132 H   0  0  0  0  0  0
  -28.4649  -13.5408   21.8848 H   0  0  0  0  0  0
  -25.2745   -9.5721   22.4733 H   0  0  0  0  0  0
  -24.0020   -7.4645   22.7467 H   0  0  0  0  0  0
  -21.0819   -8.8722   19.8953 H   0  0  0  0  0  0
  -22.3622  -10.9654   19.6162 H   0  0  0  0  0  0
  -21.1996   -7.6135   23.9685 H   0  0  0  0  0  0
  -21.1491   -6.0516   25.9059 H   0  0  0  0  0  0
  -22.0608   -2.7593   23.2843 H   0  0  0  0  0  0
  -22.4169  -11.9882   22.4777 H   0  0  0  0  0  0
  -21.1149  -13.1230   22.2619 H   0  0  0  0  0  0
  -24.6693  -15.8441   20.5061 H   0  0  0  0  0  0
  -26.2825  -15.6169   20.0601 H   0  0  0  0  0  0
  -26.7076  -32.5585   23.1180 H   0  0  0  0  0  0
  -25.0001  -33.9797   25.0473 H   0  0  0  0  0  0
  -22.6850  -31.3043   21.4106 H   0  0  0  0  0  0
  -23.3742  -35.9648   23.3332 H   0  0  0  0  0  0
  -24.3576  -36.8917   22.2055 H   0  0  0  0  0  0
  -23.7233  -37.6536   23.6640 H   0  0  0  0  0  0
  -26.0318  -31.6041   20.5876 H   0  0  0  0  0  0
  -26.8132  -30.9057   21.9753 H   0  0  0  0  0  0
  -28.0996  -29.1492   21.1622 H   0  0  0  0  0  0
  -26.1055  -25.9849   19.0143 H   0  0  0  0  0  0
  -23.9939  -27.2811   19.0450 H   0  0  0  0  0  0
  -23.7101  -30.5904   19.4048 H   0  0  0  0  0  0
  -22.7336  -29.2326   19.8760 H   0  0  0  0  0  0
  -25.1277  -36.2009   25.0841 H   0  0  0  0  0  0
  -20.9914  -28.3214   24.1467 H   0  0  0  0  0  0
  -20.5654  -26.2255   23.3608 H   0  0  0  0  0  0
  -21.6630  -26.7450   22.1229 H   0  0  0  0  0  0
  -19.6894  -25.6302   21.1246 H   0  0  0  0  0  0
  -19.6703  -27.3196   20.6739 H   0  0  0  0  0  0
  -17.4188  -26.6666   21.4021 H   0  0  0  0  0  0
  -18.0321  -26.0102   22.9029 H   0  0  0  0  0  0
  -19.7928  -30.7247   24.2297 H   0  0  0  0  0  0
  -17.5012  -31.6271   24.5157 H   0  0  0  0  0  0
  -15.5342  -30.2990   23.7656 H   0  0  0  0  0  0
  -15.8653  -28.0838   22.7025 H   0  0  0  0  0  0
  -24.5875  -30.7097   25.7810 H   0  0  0  0  0  0
  -24.8961  -32.2846   26.4982 H   0  0  0  0  0  0
  -25.8102  -30.8819   27.0201 H   0  0  0  0  0  0
  -26.2822  -29.6813   24.1146 H   0  0  0  0  0  0
  -27.4098  -29.7303   25.4511 H   0  0  0  0  0  0
  -27.8632  -30.4399   23.9183 H   0  0  0  0  0  0
  -27.2674  -33.3604   26.2105 H   0  0  0  0  0  0
  -28.3811  -32.6928   25.0262 H   0  0  0  0  0  0
  -28.0773  -31.8439   26.5338 H   0  0  0  0  0  0
  -28.2626  -38.0098   24.7504 H   0  0  0  0  0  0
  -28.1064  -36.2637   24.6299 H   0  0  0  0  0  0
  -27.2301  -37.1469   25.8873 H   0  0  0  0  0  0
  -20.9288  -29.8730   21.6965 H   0  0  0  0  0  0
  -26.0199  -38.2892   24.1404 H   0  0  0  0  0  0
  -32.6222  -19.1194   22.0377 H   0  0  0  0  0  0
  -32.2227  -16.6650   21.9403 H   0  0  0  0  0  0
  -28.2449  -17.3730   20.3552 H   0  0  0  0  0  0
  -31.5753  -21.4823   20.7370 H   0  0  0  0  0  0
  -30.7683  -21.4533   22.2836 H   0  0  0  0  0  0
  -27.6181  -20.1858   20.9480 H   0  0  0  0  0  0
  -28.2537  -20.0957   19.3069 H   0  0  0  0  0  0
  -29.3726  -24.5567   19.0813 H   0  0  0  0  0  0
  -30.7760  -24.0017   20.0083 H   0  0  0  0  0  0
  -28.7311  -22.3760   22.5479 H   0  0  0  0  0  0
  -27.4946  -22.4850   21.3138 H   0  0  0  0  0  0
  -28.5388  -22.3922   18.7962 H   0  0  0  0  0  0
  -31.5692  -22.0336   18.6336 H   0  0  0  0  0  0
  -30.4684  -22.5239   17.3660 H   0  0  0  0  0  0
  -30.3920  -20.8854   17.9989 H   0  0  0  0  0  0
  -30.8116  -27.7319   21.1138 H   0  0  0  0  0  0
  -30.9561  -26.2789   20.1474 H   0  0  0  0  0  0
  -31.1577  -26.1960   21.8982 H   0  0  0  0  0  0
  -28.7554  -27.1231   22.0457 H   0  0  0  0  0  0
  -28.9887  -15.1680   21.3254 H   0  0  0  0  0  0
  1 25  1  0  0  0
  1 30  2  0  0  0
  1 88  1  0  0  0
  2  3  1  0  0  0
  2 25  1  0  0  0
  2 90  1  0  0  0
  2 91  1  0  0  0
  3  4  1  0  0  0
  3 92  1  0  0  0
  3 93  1  0  0  0
  4  5  1  0  0  0
  4 94  1  0  0  0
  4 95  1  0  0  0
  5  6  1  0  0  0
  5 26  1  0  0  0
  5 96  1  0  0  0
  6 25  1  0  0  0
  6 97  1  0  0  0
  6 98  1  0  0  0
  7  8  2  0  0  0
  7 26  1  0  0  0
  7 29  1  0  0  0
  8  9  1  0  0  0
  8 22  1  0  0  0
  9 10  1  0  0  0
  9 27  2  0  0  0
 10 11  2  0  0  0
 10 15  1  0  0  0
 11 12  1  0  0  0
 11 99  1  0  0  0
 12 13  2  0  0  0
 12100  1  0  0  0
 13 14  1  0  0  0
 13 31  1  0  0  0
 14 15  2  0  0  0
 14101  1  0  0  0
 15102  1  0  0  0
 16 17  2  0  0  0
 16 21  1  0  0  0
 16 31  1  0  0  0
 17 18  1  0  0  0
 17103  1  0  0  0
 18 19  2  0  0  0
 18104  1  0  0  0
 19 20  1  0  0  0
 19 24  1  0  0  0
 20 21  2  0  0  0
 20105  1  0  0  0
 21 23  1  0  0  0
 22 28  1  0  0  0
 22 32  2  0  0  0
 26 27  1  0  0  0
 28106  1  0  0  0
 28107  1  0  0  0
 29108  1  0  0  0
 29109  1  0  0  0
 33 34  1  0  0  0
 33 66  1  0  0  0
 33 70  2  0  0  0
 34 36  1  0  0  0
 34 59  1  0  0  0
 34110  1  0  0  0
 35 44  2  0  0  0
 35 45  1  0  0  0
 35 68  1  0  0  0
 36 56  1  0  0  0
 36111  1  0  0  0
 37 39  1  0  0  0
 37 47  1  0  0  0
 37 66  1  0  0  0
 37112  1  0  0  0
 38 43  2  0  0  0
 38 46  1  0  0  0
 38 47  1  0  0  0
 39 64  1  0  0  0
 39 67  2  0  0  0
 40 52  1  0  0  0
 40 53  2  0  0  0
 40 58  1  0  0  0
 41113  1  0  0  0
 41114  1  0  0  0
 41115  1  0  0  0
 41 48  1  0  0  0
 42 43  1  0  0  0
 42 66  1  0  0  0
 42116  1  0  0  0
 42117  1  0  0  0
 43 44  1  0  0  0
 44118  1  0  0  0
 45 46  2  0  0  0
 45119  1  0  0  0
 46120  1  0  0  0
 47121  1  0  0  0
 47122  1  0  0  0
 48 56  1  0  0  0
 48 65  1  0  0  0
 48123  1  0  0  0
 49 50  1  0  0  0
 49 53  1  0  0  0
 49 64  1  0  0  0
 49124  1  0  0  0
 50 51  1  0  0  0
 50125  1  0  0  0
 50126  1  0  0  0
 51 52  1  0  0  0
 51127  1  0  0  0
 51128  1  0  0  0
 52129  1  0  0  0
 52130  1  0  0  0
 53 54  1  0  0  0
 54 55  2  0  0  0
 54131  1  0  0  0
 55 57  1  0  0  0
 55132  1  0  0  0
 56 69  2  0  0  0
 57 58  2  0  0  0
 57133  1  0  0  0
 58134  1  0  0  0
 59 60  1  0  0  0
 59 61  1  0  0  0
 59 62  1  0  0  0
 60135  1  0  0  0
 60136  1  0  0  0
 60137  1  0  0  0
 61138  1  0  0  0
 61139  1  0  0  0
 61140  1  0  0  0
 62141  1  0  0  0
 62142  1  0  0  0
 62143  1  0  0  0
 63 65  1  0  0  0
 63144  1  0  0  0
 63145  1  0  0  0
 63146  1  0  0  0
 64147  1  0  0  0
 65148  1  0  0  0
 68 86  1  0  0  0
 71 72  2  0  0  0
 71 74  1  0  0  0
 71149  1  0  0  0
 72 76  1  0  0  0
 72150  1  0  0  0
 73 75  1  0  0  0
 73 76  2  0  0  0
 73151  1  0  0  0
 74 75  2  0  0  0
 74 78  1  0  0  0
 75 79  1  0  0  0
 76 88  1  0  0  0
 77 86  1  0  0  0
 77 87  1  0  0  0
 77 89  2  0  0  0
 78152  1  0  0  0
 78153  1  0  0  0
 78 83  1  0  0  0
 79 83  1  0  0  0
 79154  1  0  0  0
 79155  1  0  0  0
 80 82  1  0  0  0
 80 87  1  0  0  0
 80156  1  0  0  0
 80157  1  0  0  0
 81 83  1  0  0  0
 81 87  1  0  0  0
 81158  1  0  0  0
 81159  1  0  0  0
 82 83  1  0  0  0
 82 84  1  0  0  0
 82160  1  0  0  0
 84161  1  0  0  0
 84162  1  0  0  0
 84163  1  0  0  0
 85164  1  0  0  0
 85165  1  0  0  0
 85166  1  0  0  0
 85 86  1  0  0  0
 86167  1  0  0  0
 88168  1  0  0  0
M  ISO  4   1 100  68 101  86 101  88 100
M  END
> <chiral flag>
0

> <version>
0

> <s_m_source_file>
/data/baiqing/PycharmProjects/Reinvent-master-3.2/result/LINK_invent/BTK/process_docking_weight1_custom_product_contain_oxygen_bond_distance_aromatic_linkinvent_7_9_3/rearranged_h_0141.sdf

> <i_m_source_file_index>
95

> <r_mmod_Potential_Energy-OPLS-2005>
126.508659362793

> <r_mmod_Stretch_Energy-OPLS-2005>
39.4644622802734

> <r_mmod_Bend_Energy-OPLS-2005>
159.120315551758

> <r_mmod_Torsional_Energy-OPLS-2005>
331.944000244141

> <r_mmod_Improper_Torsional_Energy-OPLS-2005>
4.38486576080322

> <r_mmod_Van_der_Waal_Energy-OPLS-2005>
146.542098999023

> <r_mmod_Electrostatic_Energy-OPLS-2005>
-344.579467773438

> <r_mmod_Solvation_Energy-OPLS-2005>
-219.965759277344

> <b_mmod_Minimization_Converged-OPLS-2005>
0

> <r_mmod_RMS_Derivative-OPLS-2005>
1.98113012313843

$$$$
95
                    3D
 Structure written by MMmdl.
153161  0  0  1  0            999 V2000
  -30.5886  -14.7241   20.4933 C   0  0  0  0  0  0
  -30.4427  -12.4439   19.4767 C   0  0  0  0  0  0
  -29.5192  -12.5253   18.2402 C   0  0  0  0  0  0
  -28.0424  -12.3466   18.6452 C   0  0  0  0  0  0
  -27.6472  -13.2244   19.8633 C   0  0  2  0  0  0
  -28.6895  -13.1159   20.9991 C   0  0  0  0  0  0
  -25.2520  -13.8167   20.5698 C   0  0  0  0  0  0
  -24.1809  -13.0428   20.9216 C   0  0  0  0  0  0
  -24.6372  -11.6900   20.8726 C   0  0  0  0  0  0
  -23.9026  -10.4279   21.0355 C   0  0  0  0  0  0
  -24.3582   -9.4208   21.9133 C   0  0  0  0  0  0
  -23.6280   -8.2235   22.0729 C   0  0  0  0  0  0
  -22.4262   -8.0255   21.3533 C   0  0  0  0  0  0
  -21.9874   -9.0204   20.4627 C   0  0  0  0  0  0
  -22.7186  -10.2100   20.3012 C   0  0  0  0  0  0
  -21.6861   -6.0711   22.5270 C   0  0  0  0  0  0
  -21.4018   -6.5619   23.8198 C   0  0  0  0  0  0
  -21.3668   -5.6777   24.9165 C   0  0  0  0  0  0
  -21.6060   -4.3039   24.7226 C   0  0  0  0  0  0
  -21.8821   -3.8129   23.4337 C   0  0  0  0  0  0
  -21.9193   -4.6937   22.3397 C   0  0  0  0  0  0
  -22.7836  -13.5215   21.1880 C   0  0  0  0  0  0
  -22.1665   -4.2124   21.0974 F   0  0  0  0  0  0
  -21.5624   -3.4521   25.7735 F   0  0  0  0  0  0
  -29.9978  -13.4804   20.4346 N   0  0  0  0  0  0
  -26.2952  -12.9355   20.3309 N   0  0  0  0  0  0
  -25.9310  -11.6512   20.5753 N   0  0  0  0  0  0
  -22.0475  -12.8203   22.0433 N   0  0  0  0  0  0
  -25.4211  -15.1887   20.4131 N   0  0  0  0  0  0
  -31.7634  -14.8672   20.1377 O   0  0  0  0  0  0
  -21.6651   -6.8836   21.4227 O   0  0  0  0  0  0
  -22.3517  -14.5504   20.6706 O   0  0  0  0  0  0
  -24.6296  -31.8551   23.1948 C   0  0  0  0  0  0
  -25.9109  -32.4756   23.8333 C   0  0  1  0  0  0
  -27.2260  -27.2719   20.1405 C   0  0  0  0  0  0
  -25.5902  -33.8562   24.2265 N   0  0  0  0  0  0
  -23.4263  -30.4789   21.5349 C   0  0  2  0  0  0
  -24.8744  -28.9164   20.1138 C   0  0  0  0  0  0
  -22.7489  -29.4636   22.4875 C   0  0  0  0  0  0
  -18.0304  -28.1403   22.8506 C   0  0  0  0  0  0
  -24.1470  -36.7299   23.2649 C   0  0  0  0  0  0
  -25.9705  -30.7744   21.3675 C   0  0  0  0  0  0
  -26.0431  -29.3924   20.7202 C   0  0  0  0  0  0
  -27.2238  -28.5844   20.7185 C   0  0  0  0  0  0
  -26.0317  -26.8469   19.5240 C   0  0  0  0  0  0
  -24.8720  -27.6502   19.5039 C   0  0  0  0  0  0
  -23.6451  -29.8048   20.1533 C   0  0  0  0  0  0
  -25.4089  -36.3094   24.0352 C   0  0  1  0  0  0
  -20.5913  -28.3723   23.1264 C   0  0  2  0  0  0
  -20.6799  -26.9436   22.5408 C   0  0  0  0  0  0
  -19.5756  -26.6394   21.5233 C   0  0  0  0  0  0
  -18.1937  -26.7950   22.1643 C   0  0  0  0  0  0
  -19.1558  -28.8875   23.2889 C   0  0  0  0  0  0
  -18.9479  -30.1483   23.8889 C   0  0  0  0  0  0
  -17.6476  -30.6599   24.0581 C   0  0  0  0  0  0
  -25.9035  -34.9454   23.5118 C   0  0  0  0  0  0
  -16.5366  -29.9098   23.6335 C   0  0  0  0  0  0
  -16.7295  -28.6523   23.0350 C   0  0  0  0  0  0
  -26.4466  -31.6586   25.0729 C   0  0  0  0  0  0
  -25.3660  -31.3758   26.1440 C   0  0  0  0  0  0
  -27.0327  -30.3022   24.6216 C   0  0  0  0  0  0
  -27.6052  -32.4308   25.7483 C   0  0  0  0  0  0
  -27.5575  -37.1802   24.8468 C   0  0  0  0  0  0
  -21.4201  -29.3070   22.3635 N   0  0  0  0  0  0
  -26.4262  -37.3806   23.9438 N   0  0  0  0  0  0
  -24.6950  -31.0563   22.0891 N   0  0  0  0  0  0
  -23.4196  -28.8208   23.3004 O   0  0  0  0  0  0
  -28.3444  -26.4134   20.1237 O   0  0  0  0  0  0
  -26.5642  -34.8940   22.4709 O   0  0  0  0  0  0
  -23.5448  -32.1335   23.7263 O   0  0  0  0  0  0
  -30.7271  -19.4059   20.4732 C   0  0  0  0  0  0
  -29.4049  -19.8171   20.3290 C   0  0  0  0  0  0
  -29.8265  -17.2519   20.6086 C   0  0  0  0  0  0
  -29.0949  -22.3461   20.5386 C   0  0  0  0  0  0
  -31.9374  -20.2866   20.4004 C   0  0  0  0  0  0
  -27.4171  -23.3839   18.8168 C   0  0  0  0  0  0
  -28.2415  -25.0159   20.6679 C   0  0  0  0  0  0
  -28.5694  -23.6819   19.7986 C   0  0  1  0  0  0
  -30.9417  -18.0012   20.6368 N   0  0  0  0  0  0
  -28.8766  -21.0814   20.0178 N   0  0  0  0  0  0
  -29.7475  -15.7836   20.7781 N   0  0  0  0  0  0
  -29.7202  -22.4716   21.5933 O   0  0  0  0  0  0
  -28.4063  -18.3355   20.4030 S   0  0  0  0  0  0
  -31.4845  -12.5804   19.1830 H   0  0  0  0  0  0
  -30.3874  -11.4537   19.9323 H   0  0  0  0  0  0
  -29.8031  -11.7715   17.5041 H   0  0  0  0  0  0
  -29.6511  -13.4931   17.7523 H   0  0  0  0  0  0
  -27.8977  -11.2938   18.8884 H   0  0  0  0  0  0
  -27.3882  -12.5561   17.7975 H   0  0  0  0  0  0
  -27.6489  -14.2549   19.5099 H   0  0  0  0  0  0
  -28.7176  -12.1006   21.3966 H   0  0  0  0  0  0
  -28.4219  -13.7559   21.8408 H   0  0  0  0  0  0
  -25.2713   -9.5718   22.4715 H   0  0  0  0  0  0
  -24.0002   -7.4635   22.7453 H   0  0  0  0  0  0
  -21.0799   -8.8681   19.8942 H   0  0  0  0  0  0
  -22.3579  -10.9620   19.6131 H   0  0  0  0  0  0
  -21.2002   -7.6125   23.9689 H   0  0  0  0  0  0
  -21.1515   -6.0510   25.9069 H   0  0  0  0  0  0
  -22.0598   -2.7591   23.2844 H   0  0  0  0  0  0
  -22.4140  -11.9881   22.4827 H   0  0  0  0  0  0
  -21.1081  -13.1198   22.2628 H   0  0  0  0  0  0
  -24.6346  -15.8246   20.4859 H   0  0  0  0  0  0
  -26.2509  -15.6318   20.0440 H   0  0  0  0  0  0
  -26.7175  -32.5406   23.1077 H   0  0  0  0  0  0
  -25.0031  -33.9723   25.0403 H   0  0  0  0  0  0
  -22.7248  -31.3019   21.3807 H   0  0  0  0  0  0
  -23.3748  -35.9618   23.3305 H   0  0  0  0  0  0
  -24.3581  -36.8911   22.2065 H   0  0  0  0  0  0
  -23.7189  -37.6496   23.6654 H   0  0  0  0  0  0
  -26.1023  -31.5254   20.5872 H   0  0  0  0  0  0
  -26.8535  -30.8349   21.9913 H   0  0  0  0  0  0
  -28.1232  -28.9504   21.1934 H   0  0  0  0  0  0
  -25.9875  -25.8728   19.0612 H   0  0  0  0  0  0
  -23.9755  -27.2780   19.0274 H   0  0  0  0  0  0
  -23.7744  -30.5762   19.3933 H   0  0  0  0  0  0
  -22.7634  -29.2383   19.8478 H   0  0  0  0  0  0
  -25.1251  -36.1948   25.0842 H   0  0  0  0  0  0
  -21.0032  -28.3319   24.1379 H   0  0  0  0  0  0
  -20.5722  -26.2349   23.3635 H   0  0  0  0  0  0
  -21.6660  -26.7475   22.1167 H   0  0  0  0  0  0
  -19.6914  -25.6307   21.1253 H   0  0  0  0  0  0
  -19.6665  -27.3230   20.6783 H   0  0  0  0  0  0
  -17.4212  -26.6736   21.4034 H   0  0  0  0  0  0
  -18.0293  -26.0099   22.9033 H   0  0  0  0  0  0
  -19.7954  -30.7316   24.2235 H   0  0  0  0  0  0
  -17.5030  -31.6269   24.5202 H   0  0  0  0  0  0
  -15.5373  -30.2998   23.7653 H   0  0  0  0  0  0
  -15.8703  -28.0844   22.7043 H   0  0  0  0  0  0
  -24.5849  -30.7086   25.7774 H   0  0  0  0  0  0
  -24.8808  -32.2923   26.4811 H   0  0  0  0  0  0
  -25.7923  -30.8973   27.0261 H   0  0  0  0  0  0
  -26.2923  -29.6768   24.1222 H   0  0  0  0  0  0
  -27.4020  -29.7304   25.4741 H   0  0  0  0  0  0
  -27.8778  -30.4357   23.9463 H   0  0  0  0  0  0
  -27.2723  -33.3648   26.2033 H   0  0  0  0  0  0
  -28.3865  -32.6791   25.0280 H   0  0  0  0  0  0
  -28.0710  -31.8420   26.5398 H   0  0  0  0  0  0
  -28.2589  -38.0117   24.7585 H   0  0  0  0  0  0
  -28.1074  -36.2662   24.6172 H   0  0  0  0  0  0
  -27.2344  -37.1330   25.8890 H   0  0  0  0  0  0
  -20.9376  -29.8799   21.6846 H   0  0  0  0  0  0
  -26.0145  -38.2878   24.1461 H   0  0  0  0  0  0
  -32.7353  -19.8191   19.8233 H   0  0  0  0  0  0
  -32.3317  -20.5042   21.3933 H   0  0  0  0  0  0
  -31.7193  -21.2369   19.9139 H   0  0  0  0  0  0
  -26.4696  -23.2566   19.3427 H   0  0  0  0  0  0
  -27.5909  -22.4931   18.2143 H   0  0  0  0  0  0
  -27.3003  -24.2057   18.1105 H   0  0  0  0  0  0
  -28.9321  -25.0120   21.5113 H   0  0  0  0  0  0
  -27.2639  -24.8864   21.1341 H   0  0  0  0  0  0
  -29.4221  -23.9444   19.1725 H   0  0  0  0  0  0
  -28.2088  -21.0752   19.2588 H   0  0  0  0  0  0
  -28.8240  -15.4672   21.0210 H   0  0  0  0  0  0
  1 25  1  0  0  0
  1 30  2  0  0  0
  1 81  1  0  0  0
  2  3  1  0  0  0
  2 25  1  0  0  0
  2 84  1  0  0  0
  2 85  1  0  0  0
  3  4  1  0  0  0
  3 86  1  0  0  0
  3 87  1  0  0  0
  4  5  1  0  0  0
  4 88  1  0  0  0
  4 89  1  0  0  0
  5  6  1  0  0  0
  5 26  1  0  0  0
  5 90  1  0  0  0
  6 25  1  0  0  0
  6 91  1  0  0  0
  6 92  1  0  0  0
  7  8  2  0  0  0
  7 26  1  0  0  0
  7 29  1  0  0  0
  8  9  1  0  0  0
  8 22  1  0  0  0
  9 10  1  0  0  0
  9 27  2  0  0  0
 10 11  2  0  0  0
 10 15  1  0  0  0
 11 12  1  0  0  0
 11 93  1  0  0  0
 12 13  2  0  0  0
 12 94  1  0  0  0
 13 14  1  0  0  0
 13 31  1  0  0  0
 14 15  2  0  0  0
 14 95  1  0  0  0
 15 96  1  0  0  0
 16 17  2  0  0  0
 16 21  1  0  0  0
 16 31  1  0  0  0
 17 18  1  0  0  0
 17 97  1  0  0  0
 18 19  2  0  0  0
 18 98  1  0  0  0
 19 20  1  0  0  0
 19 24  1  0  0  0
 20 21  2  0  0  0
 20 99  1  0  0  0
 21 23  1  0  0  0
 22 28  1  0  0  0
 22 32  2  0  0  0
 26 27  1  0  0  0
 28100  1  0  0  0
 28101  1  0  0  0
 29102  1  0  0  0
 29103  1  0  0  0
 33 34  1  0  0  0
 33 66  1  0  0  0
 33 70  2  0  0  0
 34 36  1  0  0  0
 34 59  1  0  0  0
 34104  1  0  0  0
 35 44  2  0  0  0
 35 45  1  0  0  0
 35 68  1  0  0  0
 36 56  1  0  0  0
 36105  1  0  0  0
 37 39  1  0  0  0
 37 47  1  0  0  0
 37 66  1  0  0  0
 37106  1  0  0  0
 38 43  2  0  0  0
 38 46  1  0  0  0
 38 47  1  0  0  0
 39 64  1  0  0  0
 39 67  2  0  0  0
 40 52  1  0  0  0
 40 53  2  0  0  0
 40 58  1  0  0  0
 41107  1  0  0  0
 41108  1  0  0  0
 41109  1  0  0  0
 41 48  1  0  0  0
 42 43  1  0  0  0
 42 66  1  0  0  0
 42110  1  0  0  0
 42111  1  0  0  0
 43 44  1  0  0  0
 44112  1  0  0  0
 45 46  2  0  0  0
 45113  1  0  0  0
 46114  1  0  0  0
 47115  1  0  0  0
 47116  1  0  0  0
 48 56  1  0  0  0
 48 65  1  0  0  0
 48117  1  0  0  0
 49 50  1  0  0  0
 49 53  1  0  0  0
 49 64  1  0  0  0
 49118  1  0  0  0
 50 51  1  0  0  0
 50119  1  0  0  0
 50120  1  0  0  0
 51 52  1  0  0  0
 51121  1  0  0  0
 51122  1  0  0  0
 52123  1  0  0  0
 52124  1  0  0  0
 53 54  1  0  0  0
 54 55  2  0  0  0
 54125  1  0  0  0
 55 57  1  0  0  0
 55126  1  0  0  0
 56 69  2  0  0  0
 57 58  2  0  0  0
 57127  1  0  0  0
 58128  1  0  0  0
 59 60  1  0  0  0
 59 61  1  0  0  0
 59 62  1  0  0  0
 60129  1  0  0  0
 60130  1  0  0  0
 60131  1  0  0  0
 61132  1  0  0  0
 61133  1  0  0  0
 61134  1  0  0  0
 62135  1  0  0  0
 62136  1  0  0  0
 62137  1  0  0  0
 63 65  1  0  0  0
 63138  1  0  0  0
 63139  1  0  0  0
 63140  1  0  0  0
 64141  1  0  0  0
 65142  1  0  0  0
 68 77  1  0  0  0
 71 72  2  0  0  0
 71 75  1  0  0  0
 71 79  1  0  0  0
 72 80  1  0  0  0
 72 83  1  0  0  0
 73 79  2  0  0  0
 73 81  1  0  0  0
 73 83  1  0  0  0
 74 78  1  0  0  0
 74 80  1  0  0  0
 74 82  2  0  0  0
 75143  1  0  0  0
 75144  1  0  0  0
 75145  1  0  0  0
 76146  1  0  0  0
 76147  1  0  0  0
 76148  1  0  0  0
 76 78  1  0  0  0
 77 78  1  0  0  0
 77149  1  0  0  0
 77150  1  0  0  0
 78151  1  0  0  0
 80152  1  0  0  0
 81153  1  0  0  0
M  ISO  4   1 100  68 101  77 101  81 100
M  END
> <chiral flag>
0

> <version>
0

> <s_m_source_file>
/data/baiqing/PycharmProjects/Reinvent-master-3.2/result/LINK_invent/BTK/process_docking_weight1_custom_product_contain_oxygen_bond_distance_aromatic_linkinvent_7_9_3/rearranged_h_0141.sdf

> <i_m_source_file_index>
96

> <r_mmod_Potential_Energy-OPLS-2005>
50.0461463928223

> <r_mmod_Stretch_Energy-OPLS-2005>
108.275672912598

> <r_mmod_Bend_Energy-OPLS-2005>
173.378433227539

> <r_mmod_Torsional_Energy-OPLS-2005>
260.094604492188

> <r_mmod_Improper_Torsional_Energy-OPLS-2005>
5.47026920318604

> <r_mmod_Van_der_Waal_Energy-OPLS-2005>
110.722045898438

> <r_mmod_Electrostatic_Energy-OPLS-2005>
-433.237548828125

> <r_mmod_Solvation_Energy-OPLS-2005>
-247.636108398438

> <b_mmod_Minimization_Converged-OPLS-2005>
0

> <r_mmod_RMS_Derivative-OPLS-2005>
3.2234480381012

$$$$
96
                    3D
 Structure written by MMmdl.
163172  0  0  1  0            999 V2000
  -30.5759  -14.7571   20.4598 C   0  0  0  0  0  0
  -30.4424  -12.4593   19.4739 C   0  0  0  0  0  0
  -29.5145  -12.5114   18.2383 C   0  0  0  0  0  0
  -28.0406  -12.3289   18.6515 C   0  0  0  0  0  0
  -27.6454  -13.2249   19.8548 C   0  0  2  0  0  0
  -28.6891  -13.1401   20.9908 C   0  0  0  0  0  0
  -25.2532  -13.8180   20.5686 C   0  0  0  0  0  0
  -24.1814  -13.0437   20.9203 C   0  0  0  0  0  0
  -24.6392  -11.6910   20.8744 C   0  0  0  0  0  0
  -23.9065  -10.4290   21.0405 C   0  0  0  0  0  0
  -24.3614   -9.4204   21.9184 C   0  0  0  0  0  0
  -23.6288   -8.2242   22.0755 C   0  0  0  0  0  0
  -22.4271   -8.0278   21.3545 C   0  0  0  0  0  0
  -21.9907   -9.0250   20.4647 C   0  0  0  0  0  0
  -22.7238  -10.2130   20.3055 C   0  0  0  0  0  0
  -21.6854   -6.0730   22.5278 C   0  0  0  0  0  0
  -21.4015   -6.5637   23.8210 C   0  0  0  0  0  0
  -21.3658   -5.6791   24.9172 C   0  0  0  0  0  0
  -21.6043   -4.3053   24.7224 C   0  0  0  0  0  0
  -21.8819   -3.8143   23.4347 C   0  0  0  0  0  0
  -21.9192   -4.6958   22.3402 C   0  0  0  0  0  0
  -22.7837  -13.5226   21.1860 C   0  0  0  0  0  0
  -22.1662   -4.2143   21.0980 F   0  0  0  0  0  0
  -21.5626   -3.4539   25.7739 F   0  0  0  0  0  0
  -29.9924  -13.5081   20.4186 N   0  0  0  0  0  0
  -26.2952  -12.9371   20.3283 N   0  0  0  0  0  0
  -25.9322  -11.6522   20.5749 N   0  0  0  0  0  0
  -22.0478  -12.8219   22.0415 N   0  0  0  0  0  0
  -25.4237  -15.1903   20.4098 N   0  0  0  0  0  0
  -31.7543  -14.8894   20.1100 O   0  0  0  0  0  0
  -21.6641   -6.8871   21.4239 O   0  0  0  0  0  0
  -22.3525  -14.5532   20.6704 O   0  0  0  0  0  0
  -24.6318  -31.8537   23.1959 C   0  0  0  0  0  0
  -25.9139  -32.4749   23.8309 C   0  0  1  0  0  0
  -27.2260  -27.2551   20.1171 C   0  0  0  0  0  0
  -25.5931  -33.8551   24.2234 N   0  0  0  0  0  0
  -23.4285  -30.4750   21.5398 C   0  0  2  0  0  0
  -24.8754  -28.9192   20.1073 C   0  0  0  0  0  0
  -22.7503  -29.4591   22.4906 C   0  0  0  0  0  0
  -18.0290  -28.1391   22.8485 C   0  0  0  0  0  0
  -24.1491  -36.7276   23.2643 C   0  0  0  0  0  0
  -25.9746  -30.7631   21.3765 C   0  0  0  0  0  0
  -26.0461  -29.3850   20.7172 C   0  0  0  0  0  0
  -27.2188  -28.5634   20.7136 C   0  0  0  0  0  0
  -26.0231  -26.8494   19.4956 C   0  0  0  0  0  0
  -24.8695  -27.6595   19.4890 C   0  0  0  0  0  0
  -23.6460  -29.8065   20.1562 C   0  0  0  0  0  0
  -25.4120  -36.3067   24.0325 C   0  0  1  0  0  0
  -20.5895  -28.3696   23.1272 C   0  0  2  0  0  0
  -20.6781  -26.9412   22.5411 C   0  0  0  0  0  0
  -19.5756  -26.6381   21.5216 C   0  0  0  0  0  0
  -18.1932  -26.7932   22.1621 C   0  0  0  0  0  0
  -19.1545  -28.8859   23.2874 C   0  0  0  0  0  0
  -18.9469  -30.1460   23.8893 C   0  0  0  0  0  0
  -17.6469  -30.6591   24.0564 C   0  0  0  0  0  0
  -25.9060  -34.9438   23.5085 C   0  0  0  0  0  0
  -16.5358  -29.9088   23.6338 C   0  0  0  0  0  0
  -16.7277  -28.6506   23.0356 C   0  0  0  0  0  0
  -26.4500  -31.6588   25.0710 C   0  0  0  0  0  0
  -25.3710  -31.3744   26.1421 C   0  0  0  0  0  0
  -27.0357  -30.3008   24.6205 C   0  0  0  0  0  0
  -27.6040  -32.4342   25.7491 C   0  0  0  0  0  0
  -27.5578  -37.1797   24.8467 C   0  0  0  0  0  0
  -21.4208  -29.3043   22.3658 N   0  0  0  0  0  0
  -26.4292  -37.3768   23.9408 N   0  0  0  0  0  0
  -24.6975  -31.0491   22.0938 N   0  0  0  0  0  0
  -23.4199  -28.8137   23.3010 O   0  0  0  0  0  0
  -28.3423  -26.3866   20.2031 O   0  0  0  0  0  0
  -26.5635  -34.8919   22.4656 O   0  0  0  0  0  0
  -23.5466  -32.1360   23.7250 O   0  0  0  0  0  0
  -29.5147  -19.9167   20.6308 C   0  0  0  0  0  0
  -30.6113  -19.4166   19.9351 C   0  0  0  0  0  0
  -29.8219  -17.3047   20.5879 C   0  0  0  0  0  0
  -29.4341  -22.6596   20.1728 C   0  0  0  0  0  0
  -28.5044  -23.6676   20.2221 C   0  0  0  0  0  0
  -27.3328  -23.1770   21.0372 C   0  0  0  0  0  0
  -27.6591  -21.6733   21.3437 C   0  0  0  0  0  0
  -29.1801  -21.4138   21.0994 C   0  0  1  0  0  0
  -31.6757  -20.2385   19.2753 C   0  0  0  0  0  0
  -29.7512  -22.9957   23.1634 C   0  0  0  0  0  0
  -29.9591  -20.5206   23.4583 C   0  0  0  0  0  0
  -28.4635  -25.0777   19.4730 C   0  0  0  0  0  0
  -30.0110  -21.6645   22.4215 C   0  0  0  0  0  0
  -30.7685  -17.9922   19.9244 N   0  0  0  0  0  0
  -29.7462  -15.8299   20.7542 N   0  0  0  0  0  0
  -28.6008  -18.4778   21.2043 S   0  0  0  0  0  0
  -31.4811  -12.5987   19.1698 H   0  0  0  0  0  0
  -30.4004  -11.4774   19.9480 H   0  0  0  0  0  0
  -29.7987  -11.7412   17.5202 H   0  0  0  0  0  0
  -29.6364  -13.4669   17.7257 H   0  0  0  0  0  0
  -27.9016  -11.2796   18.9141 H   0  0  0  0  0  0
  -27.3815  -12.5189   17.8036 H   0  0  0  0  0  0
  -27.6439  -14.2484   19.4796 H   0  0  0  0  0  0
  -28.7261  -12.1329   21.4086 H   0  0  0  0  0  0
  -28.4167  -13.7975   21.8179 H   0  0  0  0  0  0
  -25.2758   -9.5684   22.4762 H   0  0  0  0  0  0
  -23.9995   -7.4636   22.7481 H   0  0  0  0  0  0
  -21.0837   -8.8768   19.8956 H   0  0  0  0  0  0
  -22.3692  -10.9666   19.6164 H   0  0  0  0  0  0
  -21.2010   -7.6146   23.9711 H   0  0  0  0  0  0
  -21.1479   -6.0523   25.9073 H   0  0  0  0  0  0
  -22.0598   -2.7605   23.2852 H   0  0  0  0  0  0
  -22.4088  -11.9875   22.4800 H   0  0  0  0  0  0
  -21.1098  -13.1249   22.2623 H   0  0  0  0  0  0
  -24.6504  -15.8390   20.5086 H   0  0  0  0  0  0
  -26.2584  -15.6270   20.0415 H   0  0  0  0  0  0
  -26.7201  -32.5387   23.1041 H   0  0  0  0  0  0
  -25.0079  -33.9692   25.0380 H   0  0  0  0  0  0
  -22.7254  -31.2975   21.3923 H   0  0  0  0  0  0
  -23.3765  -35.9598   23.3302 H   0  0  0  0  0  0
  -24.3576  -36.8903   22.2058 H   0  0  0  0  0  0
  -23.7231  -37.6469   23.6671 H   0  0  0  0  0  0
  -26.1162  -31.5237   20.6076 H   0  0  0  0  0  0
  -26.8518  -30.8108   22.0106 H   0  0  0  0  0  0
  -28.1147  -28.9155   21.2052 H   0  0  0  0  0  0
  -25.9238  -25.8759   19.0429 H   0  0  0  0  0  0
  -23.9680  -27.2919   19.0184 H   0  0  0  0  0  0
  -23.7679  -30.5817   19.3988 H   0  0  0  0  0  0
  -22.7646  -29.2386   19.8531 H   0  0  0  0  0  0
  -25.1305  -36.1911   25.0818 H   0  0  0  0  0  0
  -20.9987  -28.3277   24.1395 H   0  0  0  0  0  0
  -20.5690  -26.2301   23.3614 H   0  0  0  0  0  0
  -21.6646  -26.7442   22.1196 H   0  0  0  0  0  0
  -19.6918  -25.6290   21.1251 H   0  0  0  0  0  0
  -19.6702  -27.3189   20.6746 H   0  0  0  0  0  0
  -17.4204  -26.6688   21.4022 H   0  0  0  0  0  0
  -18.0328  -26.0073   22.9015 H   0  0  0  0  0  0
  -19.7945  -30.7281   24.2257 H   0  0  0  0  0  0
  -17.5023  -31.6273   24.5162 H   0  0  0  0  0  0
  -15.5361  -30.2992   23.7668 H   0  0  0  0  0  0
  -15.8672  -28.0829   22.7077 H   0  0  0  0  0  0
  -24.5893  -30.7087   25.7743 H   0  0  0  0  0  0
  -24.8891  -32.2917   26.4817 H   0  0  0  0  0  0
  -25.8013  -30.8938   27.0214 H   0  0  0  0  0  0
  -26.2946  -29.6750   24.1217 H   0  0  0  0  0  0
  -27.4036  -29.7278   25.4726 H   0  0  0  0  0  0
  -27.8819  -30.4297   23.9452 H   0  0  0  0  0  0
  -27.2638  -33.3655   26.2033 H   0  0  0  0  0  0
  -28.3868  -32.6883   25.0332 H   0  0  0  0  0  0
  -28.0684  -31.8488   26.5438 H   0  0  0  0  0  0
  -28.2594  -38.0096   24.7515 H   0  0  0  0  0  0
  -28.1077  -36.2627   24.6295 H   0  0  0  0  0  0
  -27.2292  -37.1438   25.8869 H   0  0  0  0  0  0
  -20.9391  -29.8766   21.6865 H   0  0  0  0  0  0
  -26.0172  -38.2842   24.1411 H   0  0  0  0  0  0
  -30.3493  -22.7405   19.6051 H   0  0  0  0  0  0
  -26.4027  -23.2756   20.4761 H   0  0  0  0  0  0
  -27.2418  -23.7752   21.9436 H   0  0  0  0  0  0
  -27.0925  -21.0722   20.6309 H   0  0  0  0  0  0
  -27.3226  -21.3627   22.3330 H   0  0  0  0  0  0
  -31.2810  -20.7689   18.4089 H   0  0  0  0  0  0
  -32.5082  -19.6255   18.9289 H   0  0  0  0  0  0
  -32.0863  -20.9799   19.9602 H   0  0  0  0  0  0
  -29.9038  -23.8685   22.5300 H   0  0  0  0  0  0
  -30.4363  -23.1104   24.0038 H   0  0  0  0  0  0
  -28.7422  -23.0406   23.5721 H   0  0  0  0  0  0
  -30.4316  -19.6098   23.0925 H   0  0  0  0  0  0
  -28.9347  -20.2830   23.7448 H   0  0  0  0  0  0
  -30.4964  -20.7868   24.3690 H   0  0  0  0  0  0
  -27.7503  -24.9997   18.6563 H   0  0  0  0  0  0
  -29.4214  -25.1484   18.9574 H   0  0  0  0  0  0
  -31.0553  -21.7115   22.1083 H   0  0  0  0  0  0
  -28.8545  -15.5238   21.1092 H   0  0  0  0  0  0
  1 25  1  0  0  0
  1 30  2  0  0  0
  1 85  1  0  0  0
  2  3  1  0  0  0
  2 25  1  0  0  0
  2 87  1  0  0  0
  2 88  1  0  0  0
  3  4  1  0  0  0
  3 89  1  0  0  0
  3 90  1  0  0  0
  4  5  1  0  0  0
  4 91  1  0  0  0
  4 92  1  0  0  0
  5  6  1  0  0  0
  5 26  1  0  0  0
  5 93  1  0  0  0
  6 25  1  0  0  0
  6 94  1  0  0  0
  6 95  1  0  0  0
  7  8  2  0  0  0
  7 26  1  0  0  0
  7 29  1  0  0  0
  8  9  1  0  0  0
  8 22  1  0  0  0
  9 10  1  0  0  0
  9 27  2  0  0  0
 10 11  2  0  0  0
 10 15  1  0  0  0
 11 12  1  0  0  0
 11 96  1  0  0  0
 12 13  2  0  0  0
 12 97  1  0  0  0
 13 14  1  0  0  0
 13 31  1  0  0  0
 14 15  2  0  0  0
 14 98  1  0  0  0
 15 99  1  0  0  0
 16 17  2  0  0  0
 16 21  1  0  0  0
 16 31  1  0  0  0
 17 18  1  0  0  0
 17100  1  0  0  0
 18 19  2  0  0  0
 18101  1  0  0  0
 19 20  1  0  0  0
 19 24  1  0  0  0
 20 21  2  0  0  0
 20102  1  0  0  0
 21 23  1  0  0  0
 22 28  1  0  0  0
 22 32  2  0  0  0
 26 27  1  0  0  0
 28103  1  0  0  0
 28104  1  0  0  0
 29105  1  0  0  0
 29106  1  0  0  0
 33 34  1  0  0  0
 33 66  1  0  0  0
 33 70  2  0  0  0
 34 36  1  0  0  0
 34 59  1  0  0  0
 34107  1  0  0  0
 35 44  2  0  0  0
 35 45  1  0  0  0
 35 68  1  0  0  0
 36 56  1  0  0  0
 36108  1  0  0  0
 37 39  1  0  0  0
 37 47  1  0  0  0
 37 66  1  0  0  0
 37109  1  0  0  0
 38 43  2  0  0  0
 38 46  1  0  0  0
 38 47  1  0  0  0
 39 64  1  0  0  0
 39 67  2  0  0  0
 40 52  1  0  0  0
 40 53  2  0  0  0
 40 58  1  0  0  0
 41110  1  0  0  0
 41111  1  0  0  0
 41112  1  0  0  0
 41 48  1  0  0  0
 42 43  1  0  0  0
 42 66  1  0  0  0
 42113  1  0  0  0
 42114  1  0  0  0
 43 44  1  0  0  0
 44115  1  0  0  0
 45 46  2  0  0  0
 45116  1  0  0  0
 46117  1  0  0  0
 47118  1  0  0  0
 47119  1  0  0  0
 48 56  1  0  0  0
 48 65  1  0  0  0
 48120  1  0  0  0
 49 50  1  0  0  0
 49 53  1  0  0  0
 49 64  1  0  0  0
 49121  1  0  0  0
 50 51  1  0  0  0
 50122  1  0  0  0
 50123  1  0  0  0
 51 52  1  0  0  0
 51124  1  0  0  0
 51125  1  0  0  0
 52126  1  0  0  0
 52127  1  0  0  0
 53 54  1  0  0  0
 54 55  2  0  0  0
 54128  1  0  0  0
 55 57  1  0  0  0
 55129  1  0  0  0
 56 69  2  0  0  0
 57 58  2  0  0  0
 57130  1  0  0  0
 58131  1  0  0  0
 59 60  1  0  0  0
 59 61  1  0  0  0
 59 62  1  0  0  0
 60132  1  0  0  0
 60133  1  0  0  0
 60134  1  0  0  0
 61135  1  0  0  0
 61136  1  0  0  0
 61137  1  0  0  0
 62138  1  0  0  0
 62139  1  0  0  0
 62140  1  0  0  0
 63 65  1  0  0  0
 63141  1  0  0  0
 63142  1  0  0  0
 63143  1  0  0  0
 64144  1  0  0  0
 65145  1  0  0  0
 68 82  1  0  0  0
 71 72  2  0  0  0
 71 86  1  0  0  0
 71 78  1  0  0  0
 72 79  1  0  0  0
 72 84  1  0  0  0
 73 84  2  0  0  0
 73 85  1  0  0  0
 73 86  1  0  0  0
 74 75  2  0  0  0
 74 78  1  0  0  0
 74146  1  0  0  0
 75 76  1  0  0  0
 75 82  1  0  0  0
 76 77  1  0  0  0
 76147  1  0  0  0
 76148  1  0  0  0
 77 78  1  0  0  0
 77149  1  0  0  0
 77150  1  0  0  0
 78 83  1  0  0  0
 79151  1  0  0  0
 79152  1  0  0  0
 79153  1  0  0  0
 80154  1  0  0  0
 80155  1  0  0  0
 80156  1  0  0  0
 80 83  1  0  0  0
 81 83  1  0  0  0
 81157  1  0  0  0
 81158  1  0  0  0
 81159  1  0  0  0
 82160  1  0  0  0
 82161  1  0  0  0
 83162  1  0  0  0
 85163  1  0  0  0
M  ISO  4   1 100  68 101  82 101  85 100
M  END
> <chiral flag>
0

> <version>
0

> <s_m_source_file>
/data/baiqing/PycharmProjects/Reinvent-master-3.2/result/LINK_invent/BTK/process_docking_weight1_custom_product_contain_oxygen_bond_distance_aromatic_linkinvent_7_9_3/rearranged_h_0141.sdf

> <i_m_source_file_index>
97

> <r_mmod_Potential_Energy-OPLS-2005>
161.788009643555

> <r_mmod_Stretch_Energy-OPLS-2005>
121.056114196777

> <r_mmod_Bend_Energy-OPLS-2005>
247.70329284668

> <r_mmod_Torsional_Energy-OPLS-2005>
208.748825073242

> <r_mmod_Improper_Torsional_Energy-OPLS-2005>
5.53477954864502

> <r_mmod_Van_der_Waal_Energy-OPLS-2005>
117.874366760254

> <r_mmod_Electrostatic_Energy-OPLS-2005>
-412.149505615234

> <r_mmod_Solvation_Energy-OPLS-2005>
-214.680099487305

> <b_mmod_Minimization_Converged-OPLS-2005>
0

> <r_mmod_RMS_Derivative-OPLS-2005>
0.546522736549377

$$$$
97
                    3D
 Structure written by MMmdl.
165173  0  0  1  0            999 V2000
  -30.6263  -14.6956   20.5055 C   0  0  0  0  0  0
  -30.4443  -12.4274   19.4857 C   0  0  0  0  0  0
  -29.5278  -12.5251   18.2457 C   0  0  0  0  0  0
  -28.0487  -12.3592   18.6448 C   0  0  0  0  0  0
  -27.6583  -13.2319   19.8701 C   0  0  2  0  0  0
  -28.6987  -13.1157   21.0077 C   0  0  0  0  0  0
  -25.2566  -13.8192   20.5693 C   0  0  0  0  0  0
  -24.1840  -13.0447   20.9186 C   0  0  0  0  0  0
  -24.6429  -11.6928   20.8759 C   0  0  0  0  0  0
  -23.9109  -10.4306   21.0437 C   0  0  0  0  0  0
  -24.3662   -9.4198   21.9194 C   0  0  0  0  0  0
  -23.6324   -8.2234   22.0757 C   0  0  0  0  0  0
  -22.4294   -8.0303   21.3550 C   0  0  0  0  0  0
  -21.9950   -9.0280   20.4646 C   0  0  0  0  0  0
  -22.7300  -10.2147   20.3061 C   0  0  0  0  0  0
  -21.6837   -6.0767   22.5289 C   0  0  0  0  0  0
  -21.4008   -6.5658   23.8232 C   0  0  0  0  0  0
  -21.3656   -5.6792   24.9179 C   0  0  0  0  0  0
  -21.6045   -4.3059   24.7211 C   0  0  0  0  0  0
  -21.8813   -3.8171   23.4323 C   0  0  0  0  0  0
  -21.9176   -4.7000   22.3394 C   0  0  0  0  0  0
  -22.7850  -13.5243   21.1826 C   0  0  0  0  0  0
  -22.1645   -4.2194   21.0960 F   0  0  0  0  0  0
  -21.5632   -3.4526   25.7720 F   0  0  0  0  0  0
  -30.0146  -13.4643   20.4510 N   0  0  0  0  0  0
  -26.3027  -12.9416   20.3338 N   0  0  0  0  0  0
  -25.9374  -11.6558   20.5776 N   0  0  0  0  0  0
  -22.0449  -12.8279   22.0372 N   0  0  0  0  0  0
  -25.4252  -15.1920   20.4120 N   0  0  0  0  0  0
  -31.7652  -14.8493   20.0517 O   0  0  0  0  0  0
  -21.6629   -6.8916   21.4256 O   0  0  0  0  0  0
  -22.3549  -14.5538   20.6657 O   0  0  0  0  0  0
  -24.6282  -31.8560   23.1989 C   0  0  0  0  0  0
  -25.9123  -32.4755   23.8333 C   0  0  1  0  0  0
  -27.2331  -27.2826   20.1221 C   0  0  0  0  0  0
  -25.5939  -33.8555   24.2256 N   0  0  0  0  0  0
  -23.4257  -30.4786   21.5403 C   0  0  2  0  0  0
  -24.8759  -28.9273   20.1095 C   0  0  0  0  0  0
  -22.7493  -29.4607   22.4906 C   0  0  0  0  0  0
  -18.0295  -28.1381   22.8482 C   0  0  0  0  0  0
  -24.1496  -36.7274   23.2637 C   0  0  0  0  0  0
  -25.9700  -30.7724   21.3789 C   0  0  0  0  0  0
  -26.0440  -29.3968   20.7210 C   0  0  0  0  0  0
  -27.2210  -28.5849   20.7217 C   0  0  0  0  0  0
  -26.0437  -26.8850   19.4667 C   0  0  0  0  0  0
  -24.8794  -27.6770   19.4733 C   0  0  0  0  0  0
  -23.6439  -29.8093   20.1573 C   0  0  0  0  0  0
  -25.4117  -36.3064   24.0325 C   0  0  1  0  0  0
  -20.5898  -28.3687   23.1261 C   0  0  2  0  0  0
  -20.6773  -26.9406   22.5399 C   0  0  0  0  0  0
  -19.5756  -26.6377   21.5199 C   0  0  0  0  0  0
  -18.1934  -26.7925   22.1610 C   0  0  0  0  0  0
  -19.1547  -28.8850   23.2862 C   0  0  0  0  0  0
  -18.9471  -30.1450   23.8881 C   0  0  0  0  0  0
  -17.6470  -30.6587   24.0552 C   0  0  0  0  0  0
  -25.9056  -34.9435   23.5087 C   0  0  0  0  0  0
  -16.5358  -29.9079   23.6331 C   0  0  0  0  0  0
  -16.7277  -28.6491   23.0355 C   0  0  0  0  0  0
  -26.4506  -31.6572   25.0713 C   0  0  0  0  0  0
  -25.3735  -31.3723   26.1434 C   0  0  0  0  0  0
  -27.0363  -30.2997   24.6192 C   0  0  0  0  0  0
  -27.6060  -32.4317   25.7484 C   0  0  0  0  0  0
  -27.5580  -37.1788   24.8461 C   0  0  0  0  0  0
  -21.4203  -29.3042   22.3654 N   0  0  0  0  0  0
  -26.4295  -37.3761   23.9411 N   0  0  0  0  0  0
  -24.6931  -31.0545   22.0954 N   0  0  0  0  0  0
  -23.4197  -28.8136   23.2995 O   0  0  0  0  0  0
  -28.3446  -26.4121   20.2013 O   0  0  0  0  0  0
  -26.5626  -34.8911   22.4659 O   0  0  0  0  0  0
  -23.5428  -32.1385   23.7290 O   0  0  0  0  0  0
  -30.0498  -18.3198   20.9987 C   0  0  0  0  0  0
  -29.5229  -19.5157   20.2924 C   0  0  0  0  0  0
  -28.6911  -19.0384   19.2827 C   0  0  0  0  0  0
  -29.7347  -17.0460   20.5064 C   0  0  0  0  0  0
  -27.7539  -19.7238   18.3358 C   0  0  0  0  0  0
  -32.3464  -20.4357   21.3893 C   0  0  0  0  0  0
  -29.5547  -22.3858   18.4550 C   0  0  0  0  0  0
  -29.4203  -21.1776   22.1964 C   0  0  0  0  0  0
  -31.3676  -21.3310   20.6060 C   0  0  0  0  0  0
  -29.1562  -23.8308   20.5077 C   0  0  0  0  0  0
  -28.1937  -24.9589   19.8725 C   0  0  0  0  0  0
  -29.1007  -22.3053   19.9332 C   0  0  2  0  0  0
  -29.8304  -21.0473   20.7123 C   0  0  1  0  0  0
  -29.9157  -15.7578   21.0193 N   0  0  0  0  0  0
  -28.7340  -17.2849   19.1137 S   0  0  0  0  0  0
  -31.4914  -12.5441   19.1948 H   0  0  0  0  0  0
  -30.3740  -11.4386   19.9414 H   0  0  0  0  0  0
  -29.8092  -11.7743   17.5065 H   0  0  0  0  0  0
  -29.6696  -13.4923   17.7602 H   0  0  0  0  0  0
  -27.8863  -11.3059   18.8750 H   0  0  0  0  0  0
  -27.4042  -12.5852   17.7951 H   0  0  0  0  0  0
  -27.6711  -14.2661   19.5254 H   0  0  0  0  0  0
  -28.7188  -12.1044   21.4169 H   0  0  0  0  0  0
  -28.4309  -13.7637   21.8440 H   0  0  0  0  0  0
  -25.2809   -9.5656   22.4765 H   0  0  0  0  0  0
  -24.0023   -7.4625   22.7472 H   0  0  0  0  0  0
  -21.0881   -8.8837   19.8947 H   0  0  0  0  0  0
  -22.3797  -10.9705   19.6173 H   0  0  0  0  0  0
  -21.2004   -7.6167   23.9766 H   0  0  0  0  0  0
  -21.1482   -6.0501   25.9090 H   0  0  0  0  0  0
  -22.0591   -2.7639   23.2789 H   0  0  0  0  0  0
  -22.4030  -11.9988   22.4872 H   0  0  0  0  0  0
  -21.1058  -13.1335   22.2486 H   0  0  0  0  0  0
  -24.6600  -15.8464   20.5341 H   0  0  0  0  0  0
  -26.2824  -15.6365   20.1124 H   0  0  0  0  0  0
  -26.7183  -32.5415   23.1062 H   0  0  0  0  0  0
  -25.0095  -33.9710   25.0410 H   0  0  0  0  0  0
  -22.7194  -31.2985   21.3934 H   0  0  0  0  0  0
  -23.3762  -35.9603   23.3287 H   0  0  0  0  0  0
  -24.3580  -36.8910   22.2055 H   0  0  0  0  0  0
  -23.7246  -37.6469   23.6668 H   0  0  0  0  0  0
  -26.1102  -31.5336   20.6106 H   0  0  0  0  0  0
  -26.8455  -30.8194   22.0141 H   0  0  0  0  0  0
  -28.1104  -28.9377   21.2235 H   0  0  0  0  0  0
  -25.9805  -25.9392   18.9507 H   0  0  0  0  0  0
  -23.9862  -27.3129   18.9836 H   0  0  0  0  0  0
  -23.7627  -30.5835   19.3988 H   0  0  0  0  0  0
  -22.7639  -29.2377   19.8565 H   0  0  0  0  0  0
  -25.1298  -36.1905   25.0819 H   0  0  0  0  0  0
  -20.9987  -28.3261   24.1381 H   0  0  0  0  0  0
  -20.5658  -26.2300   23.3601 H   0  0  0  0  0  0
  -21.6644  -26.7423   22.1209 H   0  0  0  0  0  0
  -19.6916  -25.6281   21.1241 H   0  0  0  0  0  0
  -19.6699  -27.3172   20.6717 H   0  0  0  0  0  0
  -17.4206  -26.6669   21.4009 H   0  0  0  0  0  0
  -18.0338  -26.0068   22.9011 H   0  0  0  0  0  0
  -19.7943  -30.7268   24.2242 H   0  0  0  0  0  0
  -17.5025  -31.6269   24.5150 H   0  0  0  0  0  0
  -15.5354  -30.2972   23.7668 H   0  0  0  0  0  0
  -15.8676  -28.0805   22.7075 H   0  0  0  0  0  0
  -24.5895  -30.7092   25.7746 H   0  0  0  0  0  0
  -24.8949  -32.2900   26.4863 H   0  0  0  0  0  0
  -25.8057  -30.8881   27.0201 H   0  0  0  0  0  0
  -26.2946  -29.6722   24.1231 H   0  0  0  0  0  0
  -27.4070  -29.7275   25.4704 H   0  0  0  0  0  0
  -27.8811  -30.4271   23.9421 H   0  0  0  0  0  0
  -27.2670  -33.3622   26.2044 H   0  0  0  0  0  0
  -28.3881  -32.6860   25.0321 H   0  0  0  0  0  0
  -28.0712  -31.8450   26.5416 H   0  0  0  0  0  0
  -28.2582  -38.0099   24.7527 H   0  0  0  0  0  0
  -28.1100  -36.2632   24.6268 H   0  0  0  0  0  0
  -27.2306  -37.1411   25.8865 H   0  0  0  0  0  0
  -20.9369  -29.8783   21.6889 H   0  0  0  0  0  0
  -26.0166  -38.2836   24.1414 H   0  0  0  0  0  0
  -30.6464  -18.4394   21.8909 H   0  0  0  0  0  0
  -28.2477  -19.9879   17.4018 H   0  0  0  0  0  0
  -27.2746  -20.6013   18.7545 H   0  0  0  0  0  0
  -26.9352  -19.0546   18.0718 H   0  0  0  0  0  0
  -33.3548  -20.8489   21.3483 H   0  0  0  0  0  0
  -32.4175  -19.4390   20.9573 H   0  0  0  0  0  0
  -32.0805  -20.3469   22.4423 H   0  0  0  0  0  0
  -28.7963  -22.8415   17.8188 H   0  0  0  0  0  0
  -29.7965  -21.4115   18.0361 H   0  0  0  0  0  0
  -30.4605  -22.9853   18.3506 H   0  0  0  0  0  0
  -29.8260  -20.3785   22.8148 H   0  0  0  0  0  0
  -28.3368  -21.1496   22.3121 H   0  0  0  0  0  0
  -29.7808  -22.1046   22.6408 H   0  0  0  0  0  0
  -31.6727  -21.2839   19.5606 H   0  0  0  0  0  0
  -31.5600  -22.3582   20.9159 H   0  0  0  0  0  0
  -28.9272  -23.8136   21.5710 H   0  0  0  0  0  0
  -30.1827  -24.1923   20.4465 H   0  0  0  0  0  0
  -27.1900  -24.6354   20.1464 H   0  0  0  0  0  0
  -28.2475  -24.8905   18.7858 H   0  0  0  0  0  0
  -28.0388  -22.0795   19.9677 H   0  0  0  0  0  0
  -29.1113  -15.4321   21.5363 H   0  0  0  0  0  0
  1 25  1  0  0  0
  1 30  2  0  0  0
  1 84  1  0  0  0
  2  3  1  0  0  0
  2 25  1  0  0  0
  2 86  1  0  0  0
  2 87  1  0  0  0
  3  4  1  0  0  0
  3 88  1  0  0  0
  3 89  1  0  0  0
  4  5  1  0  0  0
  4 90  1  0  0  0
  4 91  1  0  0  0
  5  6  1  0  0  0
  5 26  1  0  0  0
  5 92  1  0  0  0
  6 25  1  0  0  0
  6 93  1  0  0  0
  6 94  1  0  0  0
  7  8  2  0  0  0
  7 26  1  0  0  0
  7 29  1  0  0  0
  8  9  1  0  0  0
  8 22  1  0  0  0
  9 10  1  0  0  0
  9 27  2  0  0  0
 10 11  2  0  0  0
 10 15  1  0  0  0
 11 12  1  0  0  0
 11 95  1  0  0  0
 12 13  2  0  0  0
 12 96  1  0  0  0
 13 14  1  0  0  0
 13 31  1  0  0  0
 14 15  2  0  0  0
 14 97  1  0  0  0
 15 98  1  0  0  0
 16 17  2  0  0  0
 16 21  1  0  0  0
 16 31  1  0  0  0
 17 18  1  0  0  0
 17 99  1  0  0  0
 18 19  2  0  0  0
 18100  1  0  0  0
 19 20  1  0  0  0
 19 24  1  0  0  0
 20 21  2  0  0  0
 20101  1  0  0  0
 21 23  1  0  0  0
 22 28  1  0  0  0
 22 32  2  0  0  0
 26 27  1  0  0  0
 28102  1  0  0  0
 28103  1  0  0  0
 29104  1  0  0  0
 29105  1  0  0  0
 33 34  1  0  0  0
 33 66  1  0  0  0
 33 70  2  0  0  0
 34 36  1  0  0  0
 34 59  1  0  0  0
 34106  1  0  0  0
 35 44  2  0  0  0
 35 45  1  0  0  0
 35 68  1  0  0  0
 36 56  1  0  0  0
 36107  1  0  0  0
 37 39  1  0  0  0
 37 47  1  0  0  0
 37 66  1  0  0  0
 37108  1  0  0  0
 38 43  2  0  0  0
 38 46  1  0  0  0
 38 47  1  0  0  0
 39 64  1  0  0  0
 39 67  2  0  0  0
 40 52  1  0  0  0
 40 53  2  0  0  0
 40 58  1  0  0  0
 41109  1  0  0  0
 41110  1  0  0  0
 41111  1  0  0  0
 41 48  1  0  0  0
 42 43  1  0  0  0
 42 66  1  0  0  0
 42112  1  0  0  0
 42113  1  0  0  0
 43 44  1  0  0  0
 44114  1  0  0  0
 45 46  2  0  0  0
 45115  1  0  0  0
 46116  1  0  0  0
 47117  1  0  0  0
 47118  1  0  0  0
 48 56  1  0  0  0
 48 65  1  0  0  0
 48119  1  0  0  0
 49 50  1  0  0  0
 49 53  1  0  0  0
 49 64  1  0  0  0
 49120  1  0  0  0
 50 51  1  0  0  0
 50121  1  0  0  0
 50122  1  0  0  0
 51 52  1  0  0  0
 51123  1  0  0  0
 51124  1  0  0  0
 52125  1  0  0  0
 52126  1  0  0  0
 53 54  1  0  0  0
 54 55  2  0  0  0
 54127  1  0  0  0
 55 57  1  0  0  0
 55128  1  0  0  0
 56 69  2  0  0  0
 57 58  2  0  0  0
 57129  1  0  0  0
 58130  1  0  0  0
 59 60  1  0  0  0
 59 61  1  0  0  0
 59 62  1  0  0  0
 60131  1  0  0  0
 60132  1  0  0  0
 60133  1  0  0  0
 61134  1  0  0  0
 61135  1  0  0  0
 61136  1  0  0  0
 62137  1  0  0  0
 62138  1  0  0  0
 62139  1  0  0  0
 63 65  1  0  0  0
 63140  1  0  0  0
 63141  1  0  0  0
 63142  1  0  0  0
 64143  1  0  0  0
 65144  1  0  0  0
 68 81  1  0  0  0
 71 72  1  0  0  0
 71 74  2  0  0  0
 71145  1  0  0  0
 72 73  2  0  0  0
 72 83  1  0  0  0
 73 75  1  0  0  0
 73 85  1  0  0  0
 74 84  1  0  0  0
 74 85  1  0  0  0
 75146  1  0  0  0
 75147  1  0  0  0
 75148  1  0  0  0
 76 79  1  0  0  0
 76149  1  0  0  0
 76150  1  0  0  0
 76151  1  0  0  0
 77152  1  0  0  0
 77153  1  0  0  0
 77154  1  0  0  0
 77 82  1  0  0  0
 78155  1  0  0  0
 78156  1  0  0  0
 78157  1  0  0  0
 78 83  1  0  0  0
 79 83  1  0  0  0
 79158  1  0  0  0
 79159  1  0  0  0
 80 81  1  0  0  0
 80 82  1  0  0  0
 80160  1  0  0  0
 80161  1  0  0  0
 81162  1  0  0  0
 81163  1  0  0  0
 82 83  1  0  0  0
 82164  1  0  0  0
 84165  1  0  0  0
M  ISO  4   1 100  68 101  81 101  84 100
M  END
> <chiral flag>
0

> <version>
0

> <s_m_source_file>
/data/baiqing/PycharmProjects/Reinvent-master-3.2/result/LINK_invent/BTK/process_docking_weight1_custom_product_contain_oxygen_bond_distance_aromatic_linkinvent_7_9_3/rearranged_h_0141.sdf

> <i_m_source_file_index>
98

> <r_mmod_Potential_Energy-OPLS-2005>
201.85661315918

> <r_mmod_Stretch_Energy-OPLS-2005>
129.176391601562

> <r_mmod_Bend_Energy-OPLS-2005>
193.219619750977

> <r_mmod_Torsional_Energy-OPLS-2005>
266.150268554688

> <r_mmod_Improper_Torsional_Energy-OPLS-2005>
5.45382881164551

> <r_mmod_Van_der_Waal_Energy-OPLS-2005>
130.518615722656

> <r_mmod_Electrostatic_Energy-OPLS-2005>
-394.127746582031

> <r_mmod_Solvation_Energy-OPLS-2005>
-195.829437255859

> <b_mmod_Minimization_Converged-OPLS-2005>
0

> <r_mmod_RMS_Derivative-OPLS-2005>
2.76558589935303

$$$$
98
                    3D
 Structure written by MMmdl.
163172  0  0  1  0            999 V2000
  -30.7003  -14.5381   20.5060 C   0  0  0  0  0  0
  -30.4152  -12.3367   19.4306 C   0  0  0  0  0  0
  -29.4939  -12.5185   18.2060 C   0  0  0  0  0  0
  -28.0151  -12.3752   18.6144 C   0  0  0  0  0  0
  -27.6535  -13.2233   19.8653 C   0  0  2  0  0  0
  -28.7020  -13.0571   20.9883 C   0  0  0  0  0  0
  -25.2572  -13.8183   20.5773 C   0  0  0  0  0  0
  -24.1835  -13.0454   20.9208 C   0  0  0  0  0  0
  -24.6414  -11.6908   20.8731 C   0  0  0  0  0  0
  -23.9099  -10.4294   21.0372 C   0  0  0  0  0  0
  -24.3652   -9.4215   21.9166 C   0  0  0  0  0  0
  -23.6302   -8.2246   22.0748 C   0  0  0  0  0  0
  -22.4273   -8.0296   21.3552 C   0  0  0  0  0  0
  -21.9910   -9.0269   20.4654 C   0  0  0  0  0  0
  -22.7240  -10.2124   20.3051 C   0  0  0  0  0  0
  -21.6860   -6.0743   22.5271 C   0  0  0  0  0  0
  -21.4004   -6.5634   23.8211 C   0  0  0  0  0  0
  -21.3670   -5.6788   24.9171 C   0  0  0  0  0  0
  -21.6050   -4.3059   24.7207 C   0  0  0  0  0  0
  -21.8823   -3.8147   23.4333 C   0  0  0  0  0  0
  -21.9189   -4.6968   22.3388 C   0  0  0  0  0  0
  -22.7846  -13.5228   21.1879 C   0  0  0  0  0  0
  -22.1669   -4.2160   21.0967 F   0  0  0  0  0  0
  -21.5633   -3.4550   25.7733 F   0  0  0  0  0  0
  -30.0238  -13.3555   20.4192 N   0  0  0  0  0  0
  -26.3006  -12.9390   20.3347 N   0  0  0  0  0  0
  -25.9341  -11.6535   20.5728 N   0  0  0  0  0  0
  -22.0497  -12.8229   22.0416 N   0  0  0  0  0  0
  -25.4289  -15.1938   20.4311 N   0  0  0  0  0  0
  -31.8689  -14.6427   20.1301 O   0  0  0  0  0  0
  -21.6638   -6.8891   21.4240 O   0  0  0  0  0  0
  -22.3542  -14.5535   20.6714 O   0  0  0  0  0  0
  -24.6242  -31.8712   23.2188 C   0  0  0  0  0  0
  -25.9132  -32.4813   23.8471 C   0  0  1  0  0  0
  -27.1853  -27.3703   20.0806 C   0  0  0  0  0  0
  -25.6003  -33.8622   24.2394 N   0  0  0  0  0  0
  -23.4079  -30.5090   21.5599 C   0  0  2  0  0  0
  -24.8385  -28.9912   20.1004 C   0  0  0  0  0  0
  -22.7449  -29.4711   22.4984 C   0  0  0  0  0  0
  -18.0286  -28.1365   22.8492 C   0  0  0  0  0  0
  -24.1490  -36.7308   23.2595 C   0  0  0  0  0  0
  -25.9488  -30.8147   21.3865 C   0  0  0  0  0  0
  -26.0127  -29.4561   20.7067 C   0  0  0  0  0  0
  -27.1892  -28.6559   20.6935 C   0  0  0  0  0  0
  -25.9926  -26.9828   19.4236 C   0  0  0  0  0  0
  -24.8265  -27.7538   19.4562 C   0  0  0  0  0  0
  -23.6123  -29.8694   20.1641 C   0  0  0  0  0  0
  -25.4086  -36.3102   24.0348 C   0  0  1  0  0  0
  -20.5890  -28.3678   23.1267 C   0  0  2  0  0  0
  -20.6801  -26.9417   22.5359 C   0  0  0  0  0  0
  -19.5756  -26.6365   21.5199 C   0  0  0  0  0  0
  -18.1943  -26.7904   22.1635 C   0  0  0  0  0  0
  -19.1535  -28.8842   23.2881 C   0  0  0  0  0  0
  -18.9458  -30.1441   23.8912 C   0  0  0  0  0  0
  -17.6449  -30.6565   24.0578 C   0  0  0  0  0  0
  -25.9070  -34.9469   23.5155 C   0  0  0  0  0  0
  -16.5347  -29.9069   23.6324 C   0  0  0  0  0  0
  -16.7264  -28.6474   23.0371 C   0  0  0  0  0  0
  -26.4529  -31.6581   25.0804 C   0  0  0  0  0  0
  -25.3828  -31.3742   26.1589 C   0  0  0  0  0  0
  -27.0296  -30.2974   24.6256 C   0  0  0  0  0  0
  -27.6152  -32.4271   25.7520 C   0  0  0  0  0  0
  -27.5676  -37.1673   24.8361 C   0  0  0  0  0  0
  -21.4186  -29.3077   22.3690 N   0  0  0  0  0  0
  -26.4222  -37.3848   23.9552 N   0  0  0  0  0  0
  -24.6769  -31.0782   22.1101 N   0  0  0  0  0  0
  -23.4202  -28.8242   23.3018 O   0  0  0  0  0  0
  -28.2959  -26.5175   20.1573 O   0  0  0  0  0  0
  -26.5605  -34.8929   22.4704 O   0  0  0  0  0  0
  -23.5409  -32.1514   23.7556 O   0  0  0  0  0  0
  -31.5845  -18.9688   20.8044 C   0  0  0  0  0  0
  -31.5358  -17.5588   20.5528 C   0  0  0  0  0  0
  -30.4151  -19.4878   21.2998 C   0  0  0  0  0  0
  -30.3327  -16.9559   20.8610 C   0  0  0  0  0  0
  -30.8534  -23.3468   22.1339 C   0  0  0  0  0  0
  -29.8841  -24.4942   21.8313 C   0  0  0  0  0  0
  -29.5384  -22.7792   20.1574 C   0  0  0  0  0  0
  -30.5756  -22.1805   21.1460 C   0  0  2  0  0  0
  -29.4807  -24.3260   20.3689 C   0  0  1  0  0  0
  -28.0111  -24.8014   18.4219 C   0  0  0  0  0  0
  -26.9404  -24.4399   20.7652 C   0  0  0  0  0  0
  -30.1711  -20.8637   21.9044 C   0  0  0  0  0  0
  -28.1480  -25.0617   19.9501 C   0  0  0  0  0  0
  -29.9606  -15.6311   20.8314 N   0  0  0  0  0  0
  -29.2015  -18.2141   21.3600 S   0  0  0  0  0  0
  -31.4624  -12.4177   19.1355 H   0  0  0  0  0  0
  -30.3040  -11.3357   19.8499 H   0  0  0  0  0  0
  -29.7447  -11.7921   17.4325 H   0  0  0  0  0  0
  -29.6583  -13.5044   17.7661 H   0  0  0  0  0  0
  -27.8248  -11.3184   18.8070 H   0  0  0  0  0  0
  -27.3693  -12.6534   17.7799 H   0  0  0  0  0  0
  -27.6740  -14.2662   19.5476 H   0  0  0  0  0  0
  -28.6849  -12.0390   21.3777 H   0  0  0  0  0  0
  -28.4703  -13.7045   21.8359 H   0  0  0  0  0  0
  -25.2800   -9.5689   22.4739 H   0  0  0  0  0  0
  -24.0026   -7.4639   22.7454 H   0  0  0  0  0  0
  -21.0840   -8.8778   19.8956 H   0  0  0  0  0  0
  -22.3702  -10.9680   19.6172 H   0  0  0  0  0  0
  -21.1980   -7.6145   23.9723 H   0  0  0  0  0  0
  -21.1497   -6.0514   25.9082 H   0  0  0  0  0  0
  -22.0591   -2.7617   23.2818 H   0  0  0  0  0  0
  -22.4078  -11.9881   22.4815 H   0  0  0  0  0  0
  -21.1111  -13.1264   22.2624 H   0  0  0  0  0  0
  -24.6734  -15.8509   20.5908 H   0  0  0  0  0  0
  -26.2918  -15.6452   20.1543 H   0  0  0  0  0  0
  -26.7196  -32.5474   23.1211 H   0  0  0  0  0  0
  -25.0186  -33.9768   25.0557 H   0  0  0  0  0  0
  -22.7024  -31.3345   21.4366 H   0  0  0  0  0  0
  -23.3901  -35.9473   23.2857 H   0  0  0  0  0  0
  -24.3731  -36.9329   22.2113 H   0  0  0  0  0  0
  -23.6974  -37.6273   23.6852 H   0  0  0  0  0  0
  -26.0942  -31.5970   20.6409 H   0  0  0  0  0  0
  -26.8221  -30.8336   22.0255 H   0  0  0  0  0  0
  -28.0842  -29.0111   21.1864 H   0  0  0  0  0  0
  -25.8882  -26.0399   18.9160 H   0  0  0  0  0  0
  -23.9249  -27.3914   18.9817 H   0  0  0  0  0  0
  -23.7408  -30.6610   19.4234 H   0  0  0  0  0  0
  -22.7245  -29.3154   19.8533 H   0  0  0  0  0  0
  -25.1192  -36.1913   25.0817 H   0  0  0  0  0  0
  -20.9984  -28.3216   24.1391 H   0  0  0  0  0  0
  -20.5714  -26.2307   23.3555 H   0  0  0  0  0  0
  -21.6668  -26.7483   22.1126 H   0  0  0  0  0  0
  -19.6923  -25.6268   21.1243 H   0  0  0  0  0  0
  -19.6649  -27.3172   20.6717 H   0  0  0  0  0  0
  -17.4202  -26.6625   21.4064 H   0  0  0  0  0  0
  -18.0378  -26.0030   22.9009 H   0  0  0  0  0  0
  -19.7930  -30.7269   24.2288 H   0  0  0  0  0  0
  -17.4994  -31.6260   24.5150 H   0  0  0  0  0  0
  -15.5346  -30.2992   23.7612 H   0  0  0  0  0  0
  -15.8656  -28.0770   22.7139 H   0  0  0  0  0  0
  -24.5782  -30.7374   25.7890 H   0  0  0  0  0  0
  -24.9338  -32.2941   26.5342 H   0  0  0  0  0  0
  -25.8160  -30.8579   27.0159 H   0  0  0  0  0  0
  -26.2814  -29.6737   24.1345 H   0  0  0  0  0  0
  -27.3983  -29.7245   25.4769 H   0  0  0  0  0  0
  -27.8724  -30.4190   23.9453 H   0  0  0  0  0  0
  -27.2791  -33.3485   26.2283 H   0  0  0  0  0  0
  -28.3844  -32.6963   25.0272 H   0  0  0  0  0  0
  -28.0958  -31.8293   26.5265 H   0  0  0  0  0  0
  -28.2266  -38.0364   24.8104 H   0  0  0  0  0  0
  -28.1579  -36.3034   24.5283 H   0  0  0  0  0  0
  -27.2564  -37.0177   25.8713 H   0  0  0  0  0  0
  -20.9347  -29.8827   21.6936 H   0  0  0  0  0  0
  -26.0092  -38.2802   24.2000 H   0  0  0  0  0  0
  -32.5000  -19.5301   20.6695 H   0  0  0  0  0  0
  -32.4160  -17.0438   20.1969 H   0  0  0  0  0  0
  -30.6958  -23.0418   23.1687 H   0  0  0  0  0  0
  -31.8850  -23.6906   22.0460 H   0  0  0  0  0  0
  -30.2872  -25.4931   22.0217 H   0  0  0  0  0  0
  -29.0417  -24.3505   22.5028 H   0  0  0  0  0  0
  -28.5648  -22.3223   20.3276 H   0  0  0  0  0  0
  -29.8209  -22.5556   19.1273 H   0  0  0  0  0  0
  -31.5152  -21.9942   20.6214 H   0  0  0  0  0  0
  -30.3021  -24.7421   19.7737 H   0  0  0  0  0  0
  -27.3333  -23.9721   18.2190 H   0  0  0  0  0  0
  -28.9610  -24.5292   17.9584 H   0  0  0  0  0  0
  -27.6592  -25.6584   17.8498 H   0  0  0  0  0  0
  -26.6794  -23.4511   20.3938 H   0  0  0  0  0  0
  -25.9991  -24.9754   20.7365 H   0  0  0  0  0  0
  -27.1085  -24.3300   21.8323 H   0  0  0  0  0  0
  -30.7634  -20.8463   22.8210 H   0  0  0  0  0  0
  -29.1418  -20.9332   22.2612 H   0  0  0  0  0  0
  -28.9965  -15.4413   21.0573 H   0  0  0  0  0  0
  1 25  1  0  0  0
  1 30  2  0  0  0
  1 84  1  0  0  0
  2  3  1  0  0  0
  2 25  1  0  0  0
  2 86  1  0  0  0
  2 87  1  0  0  0
  3  4  1  0  0  0
  3 88  1  0  0  0
  3 89  1  0  0  0
  4  5  1  0  0  0
  4 90  1  0  0  0
  4 91  1  0  0  0
  5  6  1  0  0  0
  5 26  1  0  0  0
  5 92  1  0  0  0
  6 25  1  0  0  0
  6 93  1  0  0  0
  6 94  1  0  0  0
  7  8  2  0  0  0
  7 26  1  0  0  0
  7 29  1  0  0  0
  8  9  1  0  0  0
  8 22  1  0  0  0
  9 10  1  0  0  0
  9 27  2  0  0  0
 10 11  2  0  0  0
 10 15  1  0  0  0
 11 12  1  0  0  0
 11 95  1  0  0  0
 12 13  2  0  0  0
 12 96  1  0  0  0
 13 14  1  0  0  0
 13 31  1  0  0  0
 14 15  2  0  0  0
 14 97  1  0  0  0
 15 98  1  0  0  0
 16 17  2  0  0  0
 16 21  1  0  0  0
 16 31  1  0  0  0
 17 18  1  0  0  0
 17 99  1  0  0  0
 18 19  2  0  0  0
 18100  1  0  0  0
 19 20  1  0  0  0
 19 24  1  0  0  0
 20 21  2  0  0  0
 20101  1  0  0  0
 21 23  1  0  0  0
 22 28  1  0  0  0
 22 32  2  0  0  0
 26 27  1  0  0  0
 28102  1  0  0  0
 28103  1  0  0  0
 29104  1  0  0  0
 29105  1  0  0  0
 33 34  1  0  0  0
 33 66  1  0  0  0
 33 70  2  0  0  0
 34 36  1  0  0  0
 34 59  1  0  0  0
 34106  1  0  0  0
 35 44  2  0  0  0
 35 45  1  0  0  0
 35 68  1  0  0  0
 36 56  1  0  0  0
 36107  1  0  0  0
 37 39  1  0  0  0
 37 47  1  0  0  0
 37 66  1  0  0  0
 37108  1  0  0  0
 38 43  2  0  0  0
 38 46  1  0  0  0
 38 47  1  0  0  0
 39 64  1  0  0  0
 39 67  2  0  0  0
 40 52  1  0  0  0
 40 53  2  0  0  0
 40 58  1  0  0  0
 41109  1  0  0  0
 41110  1  0  0  0
 41111  1  0  0  0
 41 48  1  0  0  0
 42 43  1  0  0  0
 42 66  1  0  0  0
 42112  1  0  0  0
 42113  1  0  0  0
 43 44  1  0  0  0
 44114  1  0  0  0
 45 46  2  0  0  0
 45115  1  0  0  0
 46116  1  0  0  0
 47117  1  0  0  0
 47118  1  0  0  0
 48 56  1  0  0  0
 48 65  1  0  0  0
 48119  1  0  0  0
 49 50  1  0  0  0
 49 53  1  0  0  0
 49 64  1  0  0  0
 49120  1  0  0  0
 50 51  1  0  0  0
 50121  1  0  0  0
 50122  1  0  0  0
 51 52  1  0  0  0
 51123  1  0  0  0
 51124  1  0  0  0
 52125  1  0  0  0
 52126  1  0  0  0
 53 54  1  0  0  0
 54 55  2  0  0  0
 54127  1  0  0  0
 55 57  1  0  0  0
 55128  1  0  0  0
 56 69  2  0  0  0
 57 58  2  0  0  0
 57129  1  0  0  0
 58130  1  0  0  0
 59 60  1  0  0  0
 59 61  1  0  0  0
 59 62  1  0  0  0
 60131  1  0  0  0
 60132  1  0  0  0
 60133  1  0  0  0
 61134  1  0  0  0
 61135  1  0  0  0
 61136  1  0  0  0
 62137  1  0  0  0
 62138  1  0  0  0
 62139  1  0  0  0
 63 65  1  0  0  0
 63140  1  0  0  0
 63141  1  0  0  0
 63142  1  0  0  0
 64143  1  0  0  0
 65144  1  0  0  0
 68 83  1  0  0  0
 71 72  1  0  0  0
 71 73  2  0  0  0
 71145  1  0  0  0
 72 74  2  0  0  0
 72146  1  0  0  0
 73 82  1  0  0  0
 73 85  1  0  0  0
 74 84  1  0  0  0
 74 85  1  0  0  0
 75 76  1  0  0  0
 75 78  1  0  0  0
 75147  1  0  0  0
 75148  1  0  0  0
 76149  1  0  0  0
 76150  1  0  0  0
 76 79  1  0  0  0
 77 78  1  0  0  0
 77 79  1  0  0  0
 77151  1  0  0  0
 77152  1  0  0  0
 78 82  1  0  0  0
 78153  1  0  0  0
 79 83  1  0  0  0
 79154  1  0  0  0
 80155  1  0  0  0
 80156  1  0  0  0
 80157  1  0  0  0
 80 83  1  0  0  0
 81 83  1  0  0  0
 81158  1  0  0  0
 81159  1  0  0  0
 81160  1  0  0  0
 82161  1  0  0  0
 82162  1  0  0  0
 84163  1  0  0  0
M  ISO  4   1 100  68 101  83 101  84 100
M  END
> <chiral flag>
0

> <version>
0

> <s_m_source_file>
/data/baiqing/PycharmProjects/Reinvent-master-3.2/result/LINK_invent/BTK/process_docking_weight1_custom_product_contain_oxygen_bond_distance_aromatic_linkinvent_7_9_3/rearranged_h_0141.sdf

> <i_m_source_file_index>
99

> <r_mmod_Potential_Energy-OPLS-2005>
114.275398254395

> <r_mmod_Stretch_Energy-OPLS-2005>
58.0573272705078

> <r_mmod_Bend_Energy-OPLS-2005>
157.703079223633

> <r_mmod_Torsional_Energy-OPLS-2005>
282.755950927734

> <r_mmod_Improper_Torsional_Energy-OPLS-2005>
5.01958131790161

> <r_mmod_Van_der_Waal_Energy-OPLS-2005>
156.885208129883

> <r_mmod_Electrostatic_Energy-OPLS-2005>
-391.300109863281

> <r_mmod_Solvation_Energy-OPLS-2005>
-189.563369750977

> <b_mmod_Minimization_Converged-OPLS-2005>
0

> <r_mmod_RMS_Derivative-OPLS-2005>
7.02441310882568

$$$$
