0
                    3D
 Structure written by MMmdl.
150159  0  0  1  0            999 V2000
  -30.5673  -14.7179   20.5004 C   0  0  0  0  0  0
  -30.4477  -12.4351   19.4660 C   0  0  0  0  0  0
  -29.5145  -12.5020   18.2331 C   0  0  0  0  0  0
  -28.0401  -12.3101   18.6430 C   0  0  0  0  0  0
  -27.6464  -13.2038   19.8470 C   0  0  2  0  0  0
  -28.6895  -13.1037   20.9829 C   0  0  0  0  0  0
  -25.2563  -13.8127   20.5640 C   0  0  0  0  0  0
  -24.1831  -13.0421   20.9177 C   0  0  0  0  0  0
  -24.6389  -11.6883   20.8738 C   0  0  0  0  0  0
  -23.9059  -10.4285   21.0425 C   0  0  0  0  0  0
  -24.3613   -9.4203   21.9199 C   0  0  0  0  0  0
  -23.6302   -8.2231   22.0759 C   0  0  0  0  0  0
  -22.4287   -8.0274   21.3547 C   0  0  0  0  0  0
  -21.9914   -9.0244   20.4649 C   0  0  0  0  0  0
  -22.7234  -10.2129   20.3074 C   0  0  0  0  0  0
  -21.6851   -6.0754   22.5290 C   0  0  0  0  0  0
  -21.4004   -6.5657   23.8223 C   0  0  0  0  0  0
  -21.3664   -5.6810   24.9185 C   0  0  0  0  0  0
  -21.6045   -4.3071   24.7229 C   0  0  0  0  0  0
  -21.8816   -3.8166   23.4347 C   0  0  0  0  0  0
  -21.9193   -4.6983   22.3410 C   0  0  0  0  0  0
  -22.7856  -13.5225   21.1863 C   0  0  0  0  0  0
  -22.1675   -4.2175   21.0987 F   0  0  0  0  0  0
  -21.5620   -3.4552   25.7737 F   0  0  0  0  0  0
  -29.9995  -13.4658   20.4265 N   0  0  0  0  0  0
  -26.2957  -12.9273   20.3222 N   0  0  0  0  0  0
  -25.9307  -11.6455   20.5743 N   0  0  0  0  0  0
  -22.0504  -12.8225   22.0423 N   0  0  0  0  0  0
  -25.4287  -15.1850   20.4056 N   0  0  0  0  0  0
  -31.7331  -14.8814   20.1203 O   0  0  0  0  0  0
  -21.6644   -6.8885   21.4247 O   0  0  0  0  0  0
  -22.3542  -14.5544   20.6720 O   0  0  0  0  0  0
  -24.6275  -31.8572   23.2008 C   0  0  0  0  0  0
  -25.9117  -32.4763   23.8346 C   0  0  1  0  0  0
  -27.2214  -27.2833   20.1403 C   0  0  0  0  0  0
  -25.5924  -33.8571   24.2261 N   0  0  0  0  0  0
  -23.4229  -30.4783   21.5441 C   0  0  2  0  0  0
  -24.8698  -28.9235   20.1175 C   0  0  0  0  0  0
  -22.7491  -29.4612   22.4947 C   0  0  0  0  0  0
  -18.0310  -28.1378   22.8488 C   0  0  0  0  0  0
  -24.1489  -36.7282   23.2641 C   0  0  0  0  0  0
  -25.9651  -30.7775   21.3773 C   0  0  0  0  0  0
  -26.0401  -29.4003   20.7226 C   0  0  0  0  0  0
  -27.2213  -28.5940   20.7199 C   0  0  0  0  0  0
  -26.0319  -26.8670   19.5054 C   0  0  0  0  0  0
  -24.8690  -27.6625   19.4998 C   0  0  0  0  0  0
  -23.6392  -29.8093   20.1612 C   0  0  0  0  0  0
  -25.4112  -36.3069   24.0324 C   0  0  1  0  0  0
  -20.5897  -28.3704   23.1279 C   0  0  2  0  0  0
  -20.6797  -26.9434   22.5412 C   0  0  0  0  0  0
  -19.5773  -26.6365   21.5218 C   0  0  0  0  0  0
  -18.1945  -26.7919   22.1627 C   0  0  0  0  0  0
  -19.1554  -28.8857   23.2868 C   0  0  0  0  0  0
  -18.9485  -30.1453   23.8893 C   0  0  0  0  0  0
  -17.6492  -30.6592   24.0558 C   0  0  0  0  0  0
  -25.9056  -34.9446   23.5093 C   0  0  0  0  0  0
  -16.5385  -29.9088   23.6323 C   0  0  0  0  0  0
  -16.7298  -28.6491   23.0369 C   0  0  0  0  0  0
  -26.4497  -31.6583   25.0725 C   0  0  0  0  0  0
  -25.3712  -31.3767   26.1443 C   0  0  0  0  0  0
  -27.0359  -30.2990   24.6236 C   0  0  0  0  0  0
  -27.6026  -32.4352   25.7509 C   0  0  0  0  0  0
  -27.5574  -37.1799   24.8467 C   0  0  0  0  0  0
  -21.4204  -29.3058   22.3691 N   0  0  0  0  0  0
  -26.4284  -37.3767   23.9409 N   0  0  0  0  0  0
  -24.6905  -31.0561   22.0968 N   0  0  0  0  0  0
  -23.4199  -28.8161   23.3046 O   0  0  0  0  0  0
  -28.3243  -26.4067   20.1568 O   0  0  0  0  0  0
  -26.5644  -34.8924   22.4672 O   0  0  0  0  0  0
  -23.5435  -32.1396   23.7325 O   0  0  0  0  0  0
  -29.7341  -18.6872   19.8484 C   0  0  0  0  0  0
  -30.0162  -17.4916   20.6358 C   0  0  0  0  0  0
  -30.0675  -17.7778   22.0336 C   0  0  0  0  0  0
  -29.5547  -19.8653   20.6172 C   0  0  0  0  0  0
  -28.8936  -22.3290   20.7639 C   0  0  0  0  0  0
  -29.7125  -16.3800   22.4311 C   0  0  0  0  0  0
  -29.6551  -15.9866   20.8848 C   0  0  2  0  0  0
  -28.9265  -23.7445   20.0177 C   0  0  0  0  0  0
  -28.1148  -24.9987   20.6332 C   0  0  0  0  0  0
  -29.3525  -21.1755   20.1483 N   0  0  0  0  0  0
  -28.4321  -22.2981   21.9066 O   0  0  0  0  0  0
  -29.5441  -19.4161   22.3580 S   0  0  0  0  0  0
  -31.4857  -12.5811   19.1622 H   0  0  0  0  0  0
  -30.4050  -11.4470   19.9282 H   0  0  0  0  0  0
  -29.8022  -11.7474   17.4998 H   0  0  0  0  0  0
  -29.6279  -13.4660   17.7362 H   0  0  0  0  0  0
  -27.9014  -11.2585   18.8986 H   0  0  0  0  0  0
  -27.3816  -12.5038   17.7951 H   0  0  0  0  0  0
  -27.6441  -14.2216   19.4618 H   0  0  0  0  0  0
  -28.7203  -12.0905   21.3875 H   0  0  0  0  0  0
  -28.4175  -13.7480   21.8195 H   0  0  0  0  0  0
  -25.2758   -9.5687   22.4771 H   0  0  0  0  0  0
  -24.0029   -7.4627   22.7471 H   0  0  0  0  0  0
  -21.0853   -8.8762   19.8948 H   0  0  0  0  0  0
  -22.3699  -10.9673   19.6193 H   0  0  0  0  0  0
  -21.1987   -7.6164   23.9732 H   0  0  0  0  0  0
  -21.1498   -6.0540   25.9092 H   0  0  0  0  0  0
  -22.0586   -2.7630   23.2836 H   0  0  0  0  0  0
  -22.4132  -11.9877   22.4786 H   0  0  0  0  0  0
  -21.1123  -13.1230   22.2652 H   0  0  0  0  0  0
  -24.6609  -15.8373   20.5262 H   0  0  0  0  0  0
  -26.2747  -15.6280   20.0715 H   0  0  0  0  0  0
  -26.7178  -32.5431   23.1092 H   0  0  0  0  0  0
  -25.0053  -33.9718   25.0395 H   0  0  0  0  0  0
  -22.7170  -31.2979   21.4004 H   0  0  0  0  0  0
  -23.3748  -35.9618   23.3307 H   0  0  0  0  0  0
  -24.3564  -36.8908   22.2051 H   0  0  0  0  0  0
  -23.7261  -37.6488   23.6669 H   0  0  0  0  0  0
  -26.1031  -31.5416   20.6106 H   0  0  0  0  0  0
  -26.8394  -30.8229   22.0148 H   0  0  0  0  0  0
  -28.1192  -28.9578   21.2003 H   0  0  0  0  0  0
  -25.9920  -25.9022   19.0187 H   0  0  0  0  0  0
  -23.9728  -27.2920   19.0221 H   0  0  0  0  0  0
  -23.7687  -30.5851   19.4067 H   0  0  0  0  0  0
  -22.7571  -29.2440   19.8542 H   0  0  0  0  0  0
  -25.1300  -36.1900   25.0812 H   0  0  0  0  0  0
  -20.9971  -28.3296   24.1407 H   0  0  0  0  0  0
  -20.5698  -26.2327   23.3603 H   0  0  0  0  0  0
  -21.6681  -26.7466   22.1237 H   0  0  0  0  0  0
  -19.6950  -25.6268   21.1287 H   0  0  0  0  0  0
  -19.6700  -27.3146   20.6729 H   0  0  0  0  0  0
  -17.4226  -26.6663   21.4029 H   0  0  0  0  0  0
  -18.0304  -26.0045   22.9004 H   0  0  0  0  0  0
  -19.7961  -30.7268   24.2270 H   0  0  0  0  0  0
  -17.5076  -31.6263   24.5179 H   0  0  0  0  0  0
  -15.5397  -30.3015   23.7639 H   0  0  0  0  0  0
  -15.8701  -28.0791   22.7100 H   0  0  0  0  0  0
  -24.5854  -30.7155   25.7780 H   0  0  0  0  0  0
  -24.8951  -32.2966   26.4844 H   0  0  0  0  0  0
  -25.7996  -30.8949   27.0240 H   0  0  0  0  0  0
  -26.2969  -29.6729   24.1221 H   0  0  0  0  0  0
  -27.3989  -29.7255   25.4778 H   0  0  0  0  0  0
  -27.8864  -30.4250   23.9528 H   0  0  0  0  0  0
  -27.2579  -33.3639   26.2078 H   0  0  0  0  0  0
  -28.3833  -32.6948   25.0345 H   0  0  0  0  0  0
  -28.0700  -31.8503   26.5445 H   0  0  0  0  0  0
  -28.2599  -38.0092   24.7496 H   0  0  0  0  0  0
  -28.1063  -36.2618   24.6304 H   0  0  0  0  0  0
  -27.2295  -37.1469   25.8876 H   0  0  0  0  0  0
  -20.9383  -29.8799   21.6917 H   0  0  0  0  0  0
  -26.0156  -38.2842   24.1394 H   0  0  0  0  0  0
  -29.6008  -18.6367   18.7764 H   0  0  0  0  0  0
  -28.7493  -16.3067   22.9379 H   0  0  0  0  0  0
  -30.5083  -15.8866   22.9901 H   0  0  0  0  0  0
  -28.6264  -15.8187   20.5764 H   0  0  0  0  0  0
  -28.5955  -23.5859   18.9917 H   0  0  0  0  0  0
  -29.9765  -24.0265   19.9475 H   0  0  0  0  0  0
  -28.3362  -25.0330   21.7001 H   0  0  0  0  0  0
  -27.0582  -24.7376   20.5959 H   0  0  0  0  0  0
  -29.6283  -21.3223   19.1855 H   0  0  0  0  0  0
  1 25  1  0  0  0
  1 30  2  0  0  0
  1 77  1  0  0  0
  2  3  1  0  0  0
  2 25  1  0  0  0
  2 83  1  0  0  0
  2 84  1  0  0  0
  3  4  1  0  0  0
  3 85  1  0  0  0
  3 86  1  0  0  0
  4  5  1  0  0  0
  4 87  1  0  0  0
  4 88  1  0  0  0
  5  6  1  0  0  0
  5 26  1  0  0  0
  5 89  1  0  0  0
  6 25  1  0  0  0
  6 90  1  0  0  0
  6 91  1  0  0  0
  7  8  2  0  0  0
  7 26  1  0  0  0
  7 29  1  0  0  0
  8  9  1  0  0  0
  8 22  1  0  0  0
  9 10  1  0  0  0
  9 27  2  0  0  0
 10 11  2  0  0  0
 10 15  1  0  0  0
 11 12  1  0  0  0
 11 92  1  0  0  0
 12 13  2  0  0  0
 12 93  1  0  0  0
 13 14  1  0  0  0
 13 31  1  0  0  0
 14 15  2  0  0  0
 14 94  1  0  0  0
 15 95  1  0  0  0
 16 17  2  0  0  0
 16 21  1  0  0  0
 16 31  1  0  0  0
 17 18  1  0  0  0
 17 96  1  0  0  0
 18 19  2  0  0  0
 18 97  1  0  0  0
 19 20  1  0  0  0
 19 24  1  0  0  0
 20 21  2  0  0  0
 20 98  1  0  0  0
 21 23  1  0  0  0
 22 28  1  0  0  0
 22 32  2  0  0  0
 26 27  1  0  0  0
 28 99  1  0  0  0
 28100  1  0  0  0
 29101  1  0  0  0
 29102  1  0  0  0
 33 34  1  0  0  0
 33 66  1  0  0  0
 33 70  2  0  0  0
 34 36  1  0  0  0
 34 59  1  0  0  0
 34103  1  0  0  0
 35 44  2  0  0  0
 35 45  1  0  0  0
 35 68  1  0  0  0
 36 56  1  0  0  0
 36104  1  0  0  0
 37 39  1  0  0  0
 37 47  1  0  0  0
 37 66  1  0  0  0
 37105  1  0  0  0
 38 43  2  0  0  0
 38 46  1  0  0  0
 38 47  1  0  0  0
 39 64  1  0  0  0
 39 67  2  0  0  0
 40 52  1  0  0  0
 40 53  2  0  0  0
 40 58  1  0  0  0
 41106  1  0  0  0
 41107  1  0  0  0
 41108  1  0  0  0
 41 48  1  0  0  0
 42 43  1  0  0  0
 42 66  1  0  0  0
 42109  1  0  0  0
 42110  1  0  0  0
 43 44  1  0  0  0
 44111  1  0  0  0
 45 46  2  0  0  0
 45112  1  0  0  0
 46113  1  0  0  0
 47114  1  0  0  0
 47115  1  0  0  0
 48 56  1  0  0  0
 48 65  1  0  0  0
 48116  1  0  0  0
 49 50  1  0  0  0
 49 53  1  0  0  0
 49 64  1  0  0  0
 49117  1  0  0  0
 50 51  1  0  0  0
 50118  1  0  0  0
 50119  1  0  0  0
 51 52  1  0  0  0
 51120  1  0  0  0
 51121  1  0  0  0
 52122  1  0  0  0
 52123  1  0  0  0
 53 54  1  0  0  0
 54 55  2  0  0  0
 54124  1  0  0  0
 55 57  1  0  0  0
 55125  1  0  0  0
 56 69  2  0  0  0
 57 58  2  0  0  0
 57126  1  0  0  0
 58127  1  0  0  0
 59 60  1  0  0  0
 59 61  1  0  0  0
 59 62  1  0  0  0
 60128  1  0  0  0
 60129  1  0  0  0
 60130  1  0  0  0
 61131  1  0  0  0
 61132  1  0  0  0
 61133  1  0  0  0
 62134  1  0  0  0
 62135  1  0  0  0
 62136  1  0  0  0
 63 65  1  0  0  0
 63137  1  0  0  0
 63138  1  0  0  0
 63139  1  0  0  0
 64140  1  0  0  0
 65141  1  0  0  0
 68 79  1  0  0  0
 71 72  1  0  0  0
 71 74  2  0  0  0
 71142  1  0  0  0
 72 73  2  0  0  0
 72 77  1  0  0  0
 73 76  1  0  0  0
 73 82  1  0  0  0
 74 80  1  0  0  0
 74 82  1  0  0  0
 75 78  1  0  0  0
 75 80  1  0  0  0
 75 81  2  0  0  0
 76 77  1  0  0  0
 76143  1  0  0  0
 76144  1  0  0  0
 77145  1  0  0  0
 78 79  1  0  0  0
 78146  1  0  0  0
 78147  1  0  0  0
 79148  1  0  0  0
 79149  1  0  0  0
 80150  1  0  0  0
M  ISO  4   1 100  68 101  77 100  79 101
M  END
> <chiral flag>
0

> <version>
0

> <s_m_source_file>
/data/baiqing/PycharmProjects/Reinvent-master-3.2/result/LINK_invent/BTK/process_docking_weight1_custom_product_contain_oxygen_bond_distance_aromatic_linkinvent_7_9_3/rearranged_h_0150.sdf

> <i_m_source_file_index>
1

> <r_mmod_Potential_Energy-OPLS-2005>
551.176330566406

> <r_mmod_Stretch_Energy-OPLS-2005>
119.982414245605

> <r_mmod_Bend_Energy-OPLS-2005>
509.32666015625

> <r_mmod_Torsional_Energy-OPLS-2005>
251.358337402344

> <r_mmod_Improper_Torsional_Energy-OPLS-2005>
43.2406921386719

> <r_mmod_Van_der_Waal_Energy-OPLS-2005>
117.397590637207

> <r_mmod_Electrostatic_Energy-OPLS-2005>
-330.641967773438

> <r_mmod_Solvation_Energy-OPLS-2005>
-231.568801879883

> <b_mmod_Minimization_Converged-OPLS-2005>
0

> <r_mmod_RMS_Derivative-OPLS-2005>
1.99368345737457

$$$$
1
                    3D
 Structure written by MMmdl.
152161  0  0  1  0            999 V2000
  -30.7150  -14.5199   20.5443 C   0  0  0  0  0  0
  -30.4125  -12.3291   19.4397 C   0  0  0  0  0  0
  -29.5003  -12.5123   18.2101 C   0  0  0  0  0  0
  -28.0191  -12.3703   18.6170 C   0  0  0  0  0  0
  -27.6546  -13.2220   19.8631 C   0  0  2  0  0  0
  -28.6974  -13.0555   20.9923 C   0  0  0  0  0  0
  -25.2550  -13.8198   20.5680 C   0  0  0  0  0  0
  -24.1834  -13.0443   20.9182 C   0  0  0  0  0  0
  -24.6411  -11.6921   20.8709 C   0  0  0  0  0  0
  -23.9090  -10.4299   21.0371 C   0  0  0  0  0  0
  -24.3624   -9.4214   21.9162 C   0  0  0  0  0  0
  -23.6295   -8.2255   22.0758 C   0  0  0  0  0  0
  -22.4281   -8.0292   21.3544 C   0  0  0  0  0  0
  -21.9913   -9.0259   20.4641 C   0  0  0  0  0  0
  -22.7248  -10.2129   20.3038 C   0  0  0  0  0  0
  -21.6869   -6.0733   22.5278 C   0  0  0  0  0  0
  -21.4020   -6.5636   23.8205 C   0  0  0  0  0  0
  -21.3657   -5.6784   24.9171 C   0  0  0  0  0  0
  -21.6058   -4.3049   24.7227 C   0  0  0  0  0  0
  -21.8809   -3.8130   23.4340 C   0  0  0  0  0  0
  -21.9186   -4.6956   22.3396 C   0  0  0  0  0  0
  -22.7840  -13.5225   21.1828 C   0  0  0  0  0  0
  -22.1658   -4.2125   21.0972 F   0  0  0  0  0  0
  -21.5628   -3.4525   25.7738 F   0  0  0  0  0  0
  -30.0199  -13.3520   20.4241 N   0  0  0  0  0  0
  -26.2997  -12.9394   20.3301 N   0  0  0  0  0  0
  -25.9343  -11.6541   20.5718 N   0  0  0  0  0  0
  -22.0475  -12.8237   22.0389 N   0  0  0  0  0  0
  -25.4250  -15.1917   20.4134 N   0  0  0  0  0  0
  -31.8813  -14.6144   20.1578 O   0  0  0  0  0  0
  -21.6663   -6.8881   21.4239 O   0  0  0  0  0  0
  -22.3516  -14.5502   20.6633 O   0  0  0  0  0  0
  -24.6206  -31.8636   23.2083 C   0  0  0  0  0  0
  -25.9080  -32.4798   23.8393 C   0  0  1  0  0  0
  -27.2160  -27.3879   20.1199 C   0  0  0  0  0  0
  -25.5920  -33.8598   24.2314 N   0  0  0  0  0  0
  -23.4104  -30.4903   21.5480 C   0  0  2  0  0  0
  -24.8532  -28.9499   20.1117 C   0  0  0  0  0  0
  -22.7450  -29.4649   22.4954 C   0  0  0  0  0  0
  -18.0285  -28.1393   22.8497 C   0  0  0  0  0  0
  -24.1482  -36.7303   23.2634 C   0  0  0  0  0  0
  -25.9437  -30.8192   21.3660 C   0  0  0  0  0  0
  -26.0164  -29.4509   20.7112 C   0  0  0  0  0  0
  -27.2060  -28.6799   20.7044 C   0  0  0  0  0  0
  -26.0378  -26.9104   19.5122 C   0  0  0  0  0  0
  -24.8606  -27.6826   19.5031 C   0  0  0  0  0  0
  -23.6197  -29.8253   20.1612 C   0  0  0  0  0  0
  -25.4099  -36.3086   24.0330 C   0  0  1  0  0  0
  -20.5883  -28.3675   23.1305 C   0  0  2  0  0  0
  -20.6768  -26.9408   22.5415 C   0  0  0  0  0  0
  -19.5746  -26.6391   21.5215 C   0  0  0  0  0  0
  -18.1924  -26.7942   22.1621 C   0  0  0  0  0  0
  -19.1536  -28.8852   23.2893 C   0  0  0  0  0  0
  -18.9456  -30.1464   23.8894 C   0  0  0  0  0  0
  -17.6451  -30.6584   24.0575 C   0  0  0  0  0  0
  -25.9038  -34.9454   23.5113 C   0  0  0  0  0  0
  -16.5346  -29.9085   23.6344 C   0  0  0  0  0  0
  -16.7270  -28.6516   23.0347 C   0  0  0  0  0  0
  -26.4481  -31.6594   25.0745 C   0  0  0  0  0  0
  -25.3737  -31.3738   26.1486 C   0  0  0  0  0  0
  -27.0299  -30.3022   24.6165 C   0  0  0  0  0  0
  -27.6052  -32.4311   25.7512 C   0  0  0  0  0  0
  -27.5584  -37.1790   24.8447 C   0  0  0  0  0  0
  -21.4169  -29.3026   22.3694 N   0  0  0  0  0  0
  -26.4271  -37.3788   23.9424 N   0  0  0  0  0  0
  -24.6770  -31.0728   22.0991 N   0  0  0  0  0  0
  -23.4206  -28.8181   23.2999 O   0  0  0  0  0  0
  -28.3442  -26.5905   20.1277 O   0  0  0  0  0  0
  -26.5593  -34.8915   22.4669 O   0  0  0  0  0  0
  -23.5384  -32.1379   23.7467 O   0  0  0  0  0  0
  -28.7519  -19.1669   21.1190 C   0  0  0  0  0  0
  -29.8200  -18.2258   20.9828 C   0  0  0  0  0  0
  -30.8339  -18.6863   20.1175 C   0  0  0  0  0  0
  -29.0255  -20.3333   20.3842 C   0  0  0  0  0  0
  -28.2347  -24.0519   20.1842 C   0  0  0  0  0  0
  -31.7138  -17.5094   20.2416 C   0  0  0  0  0  0
  -30.6061  -16.9479   21.2825 C   0  0  2  0  0  0
  -28.7039  -22.7550   20.9103 C   0  0  0  0  0  0
  -28.2541  -25.4006   20.9632 C   0  0  0  0  0  0
  -28.2399  -21.4973   20.2822 N   0  0  0  0  0  0
  -30.0311  -15.6126   20.9649 N   0  0  0  0  0  0
  -27.8414  -23.9877   19.0132 O   0  0  0  0  0  0
  -30.5678  -20.2602   19.4738 S   0  0  0  0  0  0
  -31.4627  -12.3998   19.1542 H   0  0  0  0  0  0
  -30.2879  -11.3326   19.8626 H   0  0  0  0  0  0
  -29.7569  -11.7856   17.4391 H   0  0  0  0  0  0
  -29.6684  -13.4955   17.7676 H   0  0  0  0  0  0
  -27.8315  -11.3167   18.8206 H   0  0  0  0  0  0
  -27.3680  -12.6348   17.7815 H   0  0  0  0  0  0
  -27.6815  -14.2632   19.5423 H   0  0  0  0  0  0
  -28.6835  -12.0375   21.3827 H   0  0  0  0  0  0
  -28.4598  -13.7034   21.8372 H   0  0  0  0  0  0
  -25.2774   -9.5705   22.4717 H   0  0  0  0  0  0
  -24.0011   -7.4658   22.7491 H   0  0  0  0  0  0
  -21.0842   -8.8778   19.8943 H   0  0  0  0  0  0
  -22.3718  -10.9662   19.6132 H   0  0  0  0  0  0
  -21.2030   -7.6150   23.9707 H   0  0  0  0  0  0
  -21.1498   -6.0515   25.9070 H   0  0  0  0  0  0
  -22.0593   -2.7588   23.2844 H   0  0  0  0  0  0
  -22.4097  -11.9938   22.4841 H   0  0  0  0  0  0
  -21.1068  -13.1244   22.2514 H   0  0  0  0  0  0
  -24.6545  -15.8416   20.5275 H   0  0  0  0  0  0
  -26.2768  -15.6403   20.1005 H   0  0  0  0  0  0
  -26.7173  -32.5491   23.1167 H   0  0  0  0  0  0
  -25.0082  -33.9764   25.0466 H   0  0  0  0  0  0
  -22.7018  -31.3097   21.4120 H   0  0  0  0  0  0
  -23.3739  -35.9639   23.3264 H   0  0  0  0  0  0
  -24.3586  -36.8951   22.2054 H   0  0  0  0  0  0
  -23.7236  -37.6494   23.6677 H   0  0  0  0  0  0
  -26.0666  -31.5854   20.5984 H   0  0  0  0  0  0
  -26.8296  -30.8659   21.9896 H   0  0  0  0  0  0
  -28.1054  -29.0600   21.1677 H   0  0  0  0  0  0
  -26.0226  -25.9348   19.0480 H   0  0  0  0  0  0
  -23.9676  -27.2949   19.0318 H   0  0  0  0  0  0
  -23.7384  -30.6017   19.4045 H   0  0  0  0  0  0
  -22.7395  -29.2534   19.8616 H   0  0  0  0  0  0
  -25.1265  -36.1929   25.0816 H   0  0  0  0  0  0
  -20.9993  -28.3242   24.1415 H   0  0  0  0  0  0
  -20.5683  -26.2278   23.3601 H   0  0  0  0  0  0
  -21.6640  -26.7448   22.1203 H   0  0  0  0  0  0
  -19.6897  -25.6305   21.1237 H   0  0  0  0  0  0
  -19.6690  -27.3209   20.6756 H   0  0  0  0  0  0
  -17.4204  -26.6718   21.4011 H   0  0  0  0  0  0
  -18.0297  -26.0086   22.9014 H   0  0  0  0  0  0
  -19.7927  -30.7297   24.2239 H   0  0  0  0  0  0
  -17.5002  -31.6262   24.5190 H   0  0  0  0  0  0
  -15.5345  -30.2973   23.7680 H   0  0  0  0  0  0
  -15.8679  -28.0849   22.7022 H   0  0  0  0  0  0
  -24.5905  -30.7083   25.7839 H   0  0  0  0  0  0
  -24.8937  -32.2909   26.4916 H   0  0  0  0  0  0
  -25.8076  -30.8928   27.0260 H   0  0  0  0  0  0
  -26.2854  -29.6795   24.1193 H   0  0  0  0  0  0
  -27.3992  -29.7262   25.4658 H   0  0  0  0  0  0
  -27.8730  -30.4301   23.9373 H   0  0  0  0  0  0
  -27.2680  -33.3623   26.2082 H   0  0  0  0  0  0
  -28.3880  -32.6842   25.0349 H   0  0  0  0  0  0
  -28.0697  -31.8433   26.5440 H   0  0  0  0  0  0
  -28.2546  -38.0141   24.7551 H   0  0  0  0  0  0
  -28.1125  -36.2668   24.6169 H   0  0  0  0  0  0
  -27.2323  -37.1314   25.8854 H   0  0  0  0  0  0
  -20.9334  -29.8731   21.6897 H   0  0  0  0  0  0
  -26.0134  -38.2847   24.1466 H   0  0  0  0  0  0
  -27.8866  -18.9950   21.7441 H   0  0  0  0  0  0
  -32.6791  -17.7515   20.6891 H   0  0  0  0  0  0
  -31.8111  -16.9841   19.2912 H   0  0  0  0  0  0
  -30.9964  -16.9782   22.3017 H   0  0  0  0  0  0
  -28.3559  -22.7840   21.9445 H   0  0  0  0  0  0
  -29.7939  -22.7683   20.9520 H   0  0  0  0  0  0
  -29.1073  -25.3945   21.6412 H   0  0  0  0  0  0
  -27.3629  -25.4420   21.5917 H   0  0  0  0  0  0
  -28.0285  -21.7130   19.3070 H   0  0  0  0  0  0
  -29.0675  -15.4651   21.2207 H   0  0  0  0  0  0
  1 25  1  0  0  0
  1 30  2  0  0  0
  1 81  1  0  0  0
  2  3  1  0  0  0
  2 25  1  0  0  0
  2 84  1  0  0  0
  2 85  1  0  0  0
  3  4  1  0  0  0
  3 86  1  0  0  0
  3 87  1  0  0  0
  4  5  1  0  0  0
  4 88  1  0  0  0
  4 89  1  0  0  0
  5  6  1  0  0  0
  5 26  1  0  0  0
  5 90  1  0  0  0
  6 25  1  0  0  0
  6 91  1  0  0  0
  6 92  1  0  0  0
  7  8  2  0  0  0
  7 26  1  0  0  0
  7 29  1  0  0  0
  8  9  1  0  0  0
  8 22  1  0  0  0
  9 10  1  0  0  0
  9 27  2  0  0  0
 10 11  2  0  0  0
 10 15  1  0  0  0
 11 12  1  0  0  0
 11 93  1  0  0  0
 12 13  2  0  0  0
 12 94  1  0  0  0
 13 14  1  0  0  0
 13 31  1  0  0  0
 14 15  2  0  0  0
 14 95  1  0  0  0
 15 96  1  0  0  0
 16 17  2  0  0  0
 16 21  1  0  0  0
 16 31  1  0  0  0
 17 18  1  0  0  0
 17 97  1  0  0  0
 18 19  2  0  0  0
 18 98  1  0  0  0
 19 20  1  0  0  0
 19 24  1  0  0  0
 20 21  2  0  0  0
 20 99  1  0  0  0
 21 23  1  0  0  0
 22 28  1  0  0  0
 22 32  2  0  0  0
 26 27  1  0  0  0
 28100  1  0  0  0
 28101  1  0  0  0
 29102  1  0  0  0
 29103  1  0  0  0
 33 34  1  0  0  0
 33 66  1  0  0  0
 33 70  2  0  0  0
 34 36  1  0  0  0
 34 59  1  0  0  0
 34104  1  0  0  0
 35 44  2  0  0  0
 35 45  1  0  0  0
 35 68  1  0  0  0
 36 56  1  0  0  0
 36105  1  0  0  0
 37 39  1  0  0  0
 37 47  1  0  0  0
 37 66  1  0  0  0
 37106  1  0  0  0
 38 43  2  0  0  0
 38 46  1  0  0  0
 38 47  1  0  0  0
 39 64  1  0  0  0
 39 67  2  0  0  0
 40 52  1  0  0  0
 40 53  2  0  0  0
 40 58  1  0  0  0
 41107  1  0  0  0
 41108  1  0  0  0
 41109  1  0  0  0
 41 48  1  0  0  0
 42 43  1  0  0  0
 42 66  1  0  0  0
 42110  1  0  0  0
 42111  1  0  0  0
 43 44  1  0  0  0
 44112  1  0  0  0
 45 46  2  0  0  0
 45113  1  0  0  0
 46114  1  0  0  0
 47115  1  0  0  0
 47116  1  0  0  0
 48 56  1  0  0  0
 48 65  1  0  0  0
 48117  1  0  0  0
 49 50  1  0  0  0
 49 53  1  0  0  0
 49 64  1  0  0  0
 49118  1  0  0  0
 50 51  1  0  0  0
 50119  1  0  0  0
 50120  1  0  0  0
 51 52  1  0  0  0
 51121  1  0  0  0
 51122  1  0  0  0
 52123  1  0  0  0
 52124  1  0  0  0
 53 54  1  0  0  0
 54 55  2  0  0  0
 54125  1  0  0  0
 55 57  1  0  0  0
 55126  1  0  0  0
 56 69  2  0  0  0
 57 58  2  0  0  0
 57127  1  0  0  0
 58128  1  0  0  0
 59 60  1  0  0  0
 59 61  1  0  0  0
 59 62  1  0  0  0
 60129  1  0  0  0
 60130  1  0  0  0
 60131  1  0  0  0
 61132  1  0  0  0
 61133  1  0  0  0
 61134  1  0  0  0
 62135  1  0  0  0
 62136  1  0  0  0
 62137  1  0  0  0
 63 65  1  0  0  0
 63138  1  0  0  0
 63139  1  0  0  0
 63140  1  0  0  0
 64141  1  0  0  0
 65142  1  0  0  0
 68 79  1  0  0  0
 71 72  1  0  0  0
 71 74  2  0  0  0
 71143  1  0  0  0
 72 73  2  0  0  0
 72 77  1  0  0  0
 73 76  1  0  0  0
 73 83  1  0  0  0
 74 80  1  0  0  0
 74 83  1  0  0  0
 75 78  1  0  0  0
 75 79  1  0  0  0
 75 82  2  0  0  0
 76 77  1  0  0  0
 76144  1  0  0  0
 76145  1  0  0  0
 77 81  1  0  0  0
 77146  1  0  0  0
 78 80  1  0  0  0
 78147  1  0  0  0
 78148  1  0  0  0
 79149  1  0  0  0
 79150  1  0  0  0
 80151  1  0  0  0
 81152  1  0  0  0
M  ISO  4   1 100  68 101  79 101  81 100
M  END
> <chiral flag>
0

> <version>
0

> <s_m_source_file>
/data/baiqing/PycharmProjects/Reinvent-master-3.2/result/LINK_invent/BTK/process_docking_weight1_custom_product_contain_oxygen_bond_distance_aromatic_linkinvent_7_9_3/rearranged_h_0150.sdf

> <i_m_source_file_index>
2

> <r_mmod_Potential_Energy-OPLS-2005>
399.737487792969

> <r_mmod_Stretch_Energy-OPLS-2005>
72.4358978271484

> <r_mmod_Bend_Energy-OPLS-2005>
530.087219238281

> <r_mmod_Torsional_Energy-OPLS-2005>
246.872451782227

> <r_mmod_Improper_Torsional_Energy-OPLS-2005>
9.33978366851807

> <r_mmod_Van_der_Waal_Energy-OPLS-2005>
121.953063964844

> <r_mmod_Electrostatic_Energy-OPLS-2005>
-370.190490722656

> <r_mmod_Solvation_Energy-OPLS-2005>
-235.251525878906

> <b_mmod_Minimization_Converged-OPLS-2005>
0

> <r_mmod_RMS_Derivative-OPLS-2005>
3.04641151428223

$$$$
2
                    3D
 Structure written by MMmdl.
162171  0  0  1  0            999 V2000
  -30.5909  -14.7306   20.4567 C   0  0  0  0  0  0
  -30.4386  -12.4393   19.4787 C   0  0  0  0  0  0
  -29.5143  -12.5066   18.2411 C   0  0  0  0  0  0
  -28.0394  -12.3321   18.6528 C   0  0  0  0  0  0
  -27.6481  -13.2252   19.8599 C   0  0  2  0  0  0
  -28.6909  -13.1329   20.9966 C   0  0  0  0  0  0
  -25.2545  -13.8185   20.5708 C   0  0  0  0  0  0
  -24.1820  -13.0439   20.9194 C   0  0  0  0  0  0
  -24.6394  -11.6913   20.8740 C   0  0  0  0  0  0
  -23.9070  -10.4295   21.0401 C   0  0  0  0  0  0
  -24.3616   -9.4213   21.9185 C   0  0  0  0  0  0
  -23.6289   -8.2249   22.0759 C   0  0  0  0  0  0
  -22.4276   -8.0280   21.3544 C   0  0  0  0  0  0
  -21.9914   -9.0248   20.4640 C   0  0  0  0  0  0
  -22.7244  -10.2127   20.3049 C   0  0  0  0  0  0
  -21.6853   -6.0735   22.5276 C   0  0  0  0  0  0
  -21.4013   -6.5639   23.8210 C   0  0  0  0  0  0
  -21.3660   -5.6795   24.9170 C   0  0  0  0  0  0
  -21.6046   -4.3055   24.7226 C   0  0  0  0  0  0
  -21.8819   -3.8146   23.4346 C   0  0  0  0  0  0
  -21.9193   -4.6963   22.3403 C   0  0  0  0  0  0
  -22.7841  -13.5229   21.1853 C   0  0  0  0  0  0
  -22.1664   -4.2153   21.0980 F   0  0  0  0  0  0
  -21.5628   -3.4543   25.7736 F   0  0  0  0  0  0
  -29.9987  -13.4877   20.4271 N   0  0  0  0  0  0
  -26.2966  -12.9376   20.3313 N   0  0  0  0  0  0
  -25.9326  -11.6525   20.5759 N   0  0  0  0  0  0
  -22.0479  -12.8204   22.0390 N   0  0  0  0  0  0
  -25.4266  -15.1913   20.4163 N   0  0  0  0  0  0
  -31.7537  -14.8741   20.0668 O   0  0  0  0  0  0
  -21.6637   -6.8878   21.4239 O   0  0  0  0  0  0
  -22.3533  -14.5544   20.6717 O   0  0  0  0  0  0
  -24.6298  -31.8535   23.1942 C   0  0  0  0  0  0
  -25.9123  -32.4744   23.8300 C   0  0  1  0  0  0
  -27.2338  -27.2885   20.1252 C   0  0  0  0  0  0
  -25.5912  -33.8546   24.2240 N   0  0  0  0  0  0
  -23.4261  -30.4714   21.5381 C   0  0  2  0  0  0
  -24.8765  -28.9182   20.1025 C   0  0  0  0  0  0
  -22.7490  -29.4581   22.4916 C   0  0  0  0  0  0
  -18.0283  -28.1396   22.8473 C   0  0  0  0  0  0
  -24.1481  -36.7269   23.2643 C   0  0  0  0  0  0
  -25.9656  -30.7810   21.3610 C   0  0  0  0  0  0
  -26.0460  -29.4070   20.6975 C   0  0  0  0  0  0
  -27.2302  -28.6097   20.6834 C   0  0  0  0  0  0
  -26.0438  -26.8511   19.5083 C   0  0  0  0  0  0
  -24.8811  -27.6517   19.4918 C   0  0  0  0  0  0
  -23.6421  -29.7983   20.1552 C   0  0  0  0  0  0
  -25.4112  -36.3059   24.0329 C   0  0  1  0  0  0
  -20.5881  -28.3695   23.1274 C   0  0  2  0  0  0
  -20.6772  -26.9419   22.5402 C   0  0  0  0  0  0
  -19.5751  -26.6395   21.5201 C   0  0  0  0  0  0
  -18.1925  -26.7935   22.1608 C   0  0  0  0  0  0
  -19.1537  -28.8862   23.2860 C   0  0  0  0  0  0
  -18.9468  -30.1455   23.8894 C   0  0  0  0  0  0
  -17.6473  -30.6597   24.0568 C   0  0  0  0  0  0
  -25.9054  -34.9435   23.5089 C   0  0  0  0  0  0
  -16.5359  -29.9104   23.6338 C   0  0  0  0  0  0
  -16.7269  -28.6521   23.0362 C   0  0  0  0  0  0
  -26.4507  -31.6577   25.0688 C   0  0  0  0  0  0
  -25.3734  -31.3691   26.1406 C   0  0  0  0  0  0
  -27.0380  -30.3020   24.6124 C   0  0  0  0  0  0
  -27.6042  -32.4338   25.7480 C   0  0  0  0  0  0
  -27.5570  -37.1789   24.8468 C   0  0  0  0  0  0
  -21.4201  -29.3041   22.3667 N   0  0  0  0  0  0
  -26.4279  -37.3766   23.9418 N   0  0  0  0  0  0
  -24.6934  -31.0515   22.0898 N   0  0  0  0  0  0
  -23.4192  -28.8119   23.3014 O   0  0  0  0  0  0
  -28.3324  -26.3966   20.2711 O   0  0  0  0  0  0
  -26.5630  -34.8910   22.4664 O   0  0  0  0  0  0
  -23.5454  -32.1340   23.7255 O   0  0  0  0  0  0
  -30.4723  -17.8266   19.4202 C   0  0  0  0  0  0
  -29.8984  -17.1842   20.5052 C   0  0  0  0  0  0
  -29.7476  -19.8173   20.4457 C   0  0  0  0  0  0
  -29.0674  -24.6623   19.5686 C   0  0  0  0  0  0
  -29.2037  -23.1358   19.2727 C   0  0  0  0  0  0
  -28.1423  -24.9753   20.8206 C   0  0  2  0  0  0
  -28.8429  -23.6003   21.5136 C   0  0  0  0  0  0
  -28.3080  -25.8580   22.1520 C   0  0  0  0  0  0
  -27.8623  -23.0172   22.5856 C   0  0  0  0  0  0
  -30.2653  -23.8539   22.1671 C   0  0  0  0  0  0
  -29.9773  -21.3015   20.9261 C   0  0  0  0  0  0
  -30.3752  -19.2505   19.3961 N   0  0  0  0  0  0
  -29.8005  -15.8138   20.8024 N   0  0  0  0  0  0
  -28.9802  -22.4281   20.5374 N   0  3  2  0  0  0
  -29.1526  -18.4759   21.5002 S   0  0  0  0  0  0
  -31.4805  -12.5663   19.1782 H   0  0  0  0  0  0
  -30.3829  -11.4567   19.9494 H   0  0  0  0  0  0
  -29.7932  -11.7378   17.5189 H   0  0  0  0  0  0
  -29.6434  -13.4640   17.7344 H   0  0  0  0  0  0
  -27.8938  -11.2824   18.9110 H   0  0  0  0  0  0
  -27.3823  -12.5294   17.8051 H   0  0  0  0  0  0
  -27.6511  -14.2508   19.4905 H   0  0  0  0  0  0
  -28.7195  -12.1262   21.4154 H   0  0  0  0  0  0
  -28.4236  -13.7941   21.8223 H   0  0  0  0  0  0
  -25.2750   -9.5695   22.4771 H   0  0  0  0  0  0
  -23.9997   -7.4643   22.7491 H   0  0  0  0  0  0
  -21.0852   -8.8763   19.8942 H   0  0  0  0  0  0
  -22.3699  -10.9667   19.6158 H   0  0  0  0  0  0
  -21.2002   -7.6145   23.9715 H   0  0  0  0  0  0
  -21.1484   -6.0523   25.9078 H   0  0  0  0  0  0
  -22.0597   -2.7611   23.2845 H   0  0  0  0  0  0
  -22.4085  -11.9841   22.4738 H   0  0  0  0  0  0
  -21.1095  -13.1230   22.2601 H   0  0  0  0  0  0
  -24.6614  -15.8468   20.5323 H   0  0  0  0  0  0
  -26.2794  -15.6326   20.0972 H   0  0  0  0  0  0
  -26.7190  -32.5410   23.1044 H   0  0  0  0  0  0
  -25.0064  -33.9685   25.0388 H   0  0  0  0  0  0
  -22.7228  -31.2929   21.3886 H   0  0  0  0  0  0
  -23.3756  -35.9587   23.3300 H   0  0  0  0  0  0
  -24.3563  -36.8911   22.2058 H   0  0  0  0  0  0
  -23.7218  -37.6458   23.6686 H   0  0  0  0  0  0
  -26.0928  -31.5453   20.5933 H   0  0  0  0  0  0
  -26.8469  -30.8348   21.9890 H   0  0  0  0  0  0
  -28.1257  -28.9710   21.1682 H   0  0  0  0  0  0
  -26.0022  -25.8676   19.0613 H   0  0  0  0  0  0
  -23.9827  -27.2734   19.0237 H   0  0  0  0  0  0
  -23.7559  -30.5724   19.3949 H   0  0  0  0  0  0
  -22.7622  -29.2256   19.8572 H   0  0  0  0  0  0
  -25.1291  -36.1901   25.0817 H   0  0  0  0  0  0
  -20.9965  -28.3278   24.1401 H   0  0  0  0  0  0
  -20.5690  -26.2302   23.3595 H   0  0  0  0  0  0
  -21.6637  -26.7454   22.1188 H   0  0  0  0  0  0
  -19.6918  -25.6308   21.1229 H   0  0  0  0  0  0
  -19.6698  -27.3206   20.6728 H   0  0  0  0  0  0
  -17.4194  -26.6687   21.4009 H   0  0  0  0  0  0
  -18.0316  -26.0075   22.9000 H   0  0  0  0  0  0
  -19.7951  -30.7251   24.2282 H   0  0  0  0  0  0
  -17.5044  -31.6282   24.5163 H   0  0  0  0  0  0
  -15.5371  -30.3021   23.7664 H   0  0  0  0  0  0
  -15.8658  -28.0843   22.7103 H   0  0  0  0  0  0
  -24.5939  -30.7005   25.7731 H   0  0  0  0  0  0
  -24.8873  -32.2834   26.4816 H   0  0  0  0  0  0
  -25.8047  -30.8892   27.0197 H   0  0  0  0  0  0
  -26.2951  -29.6742   24.1180 H   0  0  0  0  0  0
  -27.4165  -29.7292   25.4601 H   0  0  0  0  0  0
  -27.8771  -30.4357   23.9290 H   0  0  0  0  0  0
  -27.2652  -33.3675   26.1981 H   0  0  0  0  0  0
  -28.3894  -32.6841   25.0336 H   0  0  0  0  0  0
  -28.0660  -31.8509   26.5462 H   0  0  0  0  0  0
  -28.2562  -38.0109   24.7539 H   0  0  0  0  0  0
  -28.1088  -36.2633   24.6272 H   0  0  0  0  0  0
  -27.2278  -37.1411   25.8867 H   0  0  0  0  0  0
  -20.9387  -29.8783   21.6888 H   0  0  0  0  0  0
  -26.0152  -38.2833   24.1447 H   0  0  0  0  0  0
  -30.9827  -17.3453   18.5970 H   0  0  0  0  0  0
  -28.7028  -25.0931   18.6298 H   0  0  0  0  0  0
  -30.0692  -25.0748   19.7109 H   0  0  0  0  0  0
  -30.1798  -22.9117   18.8410 H   0  0  0  0  0  0
  -28.4505  -22.8098   18.5561 H   0  0  0  0  0  0
  -28.3476  -25.3456   23.1025 H   0  0  0  0  0  0
  -27.4269  -26.4597   22.3781 H   0  0  0  0  0  0
  -29.1934  -26.5038   22.1946 H   0  0  0  0  0  0
  -28.0219  -23.4010   23.5925 H   0  0  0  0  0  0
  -27.9370  -21.9362   22.7060 H   0  0  0  0  0  0
  -26.8245  -23.2204   22.3161 H   0  0  0  0  0  0
  -30.3571  -24.7161   22.8213 H   0  0  0  0  0  0
  -31.0445  -23.9785   21.4159 H   0  0  0  0  0  0
  -30.5828  -23.0409   22.8165 H   0  0  0  0  0  0
  -30.9924  -21.5983   20.6585 H   0  0  0  0  0  0
  -29.9796  -21.2033   22.0087 H   0  0  0  0  0  0
  -28.9495  -15.5464   21.2745 H   0  0  0  0  0  0
  -28.0712  -21.9962   20.4572 H   0  0  0  0  0  0
  1 25  1  0  0  0
  1 30  2  0  0  0
  1 83  1  0  0  0
  2  3  1  0  0  0
  2 25  1  0  0  0
  2 86  1  0  0  0
  2 87  1  0  0  0
  3  4  1  0  0  0
  3 88  1  0  0  0
  3 89  1  0  0  0
  4  5  1  0  0  0
  4 90  1  0  0  0
  4 91  1  0  0  0
  5  6  1  0  0  0
  5 26  1  0  0  0
  5 92  1  0  0  0
  6 25  1  0  0  0
  6 93  1  0  0  0
  6 94  1  0  0  0
  7  8  2  0  0  0
  7 26  1  0  0  0
  7 29  1  0  0  0
  8  9  1  0  0  0
  8 22  1  0  0  0
  9 10  1  0  0  0
  9 27  2  0  0  0
 10 11  2  0  0  0
 10 15  1  0  0  0
 11 12  1  0  0  0
 11 95  1  0  0  0
 12 13  2  0  0  0
 12 96  1  0  0  0
 13 14  1  0  0  0
 13 31  1  0  0  0
 14 15  2  0  0  0
 14 97  1  0  0  0
 15 98  1  0  0  0
 16 17  2  0  0  0
 16 21  1  0  0  0
 16 31  1  0  0  0
 17 18  1  0  0  0
 17 99  1  0  0  0
 18 19  2  0  0  0
 18100  1  0  0  0
 19 20  1  0  0  0
 19 24  1  0  0  0
 20 21  2  0  0  0
 20101  1  0  0  0
 21 23  1  0  0  0
 22 28  1  0  0  0
 22 32  2  0  0  0
 26 27  1  0  0  0
 28102  1  0  0  0
 28103  1  0  0  0
 29104  1  0  0  0
 29105  1  0  0  0
 33 34  1  0  0  0
 33 66  1  0  0  0
 33 70  2  0  0  0
 34 36  1  0  0  0
 34 59  1  0  0  0
 34106  1  0  0  0
 35 44  2  0  0  0
 35 45  1  0  0  0
 35 68  1  0  0  0
 36 56  1  0  0  0
 36107  1  0  0  0
 37 39  1  0  0  0
 37 47  1  0  0  0
 37 66  1  0  0  0
 37108  1  0  0  0
 38 43  2  0  0  0
 38 46  1  0  0  0
 38 47  1  0  0  0
 39 64  1  0  0  0
 39 67  2  0  0  0
 40 52  1  0  0  0
 40 53  2  0  0  0
 40 58  1  0  0  0
 41109  1  0  0  0
 41110  1  0  0  0
 41111  1  0  0  0
 41 48  1  0  0  0
 42 43  1  0  0  0
 42 66  1  0  0  0
 42112  1  0  0  0
 42113  1  0  0  0
 43 44  1  0  0  0
 44114  1  0  0  0
 45 46  2  0  0  0
 45115  1  0  0  0
 46116  1  0  0  0
 47117  1  0  0  0
 47118  1  0  0  0
 48 56  1  0  0  0
 48 65  1  0  0  0
 48119  1  0  0  0
 49 50  1  0  0  0
 49 53  1  0  0  0
 49 64  1  0  0  0
 49120  1  0  0  0
 50 51  1  0  0  0
 50121  1  0  0  0
 50122  1  0  0  0
 51 52  1  0  0  0
 51123  1  0  0  0
 51124  1  0  0  0
 52125  1  0  0  0
 52126  1  0  0  0
 53 54  1  0  0  0
 54 55  2  0  0  0
 54127  1  0  0  0
 55 57  1  0  0  0
 55128  1  0  0  0
 56 69  2  0  0  0
 57 58  2  0  0  0
 57129  1  0  0  0
 58130  1  0  0  0
 59 60  1  0  0  0
 59 61  1  0  0  0
 59 62  1  0  0  0
 60131  1  0  0  0
 60132  1  0  0  0
 60133  1  0  0  0
 61134  1  0  0  0
 61135  1  0  0  0
 61136  1  0  0  0
 62137  1  0  0  0
 62138  1  0  0  0
 62139  1  0  0  0
 63 65  1  0  0  0
 63140  1  0  0  0
 63141  1  0  0  0
 63142  1  0  0  0
 64143  1  0  0  0
 65144  1  0  0  0
 68 76  1  0  0  0
 71 72  2  0  0  0
 71 82  1  0  0  0
 71145  1  0  0  0
 72 83  1  0  0  0
 72 85  1  0  0  0
 73 81  1  0  0  0
 73 82  2  0  0  0
 73 85  1  0  0  0
 74 75  1  0  0  0
 74 76  1  0  0  0
 74146  1  0  0  0
 74147  1  0  0  0
 75 84  1  0  0  0
 75148  1  0  0  0
 75149  1  0  0  0
 76 77  1  0  0  0
 76 78  1  0  0  0
 77 79  1  0  0  0
 77 80  1  0  0  0
 77 84  1  0  0  0
 78150  1  0  0  0
 78151  1  0  0  0
 78152  1  0  0  0
 79153  1  0  0  0
 79154  1  0  0  0
 79155  1  0  0  0
 80156  1  0  0  0
 80157  1  0  0  0
 80158  1  0  0  0
 81159  1  0  0  0
 81160  1  0  0  0
 81 84  1  0  0  0
 83161  1  0  0  0
 84162  1  0  0  0
M  CHG  1  84   1
M  ISO  4   1 100  68 101  76 101  83 100
M  END
> <chiral flag>
0

> <version>
0

> <s_m_source_file>
/data/baiqing/PycharmProjects/Reinvent-master-3.2/result/LINK_invent/BTK/process_docking_weight1_custom_product_contain_oxygen_bond_distance_aromatic_linkinvent_7_9_3/rearranged_h_0150.sdf

> <i_m_source_file_index>
3

> <r_mmod_Potential_Energy-OPLS-2005>
568.465942382812

> <r_mmod_Stretch_Energy-OPLS-2005>
157.082397460938

> <r_mmod_Bend_Energy-OPLS-2005>
551.377502441406

> <r_mmod_Torsional_Energy-OPLS-2005>
340.214477539062

> <r_mmod_Improper_Torsional_Energy-OPLS-2005>
8.03768062591553

> <r_mmod_Van_der_Waal_Energy-OPLS-2005>
186.586776733398

> <r_mmod_Electrostatic_Energy-OPLS-2005>
-322.16552734375

> <r_mmod_Solvation_Energy-OPLS-2005>
-432.6357421875

> <b_mmod_Minimization_Converged-OPLS-2005>
0

> <r_mmod_RMS_Derivative-OPLS-2005>
1.53938746452332

$$$$
3
                    3D
 Structure written by MMmdl.
153161  0  0  1  0            999 V2000
  -30.6232  -14.7309   20.4432 C   0  0  0  0  0  0
  -30.4241  -12.4405   19.4742 C   0  0  0  0  0  0
  -29.5033  -12.4963   18.2359 C   0  0  0  0  0  0
  -28.0310  -12.3229   18.6542 C   0  0  0  0  0  0
  -27.6396  -13.2326   19.8496 C   0  0  2  0  0  0
  -28.6854  -13.1763   20.9837 C   0  0  0  0  0  0
  -25.2488  -13.8202   20.5675 C   0  0  0  0  0  0
  -24.1793  -13.0433   20.9178 C   0  0  0  0  0  0
  -24.6398  -11.6916   20.8750 C   0  0  0  0  0  0
  -23.9080  -10.4290   21.0407 C   0  0  0  0  0  0
  -24.3629   -9.4205   21.9185 C   0  0  0  0  0  0
  -23.6306   -8.2243   22.0755 C   0  0  0  0  0  0
  -22.4281   -8.0281   21.3550 C   0  0  0  0  0  0
  -21.9920   -9.0249   20.4643 C   0  0  0  0  0  0
  -22.7252  -10.2127   20.3052 C   0  0  0  0  0  0
  -21.6854   -6.0740   22.5280 C   0  0  0  0  0  0
  -21.4014   -6.5650   23.8211 C   0  0  0  0  0  0
  -21.3663   -5.6805   24.9177 C   0  0  0  0  0  0
  -21.6043   -4.3067   24.7227 C   0  0  0  0  0  0
  -21.8817   -3.8152   23.4354 C   0  0  0  0  0  0
  -21.9197   -4.6970   22.3407 C   0  0  0  0  0  0
  -22.7816  -13.5202   21.1854 C   0  0  0  0  0  0
  -22.1661   -4.2153   21.0987 F   0  0  0  0  0  0
  -21.5629   -3.4549   25.7746 F   0  0  0  0  0  0
  -29.9854  -13.5131   20.3948 N   0  0  0  0  0  0
  -26.2934  -12.9422   20.3312 N   0  0  0  0  0  0
  -25.9333  -11.6562   20.5801 N   0  0  0  0  0  0
  -22.0486  -12.8180   22.0427 N   0  0  0  0  0  0
  -25.4094  -15.1934   20.4121 N   0  0  0  0  0  0
  -31.8183  -14.8092   20.1453 O   0  0  0  0  0  0
  -21.6641   -6.8883   21.4240 O   0  0  0  0  0  0
  -22.3480  -14.5504   20.6712 O   0  0  0  0  0  0
  -24.6296  -31.8562   23.1986 C   0  0  0  0  0  0
  -25.9127  -32.4758   23.8340 C   0  0  1  0  0  0
  -27.2130  -27.2730   20.1346 C   0  0  0  0  0  0
  -25.5924  -33.8561   24.2262 N   0  0  0  0  0  0
  -23.4266  -30.4779   21.5425 C   0  0  2  0  0  0
  -24.8747  -28.9264   20.1090 C   0  0  0  0  0  0
  -22.7492  -29.4597   22.4916 C   0  0  0  0  0  0
  -18.0305  -28.1362   22.8478 C   0  0  0  0  0  0
  -24.1492  -36.7284   23.2641 C   0  0  0  0  0  0
  -25.9712  -30.7732   21.3780 C   0  0  0  0  0  0
  -26.0444  -29.3955   20.7221 C   0  0  0  0  0  0
  -27.2199  -28.5791   20.7261 C   0  0  0  0  0  0
  -26.0335  -26.8772   19.4731 C   0  0  0  0  0  0
  -24.8723  -27.6744   19.4744 C   0  0  0  0  0  0
  -23.6439  -29.8113   20.1586 C   0  0  0  0  0  0
  -25.4113  -36.3069   24.0330 C   0  0  1  0  0  0
  -20.5902  -28.3686   23.1272 C   0  0  2  0  0  0
  -20.6808  -26.9407   22.5387 C   0  0  0  0  0  0
  -19.5777  -26.6375   21.5198 C   0  0  0  0  0  0
  -18.1966  -26.7905   22.1624 C   0  0  0  0  0  0
  -19.1549  -28.8838   23.2874 C   0  0  0  0  0  0
  -18.9459  -30.1441   23.8886 C   0  0  0  0  0  0
  -17.6458  -30.6564   24.0547 C   0  0  0  0  0  0
  -25.9050  -34.9441   23.5093 C   0  0  0  0  0  0
  -16.5356  -29.9054   23.6314 C   0  0  0  0  0  0
  -16.7288  -28.6469   23.0343 C   0  0  0  0  0  0
  -26.4502  -31.6580   25.0728 C   0  0  0  0  0  0
  -25.3732  -31.3749   26.1454 C   0  0  0  0  0  0
  -27.0353  -30.2995   24.6215 C   0  0  0  0  0  0
  -27.6050  -32.4327   25.7513 C   0  0  0  0  0  0
  -27.5578  -37.1796   24.8468 C   0  0  0  0  0  0
  -21.4196  -29.3044   22.3660 N   0  0  0  0  0  0
  -26.4288  -37.3768   23.9412 N   0  0  0  0  0  0
  -24.6948  -31.0534   22.0964 N   0  0  0  0  0  0
  -23.4190  -28.8142   23.3021 O   0  0  0  0  0  0
  -28.2891  -26.3616   20.1613 O   0  0  0  0  0  0
  -26.5627  -34.8919   22.4664 O   0  0  0  0  0  0
  -23.5443  -32.1376   23.7284 O   0  0  0  0  0  0
  -27.6734  -20.1190   21.0377 C   0  0  0  0  0  0
  -28.1578  -18.7532   20.9845 C   0  0  0  0  0  0
  -29.4528  -18.6037   20.5440 C   0  0  0  0  0  0
  -28.5521  -21.1210   20.6647 C   0  0  0  0  0  0
  -28.6868  -23.6913   20.2657 C   0  0  0  0  0  0
  -26.8249  -24.8700   21.6840 C   0  0  0  0  0  0
  -30.3635  -17.3185   20.3896 C   0  0  0  0  0  0
  -28.1660  -25.0673   20.9322 C   0  0  2  0  0  0
  -27.3278  -17.7020   21.3975 N   0  0  0  0  0  0
  -28.2739  -22.4916   20.8161 N   0  0  0  0  0  0
  -29.8719  -15.8854   20.5937 N   0  0  0  0  0  0
  -29.4500  -23.7293   19.2980 O   0  0  0  0  0  0
  -30.0420  -20.2686   20.1595 S   0  0  0  0  0  0
  -31.4676  -12.5513   19.1737 H   0  0  0  0  0  0
  -30.3537  -11.4677   19.9646 H   0  0  0  0  0  0
  -29.7829  -11.7218   17.5212 H   0  0  0  0  0  0
  -29.6282  -13.4503   17.7219 H   0  0  0  0  0  0
  -27.8915  -11.2759   18.9271 H   0  0  0  0  0  0
  -27.3691  -12.5034   17.8069 H   0  0  0  0  0  0
  -27.6300  -14.2514   19.4622 H   0  0  0  0  0  0
  -28.7154  -12.1854   21.4390 H   0  0  0  0  0  0
  -28.4280  -13.8747   21.7819 H   0  0  0  0  0  0
  -25.2759   -9.5696   22.4778 H   0  0  0  0  0  0
  -24.0011   -7.4641   22.7484 H   0  0  0  0  0  0
  -21.0849   -8.8769   19.8948 H   0  0  0  0  0  0
  -22.3694  -10.9674   19.6178 H   0  0  0  0  0  0
  -21.1989   -7.6156   23.9716 H   0  0  0  0  0  0
  -21.1490   -6.0537   25.9085 H   0  0  0  0  0  0
  -22.0586   -2.7611   23.2853 H   0  0  0  0  0  0
  -22.4116  -11.9831   22.4786 H   0  0  0  0  0  0
  -21.1117  -13.1196   22.2674 H   0  0  0  0  0  0
  -24.6393  -15.8376   20.5541 H   0  0  0  0  0  0
  -26.2808  -15.6749   20.2194 H   0  0  0  0  0  0
  -26.7198  -32.5422   23.1090 H   0  0  0  0  0  0
  -25.0087  -33.9716   25.0418 H   0  0  0  0  0  0
  -22.7233  -31.3001   21.3967 H   0  0  0  0  0  0
  -23.3756  -35.9616   23.3302 H   0  0  0  0  0  0
  -24.3585  -36.8900   22.2055 H   0  0  0  0  0  0
  -23.7244  -37.6487   23.6661 H   0  0  0  0  0  0
  -26.1072  -31.5328   20.6069 H   0  0  0  0  0  0
  -26.8509  -30.8235   22.0095 H   0  0  0  0  0  0
  -28.1162  -28.9292   21.2181 H   0  0  0  0  0  0
  -26.0004  -25.9155   18.9815 H   0  0  0  0  0  0
  -23.9767  -27.3139   18.9871 H   0  0  0  0  0  0
  -23.7682  -30.5897   19.4047 H   0  0  0  0  0  0
  -22.7635  -29.2432   19.8524 H   0  0  0  0  0  0
  -25.1293  -36.1919   25.0822 H   0  0  0  0  0  0
  -20.9996  -28.3260   24.1394 H   0  0  0  0  0  0
  -20.5713  -26.2294   23.3588 H   0  0  0  0  0  0
  -21.6681  -26.7447   22.1180 H   0  0  0  0  0  0
  -19.6935  -25.6289   21.1232 H   0  0  0  0  0  0
  -19.6703  -27.3192   20.6730 H   0  0  0  0  0  0
  -17.4232  -26.6621   21.4035 H   0  0  0  0  0  0
  -18.0383  -26.0054   22.9029 H   0  0  0  0  0  0
  -19.7934  -30.7258   24.2254 H   0  0  0  0  0  0
  -17.5010  -31.6245   24.5147 H   0  0  0  0  0  0
  -15.5355  -30.2953   23.7622 H   0  0  0  0  0  0
  -15.8698  -28.0772   22.7066 H   0  0  0  0  0  0
  -24.5900  -30.7098   25.7800 H   0  0  0  0  0  0
  -24.8939  -32.2932   26.4853 H   0  0  0  0  0  0
  -25.8046  -30.8950   27.0246 H   0  0  0  0  0  0
  -26.2941  -29.6747   24.1212 H   0  0  0  0  0  0
  -27.4011  -29.7247   25.4735 H   0  0  0  0  0  0
  -27.8829  -30.4280   23.9479 H   0  0  0  0  0  0
  -27.2643  -33.3621   26.2088 H   0  0  0  0  0  0
  -28.3869  -32.6887   25.0355 H   0  0  0  0  0  0
  -28.0715  -31.8460   26.5437 H   0  0  0  0  0  0
  -28.2590  -38.0097   24.7500 H   0  0  0  0  0  0
  -28.1070  -36.2619   24.6298 H   0  0  0  0  0  0
  -27.2298  -37.1456   25.8874 H   0  0  0  0  0  0
  -20.9359  -29.8757   21.6869 H   0  0  0  0  0  0
  -26.0163  -38.2842   24.1404 H   0  0  0  0  0  0
  -26.6759  -20.3295   21.3975 H   0  0  0  0  0  0
  -26.8881  -24.0678   22.4192 H   0  0  0  0  0  0
  -26.0075  -24.6239   21.0070 H   0  0  0  0  0  0
  -26.5475  -25.7641   22.2436 H   0  0  0  0  0  0
  -31.2125  -17.4443   21.0619 H   0  0  0  0  0  0
  -30.8007  -17.3510   19.3911 H   0  0  0  0  0  0
  -28.8940  -25.2215   21.7294 H   0  0  0  0  0  0
  -27.7684  -17.0127   21.9951 H   0  0  0  0  0  0
  -26.4342  -17.9788   21.7898 H   0  0  0  0  0  0
  -27.5609  -22.6678   21.5114 H   0  0  0  0  0  0
  -28.8814  -15.7684   20.7383 H   0  0  0  0  0  0
  1 25  1  0  0  0
  1 30  2  0  0  0
  1 81  1  0  0  0
  2  3  1  0  0  0
  2 25  1  0  0  0
  2 84  1  0  0  0
  2 85  1  0  0  0
  3  4  1  0  0  0
  3 86  1  0  0  0
  3 87  1  0  0  0
  4  5  1  0  0  0
  4 88  1  0  0  0
  4 89  1  0  0  0
  5  6  1  0  0  0
  5 26  1  0  0  0
  5 90  1  0  0  0
  6 25  1  0  0  0
  6 91  1  0  0  0
  6 92  1  0  0  0
  7  8  2  0  0  0
  7 26  1  0  0  0
  7 29  1  0  0  0
  8  9  1  0  0  0
  8 22  1  0  0  0
  9 10  1  0  0  0
  9 27  2  0  0  0
 10 11  2  0  0  0
 10 15  1  0  0  0
 11 12  1  0  0  0
 11 93  1  0  0  0
 12 13  2  0  0  0
 12 94  1  0  0  0
 13 14  1  0  0  0
 13 31  1  0  0  0
 14 15  2  0  0  0
 14 95  1  0  0  0
 15 96  1  0  0  0
 16 17  2  0  0  0
 16 21  1  0  0  0
 16 31  1  0  0  0
 17 18  1  0  0  0
 17 97  1  0  0  0
 18 19  2  0  0  0
 18 98  1  0  0  0
 19 20  1  0  0  0
 19 24  1  0  0  0
 20 21  2  0  0  0
 20 99  1  0  0  0
 21 23  1  0  0  0
 22 28  1  0  0  0
 22 32  2  0  0  0
 26 27  1  0  0  0
 28100  1  0  0  0
 28101  1  0  0  0
 29102  1  0  0  0
 29103  1  0  0  0
 33 34  1  0  0  0
 33 66  1  0  0  0
 33 70  2  0  0  0
 34 36  1  0  0  0
 34 59  1  0  0  0
 34104  1  0  0  0
 35 44  2  0  0  0
 35 45  1  0  0  0
 35 68  1  0  0  0
 36 56  1  0  0  0
 36105  1  0  0  0
 37 39  1  0  0  0
 37 47  1  0  0  0
 37 66  1  0  0  0
 37106  1  0  0  0
 38 43  2  0  0  0
 38 46  1  0  0  0
 38 47  1  0  0  0
 39 64  1  0  0  0
 39 67  2  0  0  0
 40 52  1  0  0  0
 40 53  2  0  0  0
 40 58  1  0  0  0
 41107  1  0  0  0
 41108  1  0  0  0
 41109  1  0  0  0
 41 48  1  0  0  0
 42 43  1  0  0  0
 42 66  1  0  0  0
 42110  1  0  0  0
 42111  1  0  0  0
 43 44  1  0  0  0
 44112  1  0  0  0
 45 46  2  0  0  0
 45113  1  0  0  0
 46114  1  0  0  0
 47115  1  0  0  0
 47116  1  0  0  0
 48 56  1  0  0  0
 48 65  1  0  0  0
 48117  1  0  0  0
 49 50  1  0  0  0
 49 53  1  0  0  0
 49 64  1  0  0  0
 49118  1  0  0  0
 50 51  1  0  0  0
 50119  1  0  0  0
 50120  1  0  0  0
 51 52  1  0  0  0
 51121  1  0  0  0
 51122  1  0  0  0
 52123  1  0  0  0
 52124  1  0  0  0
 53 54  1  0  0  0
 54 55  2  0  0  0
 54125  1  0  0  0
 55 57  1  0  0  0
 55126  1  0  0  0
 56 69  2  0  0  0
 57 58  2  0  0  0
 57127  1  0  0  0
 58128  1  0  0  0
 59 60  1  0  0  0
 59 61  1  0  0  0
 59 62  1  0  0  0
 60129  1  0  0  0
 60130  1  0  0  0
 60131  1  0  0  0
 61132  1  0  0  0
 61133  1  0  0  0
 61134  1  0  0  0
 62135  1  0  0  0
 62136  1  0  0  0
 62137  1  0  0  0
 63 65  1  0  0  0
 63138  1  0  0  0
 63139  1  0  0  0
 63140  1  0  0  0
 64141  1  0  0  0
 65142  1  0  0  0
 68 78  1  0  0  0
 71 72  1  0  0  0
 71 74  2  0  0  0
 71143  1  0  0  0
 72 73  2  0  0  0
 72 79  1  0  0  0
 73 77  1  0  0  0
 73 83  1  0  0  0
 74 80  1  0  0  0
 74 83  1  0  0  0
 75 78  1  0  0  0
 75 80  1  0  0  0
 75 82  2  0  0  0
 76144  1  0  0  0
 76145  1  0  0  0
 76146  1  0  0  0
 76 78  1  0  0  0
 77 81  1  0  0  0
 77147  1  0  0  0
 77148  1  0  0  0
 78149  1  0  0  0
 79150  1  0  0  0
 79151  1  0  0  0
 80152  1  0  0  0
 81153  1  0  0  0
M  ISO  4   1 100  68 101  78 101  81 100
M  END
> <chiral flag>
0

> <version>
0

> <s_m_source_file>
/data/baiqing/PycharmProjects/Reinvent-master-3.2/result/LINK_invent/BTK/process_docking_weight1_custom_product_contain_oxygen_bond_distance_aromatic_linkinvent_7_9_3/rearranged_h_0150.sdf

> <i_m_source_file_index>
4

> <r_mmod_Potential_Energy-OPLS-2005>
128.501968383789

> <r_mmod_Stretch_Energy-OPLS-2005>
111.86710357666

> <r_mmod_Bend_Energy-OPLS-2005>
195.753387451172

> <r_mmod_Torsional_Energy-OPLS-2005>
249.921401977539

> <r_mmod_Improper_Torsional_Energy-OPLS-2005>
10.5151596069336

> <r_mmod_Van_der_Waal_Energy-OPLS-2005>
115.414215087891

> <r_mmod_Electrostatic_Energy-OPLS-2005>
-390.970947265625

> <r_mmod_Solvation_Energy-OPLS-2005>
-246.496871948242

> <b_mmod_Minimization_Converged-OPLS-2005>
0

> <r_mmod_RMS_Derivative-OPLS-2005>
1.66366493701935

$$$$
4
                    3D
 Structure written by MMmdl.
155163  0  0  1  0            999 V2000
  -30.6249  -14.7498   20.4439 C   0  0  0  0  0  0
  -30.4384  -12.4543   19.4878 C   0  0  0  0  0  0
  -29.5193  -12.5056   18.2449 C   0  0  0  0  0  0
  -28.0436  -12.3343   18.6537 C   0  0  0  0  0  0
  -27.6462  -13.2366   19.8530 C   0  0  2  0  0  0
  -28.6911  -13.1767   20.9925 C   0  0  0  0  0  0
  -25.2525  -13.8239   20.5687 C   0  0  0  0  0  0
  -24.1826  -13.0471   20.9210 C   0  0  0  0  0  0
  -24.6422  -11.6946   20.8747 C   0  0  0  0  0  0
  -23.9086  -10.4319   21.0400 C   0  0  0  0  0  0
  -24.3636   -9.4228   21.9173 C   0  0  0  0  0  0
  -23.6308   -8.2264   22.0746 C   0  0  0  0  0  0
  -22.4282   -8.0307   21.3543 C   0  0  0  0  0  0
  -21.9930   -9.0281   20.4641 C   0  0  0  0  0  0
  -22.7264  -10.2158   20.3053 C   0  0  0  0  0  0
  -21.6870   -6.0748   22.5270 C   0  0  0  0  0  0
  -21.4013   -6.5633   23.8209 C   0  0  0  0  0  0
  -21.3667   -5.6782   24.9171 C   0  0  0  0  0  0
  -21.6051   -4.3043   24.7210 C   0  0  0  0  0  0
  -21.8831   -3.8149   23.4328 C   0  0  0  0  0  0
  -21.9199   -4.6977   22.3390 C   0  0  0  0  0  0
  -22.7825  -13.5227   21.1858 C   0  0  0  0  0  0
  -22.1671   -4.2161   21.0970 F   0  0  0  0  0  0
  -21.5633   -3.4528   25.7721 F   0  0  0  0  0  0
  -29.9974  -13.5224   20.4176 N   0  0  0  0  0  0
  -26.2960  -12.9451   20.3287 N   0  0  0  0  0  0
  -25.9354  -11.6584   20.5750 N   0  0  0  0  0  0
  -22.0469  -12.8228   22.0415 N   0  0  0  0  0  0
  -25.4240  -15.1964   20.4083 N   0  0  0  0  0  0
  -31.7991  -14.8410   20.0754 O   0  0  0  0  0  0
  -21.6657   -6.8898   21.4235 O   0  0  0  0  0  0
  -22.3496  -14.5512   20.6686 O   0  0  0  0  0  0
  -24.6266  -31.8575   23.2021 C   0  0  0  0  0  0
  -25.9111  -32.4755   23.8325 C   0  0  1  0  0  0
  -27.2051  -27.2564   20.1557 C   0  0  0  0  0  0
  -25.5918  -33.8560   24.2250 N   0  0  0  0  0  0
  -23.4225  -30.4828   21.5428 C   0  0  2  0  0  0
  -24.8746  -28.9357   20.1070 C   0  0  0  0  0  0
  -22.7458  -29.4614   22.4887 C   0  0  0  0  0  0
  -18.0278  -28.1383   22.8458 C   0  0  0  0  0  0
  -24.1503  -36.7302   23.2641 C   0  0  0  0  0  0
  -25.9665  -30.7674   21.3873 C   0  0  0  0  0  0
  -26.0404  -29.3872   20.7382 C   0  0  0  0  0  0
  -27.2077  -28.5563   20.7658 C   0  0  0  0  0  0
  -26.0455  -26.9103   19.4317 C   0  0  0  0  0  0
  -24.8815  -27.7017   19.4397 C   0  0  0  0  0  0
  -23.6459  -29.8241   20.1561 C   0  0  0  0  0  0
  -25.4119  -36.3065   24.0322 C   0  0  1  0  0  0
  -20.5881  -28.3681   23.1255 C   0  0  2  0  0  0
  -20.6767  -26.9389   22.5412 C   0  0  0  0  0  0
  -19.5755  -26.6363   21.5204 C   0  0  0  0  0  0
  -18.1933  -26.7917   22.1613 C   0  0  0  0  0  0
  -19.1531  -28.8841   23.2864 C   0  0  0  0  0  0
  -18.9462  -30.1446   23.8874 C   0  0  0  0  0  0
  -17.6464  -30.6582   24.0553 C   0  0  0  0  0  0
  -25.9043  -34.9438   23.5086 C   0  0  0  0  0  0
  -16.5352  -29.9079   23.6340 C   0  0  0  0  0  0
  -16.7264  -28.6517   23.0318 C   0  0  0  0  0  0
  -26.4513  -31.6555   25.0690 C   0  0  0  0  0  0
  -25.3759  -31.3688   26.1409 C   0  0  0  0  0  0
  -27.0335  -30.2965   24.6135 C   0  0  0  0  0  0
  -27.6038  -32.4284   25.7509 C   0  0  0  0  0  0
  -27.5577  -37.1804   24.8459 C   0  0  0  0  0  0
  -21.4170  -29.3048   22.3643 N   0  0  0  0  0  0
  -26.4289  -37.3762   23.9406 N   0  0  0  0  0  0
  -24.6902  -31.0523   22.1012 N   0  0  0  0  0  0
  -23.4156  -28.8155   23.2990 O   0  0  0  0  0  0
  -28.2686  -26.3213   20.1966 O   0  0  0  0  0  0
  -26.5613  -34.8907   22.4655 O   0  0  0  0  0  0
  -23.5423  -32.1406   23.7323 O   0  0  0  0  0  0
  -28.9868  -19.7662   20.0067 C   0  0  0  0  0  0
  -30.6987  -19.1783   21.4331 C   0  0  0  0  0  0
  -29.8587  -18.6694   20.4711 C   0  0  0  0  0  0
  -29.1844  -21.0456   20.5599 C   0  0  0  0  0  0
  -26.6511  -24.5097   21.0747 C   0  0  0  0  0  0
  -28.6865  -25.2476   22.2689 C   0  0  0  0  0  0
  -29.9833  -17.2076   19.8641 C   0  0  0  0  0  0
  -28.9782  -23.7045   20.2591 C   0  0  0  0  0  0
  -28.1204  -24.9608   20.8671 C   0  0  0  0  0  0
  -28.4438  -22.2816   20.3652 N   0  0  0  0  0  0
  -29.8624  -15.8925   20.6346 N   0  0  0  0  0  0
  -30.4914  -20.9132   21.7126 S   0  0  0  0  0  0
  -31.4801  -12.5713   19.1841 H   0  0  0  0  0  0
  -30.3838  -11.4803   19.9772 H   0  0  0  0  0  0
  -29.8014  -11.7271   17.5358 H   0  0  0  0  0  0
  -29.6518  -13.4565   17.7251 H   0  0  0  0  0  0
  -27.8987  -11.2857   18.9167 H   0  0  0  0  0  0
  -27.3914  -12.5258   17.8014 H   0  0  0  0  0  0
  -27.6396  -14.2574   19.4697 H   0  0  0  0  0  0
  -28.7239  -12.1818   21.4387 H   0  0  0  0  0  0
  -28.4261  -13.8636   21.7982 H   0  0  0  0  0  0
  -25.2807   -9.5699   22.4725 H   0  0  0  0  0  0
  -24.0036   -7.4652   22.7453 H   0  0  0  0  0  0
  -21.0871   -8.8803   19.8930 H   0  0  0  0  0  0
  -22.3742  -10.9693   19.6141 H   0  0  0  0  0  0
  -21.2002   -7.6142   23.9712 H   0  0  0  0  0  0
  -21.1471   -6.0506   25.9070 H   0  0  0  0  0  0
  -22.0602   -2.7609   23.2824 H   0  0  0  0  0  0
  -22.4105  -11.9907   22.4836 H   0  0  0  0  0  0
  -21.1068  -13.1215   22.2581 H   0  0  0  0  0  0
  -24.6593  -15.8558   20.5175 H   0  0  0  0  0  0
  -26.2699  -15.6293   20.0590 H   0  0  0  0  0  0
  -26.7138  -32.5439   23.1032 H   0  0  0  0  0  0
  -25.0034  -33.9714   25.0367 H   0  0  0  0  0  0
  -22.7183  -31.3059   21.4007 H   0  0  0  0  0  0
  -23.3742  -35.9666   23.3313 H   0  0  0  0  0  0
  -24.3582  -36.8918   22.2053 H   0  0  0  0  0  0
  -23.7302  -37.6526   23.6657 H   0  0  0  0  0  0
  -26.0980  -31.5209   20.6103 H   0  0  0  0  0  0
  -26.8454  -30.8217   22.0173 H   0  0  0  0  0  0
  -28.0898  -28.8901   21.2942 H   0  0  0  0  0  0
  -26.0251  -25.9883   18.8715 H   0  0  0  0  0  0
  -24.0010  -27.3639   18.9111 H   0  0  0  0  0  0
  -23.7814  -30.6067   19.4088 H   0  0  0  0  0  0
  -22.7637  -29.2652   19.8418 H   0  0  0  0  0  0
  -25.1332  -36.1891   25.0819 H   0  0  0  0  0  0
  -20.9976  -28.3261   24.1373 H   0  0  0  0  0  0
  -20.5636  -26.2292   23.3619 H   0  0  0  0  0  0
  -21.6643  -26.7402   22.1233 H   0  0  0  0  0  0
  -19.6913  -25.6271   21.1244 H   0  0  0  0  0  0
  -19.6705  -27.3167   20.6728 H   0  0  0  0  0  0
  -17.4203  -26.6625   21.4020 H   0  0  0  0  0  0
  -18.0337  -26.0080   22.9033 H   0  0  0  0  0  0
  -19.7939  -30.7269   24.2220 H   0  0  0  0  0  0
  -17.5024  -31.6261   24.5153 H   0  0  0  0  0  0
  -15.5352  -30.2974   23.7685 H   0  0  0  0  0  0
  -15.8664  -28.0858   22.6989 H   0  0  0  0  0  0
  -24.5942  -30.7030   25.7750 H   0  0  0  0  0  0
  -24.8963  -32.2854   26.4840 H   0  0  0  0  0  0
  -25.8105  -30.8858   27.0166 H   0  0  0  0  0  0
  -26.2884  -29.6718   24.1183 H   0  0  0  0  0  0
  -27.4057  -29.7211   25.4622 H   0  0  0  0  0  0
  -27.8768  -30.4245   23.9341 H   0  0  0  0  0  0
  -27.2592  -33.3578   26.2066 H   0  0  0  0  0  0
  -28.3894  -32.6849   25.0391 H   0  0  0  0  0  0
  -28.0630  -31.8393   26.5463 H   0  0  0  0  0  0
  -28.2610  -38.0083   24.7471 H   0  0  0  0  0  0
  -28.1052  -36.2611   24.6326 H   0  0  0  0  0  0
  -27.2282  -37.1515   25.8857 H   0  0  0  0  0  0
  -20.9293  -29.8818   21.6928 H   0  0  0  0  0  0
  -26.0163  -38.2840   24.1404 H   0  0  0  0  0  0
  -28.2475  -19.5695   19.2433 H   0  0  0  0  0  0
  -31.4848  -18.6523   21.9624 H   0  0  0  0  0  0
  -26.0537  -25.2712   21.5790 H   0  0  0  0  0  0
  -26.5969  -23.6275   21.7147 H   0  0  0  0  0  0
  -26.1585  -24.2493   20.1404 H   0  0  0  0  0  0
  -28.1121  -26.0167   22.7856 H   0  0  0  0  0  0
  -29.7226  -25.5854   22.2145 H   0  0  0  0  0  0
  -28.6689  -24.3540   22.8951 H   0  0  0  0  0  0
  -30.9317  -17.1724   19.3253 H   0  0  0  0  0  0
  -29.2436  -17.1220   19.0685 H   0  0  0  0  0  0
  -29.9918  -23.7292   20.6601 H   0  0  0  0  0  0
  -29.0919  -23.8978   19.1911 H   0  0  0  0  0  0
  -27.5273  -22.1693   19.9404 H   0  0  0  0  0  0
  -28.9440  -15.7208   21.0165 H   0  0  0  0  0  0
  1 25  1  0  0  0
  1 30  2  0  0  0
  1 81  1  0  0  0
  2  3  1  0  0  0
  2 25  1  0  0  0
  2 83  1  0  0  0
  2 84  1  0  0  0
  3  4  1  0  0  0
  3 85  1  0  0  0
  3 86  1  0  0  0
  4  5  1  0  0  0
  4 87  1  0  0  0
  4 88  1  0  0  0
  5  6  1  0  0  0
  5 26  1  0  0  0
  5 89  1  0  0  0
  6 25  1  0  0  0
  6 90  1  0  0  0
  6 91  1  0  0  0
  7  8  2  0  0  0
  7 26  1  0  0  0
  7 29  1  0  0  0
  8  9  1  0  0  0
  8 22  1  0  0  0
  9 10  1  0  0  0
  9 27  2  0  0  0
 10 11  2  0  0  0
 10 15  1  0  0  0
 11 12  1  0  0  0
 11 92  1  0  0  0
 12 13  2  0  0  0
 12 93  1  0  0  0
 13 14  1  0  0  0
 13 31  1  0  0  0
 14 15  2  0  0  0
 14 94  1  0  0  0
 15 95  1  0  0  0
 16 17  2  0  0  0
 16 21  1  0  0  0
 16 31  1  0  0  0
 17 18  1  0  0  0
 17 96  1  0  0  0
 18 19  2  0  0  0
 18 97  1  0  0  0
 19 20  1  0  0  0
 19 24  1  0  0  0
 20 21  2  0  0  0
 20 98  1  0  0  0
 21 23  1  0  0  0
 22 28  1  0  0  0
 22 32  2  0  0  0
 26 27  1  0  0  0
 28 99  1  0  0  0
 28100  1  0  0  0
 29101  1  0  0  0
 29102  1  0  0  0
 33 34  1  0  0  0
 33 66  1  0  0  0
 33 70  2  0  0  0
 34 36  1  0  0  0
 34 59  1  0  0  0
 34103  1  0  0  0
 35 44  2  0  0  0
 35 45  1  0  0  0
 35 68  1  0  0  0
 36 56  1  0  0  0
 36104  1  0  0  0
 37 39  1  0  0  0
 37 47  1  0  0  0
 37 66  1  0  0  0
 37105  1  0  0  0
 38 43  2  0  0  0
 38 46  1  0  0  0
 38 47  1  0  0  0
 39 64  1  0  0  0
 39 67  2  0  0  0
 40 52  1  0  0  0
 40 53  2  0  0  0
 40 58  1  0  0  0
 41106  1  0  0  0
 41107  1  0  0  0
 41108  1  0  0  0
 41 48  1  0  0  0
 42 43  1  0  0  0
 42 66  1  0  0  0
 42109  1  0  0  0
 42110  1  0  0  0
 43 44  1  0  0  0
 44111  1  0  0  0
 45 46  2  0  0  0
 45112  1  0  0  0
 46113  1  0  0  0
 47114  1  0  0  0
 47115  1  0  0  0
 48 56  1  0  0  0
 48 65  1  0  0  0
 48116  1  0  0  0
 49 50  1  0  0  0
 49 53  1  0  0  0
 49 64  1  0  0  0
 49117  1  0  0  0
 50 51  1  0  0  0
 50118  1  0  0  0
 50119  1  0  0  0
 51 52  1  0  0  0
 51120  1  0  0  0
 51121  1  0  0  0
 52122  1  0  0  0
 52123  1  0  0  0
 53 54  1  0  0  0
 54 55  2  0  0  0
 54124  1  0  0  0
 55 57  1  0  0  0
 55125  1  0  0  0
 56 69  2  0  0  0
 57 58  2  0  0  0
 57126  1  0  0  0
 58127  1  0  0  0
 59 60  1  0  0  0
 59 61  1  0  0  0
 59 62  1  0  0  0
 60128  1  0  0  0
 60129  1  0  0  0
 60130  1  0  0  0
 61131  1  0  0  0
 61132  1  0  0  0
 61133  1  0  0  0
 62134  1  0  0  0
 62135  1  0  0  0
 62136  1  0  0  0
 63 65  1  0  0  0
 63137  1  0  0  0
 63138  1  0  0  0
 63139  1  0  0  0
 64140  1  0  0  0
 65141  1  0  0  0
 68 79  1  0  0  0
 71 73  1  0  0  0
 71 74  2  0  0  0
 71142  1  0  0  0
 72 73  2  0  0  0
 72 82  1  0  0  0
 72143  1  0  0  0
 73 77  1  0  0  0
 74 80  1  0  0  0
 74 82  1  0  0  0
 75144  1  0  0  0
 75145  1  0  0  0
 75146  1  0  0  0
 75 79  1  0  0  0
 76 79  1  0  0  0
 76147  1  0  0  0
 76148  1  0  0  0
 76149  1  0  0  0
 77 81  1  0  0  0
 77150  1  0  0  0
 77151  1  0  0  0
 78 79  1  0  0  0
 78 80  1  0  0  0
 78152  1  0  0  0
 78153  1  0  0  0
 80154  1  0  0  0
 81155  1  0  0  0
M  ISO  4   1 100  68 101  79 101  81 100
M  END
> <chiral flag>
0

> <version>
0

> <s_m_source_file>
/data/baiqing/PycharmProjects/Reinvent-master-3.2/result/LINK_invent/BTK/process_docking_weight1_custom_product_contain_oxygen_bond_distance_aromatic_linkinvent_7_9_3/rearranged_h_0150.sdf

> <i_m_source_file_index>
5

> <r_mmod_Potential_Energy-OPLS-2005>
111.093971252441

> <r_mmod_Stretch_Energy-OPLS-2005>
125.449127197266

> <r_mmod_Bend_Energy-OPLS-2005>
187.254638671875

> <r_mmod_Torsional_Energy-OPLS-2005>
265.876251220703

> <r_mmod_Improper_Torsional_Energy-OPLS-2005>
10.0000629425049

> <r_mmod_Van_der_Waal_Energy-OPLS-2005>
124.045791625977

> <r_mmod_Electrostatic_Energy-OPLS-2005>
-471.991180419922

> <r_mmod_Solvation_Energy-OPLS-2005>
-221.642044067383

> <b_mmod_Minimization_Converged-OPLS-2005>
0

> <r_mmod_RMS_Derivative-OPLS-2005>
2.93591356277466

$$$$
5
                    3D
 Structure written by MMmdl.
147155  0  0  1  0            999 V2000
  -30.5865  -14.7885   20.4453 C   0  0  0  0  0  0
  -30.4362  -12.4774   19.4848 C   0  0  0  0  0  0
  -29.5151  -12.5129   18.2440 C   0  0  0  0  0  0
  -28.0414  -12.3300   18.6551 C   0  0  0  0  0  0
  -27.6413  -13.2332   19.8517 C   0  0  2  0  0  0
  -28.6844  -13.1771   20.9899 C   0  0  0  0  0  0
  -25.2507  -13.8195   20.5697 C   0  0  0  0  0  0
  -24.1801  -13.0439   20.9213 C   0  0  0  0  0  0
  -24.6394  -11.6917   20.8749 C   0  0  0  0  0  0
  -23.9072  -10.4293   21.0408 C   0  0  0  0  0  0
  -24.3622   -9.4207   21.9185 C   0  0  0  0  0  0
  -23.6296   -8.2243   22.0754 C   0  0  0  0  0  0
  -22.4278   -8.0281   21.3544 C   0  0  0  0  0  0
  -21.9914   -9.0255   20.4646 C   0  0  0  0  0  0
  -22.7244  -10.2134   20.3056 C   0  0  0  0  0  0
  -21.6853   -6.0736   22.5279 C   0  0  0  0  0  0
  -21.4014   -6.5640   23.8212 C   0  0  0  0  0  0
  -21.3660   -5.6793   24.9174 C   0  0  0  0  0  0
  -21.6044   -4.3055   24.7225 C   0  0  0  0  0  0
  -21.8819   -3.8147   23.4346 C   0  0  0  0  0  0
  -21.9193   -4.6964   22.3402 C   0  0  0  0  0  0
  -22.7822  -13.5220   21.1870 C   0  0  0  0  0  0
  -22.1662   -4.2150   21.0980 F   0  0  0  0  0  0
  -21.5629   -3.4539   25.7738 F   0  0  0  0  0  0
  -29.9843  -13.5441   20.4128 N   0  0  0  0  0  0
  -26.2932  -12.9404   20.3278 N   0  0  0  0  0  0
  -25.9325  -11.6546   20.5752 N   0  0  0  0  0  0
  -22.0468  -12.8209   22.0425 N   0  0  0  0  0  0
  -25.4191  -15.1922   20.4109 N   0  0  0  0  0  0
  -31.7727  -14.8785   20.1085 O   0  0  0  0  0  0
  -21.6641   -6.8879   21.4241 O   0  0  0  0  0  0
  -22.3509  -14.5526   20.6717 O   0  0  0  0  0  0
  -24.6341  -31.8520   23.1953 C   0  0  0  0  0  0
  -25.9155  -32.4734   23.8309 C   0  0  1  0  0  0
  -27.2222  -27.2306   20.1258 C   0  0  0  0  0  0
  -25.5941  -33.8538   24.2232 N   0  0  0  0  0  0
  -23.4320  -30.4737   21.5392 C   0  0  2  0  0  0
  -24.8791  -28.9155   20.1075 C   0  0  0  0  0  0
  -22.7517  -29.4585   22.4897 C   0  0  0  0  0  0
  -18.0294  -28.1389   22.8483 C   0  0  0  0  0  0
  -24.1491  -36.7272   23.2641 C   0  0  0  0  0  0
  -25.9801  -30.7545   21.3798 C   0  0  0  0  0  0
  -26.0507  -29.3745   20.7204 C   0  0  0  0  0  0
  -27.2196  -28.5434   20.7202 C   0  0  0  0  0  0
  -26.0216  -26.8443   19.4871 C   0  0  0  0  0  0
  -24.8717  -27.6602   19.4812 C   0  0  0  0  0  0
  -23.6513  -29.8062   20.1556 C   0  0  0  0  0  0
  -25.4120  -36.3056   24.0323 C   0  0  1  0  0  0
  -20.5900  -28.3703   23.1262 C   0  0  2  0  0  0
  -20.6780  -26.9417   22.5408 C   0  0  0  0  0  0
  -19.5755  -26.6382   21.5213 C   0  0  0  0  0  0
  -18.1936  -26.7930   22.1624 C   0  0  0  0  0  0
  -19.1548  -28.8864   23.2866 C   0  0  0  0  0  0
  -18.9468  -30.1464   23.8886 C   0  0  0  0  0  0
  -17.6466  -30.6589   24.0561 C   0  0  0  0  0  0
  -25.9063  -34.9429   23.5082 C   0  0  0  0  0  0
  -16.5357  -29.9085   23.6333 C   0  0  0  0  0  0
  -16.7280  -28.6502   23.0354 C   0  0  0  0  0  0
  -26.4512  -31.6575   25.0716 C   0  0  0  0  0  0
  -25.3723  -31.3737   26.1428 C   0  0  0  0  0  0
  -27.0370  -30.2987   24.6233 C   0  0  0  0  0  0
  -27.6056  -32.4327   25.7494 C   0  0  0  0  0  0
  -27.5576  -37.1793   24.8466 C   0  0  0  0  0  0
  -21.4220  -29.3043   22.3645 N   0  0  0  0  0  0
  -26.4289  -37.3760   23.9408 N   0  0  0  0  0  0
  -24.7013  -31.0458   22.0941 N   0  0  0  0  0  0
  -23.4203  -28.8131   23.3012 O   0  0  0  0  0  0
  -28.3264  -26.3401   20.2208 O   0  0  0  0  0  0
  -26.5640  -34.8912   22.4654 O   0  0  0  0  0  0
  -23.5485  -32.1357   23.7234 O   0  0  0  0  0  0
  -30.6363  -19.2884   19.5342 C   0  0  0  0  0  0
  -29.5568  -19.6310   20.3220 C   0  0  0  0  0  0
  -29.9639  -17.3611   20.4148 C   0  0  0  0  0  0
  -28.5638  -23.6363   20.5039 C   0  0  0  0  0  0
  -29.0656  -22.2231   19.8840 C   0  0  0  0  0  0
  -28.3837  -24.9586   19.5899 C   0  0  0  0  0  0
  -30.8815  -17.8992   19.6012 N   0  0  0  0  0  0
  -28.9059  -20.9012   20.6446 N   0  0  0  0  0  0
  -29.7992  -15.9086   20.7144 N   0  0  0  0  0  0
  -28.3001  -23.6878   21.7099 O   0  0  0  0  0  0
  -29.1247  -18.3894   20.8773 O   0  0  0  0  0  0
  -31.4766  -12.6055   19.1818 H   0  0  0  0  0  0
  -30.3883  -11.5029   19.9734 H   0  0  0  0  0  0
  -29.8048  -11.7356   17.5356 H   0  0  0  0  0  0
  -29.6359  -13.4634   17.7218 H   0  0  0  0  0  0
  -27.9040  -11.2819   18.9233 H   0  0  0  0  0  0
  -27.3842  -12.5140   17.8043 H   0  0  0  0  0  0
  -27.6319  -14.2526   19.4655 H   0  0  0  0  0  0
  -28.7277  -12.1788   21.4283 H   0  0  0  0  0  0
  -28.4090  -13.8525   21.8013 H   0  0  0  0  0  0
  -25.2766   -9.5684   22.4760 H   0  0  0  0  0  0
  -24.0005   -7.4634   22.7473 H   0  0  0  0  0  0
  -21.0846   -8.8775   19.8951 H   0  0  0  0  0  0
  -22.3702  -10.9674   19.6166 H   0  0  0  0  0  0
  -21.2006   -7.6148   23.9716 H   0  0  0  0  0  0
  -21.1482   -6.0523   25.9077 H   0  0  0  0  0  0
  -22.0598   -2.7609   23.2845 H   0  0  0  0  0  0
  -22.4086  -11.9872   22.4814 H   0  0  0  0  0  0
  -21.1084  -13.1230   22.2629 H   0  0  0  0  0  0
  -24.6457  -15.8404   20.5143 H   0  0  0  0  0  0
  -26.2536  -15.6313   20.0447 H   0  0  0  0  0  0
  -26.7219  -32.5369   23.1043 H   0  0  0  0  0  0
  -25.0084  -33.9668   25.0375 H   0  0  0  0  0  0
  -22.7299  -31.2969   21.3916 H   0  0  0  0  0  0
  -23.3755  -35.9603   23.3300 H   0  0  0  0  0  0
  -24.3579  -36.8903   22.2057 H   0  0  0  0  0  0
  -23.7244  -37.6470   23.6673 H   0  0  0  0  0  0
  -26.1245  -31.5143   20.6105 H   0  0  0  0  0  0
  -26.8554  -30.8019   22.0161 H   0  0  0  0  0  0
  -28.1143  -28.8894   21.2188 H   0  0  0  0  0  0
  -25.9167  -25.8829   19.0124 H   0  0  0  0  0  0
  -23.9720  -27.3011   19.0004 H   0  0  0  0  0  0
  -23.7780  -30.5820   19.3997 H   0  0  0  0  0  0
  -22.7685  -29.2418   19.8500 H   0  0  0  0  0  0
  -25.1305  -36.1894   25.0815 H   0  0  0  0  0  0
  -20.9992  -28.3283   24.1383 H   0  0  0  0  0  0
  -20.5677  -26.2315   23.3617 H   0  0  0  0  0  0
  -21.6647  -26.7435   22.1203 H   0  0  0  0  0  0
  -19.6916  -25.6291   21.1249 H   0  0  0  0  0  0
  -19.6692  -27.3187   20.6738 H   0  0  0  0  0  0
  -17.4206  -26.6677   21.4027 H   0  0  0  0  0  0
  -18.0335  -26.0075   22.9023 H   0  0  0  0  0  0
  -19.7944  -30.7283   24.2249 H   0  0  0  0  0  0
  -17.5020  -31.6268   24.5164 H   0  0  0  0  0  0
  -15.5357  -30.2982   23.7665 H   0  0  0  0  0  0
  -15.8680  -28.0818   22.7075 H   0  0  0  0  0  0
  -24.5906  -30.7077   25.7754 H   0  0  0  0  0  0
  -24.8905  -32.2910   26.4822 H   0  0  0  0  0  0
  -25.8029  -30.8935   27.0224 H   0  0  0  0  0  0
  -26.2966  -29.6719   24.1247 H   0  0  0  0  0  0
  -27.4028  -29.7267   25.4771 H   0  0  0  0  0  0
  -27.8853  -30.4251   23.9502 H   0  0  0  0  0  0
  -27.2657  -33.3638   26.2041 H   0  0  0  0  0  0
  -28.3882  -32.6870   25.0334 H   0  0  0  0  0  0
  -28.0706  -31.8472   26.5436 H   0  0  0  0  0  0
  -28.2593  -38.0091   24.7509 H   0  0  0  0  0  0
  -28.1073  -36.2621   24.6299 H   0  0  0  0  0  0
  -27.2293  -37.1448   25.8869 H   0  0  0  0  0  0
  -20.9413  -29.8761   21.6841 H   0  0  0  0  0  0
  -26.0162  -38.2832   24.1406 H   0  0  0  0  0  0
  -31.2653  -19.9323   18.9357 H   0  0  0  0  0  0
  -30.1231  -22.3485   19.6494 H   0  0  0  0  0  0
  -28.5661  -22.1113   18.9209 H   0  0  0  0  0  0
  -27.5454  -24.7762   18.9246 H   0  0  0  0  0  0
  -29.2491  -24.9758   18.9277 H   0  0  0  0  0  0
  -28.1279  -20.9028   21.3008 H   0  0  0  0  0  0
  -28.8982  -15.6808   21.1005 H   0  0  0  0  0  0
  1 25  1  0  0  0
  1 30  2  0  0  0
  1 79  1  0  0  0
  2  3  1  0  0  0
  2 25  1  0  0  0
  2 82  1  0  0  0
  2 83  1  0  0  0
  3  4  1  0  0  0
  3 84  1  0  0  0
  3 85  1  0  0  0
  4  5  1  0  0  0
  4 86  1  0  0  0
  4 87  1  0  0  0
  5  6  1  0  0  0
  5 26  1  0  0  0
  5 88  1  0  0  0
  6 25  1  0  0  0
  6 89  1  0  0  0
  6 90  1  0  0  0
  7  8  2  0  0  0
  7 26  1  0  0  0
  7 29  1  0  0  0
  8  9  1  0  0  0
  8 22  1  0  0  0
  9 10  1  0  0  0
  9 27  2  0  0  0
 10 11  2  0  0  0
 10 15  1  0  0  0
 11 12  1  0  0  0
 11 91  1  0  0  0
 12 13  2  0  0  0
 12 92  1  0  0  0
 13 14  1  0  0  0
 13 31  1  0  0  0
 14 15  2  0  0  0
 14 93  1  0  0  0
 15 94  1  0  0  0
 16 17  2  0  0  0
 16 21  1  0  0  0
 16 31  1  0  0  0
 17 18  1  0  0  0
 17 95  1  0  0  0
 18 19  2  0  0  0
 18 96  1  0  0  0
 19 20  1  0  0  0
 19 24  1  0  0  0
 20 21  2  0  0  0
 20 97  1  0  0  0
 21 23  1  0  0  0
 22 28  1  0  0  0
 22 32  2  0  0  0
 26 27  1  0  0  0
 28 98  1  0  0  0
 28 99  1  0  0  0
 29100  1  0  0  0
 29101  1  0  0  0
 33 34  1  0  0  0
 33 66  1  0  0  0
 33 70  2  0  0  0
 34 36  1  0  0  0
 34 59  1  0  0  0
 34102  1  0  0  0
 35 44  2  0  0  0
 35 45  1  0  0  0
 35 68  1  0  0  0
 36 56  1  0  0  0
 36103  1  0  0  0
 37 39  1  0  0  0
 37 47  1  0  0  0
 37 66  1  0  0  0
 37104  1  0  0  0
 38 43  2  0  0  0
 38 46  1  0  0  0
 38 47  1  0  0  0
 39 64  1  0  0  0
 39 67  2  0  0  0
 40 52  1  0  0  0
 40 53  2  0  0  0
 40 58  1  0  0  0
 41105  1  0  0  0
 41106  1  0  0  0
 41107  1  0  0  0
 41 48  1  0  0  0
 42 43  1  0  0  0
 42 66  1  0  0  0
 42108  1  0  0  0
 42109  1  0  0  0
 43 44  1  0  0  0
 44110  1  0  0  0
 45 46  2  0  0  0
 45111  1  0  0  0
 46112  1  0  0  0
 47113  1  0  0  0
 47114  1  0  0  0
 48 56  1  0  0  0
 48 65  1  0  0  0
 48115  1  0  0  0
 49 50  1  0  0  0
 49 53  1  0  0  0
 49 64  1  0  0  0
 49116  1  0  0  0
 50 51  1  0  0  0
 50117  1  0  0  0
 50118  1  0  0  0
 51 52  1  0  0  0
 51119  1  0  0  0
 51120  1  0  0  0
 52121  1  0  0  0
 52122  1  0  0  0
 53 54  1  0  0  0
 54 55  2  0  0  0
 54123  1  0  0  0
 55 57  1  0  0  0
 55124  1  0  0  0
 56 69  2  0  0  0
 57 58  2  0  0  0
 57125  1  0  0  0
 58126  1  0  0  0
 59 60  1  0  0  0
 59 61  1  0  0  0
 59 62  1  0  0  0
 60127  1  0  0  0
 60128  1  0  0  0
 60129  1  0  0  0
 61130  1  0  0  0
 61131  1  0  0  0
 61132  1  0  0  0
 62133  1  0  0  0
 62134  1  0  0  0
 62135  1  0  0  0
 63 65  1  0  0  0
 63136  1  0  0  0
 63137  1  0  0  0
 63138  1  0  0  0
 64139  1  0  0  0
 65140  1  0  0  0
 68 76  1  0  0  0
 71 72  2  0  0  0
 71 77  1  0  0  0
 71141  1  0  0  0
 72 78  1  0  0  0
 72 81  1  0  0  0
 73 77  2  0  0  0
 73 79  1  0  0  0
 73 81  1  0  0  0
 74 75  1  0  0  0
 74 76  1  0  0  0
 74 80  2  0  0  0
 75 78  1  0  0  0
 75142  1  0  0  0
 75143  1  0  0  0
 76144  1  0  0  0
 76145  1  0  0  0
 78146  1  0  0  0
 79147  1  0  0  0
M  ISO  4   1 100  68 101  76 101  79 100
M  END
> <chiral flag>
0

> <version>
0

> <s_m_source_file>
/data/baiqing/PycharmProjects/Reinvent-master-3.2/result/LINK_invent/BTK/process_docking_weight1_custom_product_contain_oxygen_bond_distance_aromatic_linkinvent_7_9_3/rearranged_h_0150.sdf

> <i_m_source_file_index>
6

> <r_mmod_Potential_Energy-OPLS-2005>
166.275680541992

> <r_mmod_Stretch_Energy-OPLS-2005>
142.048645019531

> <r_mmod_Bend_Energy-OPLS-2005>
190.537002563477

> <r_mmod_Torsional_Energy-OPLS-2005>
201.580780029297

> <r_mmod_Improper_Torsional_Energy-OPLS-2005>
4.25482273101807

> <r_mmod_Van_der_Waal_Energy-OPLS-2005>
116.377326965332

> <r_mmod_Electrostatic_Energy-OPLS-2005>
-316.460510253906

> <r_mmod_Solvation_Energy-OPLS-2005>
-274.820098876953

> <b_mmod_Minimization_Converged-OPLS-2005>
0

> <r_mmod_RMS_Derivative-OPLS-2005>
0.114461429417133

$$$$
6
                    3D
 Structure written by MMmdl.
156165  0  0  1  0            999 V2000
  -30.6582  -14.5412   20.5243 C   0  0  0  0  0  0
  -30.4261  -12.3350   19.4421 C   0  0  0  0  0  0
  -29.5004  -12.5088   18.2189 C   0  0  0  0  0  0
  -28.0204  -12.3651   18.6267 C   0  0  0  0  0  0
  -27.6586  -13.2120   19.8770 C   0  0  2  0  0  0
  -28.6997  -13.0187   21.0027 C   0  0  0  0  0  0
  -25.2581  -13.8178   20.5719 C   0  0  0  0  0  0
  -24.1833  -13.0442   20.9187 C   0  0  0  0  0  0
  -24.6396  -11.6912   20.8739 C   0  0  0  0  0  0
  -23.9072  -10.4292   21.0410 C   0  0  0  0  0  0
  -24.3624   -9.4203   21.9184 C   0  0  0  0  0  0
  -23.6295   -8.2241   22.0763 C   0  0  0  0  0  0
  -22.4273   -8.0287   21.3557 C   0  0  0  0  0  0
  -21.9915   -9.0259   20.4650 C   0  0  0  0  0  0
  -22.7251  -10.2133   20.3055 C   0  0  0  0  0  0
  -21.6861   -6.0741   22.5286 C   0  0  0  0  0  0
  -21.4016   -6.5644   23.8218 C   0  0  0  0  0  0
  -21.3651   -5.6796   24.9180 C   0  0  0  0  0  0
  -21.6043   -4.3060   24.7231 C   0  0  0  0  0  0
  -21.8816   -3.8155   23.4350 C   0  0  0  0  0  0
  -21.9194   -4.6967   22.3402 C   0  0  0  0  0  0
  -22.7851  -13.5226   21.1844 C   0  0  0  0  0  0
  -22.1663   -4.2149   21.0981 F   0  0  0  0  0  0
  -21.5621   -3.4545   25.7743 F   0  0  0  0  0  0
  -30.0278  -13.3330   20.4513 N   0  0  0  0  0  0
  -26.3010  -12.9350   20.3379 N   0  0  0  0  0  0
  -25.9326  -11.6505   20.5776 N   0  0  0  0  0  0
  -22.0497  -12.8217   22.0397 N   0  0  0  0  0  0
  -25.4318  -15.1902   20.4158 N   0  0  0  0  0  0
  -31.7927  -14.7209   20.0707 O   0  0  0  0  0  0
  -21.6639   -6.8887   21.4255 O   0  0  0  0  0  0
  -22.3533  -14.5537   20.6709 O   0  0  0  0  0  0
  -24.6183  -31.8652   23.2058 C   0  0  0  0  0  0
  -25.9062  -32.4805   23.8370 C   0  0  1  0  0  0
  -27.2363  -27.3880   20.0973 C   0  0  0  0  0  0
  -25.5906  -33.8602   24.2308 N   0  0  0  0  0  0
  -23.4075  -30.4882   21.5472 C   0  0  2  0  0  0
  -24.8539  -28.9454   20.1112 C   0  0  0  0  0  0
  -22.7418  -29.4661   22.4970 C   0  0  0  0  0  0
  -18.0274  -28.1376   22.8502 C   0  0  0  0  0  0
  -24.1487  -36.7298   23.2638 C   0  0  0  0  0  0
  -25.9402  -30.8144   21.3658 C   0  0  0  0  0  0
  -26.0148  -29.4447   20.7129 C   0  0  0  0  0  0
  -27.2026  -28.6716   20.7046 C   0  0  0  0  0  0
  -26.0498  -26.9102   19.4954 C   0  0  0  0  0  0
  -24.8690  -27.6796   19.5002 C   0  0  0  0  0  0
  -23.6175  -29.8175   20.1623 C   0  0  0  0  0  0
  -25.4110  -36.3096   24.0335 C   0  0  1  0  0  0
  -20.5863  -28.3685   23.1308 C   0  0  2  0  0  0
  -20.6762  -26.9416   22.5422 C   0  0  0  0  0  0
  -19.5748  -26.6391   21.5212 C   0  0  0  0  0  0
  -18.1923  -26.7928   22.1619 C   0  0  0  0  0  0
  -19.1523  -28.8846   23.2903 C   0  0  0  0  0  0
  -18.9450  -30.1448   23.8920 C   0  0  0  0  0  0
  -17.6455  -30.6592   24.0572 C   0  0  0  0  0  0
  -25.9047  -34.9465   23.5123 C   0  0  0  0  0  0
  -16.5346  -29.9100   23.6322 C   0  0  0  0  0  0
  -16.7262  -28.6507   23.0359 C   0  0  0  0  0  0
  -26.4474  -31.6582   25.0708 C   0  0  0  0  0  0
  -25.3732  -31.3675   26.1442 C   0  0  0  0  0  0
  -27.0317  -30.3024   24.6099 C   0  0  0  0  0  0
  -27.6057  -32.4294   25.7473 C   0  0  0  0  0  0
  -27.5585  -37.1795   24.8464 C   0  0  0  0  0  0
  -21.4142  -29.3047   22.3706 N   0  0  0  0  0  0
  -26.4291  -37.3790   23.9418 N   0  0  0  0  0  0
  -24.6740  -31.0721   22.0974 N   0  0  0  0  0  0
  -23.4172  -28.8213   23.3033 O   0  0  0  0  0  0
  -28.4102  -26.6462   20.1493 O   0  0  0  0  0  0
  -26.5624  -34.8933   22.4692 O   0  0  0  0  0  0
  -23.5371  -32.1427   23.7438 O   0  0  0  0  0  0
  -29.4624  -18.2219   18.3138 C   0  0  0  0  0  0
  -29.6525  -16.9758   18.9571 C   0  0  0  0  0  0
  -29.7680  -18.0872   21.1437 C   0  0  0  0  0  0
  -29.5893  -19.3318   20.4734 C   0  0  0  0  0  0
  -29.4386  -19.3897   19.0979 C   0  0  0  0  0  0
  -29.8120  -16.8825   20.3699 C   0  0  0  0  0  0
  -29.5884  -20.7261   20.9408 C   0  0  0  0  0  0
  -28.5906  -24.1060   20.1507 C   0  0  0  0  0  0
  -29.2895  -20.8292   18.6478 C   0  0  0  0  0  0
  -29.7277  -23.0847   19.8536 C   0  0  0  0  0  0
  -28.6033  -25.4466   19.3485 C   0  0  0  0  0  0
  -29.4446  -21.6032   19.9111 N   0  0  0  0  0  0
  -29.9211  -15.5820   20.9893 N   0  0  0  0  0  0
  -29.7820  -21.1041   22.2007 N   0  3  0  0  0  0
  -27.7122  -23.8531   20.9826 O   0  0  0  0  0  0
  -31.4703  -12.4375   19.1408 H   0  0  0  0  0  0
  -30.3331  -11.3278   19.8513 H   0  0  0  0  0  0
  -29.7487  -11.7774   17.4482 H   0  0  0  0  0  0
  -29.6645  -13.4897   17.7700 H   0  0  0  0  0  0
  -27.8347  -11.3096   18.8287 H   0  0  0  0  0  0
  -27.3726  -12.6309   17.7907 H   0  0  0  0  0  0
  -27.6937  -14.2565   19.5681 H   0  0  0  0  0  0
  -28.6830  -11.9884   21.3594 H   0  0  0  0  0  0
  -28.4581  -13.6341   21.8702 H   0  0  0  0  0  0
  -25.2775   -9.5671   22.4749 H   0  0  0  0  0  0
  -24.0006   -7.4628   22.7483 H   0  0  0  0  0  0
  -21.0851   -8.8782   19.8943 H   0  0  0  0  0  0
  -22.3726  -10.9675   19.6156 H   0  0  0  0  0  0
  -21.2010   -7.6152   23.9721 H   0  0  0  0  0  0
  -21.1476   -6.0531   25.9083 H   0  0  0  0  0  0
  -22.0599   -2.7619   23.2861 H   0  0  0  0  0  0
  -22.4135  -11.9871   22.4758 H   0  0  0  0  0  0
  -21.1113  -13.1236   22.2613 H   0  0  0  0  0  0
  -24.6722  -15.8506   20.5366 H   0  0  0  0  0  0
  -26.2896  -15.6290   20.1079 H   0  0  0  0  0  0
  -26.7121  -32.5507   23.1121 H   0  0  0  0  0  0
  -25.0040  -33.9758   25.0438 H   0  0  0  0  0  0
  -22.6984  -31.3059   21.4049 H   0  0  0  0  0  0
  -23.3762  -35.9615   23.3286 H   0  0  0  0  0  0
  -24.3577  -36.8935   22.2053 H   0  0  0  0  0  0
  -23.7227  -37.6493   23.6666 H   0  0  0  0  0  0
  -26.0591  -31.5781   20.5958 H   0  0  0  0  0  0
  -26.8263  -30.8672   21.9869 H   0  0  0  0  0  0
  -28.0974  -29.0536   21.1760 H   0  0  0  0  0  0
  -26.0012  -25.9329   19.0409 H   0  0  0  0  0  0
  -23.9737  -27.2868   19.0382 H   0  0  0  0  0  0
  -23.7259  -30.5917   19.4020 H   0  0  0  0  0  0
  -22.7402  -29.2385   19.8680 H   0  0  0  0  0  0
  -25.1283  -36.1948   25.0827 H   0  0  0  0  0  0
  -20.9955  -28.3259   24.1429 H   0  0  0  0  0  0
  -20.5650  -26.2298   23.3616 H   0  0  0  0  0  0
  -21.6638  -26.7450   22.1232 H   0  0  0  0  0  0
  -19.6922  -25.6305   21.1239 H   0  0  0  0  0  0
  -19.6689  -27.3202   20.6743 H   0  0  0  0  0  0
  -17.4196  -26.6688   21.4014 H   0  0  0  0  0  0
  -18.0325  -26.0054   22.8996 H   0  0  0  0  0  0
  -19.7924  -30.7253   24.2302 H   0  0  0  0  0  0
  -17.5013  -31.6268   24.5172 H   0  0  0  0  0  0
  -15.5351  -30.3018   23.7623 H   0  0  0  0  0  0
  -15.8660  -28.0830   22.7077 H   0  0  0  0  0  0
  -24.5939  -30.6985   25.7769 H   0  0  0  0  0  0
  -24.8879  -32.2815   26.4869 H   0  0  0  0  0  0
  -25.8084  -30.8866   27.0209 H   0  0  0  0  0  0
  -26.2868  -29.6769   24.1161 H   0  0  0  0  0  0
  -27.4096  -29.7270   25.4562 H   0  0  0  0  0  0
  -27.8698  -30.4346   23.9251 H   0  0  0  0  0  0
  -27.2691  -33.3599   26.2056 H   0  0  0  0  0  0
  -28.3863  -32.6833   25.0288 H   0  0  0  0  0  0
  -28.0718  -31.8400   26.5379 H   0  0  0  0  0  0
  -28.2586  -38.0109   24.7548 H   0  0  0  0  0  0
  -28.1106  -36.2645   24.6249 H   0  0  0  0  0  0
  -27.2313  -37.1396   25.8870 H   0  0  0  0  0  0
  -20.9301  -29.8764   21.6921 H   0  0  0  0  0  0
  -26.0178  -38.2867   24.1432 H   0  0  0  0  0  0
  -29.3397  -18.2733   17.2417 H   0  0  0  0  0  0
  -29.6536  -16.0832   18.3479 H   0  0  0  0  0  0
  -29.8865  -18.0593   22.2172 H   0  0  0  0  0  0
  -28.3086  -20.9893   18.1989 H   0  0  0  0  0  0
  -30.0587  -21.0852   17.9176 H   0  0  0  0  0  0
  -30.5506  -23.3083   20.5322 H   0  0  0  0  0  0
  -30.1091  -23.3128   18.8581 H   0  0  0  0  0  0
  -27.9093  -25.3834   18.5128 H   0  0  0  0  0  0
  -29.5870  -25.5404   18.8893 H   0  0  0  0  0  0
  -29.1360  -15.3161   21.5649 H   0  0  0  0  0  0
  -29.9062  -20.4035   22.9154 H   0  0  0  0  0  0
  -29.7295  -22.0694   22.4808 H   0  0  0  0  0  0
  1 25  1  0  0  0
  1 30  2  0  0  0
  1 83  1  0  0  0
  2  3  1  0  0  0
  2 25  1  0  0  0
  2 86  1  0  0  0
  2 87  1  0  0  0
  3  4  1  0  0  0
  3 88  1  0  0  0
  3 89  1  0  0  0
  4  5  1  0  0  0
  4 90  1  0  0  0
  4 91  1  0  0  0
  5  6  1  0  0  0
  5 26  1  0  0  0
  5 92  1  0  0  0
  6 25  1  0  0  0
  6 93  1  0  0  0
  6 94  1  0  0  0
  7  8  2  0  0  0
  7 26  1  0  0  0
  7 29  1  0  0  0
  8  9  1  0  0  0
  8 22  1  0  0  0
  9 10  1  0  0  0
  9 27  2  0  0  0
 10 11  2  0  0  0
 10 15  1  0  0  0
 11 12  1  0  0  0
 11 95  1  0  0  0
 12 13  2  0  0  0
 12 96  1  0  0  0
 13 14  1  0  0  0
 13 31  1  0  0  0
 14 15  2  0  0  0
 14 97  1  0  0  0
 15 98  1  0  0  0
 16 17  2  0  0  0
 16 21  1  0  0  0
 16 31  1  0  0  0
 17 18  1  0  0  0
 17 99  1  0  0  0
 18 19  2  0  0  0
 18100  1  0  0  0
 19 20  1  0  0  0
 19 24  1  0  0  0
 20 21  2  0  0  0
 20101  1  0  0  0
 21 23  1  0  0  0
 22 28  1  0  0  0
 22 32  2  0  0  0
 26 27  1  0  0  0
 28102  1  0  0  0
 28103  1  0  0  0
 29104  1  0  0  0
 29105  1  0  0  0
 33 34  1  0  0  0
 33 66  1  0  0  0
 33 70  2  0  0  0
 34 36  1  0  0  0
 34 59  1  0  0  0
 34106  1  0  0  0
 35 44  2  0  0  0
 35 45  1  0  0  0
 35 68  1  0  0  0
 36 56  1  0  0  0
 36107  1  0  0  0
 37 39  1  0  0  0
 37 47  1  0  0  0
 37 66  1  0  0  0
 37108  1  0  0  0
 38 43  2  0  0  0
 38 46  1  0  0  0
 38 47  1  0  0  0
 39 64  1  0  0  0
 39 67  2  0  0  0
 40 52  1  0  0  0
 40 53  2  0  0  0
 40 58  1  0  0  0
 41109  1  0  0  0
 41110  1  0  0  0
 41111  1  0  0  0
 41 48  1  0  0  0
 42 43  1  0  0  0
 42 66  1  0  0  0
 42112  1  0  0  0
 42113  1  0  0  0
 43 44  1  0  0  0
 44114  1  0  0  0
 45 46  2  0  0  0
 45115  1  0  0  0
 46116  1  0  0  0
 47117  1  0  0  0
 47118  1  0  0  0
 48 56  1  0  0  0
 48 65  1  0  0  0
 48119  1  0  0  0
 49 50  1  0  0  0
 49 53  1  0  0  0
 49 64  1  0  0  0
 49120  1  0  0  0
 50 51  1  0  0  0
 50121  1  0  0  0
 50122  1  0  0  0
 51 52  1  0  0  0
 51123  1  0  0  0
 51124  1  0  0  0
 52125  1  0  0  0
 52126  1  0  0  0
 53 54  1  0  0  0
 54 55  2  0  0  0
 54127  1  0  0  0
 55 57  1  0  0  0
 55128  1  0  0  0
 56 69  2  0  0  0
 57 58  2  0  0  0
 57129  1  0  0  0
 58130  1  0  0  0
 59 60  1  0  0  0
 59 61  1  0  0  0
 59 62  1  0  0  0
 60131  1  0  0  0
 60132  1  0  0  0
 60133  1  0  0  0
 61134  1  0  0  0
 61135  1  0  0  0
 61136  1  0  0  0
 62137  1  0  0  0
 62138  1  0  0  0
 62139  1  0  0  0
 63 65  1  0  0  0
 63140  1  0  0  0
 63141  1  0  0  0
 63142  1  0  0  0
 64143  1  0  0  0
 65144  1  0  0  0
 68 81  1  0  0  0
 71 72  2  0  0  0
 71 75  1  0  0  0
 71145  1  0  0  0
 72 76  1  0  0  0
 72146  1  0  0  0
 73 74  1  0  0  0
 73 76  2  0  0  0
 73147  1  0  0  0
 74 75  2  0  0  0
 74 77  1  0  0  0
 75 79  1  0  0  0
 76 83  1  0  0  0
 77 82  1  0  0  0
 77 84  2  0  0  0
 78 80  1  0  0  0
 78 81  1  0  0  0
 78 85  2  0  0  0
 79 82  1  0  0  0
 79148  1  0  0  0
 79149  1  0  0  0
 80 82  1  0  0  0
 80150  1  0  0  0
 80151  1  0  0  0
 81152  1  0  0  0
 81153  1  0  0  0
 83154  1  0  0  0
 84155  1  0  0  0
 84156  1  0  0  0
M  CHG  1  84   1
M  ISO  4   1 100  68 101  81 101  83 100
M  END
> <chiral flag>
0

> <version>
0

> <s_m_source_file>
/data/baiqing/PycharmProjects/Reinvent-master-3.2/result/LINK_invent/BTK/process_docking_weight1_custom_product_contain_oxygen_bond_distance_aromatic_linkinvent_7_9_3/rearranged_h_0150.sdf

> <i_m_source_file_index>
7

> <r_mmod_Potential_Energy-OPLS-2005>
-163.970123291016

> <r_mmod_Stretch_Energy-OPLS-2005>
53.6096954345703

> <r_mmod_Bend_Energy-OPLS-2005>
191.22444152832

> <r_mmod_Torsional_Energy-OPLS-2005>
248.666976928711

> <r_mmod_Improper_Torsional_Energy-OPLS-2005>
6.35051107406616

> <r_mmod_Van_der_Waal_Energy-OPLS-2005>
135.191909790039

> <r_mmod_Electrostatic_Energy-OPLS-2005>
-378.635772705078

> <r_mmod_Solvation_Energy-OPLS-2005>
-442.591400146484

> <b_mmod_Minimization_Converged-OPLS-2005>
0

> <r_mmod_RMS_Derivative-OPLS-2005>
1.4912348985672

$$$$
7
                    3D
 Structure written by MMmdl.
161170  0  0  1  0            999 V2000
  -30.5805  -14.7216   20.4835 C   0  0  0  0  0  0
  -30.4427  -12.4425   19.4755 C   0  0  0  0  0  0
  -29.5200  -12.5284   18.2391 C   0  0  0  0  0  0
  -28.0422  -12.3510   18.6422 C   0  0  0  0  0  0
  -27.6517  -13.2253   19.8650 C   0  0  2  0  0  0
  -28.6914  -13.1049   21.0001 C   0  0  0  0  0  0
  -25.2542  -13.8179   20.5686 C   0  0  0  0  0  0
  -24.1819  -13.0445   20.9200 C   0  0  0  0  0  0
  -24.6407  -11.6914   20.8739 C   0  0  0  0  0  0
  -23.9088  -10.4293   21.0402 C   0  0  0  0  0  0
  -24.3636   -9.4211   21.9184 C   0  0  0  0  0  0
  -23.6303   -8.2254   22.0766 C   0  0  0  0  0  0
  -22.4285   -8.0292   21.3556 C   0  0  0  0  0  0
  -21.9921   -9.0267   20.4658 C   0  0  0  0  0  0
  -22.7258  -10.2142   20.3064 C   0  0  0  0  0  0
  -21.6856   -6.0746   22.5286 C   0  0  0  0  0  0
  -21.4005   -6.5638   23.8221 C   0  0  0  0  0  0
  -21.3660   -5.6791   24.9182 C   0  0  0  0  0  0
  -21.6051   -4.3059   24.7227 C   0  0  0  0  0  0
  -21.8814   -3.8161   23.4340 C   0  0  0  0  0  0
  -21.9193   -4.6978   22.3396 C   0  0  0  0  0  0
  -22.7837  -13.5256   21.1857 C   0  0  0  0  0  0
  -22.1657   -4.2167   21.0972 F   0  0  0  0  0  0
  -21.5641   -3.4538   25.7740 F   0  0  0  0  0  0
  -29.9999  -13.4747   20.4421 N   0  0  0  0  0  0
  -26.2979  -12.9377   20.3328 N   0  0  0  0  0  0
  -25.9341  -11.6518   20.5754 N   0  0  0  0  0  0
  -22.0461  -12.8255   22.0405 N   0  0  0  0  0  0
  -25.4264  -15.1908   20.4102 N   0  0  0  0  0  0
  -31.7271  -14.8871   20.0519 O   0  0  0  0  0  0
  -21.6645   -6.8893   21.4253 O   0  0  0  0  0  0
  -22.3530  -14.5567   20.6708 O   0  0  0  0  0  0
  -24.6290  -31.8551   23.1967 C   0  0  0  0  0  0
  -25.9132  -32.4744   23.8313 C   0  0  1  0  0  0
  -27.2277  -27.2713   20.1315 C   0  0  0  0  0  0
  -25.5951  -33.8547   24.2257 N   0  0  0  0  0  0
  -23.4245  -30.4750   21.5395 C   0  0  2  0  0  0
  -24.8724  -28.9189   20.1061 C   0  0  0  0  0  0
  -22.7473  -29.4608   22.4920 C   0  0  0  0  0  0
  -18.0275  -28.1389   22.8488 C   0  0  0  0  0  0
  -24.1490  -36.7260   23.2647 C   0  0  0  0  0  0
  -25.9664  -30.7704   21.3740 C   0  0  0  0  0  0
  -26.0385  -29.3927   20.7185 C   0  0  0  0  0  0
  -27.2120  -28.5782   20.7237 C   0  0  0  0  0  0
  -26.0388  -26.8571   19.4911 C   0  0  0  0  0  0
  -24.8775  -27.6601   19.4822 C   0  0  0  0  0  0
  -23.6394  -29.8007   20.1568 C   0  0  0  0  0  0
  -25.4123  -36.3056   24.0331 C   0  0  1  0  0  0
  -20.5877  -28.3700   23.1276 C   0  0  2  0  0  0
  -20.6769  -26.9417   22.5422 C   0  0  0  0  0  0
  -19.5758  -26.6376   21.5217 C   0  0  0  0  0  0
  -18.1920  -26.7940   22.1597 C   0  0  0  0  0  0
  -19.1527  -28.8855   23.2883 C   0  0  0  0  0  0
  -18.9459  -30.1461   23.8901 C   0  0  0  0  0  0
  -17.6460  -30.6599   24.0556 C   0  0  0  0  0  0
  -25.9062  -34.9432   23.5090 C   0  0  0  0  0  0
  -16.5350  -29.9090   23.6336 C   0  0  0  0  0  0
  -16.7266  -28.6495   23.0378 C   0  0  0  0  0  0
  -26.4510  -31.6564   25.0700 C   0  0  0  0  0  0
  -25.3742  -31.3713   26.1423 C   0  0  0  0  0  0
  -27.0355  -30.2977   24.6200 C   0  0  0  0  0  0
  -27.6067  -32.4302   25.7477 C   0  0  0  0  0  0
  -27.5585  -37.1781   24.8465 C   0  0  0  0  0  0
  -21.4183  -29.3046   22.3658 N   0  0  0  0  0  0
  -26.4290  -37.3761   23.9422 N   0  0  0  0  0  0
  -24.6918  -31.0527   22.0935 N   0  0  0  0  0  0
  -23.4168  -28.8163   23.3035 O   0  0  0  0  0  0
  -28.3546  -26.4279   20.2388 O   0  0  0  0  0  0
  -26.5630  -34.8906   22.4656 O   0  0  0  0  0  0
  -23.5449  -32.1372   23.7281 O   0  0  0  0  0  0
  -30.0538  -17.7511   19.3542 C   0  0  0  0  0  0
  -29.7886  -17.1438   20.5726 C   0  0  0  0  0  0
  -29.3538  -19.7365   20.3884 C   0  0  0  0  0  0
  -29.2558  -23.4049   21.5846 C   0  0  0  0  0  0
  -29.2096  -21.8732   21.8371 C   0  0  0  0  0  0
  -28.3156  -23.6414   20.3975 C   0  0  1  0  0  0
  -28.7052  -22.2694   19.6051 C   0  0  0  0  0  0
  -26.8592  -23.6214   20.9222 C   0  0  0  0  0  0
  -29.9324  -22.5064   18.6934 C   0  0  0  0  0  0
  -27.5510  -21.8084   18.6917 C   0  0  0  0  0  0
  -28.4910  -25.0700   19.6220 C   0  0  0  0  0  0
  -29.7848  -19.1493   19.2601 N   0  0  0  0  0  0
  -29.0586  -21.1540   20.5659 N   0  0  0  0  0  0
  -29.8073  -15.7817   20.9224 N   0  0  0  0  0  0
  -29.2357  -18.4610   21.6624 S   0  0  0  0  0  0
  -31.4848  -12.5764   19.1793 H   0  0  0  0  0  0
  -30.3903  -11.4511   19.9269 H   0  0  0  0  0  0
  -29.8034  -11.7750   17.5034 H   0  0  0  0  0  0
  -29.6517  -13.4957   17.7514 H   0  0  0  0  0  0
  -27.8886  -11.2973   18.8777 H   0  0  0  0  0  0
  -27.3898  -12.5705   17.7957 H   0  0  0  0  0  0
  -27.6627  -14.2593   19.5173 H   0  0  0  0  0  0
  -28.7194  -12.0852   21.3879 H   0  0  0  0  0  0
  -28.4224  -13.7402   21.8449 H   0  0  0  0  0  0
  -25.2776   -9.5691   22.4760 H   0  0  0  0  0  0
  -24.0023   -7.4642   22.7473 H   0  0  0  0  0  0
  -21.0863   -8.8787   19.8944 H   0  0  0  0  0  0
  -22.3726  -10.9689   19.6174 H   0  0  0  0  0  0
  -21.1976   -7.6138   23.9736 H   0  0  0  0  0  0
  -21.1489   -6.0511   25.9087 H   0  0  0  0  0  0
  -22.0593   -2.7628   23.2840 H   0  0  0  0  0  0
  -22.4030  -11.9902   22.4793 H   0  0  0  0  0  0
  -21.1092  -13.1330   22.2611 H   0  0  0  0  0  0
  -24.6603  -15.8470   20.5141 H   0  0  0  0  0  0
  -26.2781  -15.6290   20.0838 H   0  0  0  0  0  0
  -26.7196  -32.5391   23.1052 H   0  0  0  0  0  0
  -25.0116  -33.9684   25.0414 H   0  0  0  0  0  0
  -22.7229  -31.2978   21.3908 H   0  0  0  0  0  0
  -23.3759  -35.9580   23.3298 H   0  0  0  0  0  0
  -24.3579  -36.8888   22.2061 H   0  0  0  0  0  0
  -23.7218  -37.6453   23.6670 H   0  0  0  0  0  0
  -26.1062  -31.5305   20.6035 H   0  0  0  0  0  0
  -26.8433  -30.8192   22.0078 H   0  0  0  0  0  0
  -28.1031  -28.9355   21.2197 H   0  0  0  0  0  0
  -25.9701  -25.8874   19.0239 H   0  0  0  0  0  0
  -23.9818  -27.2921   19.0015 H   0  0  0  0  0  0
  -23.7514  -30.5715   19.3942 H   0  0  0  0  0  0
  -22.7600  -29.2252   19.8612 H   0  0  0  0  0  0
  -25.1302  -36.1898   25.0820 H   0  0  0  0  0  0
  -20.9973  -28.3287   24.1398 H   0  0  0  0  0  0
  -20.5649  -26.2321   23.3638 H   0  0  0  0  0  0
  -21.6644  -26.7437   22.1233 H   0  0  0  0  0  0
  -19.6927  -25.6277   21.1268 H   0  0  0  0  0  0
  -19.6712  -27.3169   20.6739 H   0  0  0  0  0  0
  -17.4212  -26.6722   21.3969 H   0  0  0  0  0  0
  -18.0293  -26.0060   22.8964 H   0  0  0  0  0  0
  -19.7938  -30.7275   24.2266 H   0  0  0  0  0  0
  -17.5015  -31.6283   24.5154 H   0  0  0  0  0  0
  -15.5352  -30.2999   23.7665 H   0  0  0  0  0  0
  -15.8657  -28.0805   22.7128 H   0  0  0  0  0  0
  -24.5974  -30.6986   25.7775 H   0  0  0  0  0  0
  -24.8867  -32.2869   26.4779 H   0  0  0  0  0  0
  -25.8074  -30.8973   27.0238 H   0  0  0  0  0  0
  -26.2934  -29.6713   24.1239 H   0  0  0  0  0  0
  -27.4042  -29.7249   25.4720 H   0  0  0  0  0  0
  -27.8803  -30.4232   23.9423 H   0  0  0  0  0  0
  -27.2683  -33.3603   26.2050 H   0  0  0  0  0  0
  -28.3883  -32.6856   25.0312 H   0  0  0  0  0  0
  -28.0733  -31.8431   26.5400 H   0  0  0  0  0  0
  -28.2587  -38.0092   24.7529 H   0  0  0  0  0  0
  -28.1085  -36.2624   24.6249 H   0  0  0  0  0  0
  -27.2312  -37.1390   25.8869 H   0  0  0  0  0  0
  -20.9372  -29.8747   21.6841 H   0  0  0  0  0  0
  -26.0159  -38.2824   24.1438 H   0  0  0  0  0  0
  -30.3830  -17.2479   18.4556 H   0  0  0  0  0  0
  -30.2733  -23.7041   21.3292 H   0  0  0  0  0  0
  -28.9778  -23.9755   22.4722 H   0  0  0  0  0  0
  -28.3596  -21.6227   22.4736 H   0  0  0  0  0  0
  -30.1027  -21.5437   22.3689 H   0  0  0  0  0  0
  -26.6124  -22.6998   21.4489 H   0  0  0  0  0  0
  -26.1398  -23.7312   20.1121 H   0  0  0  0  0  0
  -26.6832  -24.4495   21.6102 H   0  0  0  0  0  0
  -29.7389  -23.2685   17.9384 H   0  0  0  0  0  0
  -30.2047  -21.6052   18.1444 H   0  0  0  0  0  0
  -30.8148  -22.8115   19.2556 H   0  0  0  0  0  0
  -27.2349  -22.6045   18.0168 H   0  0  0  0  0  0
  -26.6772  -21.4952   19.2633 H   0  0  0  0  0  0
  -27.8436  -20.9592   18.0721 H   0  0  0  0  0  0
  -27.9126  -25.0355   18.7004 H   0  0  0  0  0  0
  -29.5195  -25.0970   19.2654 H   0  0  0  0  0  0
  -29.0199  -15.4845   21.4801 H   0  0  0  0  0  0
  1 25  1  0  0  0
  1 30  2  0  0  0
  1 84  1  0  0  0
  2  3  1  0  0  0
  2 25  1  0  0  0
  2 86  1  0  0  0
  2 87  1  0  0  0
  3  4  1  0  0  0
  3 88  1  0  0  0
  3 89  1  0  0  0
  4  5  1  0  0  0
  4 90  1  0  0  0
  4 91  1  0  0  0
  5  6  1  0  0  0
  5 26  1  0  0  0
  5 92  1  0  0  0
  6 25  1  0  0  0
  6 93  1  0  0  0
  6 94  1  0  0  0
  7  8  2  0  0  0
  7 26  1  0  0  0
  7 29  1  0  0  0
  8  9  1  0  0  0
  8 22  1  0  0  0
  9 10  1  0  0  0
  9 27  2  0  0  0
 10 11  2  0  0  0
 10 15  1  0  0  0
 11 12  1  0  0  0
 11 95  1  0  0  0
 12 13  2  0  0  0
 12 96  1  0  0  0
 13 14  1  0  0  0
 13 31  1  0  0  0
 14 15  2  0  0  0
 14 97  1  0  0  0
 15 98  1  0  0  0
 16 17  2  0  0  0
 16 21  1  0  0  0
 16 31  1  0  0  0
 17 18  1  0  0  0
 17 99  1  0  0  0
 18 19  2  0  0  0
 18100  1  0  0  0
 19 20  1  0  0  0
 19 24  1  0  0  0
 20 21  2  0  0  0
 20101  1  0  0  0
 21 23  1  0  0  0
 22 28  1  0  0  0
 22 32  2  0  0  0
 26 27  1  0  0  0
 28102  1  0  0  0
 28103  1  0  0  0
 29104  1  0  0  0
 29105  1  0  0  0
 33 34  1  0  0  0
 33 66  1  0  0  0
 33 70  2  0  0  0
 34 36  1  0  0  0
 34 59  1  0  0  0
 34106  1  0  0  0
 35 44  2  0  0  0
 35 45  1  0  0  0
 35 68  1  0  0  0
 36 56  1  0  0  0
 36107  1  0  0  0
 37 39  1  0  0  0
 37 47  1  0  0  0
 37 66  1  0  0  0
 37108  1  0  0  0
 38 43  2  0  0  0
 38 46  1  0  0  0
 38 47  1  0  0  0
 39 64  1  0  0  0
 39 67  2  0  0  0
 40 52  1  0  0  0
 40 53  2  0  0  0
 40 58  1  0  0  0
 41109  1  0  0  0
 41110  1  0  0  0
 41111  1  0  0  0
 41 48  1  0  0  0
 42 43  1  0  0  0
 42 66  1  0  0  0
 42112  1  0  0  0
 42113  1  0  0  0
 43 44  1  0  0  0
 44114  1  0  0  0
 45 46  2  0  0  0
 45115  1  0  0  0
 46116  1  0  0  0
 47117  1  0  0  0
 47118  1  0  0  0
 48 56  1  0  0  0
 48 65  1  0  0  0
 48119  1  0  0  0
 49 50  1  0  0  0
 49 53  1  0  0  0
 49 64  1  0  0  0
 49120  1  0  0  0
 50 51  1  0  0  0
 50121  1  0  0  0
 50122  1  0  0  0
 51 52  1  0  0  0
 51123  1  0  0  0
 51124  1  0  0  0
 52125  1  0  0  0
 52126  1  0  0  0
 53 54  1  0  0  0
 54 55  2  0  0  0
 54127  1  0  0  0
 55 57  1  0  0  0
 55128  1  0  0  0
 56 69  2  0  0  0
 57 58  2  0  0  0
 57129  1  0  0  0
 58130  1  0  0  0
 59 60  1  0  0  0
 59 61  1  0  0  0
 59 62  1  0  0  0
 60131  1  0  0  0
 60132  1  0  0  0
 60133  1  0  0  0
 61134  1  0  0  0
 61135  1  0  0  0
 61136  1  0  0  0
 62137  1  0  0  0
 62138  1  0  0  0
 62139  1  0  0  0
 63 65  1  0  0  0
 63140  1  0  0  0
 63141  1  0  0  0
 63142  1  0  0  0
 64143  1  0  0  0
 65144  1  0  0  0
 68 81  1  0  0  0
 71 72  2  0  0  0
 71 82  1  0  0  0
 71145  1  0  0  0
 72 84  1  0  0  0
 72 85  1  0  0  0
 73 82  2  0  0  0
 73 83  1  0  0  0
 73 85  1  0  0  0
 74 75  1  0  0  0
 74 76  1  0  0  0
 74146  1  0  0  0
 74147  1  0  0  0
 75 83  1  0  0  0
 75148  1  0  0  0
 75149  1  0  0  0
 76 77  1  0  0  0
 76 78  1  0  0  0
 76 81  1  0  0  0
 77 79  1  0  0  0
 77 80  1  0  0  0
 77 83  1  0  0  0
 78150  1  0  0  0
 78151  1  0  0  0
 78152  1  0  0  0
 79153  1  0  0  0
 79154  1  0  0  0
 79155  1  0  0  0
 80156  1  0  0  0
 80157  1  0  0  0
 80158  1  0  0  0
 81159  1  0  0  0
 81160  1  0  0  0
 84161  1  0  0  0
M  ISO  4   1 100  68 101  81 101  84 100
M  END
> <chiral flag>
0

> <version>
0

> <s_m_source_file>
/data/baiqing/PycharmProjects/Reinvent-master-3.2/result/LINK_invent/BTK/process_docking_weight1_custom_product_contain_oxygen_bond_distance_aromatic_linkinvent_7_9_3/rearranged_h_0150.sdf

> <i_m_source_file_index>
8

> <r_mmod_Potential_Energy-OPLS-2005>
205.255615234375

> <r_mmod_Stretch_Energy-OPLS-2005>
114.910942077637

> <r_mmod_Bend_Energy-OPLS-2005>
212.584014892578

> <r_mmod_Torsional_Energy-OPLS-2005>
303.764465332031

> <r_mmod_Improper_Torsional_Energy-OPLS-2005>
3.65961599349976

> <r_mmod_Van_der_Waal_Energy-OPLS-2005>
114.455444335938

> <r_mmod_Electrostatic_Energy-OPLS-2005>
-404.661468505859

> <r_mmod_Solvation_Energy-OPLS-2005>
-214.938095092773

> <b_mmod_Minimization_Converged-OPLS-2005>
0

> <r_mmod_RMS_Derivative-OPLS-2005>
1.88076174259186

$$$$
8
                    3D
 Structure written by MMmdl.
160169  0  0  1  0            999 V2000
  -30.6836  -14.5136   20.5693 C   0  0  0  0  0  0
  -30.4267  -12.3275   19.4315 C   0  0  0  0  0  0
  -29.5105  -12.5327   18.2090 C   0  0  0  0  0  0
  -28.0252  -12.3960   18.6092 C   0  0  0  0  0  0
  -27.6658  -13.2171   19.8780 C   0  0  2  0  0  0
  -28.7081  -12.9962   20.9988 C   0  0  0  0  0  0
  -25.2593  -13.8166   20.5690 C   0  0  0  0  0  0
  -24.1849  -13.0429   20.9173 C   0  0  0  0  0  0
  -24.6417  -11.6922   20.8716 C   0  0  0  0  0  0
  -23.9087  -10.4303   21.0393 C   0  0  0  0  0  0
  -24.3631   -9.4210   21.9179 C   0  0  0  0  0  0
  -23.6306   -8.2261   22.0759 C   0  0  0  0  0  0
  -22.4282   -8.0303   21.3558 C   0  0  0  0  0  0
  -21.9937   -9.0272   20.4652 C   0  0  0  0  0  0
  -22.7272  -10.2143   20.3032 C   0  0  0  0  0  0
  -21.6853   -6.0744   22.5298 C   0  0  0  0  0  0
  -21.4021   -6.5638   23.8231 C   0  0  0  0  0  0
  -21.3646   -5.6778   24.9193 C   0  0  0  0  0  0
  -21.6046   -4.3054   24.7224 C   0  0  0  0  0  0
  -21.8812   -3.8153   23.4340 C   0  0  0  0  0  0
  -21.9197   -4.6976   22.3408 C   0  0  0  0  0  0
  -22.7856  -13.5238   21.1838 C   0  0  0  0  0  0
  -22.1655   -4.2173   21.0983 F   0  0  0  0  0  0
  -21.5630   -3.4526   25.7719 F   0  0  0  0  0  0
  -30.0380  -13.3155   20.4520 N   0  0  0  0  0  0
  -26.3059  -12.9372   20.3357 N   0  0  0  0  0  0
  -25.9351  -11.6519   20.5711 N   0  0  0  0  0  0
  -22.0462  -12.8229   22.0360 N   0  0  0  0  0  0
  -25.4285  -15.1902   20.4129 N   0  0  0  0  0  0
  -31.8065  -14.7070   20.0923 O   0  0  0  0  0  0
  -21.6649   -6.8898   21.4255 O   0  0  0  0  0  0
  -22.3549  -14.5558   20.6704 O   0  0  0  0  0  0
  -24.6192  -31.8657   23.2086 C   0  0  0  0  0  0
  -25.9087  -32.4799   23.8376 C   0  0  1  0  0  0
  -27.2301  -27.3985   20.1086 C   0  0  0  0  0  0
  -25.5941  -33.8589   24.2324 N   0  0  0  0  0  0
  -23.4079  -30.4925   21.5493 C   0  0  2  0  0  0
  -24.8550  -28.9530   20.1170 C   0  0  0  0  0  0
  -22.7417  -29.4659   22.4957 C   0  0  0  0  0  0
  -18.0276  -28.1364   22.8478 C   0  0  0  0  0  0
  -24.1485  -36.7260   23.2644 C   0  0  0  0  0  0
  -25.9416  -30.8208   21.3685 C   0  0  0  0  0  0
  -26.0168  -29.4505   20.7210 C   0  0  0  0  0  0
  -27.2083  -28.6790   20.7180 C   0  0  0  0  0  0
  -26.0551  -26.9359   19.4836 C   0  0  0  0  0  0
  -24.8691  -27.6926   19.4975 C   0  0  0  0  0  0
  -23.6187  -29.8254   20.1643 C   0  0  0  0  0  0
  -25.4109  -36.3072   24.0351 C   0  0  1  0  0  0
  -20.5876  -28.3655   23.1297 C   0  0  2  0  0  0
  -20.6750  -26.9379   22.5427 C   0  0  0  0  0  0
  -19.5745  -26.6369   21.5203 C   0  0  0  0  0  0
  -18.1908  -26.7926   22.1594 C   0  0  0  0  0  0
  -19.1536  -28.8824   23.2891 C   0  0  0  0  0  0
  -18.9460  -30.1439   23.8891 C   0  0  0  0  0  0
  -17.6466  -30.6577   24.0542 C   0  0  0  0  0  0
  -25.9039  -34.9455   23.5121 C   0  0  0  0  0  0
  -16.5354  -29.9069   23.6337 C   0  0  0  0  0  0
  -16.7274  -28.6486   23.0357 C   0  0  0  0  0  0
  -26.4509  -31.6572   25.0706 C   0  0  0  0  0  0
  -25.3799  -31.3662   26.1478 C   0  0  0  0  0  0
  -27.0340  -30.3017   24.6076 C   0  0  0  0  0  0
  -27.6067  -32.4298   25.7495 C   0  0  0  0  0  0
  -27.5585  -37.1774   24.8453 C   0  0  0  0  0  0
  -21.4148  -29.3028   22.3684 N   0  0  0  0  0  0
  -26.4261  -37.3786   23.9449 N   0  0  0  0  0  0
  -24.6749  -31.0743   22.0996 N   0  0  0  0  0  0
  -23.4176  -28.8194   23.2991 O   0  0  0  0  0  0
  -28.3731  -26.6167   20.0541 O   0  0  0  0  0  0
  -26.5564  -34.8916   22.4659 O   0  0  0  0  0  0
  -23.5382  -32.1407   23.7478 O   0  0  0  0  0  0
  -30.9527  -19.0697   20.8260 C   0  0  0  0  0  0
  -31.1387  -17.6590   20.6160 C   0  0  0  0  0  0
  -29.8015  -19.3882   21.5065 C   0  0  0  0  0  0
  -30.1336  -16.8662   21.1355 C   0  0  0  0  0  0
  -29.2938  -20.6750   22.0114 C   0  0  0  0  0  0
  -29.6482  -23.6329   19.7389 C   0  0  0  0  0  0
  -29.7811  -22.1063   19.9649 C   0  0  0  0  0  0
  -28.7582  -23.1446   21.8711 C   0  0  0  0  0  0
  -28.4946  -24.0879   20.6609 C   0  0  2  0  0  0
  -27.1271  -23.7349   20.0305 C   0  0  0  0  0  0
  -28.5317  -25.6106   21.0842 C   0  0  0  0  0  0
  -29.2783  -21.8640   21.3264 N   0  0  0  0  0  0
  -29.9599  -15.5032   21.1444 N   0  0  0  0  0  0
  -28.8066  -20.6669   23.2661 N   0  3  0  0  0  0
  -28.9264  -17.9069   21.8738 S   0  0  0  0  0  0
  -31.4761  -12.4173   19.1426 H   0  0  0  0  0  0
  -30.3086  -11.3184   19.8264 H   0  0  0  0  0  0
  -29.7600  -11.8178   17.4230 H   0  0  0  0  0  0
  -29.6908  -13.5202   17.7805 H   0  0  0  0  0  0
  -27.8174  -11.3395   18.7746 H   0  0  0  0  0  0
  -27.3894  -12.7022   17.7776 H   0  0  0  0  0  0
  -27.7106  -14.2686   19.5946 H   0  0  0  0  0  0
  -28.6897  -11.9579   21.3333 H   0  0  0  0  0  0
  -28.4605  -13.5863   21.8818 H   0  0  0  0  0  0
  -25.2786   -9.5691   22.4742 H   0  0  0  0  0  0
  -24.0026   -7.4650   22.7477 H   0  0  0  0  0  0
  -21.0887   -8.8802   19.8950 H   0  0  0  0  0  0
  -22.3769  -10.9666   19.6114 H   0  0  0  0  0  0
  -21.2012   -7.6130   23.9731 H   0  0  0  0  0  0
  -21.1462   -6.0507   25.9092 H   0  0  0  0  0  0
  -22.0592   -2.7623   23.2828 H   0  0  0  0  0  0
  -22.4025  -11.9854   22.4726 H   0  0  0  0  0  0
  -21.1075  -13.1272   22.2527 H   0  0  0  0  0  0
  -24.6632  -15.8433   20.5394 H   0  0  0  0  0  0
  -26.2855  -15.6381   20.1116 H   0  0  0  0  0  0
  -26.7147  -32.5509   23.1123 H   0  0  0  0  0  0
  -25.0203  -33.9727   25.0549 H   0  0  0  0  0  0
  -22.6992  -31.3126   21.4089 H   0  0  0  0  0  0
  -23.3779  -35.9551   23.3242 H   0  0  0  0  0  0
  -24.3614  -36.8924   22.2076 H   0  0  0  0  0  0
  -23.7178  -37.6429   23.6679 H   0  0  0  0  0  0
  -26.0643  -31.5844   20.5982 H   0  0  0  0  0  0
  -26.8297  -30.8733   21.9873 H   0  0  0  0  0  0
  -28.1059  -29.0630   21.1807 H   0  0  0  0  0  0
  -26.0488  -25.9886   18.9688 H   0  0  0  0  0  0
  -23.9778  -27.3053   19.0213 H   0  0  0  0  0  0
  -23.7282  -30.5979   19.4036 H   0  0  0  0  0  0
  -22.7412  -29.2457   19.8716 H   0  0  0  0  0  0
  -25.1275  -36.1906   25.0841 H   0  0  0  0  0  0
  -21.0012  -28.3230   24.1410 H   0  0  0  0  0  0
  -20.5645  -26.2243   23.3615 H   0  0  0  0  0  0
  -21.6619  -26.7420   22.1222 H   0  0  0  0  0  0
  -19.6891  -25.6285   21.1210 H   0  0  0  0  0  0
  -19.6709  -27.3192   20.6739 H   0  0  0  0  0  0
  -17.4215  -26.6742   21.3950 H   0  0  0  0  0  0
  -18.0268  -26.0072   22.8985 H   0  0  0  0  0  0
  -19.7941  -30.7247   24.2265 H   0  0  0  0  0  0
  -17.5031  -31.6271   24.5120 H   0  0  0  0  0  0
  -15.5350  -30.2960   23.7687 H   0  0  0  0  0  0
  -15.8661  -28.0810   22.7078 H   0  0  0  0  0  0
  -24.5984  -30.6978   25.7852 H   0  0  0  0  0  0
  -24.8985  -32.2809   26.4939 H   0  0  0  0  0  0
  -25.8228  -30.8859   27.0214 H   0  0  0  0  0  0
  -26.2862  -29.6766   24.1196 H   0  0  0  0  0  0
  -27.4182  -29.7267   25.4507 H   0  0  0  0  0  0
  -27.8662  -30.4328   23.9163 H   0  0  0  0  0  0
  -27.2680  -33.3616   26.2034 H   0  0  0  0  0  0
  -28.3920  -32.6831   25.0362 H   0  0  0  0  0  0
  -28.0681  -31.8443   26.5455 H   0  0  0  0  0  0
  -28.2529  -38.0146   24.7607 H   0  0  0  0  0  0
  -28.1138  -36.2671   24.6111 H   0  0  0  0  0  0
  -27.2319  -37.1252   25.8855 H   0  0  0  0  0  0
  -20.9265  -29.8751   21.6936 H   0  0  0  0  0  0
  -26.0120  -38.2829   24.1543 H   0  0  0  0  0  0
  -31.6936  -19.7838   20.4972 H   0  0  0  0  0  0
  -32.0170  -17.2925   20.1017 H   0  0  0  0  0  0
  -29.4566  -23.8677   18.6911 H   0  0  0  0  0  0
  -30.5870  -24.1225   20.0059 H   0  0  0  0  0  0
  -30.8127  -21.7736   19.8462 H   0  0  0  0  0  0
  -29.1637  -21.5541   19.2566 H   0  0  0  0  0  0
  -27.8446  -22.9877   22.4451 H   0  0  0  0  0  0
  -29.5088  -23.5620   22.5438 H   0  0  0  0  0  0
  -26.9480  -22.6589   19.9883 H   0  0  0  0  0  0
  -27.0595  -24.0993   19.0057 H   0  0  0  0  0  0
  -26.3048  -24.1690   20.6011 H   0  0  0  0  0  0
  -29.5039  -25.8084   21.5381 H   0  0  0  0  0  0
  -27.8102  -25.7798   21.8877 H   0  0  0  0  0  0
  -29.0922  -15.1813   21.5465 H   0  0  0  0  0  0
  -28.8612  -19.8296   23.8255 H   0  0  0  0  0  0
  -28.4170  -21.4881   23.7030 H   0  0  0  0  0  0
  1 25  1  0  0  0
  1 30  2  0  0  0
  1 83  1  0  0  0
  2  3  1  0  0  0
  2 25  1  0  0  0
  2 86  1  0  0  0
  2 87  1  0  0  0
  3  4  1  0  0  0
  3 88  1  0  0  0
  3 89  1  0  0  0
  4  5  1  0  0  0
  4 90  1  0  0  0
  4 91  1  0  0  0
  5  6  1  0  0  0
  5 26  1  0  0  0
  5 92  1  0  0  0
  6 25  1  0  0  0
  6 93  1  0  0  0
  6 94  1  0  0  0
  7  8  2  0  0  0
  7 26  1  0  0  0
  7 29  1  0  0  0
  8  9  1  0  0  0
  8 22  1  0  0  0
  9 10  1  0  0  0
  9 27  2  0  0  0
 10 11  2  0  0  0
 10 15  1  0  0  0
 11 12  1  0  0  0
 11 95  1  0  0  0
 12 13  2  0  0  0
 12 96  1  0  0  0
 13 14  1  0  0  0
 13 31  1  0  0  0
 14 15  2  0  0  0
 14 97  1  0  0  0
 15 98  1  0  0  0
 16 17  2  0  0  0
 16 21  1  0  0  0
 16 31  1  0  0  0
 17 18  1  0  0  0
 17 99  1  0  0  0
 18 19  2  0  0  0
 18100  1  0  0  0
 19 20  1  0  0  0
 19 24  1  0  0  0
 20 21  2  0  0  0
 20101  1  0  0  0
 21 23  1  0  0  0
 22 28  1  0  0  0
 22 32  2  0  0  0
 26 27  1  0  0  0
 28102  1  0  0  0
 28103  1  0  0  0
 29104  1  0  0  0
 29105  1  0  0  0
 33 34  1  0  0  0
 33 66  1  0  0  0
 33 70  2  0  0  0
 34 36  1  0  0  0
 34 59  1  0  0  0
 34106  1  0  0  0
 35 44  2  0  0  0
 35 45  1  0  0  0
 35 68  1  0  0  0
 36 56  1  0  0  0
 36107  1  0  0  0
 37 39  1  0  0  0
 37 47  1  0  0  0
 37 66  1  0  0  0
 37108  1  0  0  0
 38 43  2  0  0  0
 38 46  1  0  0  0
 38 47  1  0  0  0
 39 64  1  0  0  0
 39 67  2  0  0  0
 40 52  1  0  0  0
 40 53  2  0  0  0
 40 58  1  0  0  0
 41109  1  0  0  0
 41110  1  0  0  0
 41111  1  0  0  0
 41 48  1  0  0  0
 42 43  1  0  0  0
 42 66  1  0  0  0
 42112  1  0  0  0
 42113  1  0  0  0
 43 44  1  0  0  0
 44114  1  0  0  0
 45 46  2  0  0  0
 45115  1  0  0  0
 46116  1  0  0  0
 47117  1  0  0  0
 47118  1  0  0  0
 48 56  1  0  0  0
 48 65  1  0  0  0
 48119  1  0  0  0
 49 50  1  0  0  0
 49 53  1  0  0  0
 49 64  1  0  0  0
 49120  1  0  0  0
 50 51  1  0  0  0
 50121  1  0  0  0
 50122  1  0  0  0
 51 52  1  0  0  0
 51123  1  0  0  0
 51124  1  0  0  0
 52125  1  0  0  0
 52126  1  0  0  0
 53 54  1  0  0  0
 54 55  2  0  0  0
 54127  1  0  0  0
 55 57  1  0  0  0
 55128  1  0  0  0
 56 69  2  0  0  0
 57 58  2  0  0  0
 57129  1  0  0  0
 58130  1  0  0  0
 59 60  1  0  0  0
 59 61  1  0  0  0
 59 62  1  0  0  0
 60131  1  0  0  0
 60132  1  0  0  0
 60133  1  0  0  0
 61134  1  0  0  0
 61135  1  0  0  0
 61136  1  0  0  0
 62137  1  0  0  0
 62138  1  0  0  0
 62139  1  0  0  0
 63 65  1  0  0  0
 63140  1  0  0  0
 63141  1  0  0  0
 63142  1  0  0  0
 64143  1  0  0  0
 65144  1  0  0  0
 68 81  1  0  0  0
 71 72  1  0  0  0
 71 73  2  0  0  0
 71145  1  0  0  0
 72 74  2  0  0  0
 72146  1  0  0  0
 73 75  1  0  0  0
 73 85  1  0  0  0
 74 83  1  0  0  0
 74 85  1  0  0  0
 75 82  1  0  0  0
 75 84  2  0  0  0
 76 77  1  0  0  0
 76 79  1  0  0  0
 76147  1  0  0  0
 76148  1  0  0  0
 77 82  1  0  0  0
 77149  1  0  0  0
 77150  1  0  0  0
 78 79  1  0  0  0
 78 82  1  0  0  0
 78151  1  0  0  0
 78152  1  0  0  0
 79 80  1  0  0  0
 79 81  1  0  0  0
 80153  1  0  0  0
 80154  1  0  0  0
 80155  1  0  0  0
 81156  1  0  0  0
 81157  1  0  0  0
 83158  1  0  0  0
 84159  1  0  0  0
 84160  1  0  0  0
M  CHG  1  84   1
M  ISO  4   1 100  68 101  81 101  83 100
M  END
> <chiral flag>
0

> <version>
0

> <s_m_source_file>
/data/baiqing/PycharmProjects/Reinvent-master-3.2/result/LINK_invent/BTK/process_docking_weight1_custom_product_contain_oxygen_bond_distance_aromatic_linkinvent_7_9_3/rearranged_h_0150.sdf

> <i_m_source_file_index>
9

> <r_mmod_Potential_Energy-OPLS-2005>
-45.8264808654785

> <r_mmod_Stretch_Energy-OPLS-2005>
47.3418731689453

> <r_mmod_Bend_Energy-OPLS-2005>
151.567611694336

> <r_mmod_Torsional_Energy-OPLS-2005>
308.912933349609

> <r_mmod_Improper_Torsional_Energy-OPLS-2005>
3.15526485443115

> <r_mmod_Van_der_Waal_Energy-OPLS-2005>
126.675834655762

> <r_mmod_Electrostatic_Energy-OPLS-2005>
-256.290252685547

> <r_mmod_Solvation_Energy-OPLS-2005>
-444.079681396484

> <b_mmod_Minimization_Converged-OPLS-2005>
0

> <r_mmod_RMS_Derivative-OPLS-2005>
3.58441424369812

$$$$
9
                    3D
 Structure written by MMmdl.
161170  0  0  1  0            999 V2000
  -30.6545  -14.5742   20.5219 C   0  0  0  0  0  0
  -30.4333  -12.3555   19.4395 C   0  0  0  0  0  0
  -29.5030  -12.5000   18.2155 C   0  0  0  0  0  0
  -28.0236  -12.3512   18.6256 C   0  0  0  0  0  0
  -27.6551  -13.2122   19.8635 C   0  0  2  0  0  0
  -28.6993  -13.0400   20.9900 C   0  0  0  0  0  0
  -25.2560  -13.8167   20.5669 C   0  0  0  0  0  0
  -24.1827  -13.0440   20.9201 C   0  0  0  0  0  0
  -24.6391  -11.6908   20.8748 C   0  0  0  0  0  0
  -23.9061  -10.4291   21.0406 C   0  0  0  0  0  0
  -24.3613   -9.4205   21.9183 C   0  0  0  0  0  0
  -23.6288   -8.2239   22.0750 C   0  0  0  0  0  0
  -22.4274   -8.0276   21.3540 C   0  0  0  0  0  0
  -21.9907   -9.0253   20.4645 C   0  0  0  0  0  0
  -22.7236  -10.2132   20.3053 C   0  0  0  0  0  0
  -21.6852   -6.0735   22.5283 C   0  0  0  0  0  0
  -21.4013   -6.5636   23.8219 C   0  0  0  0  0  0
  -21.3658   -5.6787   24.9181 C   0  0  0  0  0  0
  -21.6043   -4.3053   24.7232 C   0  0  0  0  0  0
  -21.8819   -3.8146   23.4355 C   0  0  0  0  0  0
  -21.9191   -4.6959   22.3410 C   0  0  0  0  0  0
  -22.7849  -13.5231   21.1863 C   0  0  0  0  0  0
  -22.1661   -4.2148   21.0987 F   0  0  0  0  0  0
  -21.5625   -3.4534   25.7744 F   0  0  0  0  0  0
  -30.0211  -13.3666   20.4302 N   0  0  0  0  0  0
  -26.2993  -12.9342   20.3310 N   0  0  0  0  0  0
  -25.9315  -11.6507   20.5753 N   0  0  0  0  0  0
  -22.0478  -12.8223   22.0414 N   0  0  0  0  0  0
  -25.4263  -15.1885   20.4048 N   0  0  0  0  0  0
  -31.8128  -14.7259   20.1239 O   0  0  0  0  0  0
  -21.6635   -6.8879   21.4247 O   0  0  0  0  0  0
  -22.3538  -14.5537   20.6706 O   0  0  0  0  0  0
  -24.6209  -31.8649   23.2059 C   0  0  0  0  0  0
  -25.9071  -32.4815   23.8373 C   0  0  1  0  0  0
  -27.2260  -27.3606   20.1146 C   0  0  0  0  0  0
  -25.5916  -33.8612   24.2314 N   0  0  0  0  0  0
  -23.4125  -30.4869   21.5490 C   0  0  2  0  0  0
  -24.8583  -28.9474   20.1113 C   0  0  0  0  0  0
  -22.7447  -29.4631   22.4968 C   0  0  0  0  0  0
  -18.0280  -28.1391   22.8501 C   0  0  0  0  0  0
  -24.1480  -36.7293   23.2641 C   0  0  0  0  0  0
  -25.9483  -30.8091   21.3683 C   0  0  0  0  0  0
  -26.0234  -29.4373   20.7153 C   0  0  0  0  0  0
  -27.2094  -28.6537   20.7099 C   0  0  0  0  0  0
  -26.0444  -26.9183   19.4762 C   0  0  0  0  0  0
  -24.8690  -27.6915   19.4836 C   0  0  0  0  0  0
  -23.6238  -29.8225   20.1629 C   0  0  0  0  0  0
  -25.4104  -36.3111   24.0349 C   0  0  1  0  0  0
  -20.5878  -28.3674   23.1315 C   0  0  2  0  0  0
  -20.6759  -26.9407   22.5426 C   0  0  0  0  0  0
  -19.5737  -26.6404   21.5221 C   0  0  0  0  0  0
  -18.1915  -26.7943   22.1625 C   0  0  0  0  0  0
  -19.1535  -28.8848   23.2908 C   0  0  0  0  0  0
  -18.9457  -30.1451   23.8921 C   0  0  0  0  0  0
  -17.6460  -30.6592   24.0577 C   0  0  0  0  0  0
  -25.9040  -34.9475   23.5127 C   0  0  0  0  0  0
  -16.5349  -29.9093   23.6342 C   0  0  0  0  0  0
  -16.7270  -28.6510   23.0369 C   0  0  0  0  0  0
  -26.4483  -31.6608   25.0718 C   0  0  0  0  0  0
  -25.3741  -31.3710   26.1463 C   0  0  0  0  0  0
  -27.0323  -30.3054   24.6108 C   0  0  0  0  0  0
  -27.6066  -32.4326   25.7479 C   0  0  0  0  0  0
  -27.5582  -37.1806   24.8470 C   0  0  0  0  0  0
  -21.4170  -29.3032   22.3716 N   0  0  0  0  0  0
  -26.4284  -37.3805   23.9424 N   0  0  0  0  0  0
  -24.6797  -31.0688   22.0990 N   0  0  0  0  0  0
  -23.4194  -28.8167   23.3031 O   0  0  0  0  0  0
  -28.3693  -26.5620   20.1649 O   0  0  0  0  0  0
  -26.5604  -34.8932   22.4690 O   0  0  0  0  0  0
  -23.5384  -32.1424   23.7406 O   0  0  0  0  0  0
  -31.4887  -19.0841   20.7376 C   0  0  0  0  0  0
  -31.2889  -17.6946   20.5319 C   0  0  0  0  0  0
  -29.0734  -17.9015   21.4653 C   0  0  0  0  0  0
  -30.5150  -19.9017   21.3752 C   0  0  0  0  0  0
  -30.0940  -17.0539   20.9513 C   0  0  0  0  0  0
  -29.2715  -19.2962   21.6795 C   0  0  0  0  0  0
  -29.5400  -23.0413   21.0486 C   0  0  0  0  0  0
  -29.0588  -24.3290   21.1614 C   0  0  0  0  0  0
  -30.9592  -21.1835   22.0109 C   0  0  0  0  0  0
  -29.2891  -25.1659   22.4104 C   0  0  0  0  0  0
  -29.7933  -24.3167   23.5679 C   0  0  0  0  0  0
  -30.9089  -23.3998   23.0755 C   0  0  0  0  0  0
  -28.2356  -25.0982   20.0991 C   0  0  0  0  0  0
  -30.4160  -22.4639   22.0143 N   0  0  0  0  0  0
  -29.8662  -15.6176   20.9079 N   0  0  0  0  0  0
  -32.0850  -21.0087   22.7185 N   0  3  0  0  0  0
  -28.2955  -20.0160   22.2857 F   0  0  0  0  0  0
  -31.4754  -12.4701   19.1362 H   0  0  0  0  0  0
  -30.3572  -11.3551   19.8680 H   0  0  0  0  0  0
  -29.7575  -11.7545   17.4614 H   0  0  0  0  0  0
  -29.6584  -13.4729   17.7461 H   0  0  0  0  0  0
  -27.8460  -11.2977   18.8440 H   0  0  0  0  0  0
  -27.3727  -12.5988   17.7860 H   0  0  0  0  0  0
  -27.6825  -14.2516   19.5363 H   0  0  0  0  0  0
  -28.6952  -12.0125   21.3561 H   0  0  0  0  0  0
  -28.4534  -13.6607   21.8528 H   0  0  0  0  0  0
  -25.2760   -9.5679   22.4756 H   0  0  0  0  0  0
  -24.0003   -7.4627   22.7456 H   0  0  0  0  0  0
  -21.0844   -8.8771   19.8945 H   0  0  0  0  0  0
  -22.3700  -10.9668   19.6156 H   0  0  0  0  0  0
  -21.2007   -7.6143   23.9727 H   0  0  0  0  0  0
  -21.1474   -6.0514   25.9085 H   0  0  0  0  0  0
  -22.0598   -2.7608   23.2856 H   0  0  0  0  0  0
  -22.4086  -11.9887   22.4819 H   0  0  0  0  0  0
  -21.1083  -13.1237   22.2589 H   0  0  0  0  0  0
  -24.6491  -15.8346   20.4912 H   0  0  0  0  0  0
  -26.2565  -15.6202   20.0200 H   0  0  0  0  0  0
  -26.7143  -32.5512   23.1132 H   0  0  0  0  0  0
  -25.0097  -33.9766   25.0484 H   0  0  0  0  0  0
  -22.7050  -31.3071   21.4095 H   0  0  0  0  0  0
  -23.3764  -35.9608   23.3315 H   0  0  0  0  0  0
  -24.3560  -36.8889   22.2051 H   0  0  0  0  0  0
  -23.7205  -37.6490   23.6636 H   0  0  0  0  0  0
  -26.0710  -31.5704   20.5961 H   0  0  0  0  0  0
  -26.8317  -30.8629   21.9909 H   0  0  0  0  0  0
  -28.1037  -29.0245   21.1915 H   0  0  0  0  0  0
  -26.0104  -25.9692   18.9626 H   0  0  0  0  0  0
  -23.9786  -27.3144   18.9987 H   0  0  0  0  0  0
  -23.7375  -30.5992   19.4060 H   0  0  0  0  0  0
  -22.7441  -29.2493   19.8641 H   0  0  0  0  0  0
  -25.1286  -36.1977   25.0848 H   0  0  0  0  0  0
  -20.9990  -28.3235   24.1429 H   0  0  0  0  0  0
  -20.5657  -26.2283   23.3616 H   0  0  0  0  0  0
  -21.6630  -26.7431   22.1228 H   0  0  0  0  0  0
  -19.6890  -25.6326   21.1230 H   0  0  0  0  0  0
  -19.6683  -27.3223   20.6756 H   0  0  0  0  0  0
  -17.4204  -26.6736   21.4000 H   0  0  0  0  0  0
  -18.0280  -26.0071   22.9003 H   0  0  0  0  0  0
  -19.7925  -30.7270   24.2304 H   0  0  0  0  0  0
  -17.5008  -31.6271   24.5172 H   0  0  0  0  0  0
  -15.5350  -30.3006   23.7638 H   0  0  0  0  0  0
  -15.8673  -28.0822   22.7089 H   0  0  0  0  0  0
  -24.5942  -30.7023   25.7807 H   0  0  0  0  0  0
  -24.8900  -32.2853   26.4901 H   0  0  0  0  0  0
  -25.8106  -30.8908   27.0230 H   0  0  0  0  0  0
  -26.2861  -29.6813   24.1181 H   0  0  0  0  0  0
  -27.4112  -29.7299   25.4563 H   0  0  0  0  0  0
  -27.8696  -30.4386   23.9252 H   0  0  0  0  0  0
  -27.2702  -33.3635   26.2050 H   0  0  0  0  0  0
  -28.3870  -32.6867   25.0297 H   0  0  0  0  0  0
  -28.0736  -31.8456   26.5392 H   0  0  0  0  0  0
  -28.2628  -38.0083   24.7537 H   0  0  0  0  0  0
  -28.1057  -36.2625   24.6282 H   0  0  0  0  0  0
  -27.2306  -37.1444   25.8875 H   0  0  0  0  0  0
  -20.9337  -29.8770   21.6951 H   0  0  0  0  0  0
  -26.0183  -38.2888   24.1433 H   0  0  0  0  0  0
  -32.4570  -19.5019   20.4928 H   0  0  0  0  0  0
  -32.1015  -17.1288   20.1003 H   0  0  0  0  0  0
  -28.1303  -17.4748   21.7721 H   0  0  0  0  0  0
  -29.3716  -22.4351   20.1681 H   0  0  0  0  0  0
  -28.3597  -25.6583   22.6982 H   0  0  0  0  0  0
  -30.0087  -25.9515   22.1760 H   0  0  0  0  0  0
  -28.9787  -23.7114   23.9689 H   0  0  0  0  0  0
  -30.1450  -24.9482   24.3842 H   0  0  0  0  0  0
  -31.2678  -22.8764   23.9632 H   0  0  0  0  0  0
  -31.7475  -23.9846   22.6927 H   0  0  0  0  0  0
  -27.2096  -24.7831   20.2850 H   0  0  0  0  0  0
  -28.5015  -24.7484   19.1008 H   0  0  0  0  0  0
  -28.9496  -15.3222   21.2032 H   0  0  0  0  0  0
  -32.4715  -20.0811   22.8006 H   0  0  0  0  0  0
  -32.5986  -21.7797   23.1092 H   0  0  0  0  0  0
  1 25  1  0  0  0
  1 30  2  0  0  0
  1 85  1  0  0  0
  2  3  1  0  0  0
  2 25  1  0  0  0
  2 88  1  0  0  0
  2 89  1  0  0  0
  3  4  1  0  0  0
  3 90  1  0  0  0
  3 91  1  0  0  0
  4  5  1  0  0  0
  4 92  1  0  0  0
  4 93  1  0  0  0
  5  6  1  0  0  0
  5 26  1  0  0  0
  5 94  1  0  0  0
  6 25  1  0  0  0
  6 95  1  0  0  0
  6 96  1  0  0  0
  7  8  2  0  0  0
  7 26  1  0  0  0
  7 29  1  0  0  0
  8  9  1  0  0  0
  8 22  1  0  0  0
  9 10  1  0  0  0
  9 27  2  0  0  0
 10 11  2  0  0  0
 10 15  1  0  0  0
 11 12  1  0  0  0
 11 97  1  0  0  0
 12 13  2  0  0  0
 12 98  1  0  0  0
 13 14  1  0  0  0
 13 31  1  0  0  0
 14 15  2  0  0  0
 14 99  1  0  0  0
 15100  1  0  0  0
 16 17  2  0  0  0
 16 21  1  0  0  0
 16 31  1  0  0  0
 17 18  1  0  0  0
 17101  1  0  0  0
 18 19  2  0  0  0
 18102  1  0  0  0
 19 20  1  0  0  0
 19 24  1  0  0  0
 20 21  2  0  0  0
 20103  1  0  0  0
 21 23  1  0  0  0
 22 28  1  0  0  0
 22 32  2  0  0  0
 26 27  1  0  0  0
 28104  1  0  0  0
 28105  1  0  0  0
 29106  1  0  0  0
 29107  1  0  0  0
 33 34  1  0  0  0
 33 66  1  0  0  0
 33 70  2  0  0  0
 34 36  1  0  0  0
 34 59  1  0  0  0
 34108  1  0  0  0
 35 44  2  0  0  0
 35 45  1  0  0  0
 35 68  1  0  0  0
 36 56  1  0  0  0
 36109  1  0  0  0
 37 39  1  0  0  0
 37 47  1  0  0  0
 37 66  1  0  0  0
 37110  1  0  0  0
 38 43  2  0  0  0
 38 46  1  0  0  0
 38 47  1  0  0  0
 39 64  1  0  0  0
 39 67  2  0  0  0
 40 52  1  0  0  0
 40 53  2  0  0  0
 40 58  1  0  0  0
 41111  1  0  0  0
 41112  1  0  0  0
 41113  1  0  0  0
 41 48  1  0  0  0
 42 43  1  0  0  0
 42 66  1  0  0  0
 42114  1  0  0  0
 42115  1  0  0  0
 43 44  1  0  0  0
 44116  1  0  0  0
 45 46  2  0  0  0
 45117  1  0  0  0
 46118  1  0  0  0
 47119  1  0  0  0
 47120  1  0  0  0
 48 56  1  0  0  0
 48 65  1  0  0  0
 48121  1  0  0  0
 49 50  1  0  0  0
 49 53  1  0  0  0
 49 64  1  0  0  0
 49122  1  0  0  0
 50 51  1  0  0  0
 50123  1  0  0  0
 50124  1  0  0  0
 51 52  1  0  0  0
 51125  1  0  0  0
 51126  1  0  0  0
 52127  1  0  0  0
 52128  1  0  0  0
 53 54  1  0  0  0
 54 55  2  0  0  0
 54129  1  0  0  0
 55 57  1  0  0  0
 55130  1  0  0  0
 56 69  2  0  0  0
 57 58  2  0  0  0
 57131  1  0  0  0
 58132  1  0  0  0
 59 60  1  0  0  0
 59 61  1  0  0  0
 59 62  1  0  0  0
 60133  1  0  0  0
 60134  1  0  0  0
 60135  1  0  0  0
 61136  1  0  0  0
 61137  1  0  0  0
 61138  1  0  0  0
 62139  1  0  0  0
 62140  1  0  0  0
 62141  1  0  0  0
 63 65  1  0  0  0
 63142  1  0  0  0
 63143  1  0  0  0
 63144  1  0  0  0
 64145  1  0  0  0
 65146  1  0  0  0
 68 83  1  0  0  0
 71 72  2  0  0  0
 71 74  1  0  0  0
 71147  1  0  0  0
 72 75  1  0  0  0
 72148  1  0  0  0
 73 75  2  0  0  0
 73 76  1  0  0  0
 73149  1  0  0  0
 74 76  2  0  0  0
 74 79  1  0  0  0
 75 85  1  0  0  0
 76 87  1  0  0  0
 77 78  2  0  0  0
 77 84  1  0  0  0
 77150  1  0  0  0
 78 80  1  0  0  0
 78 83  1  0  0  0
 79 84  1  0  0  0
 79 86  2  0  0  0
 80 81  1  0  0  0
 80151  1  0  0  0
 80152  1  0  0  0
 81 82  1  0  0  0
 81153  1  0  0  0
 81154  1  0  0  0
 82 84  1  0  0  0
 82155  1  0  0  0
 82156  1  0  0  0
 83157  1  0  0  0
 83158  1  0  0  0
 85159  1  0  0  0
 86160  1  0  0  0
 86161  1  0  0  0
M  CHG  1  86   1
M  ISO  4   1 100  68 101  83 101  85 100
M  END
> <chiral flag>
0

> <version>
0

> <s_m_source_file>
/data/baiqing/PycharmProjects/Reinvent-master-3.2/result/LINK_invent/BTK/process_docking_weight1_custom_product_contain_oxygen_bond_distance_aromatic_linkinvent_7_9_3/rearranged_h_0150.sdf

> <i_m_source_file_index>
10

> <r_mmod_Potential_Energy-OPLS-2005>
-8.51509475708008

> <r_mmod_Stretch_Energy-OPLS-2005>
69.3328857421875

> <r_mmod_Bend_Energy-OPLS-2005>
145.720123291016

> <r_mmod_Torsional_Energy-OPLS-2005>
251.636093139648

> <r_mmod_Improper_Torsional_Energy-OPLS-2005>
8.01454544067383

> <r_mmod_Van_der_Waal_Energy-OPLS-2005>
177.427032470703

> <r_mmod_Electrostatic_Energy-OPLS-2005>
-288.303100585938

> <r_mmod_Solvation_Energy-OPLS-2005>
-403.113952636719

> <b_mmod_Minimization_Converged-OPLS-2005>
0

> <r_mmod_RMS_Derivative-OPLS-2005>
1.56202566623688

$$$$
10
                    3D
 Structure written by MMmdl.
166175  0  0  1  0            999 V2000
  -30.7014  -14.4750   20.6681 C   0  0  0  0  0  0
  -30.4539  -12.3396   19.4290 C   0  0  0  0  0  0
  -29.5238  -12.5181   18.2098 C   0  0  0  0  0  0
  -28.0424  -12.3548   18.6140 C   0  0  0  0  0  0
  -27.6746  -13.1994   19.8650 C   0  0  2  0  0  0
  -28.7079  -12.9528   20.9861 C   0  0  0  0  0  0
  -25.2665  -13.8140   20.5604 C   0  0  0  0  0  0
  -24.1883  -13.0453   20.9154 C   0  0  0  0  0  0
  -24.6394  -11.6901   20.8669 C   0  0  0  0  0  0
  -23.9034  -10.4291   21.0352 C   0  0  0  0  0  0
  -24.3584   -9.4196   21.9127 C   0  0  0  0  0  0
  -23.6257   -8.2245   22.0707 C   0  0  0  0  0  0
  -22.4242   -8.0258   21.3516 C   0  0  0  0  0  0
  -21.9858   -9.0243   20.4620 C   0  0  0  0  0  0
  -22.7204  -10.2108   20.3011 C   0  0  0  0  0  0
  -21.6848   -6.0659   22.5263 C   0  0  0  0  0  0
  -21.4009   -6.5564   23.8187 C   0  0  0  0  0  0
  -21.3673   -5.6740   24.9162 C   0  0  0  0  0  0
  -21.6081   -4.3011   24.7218 C   0  0  0  0  0  0
  -21.8833   -3.8055   23.4347 C   0  0  0  0  0  0
  -21.9195   -4.6884   22.3384 C   0  0  0  0  0  0
  -22.7898  -13.5287   21.1764 C   0  0  0  0  0  0
  -22.1663   -4.2062   21.0967 F   0  0  0  0  0  0
  -21.5660   -3.4507   25.7741 F   0  0  0  0  0  0
  -30.0449  -13.2966   20.4663 N   0  0  0  0  0  0
  -26.3091  -12.9306   20.3244 N   0  0  0  0  0  0
  -25.9321  -11.6474   20.5647 N   0  0  0  0  0  0
  -22.0462  -12.8373   22.0346 N   0  0  0  0  0  0
  -25.4393  -15.1855   20.4005 N   0  0  0  0  0  0
  -31.7700  -14.7454   20.1102 O   0  0  0  0  0  0
  -21.6626   -6.8823   21.4219 O   0  0  0  0  0  0
  -22.3596  -14.5536   20.6501 O   0  0  0  0  0  0
  -24.6137  -31.8678   23.2084 C   0  0  0  0  0  0
  -25.9021  -32.4830   23.8345 C   0  0  1  0  0  0
  -27.2005  -27.3942   20.1159 C   0  0  0  0  0  0
  -25.5890  -33.8625   24.2293 N   0  0  0  0  0  0
  -23.3994  -30.4960   21.5495 C   0  0  2  0  0  0
  -24.8424  -28.9605   20.1149 C   0  0  0  0  0  0
  -22.7370  -29.4670   22.4946 C   0  0  0  0  0  0
  -18.0263  -28.1389   22.8476 C   0  0  0  0  0  0
  -24.1511  -36.7304   23.2638 C   0  0  0  0  0  0
  -25.9332  -30.8264   21.3638 C   0  0  0  0  0  0
  -26.0058  -29.4592   20.7112 C   0  0  0  0  0  0
  -27.1940  -28.6852   20.7019 C   0  0  0  0  0  0
  -26.0156  -26.9214   19.5071 C   0  0  0  0  0  0
  -24.8416  -27.6958   19.5062 C   0  0  0  0  0  0
  -23.6110  -29.8361   20.1614 C   0  0  0  0  0  0
  -25.4136  -36.3088   24.0322 C   0  0  1  0  0  0
  -20.5844  -28.3667   23.1301 C   0  0  2  0  0  0
  -20.6765  -26.9406   22.5409 C   0  0  0  0  0  0
  -19.5775  -26.6404   21.5181 C   0  0  0  0  0  0
  -18.1930  -26.7953   22.1565 C   0  0  0  0  0  0
  -19.1508  -28.8842   23.2894 C   0  0  0  0  0  0
  -18.9443  -30.1450   23.8911 C   0  0  0  0  0  0
  -17.6450  -30.6584   24.0567 C   0  0  0  0  0  0
  -25.9046  -34.9473   23.5086 C   0  0  0  0  0  0
  -16.5339  -29.9098   23.6318 C   0  0  0  0  0  0
  -16.7254  -28.6519   23.0324 C   0  0  0  0  0  0
  -26.4490  -31.6613   25.0656 C   0  0  0  0  0  0
  -25.3776  -31.3691   26.1415 C   0  0  0  0  0  0
  -27.0311  -30.3053   24.6028 C   0  0  0  0  0  0
  -27.6087  -32.4329   25.7376 C   0  0  0  0  0  0
  -27.5602  -37.1793   24.8454 C   0  0  0  0  0  0
  -21.4099  -29.3019   22.3672 N   0  0  0  0  0  0
  -26.4312  -37.3777   23.9401 N   0  0  0  0  0  0
  -24.6669  -31.0785   22.0998 N   0  0  0  0  0  0
  -23.4140  -28.8211   23.2974 O   0  0  0  0  0  0
  -28.3496  -26.6288   20.1555 O   0  0  0  0  0  0
  -26.5605  -34.8928   22.4649 O   0  0  0  0  0  0
  -23.5316  -32.1429   23.7514 O   0  0  0  0  0  0
  -29.9604  -18.4950   23.4746 C   0  0  0  0  0  0
  -30.5659  -19.4262   22.6090 C   0  0  0  0  0  0
  -29.8250  -17.1467   23.0890 C   0  0  0  0  0  0
  -30.9287  -17.6428   20.9773 C   0  0  0  0  0  0
  -31.0570  -19.0104   21.3518 C   0  0  0  0  0  0
  -30.3103  -16.6972   21.8406 C   0  0  0  0  0  0
  -31.8047  -19.9611   20.5024 C   0  0  0  0  0  0
  -31.7030  -23.5300   19.5831 C   0  0  0  0  0  0
  -32.3163  -22.1448   19.4318 C   0  0  0  0  0  0
  -30.1871  -21.9723   20.5716 C   0  0  0  0  0  0
  -30.1893  -23.3080   19.7509 C   0  0  2  0  0  0
  -29.5691  -23.0871   18.3521 C   0  0  0  0  0  0
  -29.6213  -24.5908   20.4687 C   0  0  0  0  0  0
  -28.2243  -25.1844   20.1369 C   0  0  0  0  0  0
  -31.4299  -21.2368   20.1876 N   0  0  0  0  0  0
  -30.0764  -15.3208   21.5104 N   0  0  0  0  0  0
  -32.9801  -19.5344   20.0348 N   0  3  0  0  0  0
  -31.4983  -12.4685   19.1392 H   0  0  0  0  0  0
  -30.3802  -11.3220   19.8196 H   0  0  0  0  0  0
  -29.7848  -11.7872   17.4431 H   0  0  0  0  0  0
  -29.6770  -13.5018   17.7636 H   0  0  0  0  0  0
  -27.8804  -11.2991   18.8247 H   0  0  0  0  0  0
  -27.3906  -12.6016   17.7750 H   0  0  0  0  0  0
  -27.7316  -14.2477   19.5682 H   0  0  0  0  0  0
  -28.6988  -11.9013   21.2776 H   0  0  0  0  0  0
  -28.4380  -13.4991   21.8886 H   0  0  0  0  0  0
  -25.2734   -9.5721   22.4671 H   0  0  0  0  0  0
  -23.9974   -7.4649   22.7445 H   0  0  0  0  0  0
  -21.0755   -8.8779   19.8954 H   0  0  0  0  0  0
  -22.3656  -10.9630   19.6080 H   0  0  0  0  0  0
  -21.1971   -7.6069   23.9696 H   0  0  0  0  0  0
  -21.1502   -6.0440   25.9085 H   0  0  0  0  0  0
  -22.0587   -2.7523   23.2880 H   0  0  0  0  0  0
  -22.4044  -12.0113   22.4921 H   0  0  0  0  0  0
  -21.1019  -13.1389   22.2324 H   0  0  0  0  0  0
  -24.6704  -15.8419   20.4928 H   0  0  0  0  0  0
  -26.2918  -15.6138   20.0588 H   0  0  0  0  0  0
  -26.7057  -32.5537   23.1062 H   0  0  0  0  0  0
  -25.0038  -33.9804   25.0433 H   0  0  0  0  0  0
  -22.6869  -31.3130   21.4123 H   0  0  0  0  0  0
  -23.3779  -35.9621   23.3273 H   0  0  0  0  0  0
  -24.3588  -36.8961   22.2048 H   0  0  0  0  0  0
  -23.7263  -37.6497   23.6688 H   0  0  0  0  0  0
  -26.0365  -31.5922   20.5951 H   0  0  0  0  0  0
  -26.8208  -30.8836   21.9799 H   0  0  0  0  0  0
  -28.0931  -29.0613   21.1701 H   0  0  0  0  0  0
  -25.9720  -25.9550   19.0289 H   0  0  0  0  0  0
  -23.9442  -27.3160   19.0390 H   0  0  0  0  0  0
  -23.7376  -30.6146   19.4078 H   0  0  0  0  0  0
  -22.7316  -29.2677   19.8515 H   0  0  0  0  0  0
  -25.1332  -36.1906   25.0813 H   0  0  0  0  0  0
  -20.9961  -28.3265   24.1417 H   0  0  0  0  0  0
  -20.5636  -26.2280   23.3593 H   0  0  0  0  0  0
  -21.6646  -26.7463   22.1229 H   0  0  0  0  0  0
  -19.6936  -25.6311   21.1212 H   0  0  0  0  0  0
  -19.6757  -27.3211   20.6706 H   0  0  0  0  0  0
  -17.4227  -26.6712   21.3941 H   0  0  0  0  0  0
  -18.0336  -26.0069   22.8934 H   0  0  0  0  0  0
  -19.7914  -30.7244   24.2309 H   0  0  0  0  0  0
  -17.5000  -31.6263   24.5165 H   0  0  0  0  0  0
  -15.5328  -30.2993   23.7652 H   0  0  0  0  0  0
  -15.8663  -28.0846   22.7022 H   0  0  0  0  0  0
  -24.5940  -30.7081   25.7685 H   0  0  0  0  0  0
  -24.9010  -32.2865   26.4890 H   0  0  0  0  0  0
  -25.8143  -30.8784   27.0131 H   0  0  0  0  0  0
  -26.2799  -29.6744   24.1286 H   0  0  0  0  0  0
  -27.4285  -29.7354   25.4427 H   0  0  0  0  0  0
  -27.8540  -30.4325   23.8995 H   0  0  0  0  0  0
  -27.2733  -33.3626   26.1979 H   0  0  0  0  0  0
  -28.3866  -32.6921   25.0172 H   0  0  0  0  0  0
  -28.0821  -31.8463   26.5265 H   0  0  0  0  0  0
  -28.2608  -38.0108   24.7516 H   0  0  0  0  0  0
  -28.1125  -36.2635   24.6267 H   0  0  0  0  0  0
  -27.2316  -37.1409   25.8859 H   0  0  0  0  0  0
  -20.9251  -29.8695   21.6871 H   0  0  0  0  0  0
  -26.0195  -38.2842   24.1440 H   0  0  0  0  0  0
  -29.6152  -18.8103   24.4492 H   0  0  0  0  0  0
  -30.6973  -20.4452   22.9471 H   0  0  0  0  0  0
  -29.3508  -16.4572   23.7746 H   0  0  0  0  0  0
  -31.3061  -17.3271   20.0146 H   0  0  0  0  0  0
  -31.9287  -24.1641   18.7255 H   0  0  0  0  0  0
  -32.1336  -24.0145   20.4617 H   0  0  0  0  0  0
  -33.3368  -22.1378   19.8223 H   0  0  0  0  0  0
  -32.3461  -21.8502   18.3797 H   0  0  0  0  0  0
  -29.2965  -21.3743   20.3605 H   0  0  0  0  0  0
  -30.2036  -22.1765   21.6420 H   0  0  0  0  0  0
  -30.1021  -22.3232   17.7849 H   0  0  0  0  0  0
  -29.5914  -24.0018   17.7580 H   0  0  0  0  0  0
  -28.5327  -22.7542   18.4167 H   0  0  0  0  0  0
  -30.3035  -25.4042   20.2168 H   0  0  0  0  0  0
  -29.7252  -24.4931   21.5507 H   0  0  0  0  0  0
  -27.4963  -24.8368   20.8800 H   0  0  0  0  0  0
  -27.8666  -24.8515   19.1631 H   0  0  0  0  0  0
  -29.2831  -14.8972   21.9689 H   0  0  0  0  0  0
  -33.3483  -18.6506   20.3576 H   0  0  0  0  0  0
  -33.5551  -20.1082   19.4443 H   0  0  0  0  0  0
  1 25  1  0  0  0
  1 30  2  0  0  0
  1 86  1  0  0  0
  2  3  1  0  0  0
  2 25  1  0  0  0
  2 88  1  0  0  0
  2 89  1  0  0  0
  3  4  1  0  0  0
  3 90  1  0  0  0
  3 91  1  0  0  0
  4  5  1  0  0  0
  4 92  1  0  0  0
  4 93  1  0  0  0
  5  6  1  0  0  0
  5 26  1  0  0  0
  5 94  1  0  0  0
  6 25  1  0  0  0
  6 95  1  0  0  0
  6 96  1  0  0  0
  7  8  2  0  0  0
  7 26  1  0  0  0
  7 29  1  0  0  0
  8  9  1  0  0  0
  8 22  1  0  0  0
  9 10  1  0  0  0
  9 27  2  0  0  0
 10 11  2  0  0  0
 10 15  1  0  0  0
 11 12  1  0  0  0
 11 97  1  0  0  0
 12 13  2  0  0  0
 12 98  1  0  0  0
 13 14  1  0  0  0
 13 31  1  0  0  0
 14 15  2  0  0  0
 14 99  1  0  0  0
 15100  1  0  0  0
 16 17  2  0  0  0
 16 21  1  0  0  0
 16 31  1  0  0  0
 17 18  1  0  0  0
 17101  1  0  0  0
 18 19  2  0  0  0
 18102  1  0  0  0
 19 20  1  0  0  0
 19 24  1  0  0  0
 20 21  2  0  0  0
 20103  1  0  0  0
 21 23  1  0  0  0
 22 28  1  0  0  0
 22 32  2  0  0  0
 26 27  1  0  0  0
 28104  1  0  0  0
 28105  1  0  0  0
 29106  1  0  0  0
 29107  1  0  0  0
 33 34  1  0  0  0
 33 66  1  0  0  0
 33 70  2  0  0  0
 34 36  1  0  0  0
 34 59  1  0  0  0
 34108  1  0  0  0
 35 44  2  0  0  0
 35 45  1  0  0  0
 35 68  1  0  0  0
 36 56  1  0  0  0
 36109  1  0  0  0
 37 39  1  0  0  0
 37 47  1  0  0  0
 37 66  1  0  0  0
 37110  1  0  0  0
 38 43  2  0  0  0
 38 46  1  0  0  0
 38 47  1  0  0  0
 39 64  1  0  0  0
 39 67  2  0  0  0
 40 52  1  0  0  0
 40 53  2  0  0  0
 40 58  1  0  0  0
 41111  1  0  0  0
 41112  1  0  0  0
 41113  1  0  0  0
 41 48  1  0  0  0
 42 43  1  0  0  0
 42 66  1  0  0  0
 42114  1  0  0  0
 42115  1  0  0  0
 43 44  1  0  0  0
 44116  1  0  0  0
 45 46  2  0  0  0
 45117  1  0  0  0
 46118  1  0  0  0
 47119  1  0  0  0
 47120  1  0  0  0
 48 56  1  0  0  0
 48 65  1  0  0  0
 48121  1  0  0  0
 49 50  1  0  0  0
 49 53  1  0  0  0
 49 64  1  0  0  0
 49122  1  0  0  0
 50 51  1  0  0  0
 50123  1  0  0  0
 50124  1  0  0  0
 51 52  1  0  0  0
 51125  1  0  0  0
 51126  1  0  0  0
 52127  1  0  0  0
 52128  1  0  0  0
 53 54  1  0  0  0
 54 55  2  0  0  0
 54129  1  0  0  0
 55 57  1  0  0  0
 55130  1  0  0  0
 56 69  2  0  0  0
 57 58  2  0  0  0
 57131  1  0  0  0
 58132  1  0  0  0
 59 60  1  0  0  0
 59 61  1  0  0  0
 59 62  1  0  0  0
 60133  1  0  0  0
 60134  1  0  0  0
 60135  1  0  0  0
 61136  1  0  0  0
 61137  1  0  0  0
 61138  1  0  0  0
 62139  1  0  0  0
 62140  1  0  0  0
 62141  1  0  0  0
 63 65  1  0  0  0
 63142  1  0  0  0
 63143  1  0  0  0
 63144  1  0  0  0
 64145  1  0  0  0
 65146  1  0  0  0
 68 84  1  0  0  0
 71 72  2  0  0  0
 71 73  1  0  0  0
 71147  1  0  0  0
 72 75  1  0  0  0
 72148  1  0  0  0
 73 76  2  0  0  0
 73149  1  0  0  0
 74 75  2  0  0  0
 74 76  1  0  0  0
 74150  1  0  0  0
 75 77  1  0  0  0
 76 86  1  0  0  0
 77 85  1  0  0  0
 77 87  2  0  0  0
 78 79  1  0  0  0
 78 81  1  0  0  0
 78151  1  0  0  0
 78152  1  0  0  0
 79 85  1  0  0  0
 79153  1  0  0  0
 79154  1  0  0  0
 80 81  1  0  0  0
 80 85  1  0  0  0
 80155  1  0  0  0
 80156  1  0  0  0
 81 82  1  0  0  0
 81 83  1  0  0  0
 82157  1  0  0  0
 82158  1  0  0  0
 82159  1  0  0  0
 83 84  1  0  0  0
 83160  1  0  0  0
 83161  1  0  0  0
 84162  1  0  0  0
 84163  1  0  0  0
 86164  1  0  0  0
 87165  1  0  0  0
 87166  1  0  0  0
M  CHG  1  87   1
M  ISO  4   1 100  68 101  84 101  86 100
M  END
> <chiral flag>
0

> <version>
0

> <s_m_source_file>
/data/baiqing/PycharmProjects/Reinvent-master-3.2/result/LINK_invent/BTK/process_docking_weight1_custom_product_contain_oxygen_bond_distance_aromatic_linkinvent_7_9_3/rearranged_h_0150.sdf

> <i_m_source_file_index>
11

> <r_mmod_Potential_Energy-OPLS-2005>
-96.9553833007812

> <r_mmod_Stretch_Energy-OPLS-2005>
47.7734222412109

> <r_mmod_Bend_Energy-OPLS-2005>
155.798126220703

> <r_mmod_Torsional_Energy-OPLS-2005>
309.023406982422

> <r_mmod_Improper_Torsional_Energy-OPLS-2005>
2.7207396030426

> <r_mmod_Van_der_Waal_Energy-OPLS-2005>
165.293045043945

> <r_mmod_Electrostatic_Energy-OPLS-2005>
-404.792999267578

> <r_mmod_Solvation_Energy-OPLS-2005>
-391.172821044922

> <b_mmod_Minimization_Converged-OPLS-2005>
0

> <r_mmod_RMS_Derivative-OPLS-2005>
5.48716163635254

$$$$
11
                    3D
 Structure written by MMmdl.
152160  0  0  1  0            999 V2000
  -30.6380  -14.6963   20.5447 C   0  0  0  0  0  0
  -30.4294  -12.4298   19.4869 C   0  0  0  0  0  0
  -29.5169  -12.5189   18.2445 C   0  0  0  0  0  0
  -28.0435  -12.3357   18.6526 C   0  0  0  0  0  0
  -27.6524  -13.2194   19.8652 C   0  0  2  0  0  0
  -28.6863  -13.1059   21.0064 C   0  0  0  0  0  0
  -25.2579  -13.8138   20.5718 C   0  0  0  0  0  0
  -24.1845  -13.0434   20.9205 C   0  0  0  0  0  0
  -24.6382  -11.6891   20.8731 C   0  0  0  0  0  0
  -23.9036  -10.4286   21.0378 C   0  0  0  0  0  0
  -24.3586   -9.4213   21.9174 C   0  0  0  0  0  0
  -23.6275   -8.2243   22.0763 C   0  0  0  0  0  0
  -22.4267   -8.0247   21.3546 C   0  0  0  0  0  0
  -21.9880   -9.0215   20.4654 C   0  0  0  0  0  0
  -22.7191  -10.2103   20.3049 C   0  0  0  0  0  0
  -21.6861   -6.0702   22.5280 C   0  0  0  0  0  0
  -21.4019   -6.5618   23.8208 C   0  0  0  0  0  0
  -21.3676   -5.6776   24.9176 C   0  0  0  0  0  0
  -21.6049   -4.3037   24.7226 C   0  0  0  0  0  0
  -21.8829   -3.8117   23.4355 C   0  0  0  0  0  0
  -21.9206   -4.6928   22.3409 C   0  0  0  0  0  0
  -22.7888  -13.5262   21.1857 C   0  0  0  0  0  0
  -22.1684   -4.2120   21.0981 F   0  0  0  0  0  0
  -21.5632   -3.4521   25.7741 F   0  0  0  0  0  0
  -30.0031  -13.4703   20.4580 N   0  0  0  0  0  0
  -26.2987  -12.9337   20.3307 N   0  0  0  0  0  0
  -25.9307  -11.6487   20.5712 N   0  0  0  0  0  0
  -22.0504  -12.8277   22.0385 N   0  0  0  0  0  0
  -25.4317  -15.1861   20.4182 N   0  0  0  0  0  0
  -31.7263  -14.8718   19.9868 O   0  0  0  0  0  0
  -21.6652   -6.8833   21.4234 O   0  0  0  0  0  0
  -22.3628  -14.5598   20.6710 O   0  0  0  0  0  0
  -24.6267  -31.8583   23.1967 C   0  0  0  0  0  0
  -25.9120  -32.4760   23.8268 C   0  0  1  0  0  0
  -27.2055  -27.2900   20.1209 C   0  0  0  0  0  0
  -25.5942  -33.8567   24.2223 N   0  0  0  0  0  0
  -23.4177  -30.4796   21.5467 C   0  0  2  0  0  0
  -24.8565  -28.9272   20.1053 C   0  0  0  0  0  0
  -22.7458  -29.4612   22.4967 C   0  0  0  0  0  0
  -18.0289  -28.1356   22.8521 C   0  0  0  0  0  0
  -24.1508  -36.7274   23.2633 C   0  0  0  0  0  0
  -25.9590  -30.7759   21.3702 C   0  0  0  0  0  0
  -26.0270  -29.4013   20.7116 C   0  0  0  0  0  0
  -27.2058  -28.5958   20.7092 C   0  0  0  0  0  0
  -26.0242  -26.8781   19.4723 C   0  0  0  0  0  0
  -24.8578  -27.6712   19.4747 C   0  0  0  0  0  0
  -23.6236  -29.8108   20.1625 C   0  0  0  0  0  0
  -25.4150  -36.3084   24.0312 C   0  0  1  0  0  0
  -20.5862  -28.3709   23.1300 C   0  0  2  0  0  0
  -20.6798  -26.9418   22.5479 C   0  0  0  0  0  0
  -19.5802  -26.6270   21.5279 C   0  0  0  0  0  0
  -18.1976  -26.7862   22.1711 C   0  0  0  0  0  0
  -19.1525  -28.8883   23.2849 C   0  0  0  0  0  0
  -18.9441  -30.1522   23.8800 C   0  0  0  0  0  0
  -17.6433  -30.6632   24.0489 C   0  0  0  0  0  0
  -25.9091  -34.9455   23.5075 C   0  0  0  0  0  0
  -16.5337  -29.9087   23.6311 C   0  0  0  0  0  0
  -16.7272  -28.6472   23.0395 C   0  0  0  0  0  0
  -26.4511  -31.6557   25.0629 C   0  0  0  0  0  0
  -25.3712  -31.3663   26.1314 C   0  0  0  0  0  0
  -27.0339  -30.2979   24.6067 C   0  0  0  0  0  0
  -27.6089  -32.4269   25.7387 C   0  0  0  0  0  0
  -27.5598  -37.1795   24.8462 C   0  0  0  0  0  0
  -21.4175  -29.3039   22.3690 N   0  0  0  0  0  0
  -26.4320  -37.3778   23.9384 N   0  0  0  0  0  0
  -24.6870  -31.0559   22.0937 N   0  0  0  0  0  0
  -23.4189  -28.8139   23.3032 O   0  0  0  0  0  0
  -28.3081  -26.4156   20.1565 O   0  0  0  0  0  0
  -26.5681  -34.8925   22.4664 O   0  0  0  0  0  0
  -23.5436  -32.1421   23.7303 O   0  0  0  0  0  0
  -28.2480  -17.6696   21.1731 C   0  0  0  0  0  0
  -28.0284  -19.0765   20.9261 C   0  0  0  0  0  0
  -29.5279  -17.2029   20.9618 C   0  0  0  0  0  0
  -29.1272  -19.8049   20.5162 C   0  0  0  0  0  0
  -30.0391  -15.8524   21.4571 C   0  0  0  0  0  0
  -28.3790  -22.2224   20.6039 C   0  0  0  0  0  0
  -27.0488  -25.0032   21.8174 C   0  0  0  0  0  0
  -28.4255  -23.6941   19.9441 C   0  0  0  0  0  0
  -28.2219  -25.0587   20.8095 C   0  0  1  0  0  0
  -29.9720  -15.6410   22.7072 N   0  0  0  0  0  0
  -29.1989  -21.1763   20.2033 N   0  0  0  0  0  0
  -27.5457  -22.0143   21.4861 O   0  0  0  0  0  0
  -30.4772  -18.6102   20.3914 S   0  0  0  0  0  0
  -31.4793  -12.5241   19.2060 H   0  0  0  0  0  0
  -30.3393  -11.4398   19.9396 H   0  0  0  0  0  0
  -29.7932  -11.7533   17.5174 H   0  0  0  0  0  0
  -29.6557  -13.4803   17.7475 H   0  0  0  0  0  0
  -27.9090  -11.2870   18.9176 H   0  0  0  0  0  0
  -27.3834  -12.5224   17.8057 H   0  0  0  0  0  0
  -27.6624  -14.2508   19.5108 H   0  0  0  0  0  0
  -28.7129  -12.0933   21.4149 H   0  0  0  0  0  0
  -28.3854  -13.7394   21.8399 H   0  0  0  0  0  0
  -25.2711   -9.5724   22.4762 H   0  0  0  0  0  0
  -23.9985   -7.4660   22.7507 H   0  0  0  0  0  0
  -21.0809   -8.8707   19.8982 H   0  0  0  0  0  0
  -22.3605  -10.9631   19.6171 H   0  0  0  0  0  0
  -21.2002   -7.6121   23.9707 H   0  0  0  0  0  0
  -21.1508   -6.0503   25.9087 H   0  0  0  0  0  0
  -22.0594   -2.7573   23.2864 H   0  0  0  0  0  0
  -22.4090  -11.9889   22.4708 H   0  0  0  0  0  0
  -21.1155  -13.1370   22.2630 H   0  0  0  0  0  0
  -24.6531  -15.8285   20.5049 H   0  0  0  0  0  0
  -26.2601  -15.6102   20.0225 H   0  0  0  0  0  0
  -26.7158  -32.5405   23.0973 H   0  0  0  0  0  0
  -25.0042  -33.9684   25.0342 H   0  0  0  0  0  0
  -22.7129  -31.3025   21.4112 H   0  0  0  0  0  0
  -23.3781  -35.9592   23.3310 H   0  0  0  0  0  0
  -24.3578  -36.8883   22.2037 H   0  0  0  0  0  0
  -23.7243  -37.6473   23.6650 H   0  0  0  0  0  0
  -26.0967  -31.5418   20.6060 H   0  0  0  0  0  0
  -26.8364  -30.8187   22.0010 H   0  0  0  0  0  0
  -28.1024  -28.9535   21.1944 H   0  0  0  0  0  0
  -25.9952  -25.9164   18.9812 H   0  0  0  0  0  0
  -23.9624  -27.3031   18.9903 H   0  0  0  0  0  0
  -23.7262  -30.5868   19.4036 H   0  0  0  0  0  0
  -22.7379  -29.2420   19.8725 H   0  0  0  0  0  0
  -25.1351  -36.1940   25.0804 H   0  0  0  0  0  0
  -20.9924  -28.3321   24.1436 H   0  0  0  0  0  0
  -20.5690  -26.2388   23.3740 H   0  0  0  0  0  0
  -21.6701  -26.7456   22.1367 H   0  0  0  0  0  0
  -19.6943  -25.6116   21.1445 H   0  0  0  0  0  0
  -19.6709  -27.2956   20.6700 H   0  0  0  0  0  0
  -17.4232  -26.6604   21.4121 H   0  0  0  0  0  0
  -18.0400  -26.0014   22.9133 H   0  0  0  0  0  0
  -19.7922  -30.7387   24.2045 H   0  0  0  0  0  0
  -17.4954  -31.6336   24.5023 H   0  0  0  0  0  0
  -15.5332  -30.2988   23.7599 H   0  0  0  0  0  0
  -15.8640  -28.0780   22.7201 H   0  0  0  0  0  0
  -24.5914  -30.7024   25.7559 H   0  0  0  0  0  0
  -24.8874  -32.2813   26.4736 H   0  0  0  0  0  0
  -25.7999  -30.8783   27.0072 H   0  0  0  0  0  0
  -26.2888  -29.6698   24.1158 H   0  0  0  0  0  0
  -27.4120  -29.7257   25.4548 H   0  0  0  0  0  0
  -27.8727  -30.4255   23.9215 H   0  0  0  0  0  0
  -27.2738  -33.3574   26.1972 H   0  0  0  0  0  0
  -28.3871  -32.6808   25.0176 H   0  0  0  0  0  0
  -28.0773  -31.8361   26.5256 H   0  0  0  0  0  0
  -28.2646  -38.0071   24.7552 H   0  0  0  0  0  0
  -28.1079  -36.2619   24.6296 H   0  0  0  0  0  0
  -27.2287  -37.1437   25.8851 H   0  0  0  0  0  0
  -20.9341  -29.8820   21.6956 H   0  0  0  0  0  0
  -26.0210  -38.2855   24.1382 H   0  0  0  0  0  0
  -27.4531  -17.0510   21.5635 H   0  0  0  0  0  0
  -27.0482  -19.5042   21.0826 H   0  0  0  0  0  0
  -27.1403  -24.1735   22.5132 H   0  0  0  0  0  0
  -26.0896  -24.8954   21.3142 H   0  0  0  0  0  0
  -27.0091  -25.8940   22.4440 H   0  0  0  0  0  0
  -27.6477  -23.6906   19.1793 H   0  0  0  0  0  0
  -29.3621  -23.7793   19.3934 H   0  0  0  0  0  0
  -29.1094  -25.0853   21.4401 H   0  0  0  0  0  0
  -29.5999  -16.4454   23.1982 H   0  0  0  0  0  0
  -29.9455  -21.4418   19.5753 H   0  0  0  0  0  0
  1 25  1  0  0  0
  1 30  2  0  0  0
  1 75  1  0  0  0
  2  3  1  0  0  0
  2 25  1  0  0  0
  2 84  1  0  0  0
  2 85  1  0  0  0
  3  4  1  0  0  0
  3 86  1  0  0  0
  3 87  1  0  0  0
  4  5  1  0  0  0
  4 88  1  0  0  0
  4 89  1  0  0  0
  5  6  1  0  0  0
  5 26  1  0  0  0
  5 90  1  0  0  0
  6 25  1  0  0  0
  6 91  1  0  0  0
  6 92  1  0  0  0
  7  8  2  0  0  0
  7 26  1  0  0  0
  7 29  1  0  0  0
  8  9  1  0  0  0
  8 22  1  0  0  0
  9 10  1  0  0  0
  9 27  2  0  0  0
 10 11  2  0  0  0
 10 15  1  0  0  0
 11 12  1  0  0  0
 11 93  1  0  0  0
 12 13  2  0  0  0
 12 94  1  0  0  0
 13 14  1  0  0  0
 13 31  1  0  0  0
 14 15  2  0  0  0
 14 95  1  0  0  0
 15 96  1  0  0  0
 16 17  2  0  0  0
 16 21  1  0  0  0
 16 31  1  0  0  0
 17 18  1  0  0  0
 17 97  1  0  0  0
 18 19  2  0  0  0
 18 98  1  0  0  0
 19 20  1  0  0  0
 19 24  1  0  0  0
 20 21  2  0  0  0
 20 99  1  0  0  0
 21 23  1  0  0  0
 22 28  1  0  0  0
 22 32  2  0  0  0
 26 27  1  0  0  0
 28100  1  0  0  0
 28101  1  0  0  0
 29102  1  0  0  0
 29103  1  0  0  0
 33 34  1  0  0  0
 33 66  1  0  0  0
 33 70  2  0  0  0
 34 36  1  0  0  0
 34 59  1  0  0  0
 34104  1  0  0  0
 35 44  2  0  0  0
 35 45  1  0  0  0
 35 68  1  0  0  0
 36 56  1  0  0  0
 36105  1  0  0  0
 37 39  1  0  0  0
 37 47  1  0  0  0
 37 66  1  0  0  0
 37106  1  0  0  0
 38 43  2  0  0  0
 38 46  1  0  0  0
 38 47  1  0  0  0
 39 64  1  0  0  0
 39 67  2  0  0  0
 40 52  1  0  0  0
 40 53  2  0  0  0
 40 58  1  0  0  0
 41107  1  0  0  0
 41108  1  0  0  0
 41109  1  0  0  0
 41 48  1  0  0  0
 42 43  1  0  0  0
 42 66  1  0  0  0
 42110  1  0  0  0
 42111  1  0  0  0
 43 44  1  0  0  0
 44112  1  0  0  0
 45 46  2  0  0  0
 45113  1  0  0  0
 46114  1  0  0  0
 47115  1  0  0  0
 47116  1  0  0  0
 48 56  1  0  0  0
 48 65  1  0  0  0
 48117  1  0  0  0
 49 50  1  0  0  0
 49 53  1  0  0  0
 49 64  1  0  0  0
 49118  1  0  0  0
 50 51  1  0  0  0
 50119  1  0  0  0
 50120  1  0  0  0
 51 52  1  0  0  0
 51121  1  0  0  0
 51122  1  0  0  0
 52123  1  0  0  0
 52124  1  0  0  0
 53 54  1  0  0  0
 54 55  2  0  0  0
 54125  1  0  0  0
 55 57  1  0  0  0
 55126  1  0  0  0
 56 69  2  0  0  0
 57 58  2  0  0  0
 57127  1  0  0  0
 58128  1  0  0  0
 59 60  1  0  0  0
 59 61  1  0  0  0
 59 62  1  0  0  0
 60129  1  0  0  0
 60130  1  0  0  0
 60131  1  0  0  0
 61132  1  0  0  0
 61133  1  0  0  0
 61134  1  0  0  0
 62135  1  0  0  0
 62136  1  0  0  0
 62137  1  0  0  0
 63 65  1  0  0  0
 63138  1  0  0  0
 63139  1  0  0  0
 63140  1  0  0  0
 64141  1  0  0  0
 65142  1  0  0  0
 68 79  1  0  0  0
 71 72  1  0  0  0
 71 73  2  0  0  0
 71143  1  0  0  0
 72 74  2  0  0  0
 72144  1  0  0  0
 73 75  1  0  0  0
 73 83  1  0  0  0
 74 81  1  0  0  0
 74 83  1  0  0  0
 75 80  2  0  0  0
 76 78  1  0  0  0
 76 81  1  0  0  0
 76 82  2  0  0  0
 77145  1  0  0  0
 77146  1  0  0  0
 77147  1  0  0  0
 77 79  1  0  0  0
 78 79  1  0  0  0
 78148  1  0  0  0
 78149  1  0  0  0
 79150  1  0  0  0
 80151  1  0  0  0
 81152  1  0  0  0
M  ISO  4   1 100  68 101  75 100  79 101
M  END
> <chiral flag>
0

> <version>
0

> <s_m_source_file>
/data/baiqing/PycharmProjects/Reinvent-master-3.2/result/LINK_invent/BTK/process_docking_weight1_custom_product_contain_oxygen_bond_distance_aromatic_linkinvent_7_9_3/rearranged_h_0150.sdf

> <i_m_source_file_index>
12

> <r_mmod_Potential_Energy-OPLS-2005>
268.570007324219

> <r_mmod_Stretch_Energy-OPLS-2005>
119.91707611084

> <r_mmod_Bend_Energy-OPLS-2005>
194.407424926758

> <r_mmod_Torsional_Energy-OPLS-2005>
251.419235229492

> <r_mmod_Improper_Torsional_Energy-OPLS-2005>
5.07562589645386

> <r_mmod_Van_der_Waal_Energy-OPLS-2005>
121.931655883789

> <r_mmod_Electrostatic_Energy-OPLS-2005>
-272.037384033203

> <r_mmod_Solvation_Energy-OPLS-2005>
-217.879821777344

> <b_mmod_Minimization_Converged-OPLS-2005>
0

> <r_mmod_RMS_Derivative-OPLS-2005>
3.65313673019409

$$$$
12
                    3D
 Structure written by MMmdl.
159168  0  0  1  0            999 V2000
  -30.5518  -15.0452   20.4060 C   0  0  0  0  0  0
  -30.4264  -12.6552   19.4928 C   0  0  0  0  0  0
  -29.5140  -12.5283   18.2529 C   0  0  0  0  0  0
  -28.0530  -12.3055   18.6815 C   0  0  0  0  0  0
  -27.6183  -13.2613   19.8234 C   0  0  2  0  0  0
  -28.6638  -13.3622   20.9538 C   0  0  0  0  0  0
  -25.2433  -13.8242   20.5737 C   0  0  0  0  0  0
  -24.1772  -13.0443   20.9256 C   0  0  0  0  0  0
  -24.6410  -11.6936   20.8775 C   0  0  0  0  0  0
  -23.9104  -10.4299   21.0426 C   0  0  0  0  0  0
  -24.3645   -9.4206   21.9202 C   0  0  0  0  0  0
  -23.6309   -8.2244   22.0760 C   0  0  0  0  0  0
  -22.4294   -8.0286   21.3541 C   0  0  0  0  0  0
  -21.9938   -9.0272   20.4652 C   0  0  0  0  0  0
  -22.7278  -10.2148   20.3069 C   0  0  0  0  0  0
  -21.6856   -6.0748   22.5281 C   0  0  0  0  0  0
  -21.4014   -6.5651   23.8215 C   0  0  0  0  0  0
  -21.3654   -5.6800   24.9174 C   0  0  0  0  0  0
  -21.6040   -4.3062   24.7226 C   0  0  0  0  0  0
  -21.8819   -3.8158   23.4346 C   0  0  0  0  0  0
  -21.9194   -4.6976   22.3403 C   0  0  0  0  0  0
  -22.7789  -13.5199   21.1895 C   0  0  0  0  0  0
  -22.1663   -4.2162   21.0981 F   0  0  0  0  0  0
  -21.5626   -3.4542   25.7738 F   0  0  0  0  0  0
  -29.9160  -13.7962   20.3223 N   0  0  0  0  0  0
  -26.2855  -12.9498   20.3232 N   0  0  0  0  0  0
  -25.9342  -11.6618   20.5758 N   0  0  0  0  0  0
  -22.0436  -12.8180   22.0445 N   0  0  0  0  0  0
  -25.4062  -15.1975   20.4154 N   0  0  0  0  0  0
  -31.7667  -15.0066   20.1710 O   0  0  0  0  0  0
  -21.6639   -6.8894   21.4244 O   0  0  0  0  0  0
  -22.3472  -14.5500   20.6735 O   0  0  0  0  0  0
  -24.6530  -31.8339   23.1806 C   0  0  0  0  0  0
  -25.9258  -32.4644   23.8221 C   0  0  1  0  0  0
  -27.2032  -27.0356   20.1471 C   0  0  0  0  0  0
  -25.5963  -33.8449   24.2132 N   0  0  0  0  0  0
  -23.4610  -30.4515   21.5287 C   0  0  2  0  0  0
  -24.9069  -28.8640   20.1056 C   0  0  0  0  0  0
  -22.7610  -29.4483   22.4802 C   0  0  0  0  0  0
  -18.0314  -28.1408   22.8455 C   0  0  0  0  0  0
  -24.1493  -36.7247   23.2647 C   0  0  0  0  0  0
  -26.0236  -30.6732   21.3942 C   0  0  0  0  0  0
  -26.0881  -29.2760   20.7343 C   0  0  0  0  0  0
  -27.2306  -28.3769   20.7415 C   0  0  0  0  0  0
  -25.9958  -26.7537   19.4690 C   0  0  0  0  0  0
  -24.8794  -27.6213   19.4564 C   0  0  0  0  0  0
  -23.6915  -29.7806   20.1480 C   0  0  0  0  0  0
  -25.4129  -36.2999   24.0305 C   0  0  1  0  0  0
  -20.5931  -28.3730   23.1205 C   0  0  2  0  0  0
  -20.6796  -26.9420   22.5394 C   0  0  0  0  0  0
  -19.5777  -26.6378   21.5206 C   0  0  0  0  0  0
  -18.1946  -26.7946   22.1605 C   0  0  0  0  0  0
  -19.1575  -28.8889   23.2815 C   0  0  0  0  0  0
  -18.9490  -30.1490   23.8834 C   0  0  0  0  0  0
  -17.6482  -30.6590   24.0558 C   0  0  0  0  0  0
  -25.9084  -34.9373   23.5031 C   0  0  0  0  0  0
  -16.5367  -29.9085   23.6347 C   0  0  0  0  0  0
  -16.7298  -28.6520   23.0334 C   0  0  0  0  0  0
  -26.4541  -31.6552   25.0709 C   0  0  0  0  0  0
  -25.3686  -31.3761   26.1378 C   0  0  0  0  0  0
  -27.0436  -30.2939   24.6362 C   0  0  0  0  0  0
  -27.6065  -32.4335   25.7486 C   0  0  0  0  0  0
  -27.5570  -37.1767   24.8465 C   0  0  0  0  0  0
  -21.4292  -29.3039   22.3572 N   0  0  0  0  0  0
  -26.4288  -37.3720   23.9407 N   0  0  0  0  0  0
  -24.7332  -31.0101   22.0885 N   0  0  0  0  0  0
  -23.4214  -28.8014   23.2972 O   0  0  0  0  0  0
  -28.2344  -26.0014   20.2575 O   0  0  0  0  0  0
  -26.5681  -34.8884   22.4625 O   0  0  0  0  0  0
  -23.5630  -32.1259   23.6967 O   0  0  0  0  0  0
  -31.6973  -18.7976   22.8031 C   0  0  0  0  0  0
  -30.8203  -19.6505   22.2182 C   0  0  0  0  0  0
  -30.0322  -19.1057   21.1076 C   0  0  0  0  0  0
  -30.2891  -17.6150   21.0461 C   0  0  0  0  0  0
  -27.2933  -21.8649   20.1448 C   0  0  0  0  0  0
  -27.7535  -20.3882   20.5399 C   0  0  0  0  0  0
  -29.5546  -21.7669   20.1882 C   0  0  0  0  0  0
  -28.3818  -22.9274   20.5120 C   0  0  2  0  0  0
  -30.7885  -21.0075   22.8571 C   0  0  0  0  0  0
  -28.2308  -23.2438   22.0103 C   0  0  0  0  0  0
  -28.2026  -24.4839   19.7438 C   0  0  0  0  0  0
  -29.2136  -20.2543   20.4534 N   0  0  0  0  0  0
  -29.8658  -16.3310   20.4835 N   0  0  0  0  0  0
  -31.5853  -17.2338   22.1838 S   0  0  0  0  0  0
  -31.4581  -12.8000   19.1677 H   0  0  0  0  0  0
  -30.4278  -11.7250   20.0646 H   0  0  0  0  0  0
  -29.8443  -11.7055   17.6162 H   0  0  0  0  0  0
  -29.5896  -13.4333   17.6484 H   0  0  0  0  0  0
  -27.9663  -11.2714   19.0168 H   0  0  0  0  0  0
  -27.3844  -12.4047   17.8254 H   0  0  0  0  0  0
  -27.5582  -14.2475   19.3615 H   0  0  0  0  0  0
  -28.7836  -12.4123   21.4775 H   0  0  0  0  0  0
  -28.3507  -14.0956   21.6987 H   0  0  0  0  0  0
  -25.2788   -9.5674   22.4782 H   0  0  0  0  0  0
  -24.0009   -7.4636   22.7478 H   0  0  0  0  0  0
  -21.0866   -8.8811   19.8960 H   0  0  0  0  0  0
  -22.3747  -10.9696   19.6182 H   0  0  0  0  0  0
  -21.2008   -7.6159   23.9724 H   0  0  0  0  0  0
  -21.1470   -6.0528   25.9076 H   0  0  0  0  0  0
  -22.0601   -2.7622   23.2844 H   0  0  0  0  0  0
  -22.4057  -11.9851   22.4843 H   0  0  0  0  0  0
  -21.1048  -13.1200   22.2633 H   0  0  0  0  0  0
  -24.6345  -15.8445   20.5334 H   0  0  0  0  0  0
  -26.2445  -15.6442   20.0690 H   0  0  0  0  0  0
  -26.7314  -32.5200   23.0927 H   0  0  0  0  0  0
  -25.0079  -33.9547   25.0257 H   0  0  0  0  0  0
  -22.7696  -31.2811   21.3683 H   0  0  0  0  0  0
  -23.3749  -35.9580   23.3295 H   0  0  0  0  0  0
  -24.3576  -36.8918   22.2064 H   0  0  0  0  0  0
  -23.7238  -37.6428   23.6714 H   0  0  0  0  0  0
  -26.1899  -31.4215   20.6180 H   0  0  0  0  0  0
  -26.8902  -30.7265   22.0418 H   0  0  0  0  0  0
  -28.1248  -28.6776   21.2693 H   0  0  0  0  0  0
  -25.8545  -25.8110   18.9671 H   0  0  0  0  0  0
  -23.9800  -27.3046   18.9479 H   0  0  0  0  0  0
  -23.8417  -30.5565   19.3963 H   0  0  0  0  0  0
  -22.8020  -29.2341   19.8277 H   0  0  0  0  0  0
  -25.1305  -36.1826   25.0795 H   0  0  0  0  0  0
  -21.0014  -28.3341   24.1330 H   0  0  0  0  0  0
  -20.5707  -26.2325   23.3618 H   0  0  0  0  0  0
  -21.6661  -26.7432   22.1174 H   0  0  0  0  0  0
  -19.6942  -25.6280   21.1261 H   0  0  0  0  0  0
  -19.6739  -27.3162   20.6719 H   0  0  0  0  0  0
  -17.4219  -26.6683   21.4010 H   0  0  0  0  0  0
  -18.0352  -26.0103   22.9021 H   0  0  0  0  0  0
  -19.7968  -30.7323   24.2161 H   0  0  0  0  0  0
  -17.5038  -31.6261   24.5174 H   0  0  0  0  0  0
  -15.5369  -30.2955   23.7723 H   0  0  0  0  0  0
  -15.8703  -28.0837   22.7044 H   0  0  0  0  0  0
  -24.5900  -30.7086   25.7672 H   0  0  0  0  0  0
  -24.8835  -32.2946   26.4687 H   0  0  0  0  0  0
  -25.7930  -30.9001   27.0230 H   0  0  0  0  0  0
  -26.3089  -29.6620   24.1358 H   0  0  0  0  0  0
  -27.4014  -29.7284   25.4973 H   0  0  0  0  0  0
  -27.9009  -30.4166   23.9735 H   0  0  0  0  0  0
  -27.2687  -33.3706   26.1926 H   0  0  0  0  0  0
  -28.3937  -32.6774   25.0342 H   0  0  0  0  0  0
  -28.0662  -31.8544   26.5511 H   0  0  0  0  0  0
  -28.2546  -38.0094   24.7509 H   0  0  0  0  0  0
  -28.1095  -36.2608   24.6292 H   0  0  0  0  0  0
  -27.2286  -37.1418   25.8867 H   0  0  0  0  0  0
  -20.9526  -29.8787   21.6764 H   0  0  0  0  0  0
  -26.0148  -38.2785   24.1433 H   0  0  0  0  0  0
  -32.3884  -18.9906   23.6154 H   0  0  0  0  0  0
  -26.3264  -22.0986   20.5933 H   0  0  0  0  0  0
  -27.1285  -21.8957   19.0661 H   0  0  0  0  0  0
  -27.2712  -19.6525   19.8945 H   0  0  0  0  0  0
  -27.4446  -20.1569   21.5599 H   0  0  0  0  0  0
  -30.5120  -22.0638   20.6049 H   0  0  0  0  0  0
  -29.7403  -21.8172   19.1131 H   0  0  0  0  0  0
  -31.5114  -21.6913   22.4140 H   0  0  0  0  0  0
  -31.0276  -20.9590   23.9198 H   0  0  0  0  0  0
  -29.7993  -21.4344   22.8243 H   0  0  0  0  0  0
  -27.8988  -22.3837   22.5913 H   0  0  0  0  0  0
  -27.4731  -24.0133   22.1627 H   0  0  0  0  0  0
  -29.1594  -23.6236   22.4341 H   0  0  0  0  0  0
  -27.3020  -24.3735   19.1486 H   0  0  0  0  0  0
  -28.9753  -24.4845   18.9762 H   0  0  0  0  0  0
  -28.8785  -16.2721   20.2853 H   0  0  0  0  0  0
  1 25  1  0  0  0
  1 30  2  0  0  0
  1 83  1  0  0  0
  2  3  1  0  0  0
  2 25  1  0  0  0
  2 85  1  0  0  0
  2 86  1  0  0  0
  3  4  1  0  0  0
  3 87  1  0  0  0
  3 88  1  0  0  0
  4  5  1  0  0  0
  4 89  1  0  0  0
  4 90  1  0  0  0
  5  6  1  0  0  0
  5 26  1  0  0  0
  5 91  1  0  0  0
  6 25  1  0  0  0
  6 92  1  0  0  0
  6 93  1  0  0  0
  7  8  2  0  0  0
  7 26  1  0  0  0
  7 29  1  0  0  0
  8  9  1  0  0  0
  8 22  1  0  0  0
  9 10  1  0  0  0
  9 27  2  0  0  0
 10 11  2  0  0  0
 10 15  1  0  0  0
 11 12  1  0  0  0
 11 94  1  0  0  0
 12 13  2  0  0  0
 12 95  1  0  0  0
 13 14  1  0  0  0
 13 31  1  0  0  0
 14 15  2  0  0  0
 14 96  1  0  0  0
 15 97  1  0  0  0
 16 17  2  0  0  0
 16 21  1  0  0  0
 16 31  1  0  0  0
 17 18  1  0  0  0
 17 98  1  0  0  0
 18 19  2  0  0  0
 18 99  1  0  0  0
 19 20  1  0  0  0
 19 24  1  0  0  0
 20 21  2  0  0  0
 20100  1  0  0  0
 21 23  1  0  0  0
 22 28  1  0  0  0
 22 32  2  0  0  0
 26 27  1  0  0  0
 28101  1  0  0  0
 28102  1  0  0  0
 29103  1  0  0  0
 29104  1  0  0  0
 33 34  1  0  0  0
 33 66  1  0  0  0
 33 70  2  0  0  0
 34 36  1  0  0  0
 34 59  1  0  0  0
 34105  1  0  0  0
 35 44  2  0  0  0
 35 45  1  0  0  0
 35 68  1  0  0  0
 36 56  1  0  0  0
 36106  1  0  0  0
 37 39  1  0  0  0
 37 47  1  0  0  0
 37 66  1  0  0  0
 37107  1  0  0  0
 38 43  2  0  0  0
 38 46  1  0  0  0
 38 47  1  0  0  0
 39 64  1  0  0  0
 39 67  2  0  0  0
 40 52  1  0  0  0
 40 53  2  0  0  0
 40 58  1  0  0  0
 41108  1  0  0  0
 41109  1  0  0  0
 41110  1  0  0  0
 41 48  1  0  0  0
 42 43  1  0  0  0
 42 66  1  0  0  0
 42111  1  0  0  0
 42112  1  0  0  0
 43 44  1  0  0  0
 44113  1  0  0  0
 45 46  2  0  0  0
 45114  1  0  0  0
 46115  1  0  0  0
 47116  1  0  0  0
 47117  1  0  0  0
 48 56  1  0  0  0
 48 65  1  0  0  0
 48118  1  0  0  0
 49 50  1  0  0  0
 49 53  1  0  0  0
 49 64  1  0  0  0
 49119  1  0  0  0
 50 51  1  0  0  0
 50120  1  0  0  0
 50121  1  0  0  0
 51 52  1  0  0  0
 51122  1  0  0  0
 51123  1  0  0  0
 52124  1  0  0  0
 52125  1  0  0  0
 53 54  1  0  0  0
 54 55  2  0  0  0
 54126  1  0  0  0
 55 57  1  0  0  0
 55127  1  0  0  0
 56 69  2  0  0  0
 57 58  2  0  0  0
 57128  1  0  0  0
 58129  1  0  0  0
 59 60  1  0  0  0
 59 61  1  0  0  0
 59 62  1  0  0  0
 60130  1  0  0  0
 60131  1  0  0  0
 60132  1  0  0  0
 61133  1  0  0  0
 61134  1  0  0  0
 61135  1  0  0  0
 62136  1  0  0  0
 62137  1  0  0  0
 62138  1  0  0  0
 63 65  1  0  0  0
 63139  1  0  0  0
 63140  1  0  0  0
 63141  1  0  0  0
 64142  1  0  0  0
 65143  1  0  0  0
 68 81  1  0  0  0
 71 72  2  0  0  0
 71 84  1  0  0  0
 71144  1  0  0  0
 72 73  1  0  0  0
 72 79  1  0  0  0
 73 74  2  0  0  0
 73 82  1  0  0  0
 74 83  1  0  0  0
 74 84  1  0  0  0
 75 76  1  0  0  0
 75 78  1  0  0  0
 75145  1  0  0  0
 75146  1  0  0  0
 76 82  1  0  0  0
 76147  1  0  0  0
 76148  1  0  0  0
 77 78  1  0  0  0
 77 82  1  0  0  0
 77149  1  0  0  0
 77150  1  0  0  0
 78 80  1  0  0  0
 78 81  1  0  0  0
 79151  1  0  0  0
 79152  1  0  0  0
 79153  1  0  0  0
 80154  1  0  0  0
 80155  1  0  0  0
 80156  1  0  0  0
 81157  1  0  0  0
 81158  1  0  0  0
 83159  1  0  0  0
M  ISO  4   1 100  68 101  81 101  83 100
M  END
> <chiral flag>
0

> <version>
0

> <s_m_source_file>
/data/baiqing/PycharmProjects/Reinvent-master-3.2/result/LINK_invent/BTK/process_docking_weight1_custom_product_contain_oxygen_bond_distance_aromatic_linkinvent_7_9_3/rearranged_h_0150.sdf

> <i_m_source_file_index>
13

> <r_mmod_Potential_Energy-OPLS-2005>
934.102355957031

> <r_mmod_Stretch_Energy-OPLS-2005>
393.969757080078

> <r_mmod_Bend_Energy-OPLS-2005>
452.914245605469

> <r_mmod_Torsional_Energy-OPLS-2005>
327.433166503906

> <r_mmod_Improper_Torsional_Energy-OPLS-2005>
9.07519721984863

> <r_mmod_Van_der_Waal_Energy-OPLS-2005>
138.861541748047

> <r_mmod_Electrostatic_Energy-OPLS-2005>
-433.929534912109

> <r_mmod_Solvation_Energy-OPLS-2005>
-231.932266235352

> <b_mmod_Minimization_Converged-OPLS-2005>
0

> <r_mmod_RMS_Derivative-OPLS-2005>
2.24311137199402

$$$$
13
                    3D
 Structure written by MMmdl.
158166  0  0  1  0            999 V2000
  -30.5776  -14.7796   20.5890 C   0  0  0  0  0  0
  -30.4566  -12.5073   19.4892 C   0  0  0  0  0  0
  -29.5199  -12.5600   18.2575 C   0  0  0  0  0  0
  -28.0495  -12.3552   18.6721 C   0  0  0  0  0  0
  -27.6550  -13.2306   19.8892 C   0  0  2  0  0  0
  -28.6992  -13.1089   21.0226 C   0  0  0  0  0  0
  -25.2561  -13.8186   20.5733 C   0  0  0  0  0  0
  -24.1805  -13.0438   20.9172 C   0  0  0  0  0  0
  -24.6393  -11.6919   20.8731 C   0  0  0  0  0  0
  -23.9056  -10.4284   21.0380 C   0  0  0  0  0  0
  -24.3591   -9.4220   21.9191 C   0  0  0  0  0  0
  -23.6253   -8.2244   22.0775 C   0  0  0  0  0  0
  -22.4263   -8.0260   21.3537 C   0  0  0  0  0  0
  -21.9880   -9.0249   20.4669 C   0  0  0  0  0  0
  -22.7202  -10.2129   20.3063 C   0  0  0  0  0  0
  -21.6847   -6.0716   22.5276 C   0  0  0  0  0  0
  -21.4031   -6.5632   23.8210 C   0  0  0  0  0  0
  -21.3664   -5.6785   24.9178 C   0  0  0  0  0  0
  -21.6035   -4.3047   24.7230 C   0  0  0  0  0  0
  -21.8824   -3.8133   23.4354 C   0  0  0  0  0  0
  -21.9205   -4.6942   22.3406 C   0  0  0  0  0  0
  -22.7837  -13.5250   21.1827 C   0  0  0  0  0  0
  -22.1664   -4.2112   21.0982 F   0  0  0  0  0  0
  -21.5623   -3.4547   25.7749 F   0  0  0  0  0  0
  -30.0058  -13.5205   20.4796 N   0  0  0  0  0  0
  -26.3000  -12.9380   20.3465 N   0  0  0  0  0  0
  -25.9337  -11.6538   20.5821 N   0  0  0  0  0  0
  -22.0497  -12.8240   22.0388 N   0  0  0  0  0  0
  -25.4330  -15.1891   20.4151 N   0  0  0  0  0  0
  -31.6957  -14.9856   20.1012 O   0  0  0  0  0  0
  -21.6660   -6.8851   21.4225 O   0  0  0  0  0  0
  -22.3538  -14.5547   20.6680 O   0  0  0  0  0  0
  -24.6341  -31.8501   23.1989 C   0  0  0  0  0  0
  -25.9166  -32.4734   23.8318 C   0  0  1  0  0  0
  -27.2224  -27.2024   20.0910 C   0  0  0  0  0  0
  -25.5975  -33.8543   24.2209 N   0  0  0  0  0  0
  -23.4340  -30.4707   21.5463 C   0  0  2  0  0  0
  -24.8797  -28.9226   20.1059 C   0  0  0  0  0  0
  -22.7567  -29.4512   22.4926 C   0  0  0  0  0  0
  -18.0287  -28.1307   22.8444 C   0  0  0  0  0  0
  -24.1513  -36.7269   23.2626 C   0  0  0  0  0  0
  -25.9858  -30.7360   21.3996 C   0  0  0  0  0  0
  -26.0550  -29.3564   20.7316 C   0  0  0  0  0  0
  -27.2191  -28.5042   20.7235 C   0  0  0  0  0  0
  -26.0415  -26.9078   19.3729 C   0  0  0  0  0  0
  -24.8821  -27.7077   19.4162 C   0  0  0  0  0  0
  -23.6521  -29.8171   20.1600 C   0  0  0  0  0  0
  -25.4138  -36.3005   24.0299 C   0  0  1  0  0  0
  -20.5916  -28.3617   23.1257 C   0  0  2  0  0  0
  -20.6793  -26.9343   22.5399 C   0  0  0  0  0  0
  -19.5774  -26.6315   21.5177 C   0  0  0  0  0  0
  -18.1957  -26.7858   22.1585 C   0  0  0  0  0  0
  -19.1537  -28.8766   23.2838 C   0  0  0  0  0  0
  -18.9481  -30.1387   23.8813 C   0  0  0  0  0  0
  -17.6473  -30.6517   24.0510 C   0  0  0  0  0  0
  -25.9080  -34.9411   23.5046 C   0  0  0  0  0  0
  -16.5370  -29.9000   23.6301 C   0  0  0  0  0  0
  -16.7284  -28.6444   23.0293 C   0  0  0  0  0  0
  -26.4509  -31.6573   25.0723 C   0  0  0  0  0  0
  -25.3723  -31.3772   26.1425 C   0  0  0  0  0  0
  -27.0370  -30.2946   24.6308 C   0  0  0  0  0  0
  -27.6037  -32.4351   25.7509 C   0  0  0  0  0  0
  -27.5619  -37.1759   24.8464 C   0  0  0  0  0  0
  -21.4256  -29.2968   22.3660 N   0  0  0  0  0  0
  -26.4286  -37.3741   23.9439 N   0  0  0  0  0  0
  -24.7030  -31.0391   22.1043 N   0  0  0  0  0  0
  -23.4231  -28.8010   23.3028 O   0  0  0  0  0  0
  -28.3084  -26.2599   20.1892 O   0  0  0  0  0  0
  -26.5655  -34.8916   22.4623 O   0  0  0  0  0  0
  -23.5489  -32.1415   23.7215 O   0  0  0  0  0  0
  -30.2797  -18.3605   20.8236 C   0  0  0  0  0  0
  -29.5364  -19.6432   21.0328 C   0  0  0  0  0  0
  -29.6007  -17.1673   21.1726 C   0  0  0  0  0  0
  -28.2830  -19.3985   21.5449 C   0  0  0  0  0  0
  -30.0304  -21.1005   20.8235 C   0  0  0  0  0  0
  -28.8418  -24.7731   18.3420 C   0  0  0  0  0  0
  -26.9229  -24.0484   19.8293 C   0  0  0  0  0  0
  -29.3477  -23.7713   20.6707 C   0  0  0  0  0  0
  -28.3271  -24.7534   19.8067 C   0  0  0  0  0  0
  -27.2794  -20.2997   21.9292 N   0  0  0  0  0  0
  -31.3591  -21.2992   20.8776 N   0  0  0  0  0  0
  -29.8221  -15.7623   21.2195 N   0  0  0  0  0  0
  -29.1893  -22.2133   20.6535 N   0  3  0  0  0  0
  -28.0232  -17.6729   21.7702 S   0  0  0  0  0  0
  -31.4861  -12.6811   19.1811 H   0  0  0  0  0  0
  -30.4470  -11.5139   19.9410 H   0  0  0  0  0  0
  -29.8119  -11.8081   17.5233 H   0  0  0  0  0  0
  -29.6200  -13.5290   17.7677 H   0  0  0  0  0  0
  -27.9171  -11.3001   18.9198 H   0  0  0  0  0  0
  -27.3830  -12.5608   17.8330 H   0  0  0  0  0  0
  -27.6694  -14.2644   19.5434 H   0  0  0  0  0  0
  -28.7499  -12.0816   21.3863 H   0  0  0  0  0  0
  -28.4079  -13.7073   21.8851 H   0  0  0  0  0  0
  -25.2733   -9.5722   22.4773 H   0  0  0  0  0  0
  -23.9983   -7.4667   22.7516 H   0  0  0  0  0  0
  -21.0799   -8.8753   19.8980 H   0  0  0  0  0  0
  -22.3638  -10.9662   19.6173 H   0  0  0  0  0  0
  -21.2034   -7.6148   23.9687 H   0  0  0  0  0  0
  -21.1475   -6.0538   25.9070 H   0  0  0  0  0  0
  -22.0596   -2.7584   23.2881 H   0  0  0  0  0  0
  -22.4101  -11.9865   22.4684 H   0  0  0  0  0  0
  -21.1157  -13.1325   22.2689 H   0  0  0  0  0  0
  -24.6711  -15.8528   20.5152 H   0  0  0  0  0  0
  -26.2975  -15.6189   20.1101 H   0  0  0  0  0  0
  -26.7217  -32.5290   23.1040 H   0  0  0  0  0  0
  -25.0090  -33.9692   25.0327 H   0  0  0  0  0  0
  -22.7284  -31.2929   21.4067 H   0  0  0  0  0  0
  -23.3761  -35.9614   23.3251 H   0  0  0  0  0  0
  -24.3596  -36.8936   22.2044 H   0  0  0  0  0  0
  -23.7314  -37.6480   23.6698 H   0  0  0  0  0  0
  -26.1495  -31.5014   20.6374 H   0  0  0  0  0  0
  -26.8555  -30.7733   22.0446 H   0  0  0  0  0  0
  -28.1104  -28.8355   21.2389 H   0  0  0  0  0  0
  -25.9787  -26.0565   18.7268 H   0  0  0  0  0  0
  -23.9965  -27.3936   18.8772 H   0  0  0  0  0  0
  -23.7897  -30.6041   19.4190 H   0  0  0  0  0  0
  -22.7680  -29.2640   19.8397 H   0  0  0  0  0  0
  -25.1303  -36.1821   25.0787 H   0  0  0  0  0  0
  -20.9948  -28.3149   24.1392 H   0  0  0  0  0  0
  -20.5660  -26.2206   23.3578 H   0  0  0  0  0  0
  -21.6647  -26.7363   22.1181 H   0  0  0  0  0  0
  -19.6972  -25.6215   21.1181 H   0  0  0  0  0  0
  -19.6709  -27.3104   20.6680 H   0  0  0  0  0  0
  -17.4227  -26.6532   21.3976 H   0  0  0  0  0  0
  -18.0391  -25.9964   22.8961 H   0  0  0  0  0  0
  -19.7959  -30.7217   24.2126 H   0  0  0  0  0  0
  -17.5046  -31.6183   24.5119 H   0  0  0  0  0  0
  -15.5365  -30.2883   23.7680 H   0  0  0  0  0  0
  -15.8699  -28.0783   22.6986 H   0  0  0  0  0  0
  -24.5931  -30.7042   25.7828 H   0  0  0  0  0  0
  -24.8838  -32.2946   26.4710 H   0  0  0  0  0  0
  -25.7991  -30.9101   27.0301 H   0  0  0  0  0  0
  -26.2975  -29.6671   24.1296 H   0  0  0  0  0  0
  -27.3970  -29.7208   25.4864 H   0  0  0  0  0  0
  -27.8925  -30.4147   23.9647 H   0  0  0  0  0  0
  -27.2613  -33.3709   26.1929 H   0  0  0  0  0  0
  -28.3910  -32.6818   25.0378 H   0  0  0  0  0  0
  -28.0631  -31.8595   26.5535 H   0  0  0  0  0  0
  -28.2505  -38.0180   24.7560 H   0  0  0  0  0  0
  -28.1188  -36.2665   24.6139 H   0  0  0  0  0  0
  -27.2308  -37.1249   25.8854 H   0  0  0  0  0  0
  -20.9444  -29.8817   21.6971 H   0  0  0  0  0  0
  -26.0109  -38.2786   24.1494 H   0  0  0  0  0  0
  -31.2978  -18.3736   20.4586 H   0  0  0  0  0  0
  -28.8909  -23.7759   17.9080 H   0  0  0  0  0  0
  -29.8490  -25.1847   18.2615 H   0  0  0  0  0  0
  -28.2082  -25.3714   17.6836 H   0  0  0  0  0  0
  -26.9526  -22.9680   19.9743 H   0  0  0  0  0  0
  -26.4186  -24.0953   18.8614 H   0  0  0  0  0  0
  -26.2535  -24.4304   20.5985 H   0  0  0  0  0  0
  -29.2861  -24.0673   21.7206 H   0  0  0  0  0  0
  -30.3758  -24.0089   20.3900 H   0  0  0  0  0  0
  -27.4994  -20.8614   22.7500 H   0  0  0  0  0  0
  -26.3501  -19.9123   22.0951 H   0  0  0  0  0  0
  -31.9771  -20.5263   21.0684 H   0  0  0  0  0  0
  -31.7939  -22.2020   20.7712 H   0  0  0  0  0  0
  -29.0708  -15.3046   21.7119 H   0  0  0  0  0  0
  -28.2309  -21.9277   20.8283 H   0  0  0  0  0  0
  1 25  1  0  0  0
  1 30  2  0  0  0
  1 82  1  0  0  0
  2  3  1  0  0  0
  2 25  1  0  0  0
  2 85  1  0  0  0
  2 86  1  0  0  0
  3  4  1  0  0  0
  3 87  1  0  0  0
  3 88  1  0  0  0
  4  5  1  0  0  0
  4 89  1  0  0  0
  4 90  1  0  0  0
  5  6  1  0  0  0
  5 26  1  0  0  0
  5 91  1  0  0  0
  6 25  1  0  0  0
  6 92  1  0  0  0
  6 93  1  0  0  0
  7  8  2  0  0  0
  7 26  1  0  0  0
  7 29  1  0  0  0
  8  9  1  0  0  0
  8 22  1  0  0  0
  9 10  1  0  0  0
  9 27  2  0  0  0
 10 11  2  0  0  0
 10 15  1  0  0  0
 11 12  1  0  0  0
 11 94  1  0  0  0
 12 13  2  0  0  0
 12 95  1  0  0  0
 13 14  1  0  0  0
 13 31  1  0  0  0
 14 15  2  0  0  0
 14 96  1  0  0  0
 15 97  1  0  0  0
 16 17  2  0  0  0
 16 21  1  0  0  0
 16 31  1  0  0  0
 17 18  1  0  0  0
 17 98  1  0  0  0
 18 19  2  0  0  0
 18 99  1  0  0  0
 19 20  1  0  0  0
 19 24  1  0  0  0
 20 21  2  0  0  0
 20100  1  0  0  0
 21 23  1  0  0  0
 22 28  1  0  0  0
 22 32  2  0  0  0
 26 27  1  0  0  0
 28101  1  0  0  0
 28102  1  0  0  0
 29103  1  0  0  0
 29104  1  0  0  0
 33 34  1  0  0  0
 33 66  1  0  0  0
 33 70  2  0  0  0
 34 36  1  0  0  0
 34 59  1  0  0  0
 34105  1  0  0  0
 35 44  2  0  0  0
 35 45  1  0  0  0
 35 68  1  0  0  0
 36 56  1  0  0  0
 36106  1  0  0  0
 37 39  1  0  0  0
 37 47  1  0  0  0
 37 66  1  0  0  0
 37107  1  0  0  0
 38 43  2  0  0  0
 38 46  1  0  0  0
 38 47  1  0  0  0
 39 64  1  0  0  0
 39 67  2  0  0  0
 40 52  1  0  0  0
 40 53  2  0  0  0
 40 58  1  0  0  0
 41108  1  0  0  0
 41109  1  0  0  0
 41110  1  0  0  0
 41 48  1  0  0  0
 42 43  1  0  0  0
 42 66  1  0  0  0
 42111  1  0  0  0
 42112  1  0  0  0
 43 44  1  0  0  0
 44113  1  0  0  0
 45 46  2  0  0  0
 45114  1  0  0  0
 46115  1  0  0  0
 47116  1  0  0  0
 47117  1  0  0  0
 48 56  1  0  0  0
 48 65  1  0  0  0
 48118  1  0  0  0
 49 50  1  0  0  0
 49 53  1  0  0  0
 49 64  1  0  0  0
 49119  1  0  0  0
 50 51  1  0  0  0
 50120  1  0  0  0
 50121  1  0  0  0
 51 52  1  0  0  0
 51122  1  0  0  0
 51123  1  0  0  0
 52124  1  0  0  0
 52125  1  0  0  0
 53 54  1  0  0  0
 54 55  2  0  0  0
 54126  1  0  0  0
 55 57  1  0  0  0
 55127  1  0  0  0
 56 69  2  0  0  0
 57 58  2  0  0  0
 57128  1  0  0  0
 58129  1  0  0  0
 59 60  1  0  0  0
 59 61  1  0  0  0
 59 62  1  0  0  0
 60130  1  0  0  0
 60131  1  0  0  0
 60132  1  0  0  0
 61133  1  0  0  0
 61134  1  0  0  0
 61135  1  0  0  0
 62136  1  0  0  0
 62137  1  0  0  0
 62138  1  0  0  0
 63 65  1  0  0  0
 63139  1  0  0  0
 63140  1  0  0  0
 63141  1  0  0  0
 64142  1  0  0  0
 65143  1  0  0  0
 68 79  1  0  0  0
 71 72  1  0  0  0
 71 73  2  0  0  0
 71144  1  0  0  0
 72 74  2  0  0  0
 72 75  1  0  0  0
 73 82  1  0  0  0
 73 84  1  0  0  0
 74 80  1  0  0  0
 74 84  1  0  0  0
 75 81  1  0  0  0
 75 83  2  0  0  0
 76145  1  0  0  0
 76146  1  0  0  0
 76147  1  0  0  0
 76 79  1  0  0  0
 77 79  1  0  0  0
 77148  1  0  0  0
 77149  1  0  0  0
 77150  1  0  0  0
 78 79  1  0  0  0
 78 83  1  0  0  0
 78151  1  0  0  0
 78152  1  0  0  0
 80153  1  0  0  0
 80154  1  0  0  0
 81155  1  0  0  0
 81156  1  0  0  0
 82157  1  0  0  0
 83158  1  0  0  0
M  CHG  1  83   1
M  ISO  4   1 100  68 101  79 101  82 100
M  END
> <chiral flag>
0

> <version>
0

> <s_m_source_file>
/data/baiqing/PycharmProjects/Reinvent-master-3.2/result/LINK_invent/BTK/process_docking_weight1_custom_product_contain_oxygen_bond_distance_aromatic_linkinvent_7_9_3/rearranged_h_0150.sdf

> <i_m_source_file_index>
14

> <r_mmod_Potential_Energy-OPLS-2005>
204.127426147461

> <r_mmod_Stretch_Energy-OPLS-2005>
176.943664550781

> <r_mmod_Bend_Energy-OPLS-2005>
252.415710449219

> <r_mmod_Torsional_Energy-OPLS-2005>
248.459823608398

> <r_mmod_Improper_Torsional_Energy-OPLS-2005>
9.55350875854492

> <r_mmod_Van_der_Waal_Energy-OPLS-2005>
125.06713104248

> <r_mmod_Electrostatic_Energy-OPLS-2005>
-271.1396484375

> <r_mmod_Solvation_Energy-OPLS-2005>
-451.337371826172

> <b_mmod_Minimization_Converged-OPLS-2005>
0

> <r_mmod_RMS_Derivative-OPLS-2005>
7.70776033401489

$$$$
14
                    3D
 Structure written by MMmdl.
159168  0  0  1  0            999 V2000
  -30.6361  -14.6058   20.5008 C   0  0  0  0  0  0
  -30.4338  -12.3686   19.4442 C   0  0  0  0  0  0
  -29.5036  -12.5000   18.2178 C   0  0  0  0  0  0
  -28.0259  -12.3424   18.6308 C   0  0  0  0  0  0
  -27.6534  -13.2102   19.8626 C   0  0  2  0  0  0
  -28.6995  -13.0559   20.9904 C   0  0  0  0  0  0
  -25.2572  -13.8164   20.5682 C   0  0  0  0  0  0
  -24.1838  -13.0432   20.9195 C   0  0  0  0  0  0
  -24.6399  -11.6900   20.8749 C   0  0  0  0  0  0
  -23.9067  -10.4284   21.0413 C   0  0  0  0  0  0
  -24.3616   -9.4197   21.9189 C   0  0  0  0  0  0
  -23.6289   -8.2234   22.0764 C   0  0  0  0  0  0
  -22.4275   -8.0279   21.3551 C   0  0  0  0  0  0
  -21.9912   -9.0254   20.4651 C   0  0  0  0  0  0
  -22.7243  -10.2132   20.3059 C   0  0  0  0  0  0
  -21.6853   -6.0735   22.5279 C   0  0  0  0  0  0
  -21.4015   -6.5639   23.8213 C   0  0  0  0  0  0
  -21.3660   -5.6796   24.9179 C   0  0  0  0  0  0
  -21.6043   -4.3056   24.7227 C   0  0  0  0  0  0
  -21.8819   -3.8148   23.4348 C   0  0  0  0  0  0
  -21.9193   -4.6962   22.3399 C   0  0  0  0  0  0
  -22.7861  -13.5227   21.1846 C   0  0  0  0  0  0
  -22.1663   -4.2146   21.0975 F   0  0  0  0  0  0
  -21.5625   -3.4538   25.7742 F   0  0  0  0  0  0
  -30.0165  -13.3875   20.4249 N   0  0  0  0  0  0
  -26.2990  -12.9329   20.3315 N   0  0  0  0  0  0
  -25.9321  -11.6491   20.5757 N   0  0  0  0  0  0
  -22.0502  -12.8218   22.0399 N   0  0  0  0  0  0
  -25.4275  -15.1888   20.4082 N   0  0  0  0  0  0
  -31.8083  -14.7529   20.1407 O   0  0  0  0  0  0
  -21.6638   -6.8877   21.4243 O   0  0  0  0  0  0
  -22.3550  -14.5533   20.6696 O   0  0  0  0  0  0
  -24.6236  -31.8620   23.2048 C   0  0  0  0  0  0
  -25.9098  -32.4794   23.8369 C   0  0  1  0  0  0
  -27.2321  -27.3483   20.0982 C   0  0  0  0  0  0
  -25.5921  -33.8596   24.2291 N   0  0  0  0  0  0
  -23.4149  -30.4847   21.5480 C   0  0  2  0  0  0
  -24.8599  -28.9403   20.1148 C   0  0  0  0  0  0
  -22.7450  -29.4636   22.4973 C   0  0  0  0  0  0
  -18.0278  -28.1402   22.8508 C   0  0  0  0  0  0
  -24.1482  -36.7283   23.2630 C   0  0  0  0  0  0
  -25.9535  -30.7993   21.3720 C   0  0  0  0  0  0
  -26.0266  -29.4284   20.7143 C   0  0  0  0  0  0
  -27.2113  -28.6410   20.7006 C   0  0  0  0  0  0
  -26.0308  -26.8910   19.5070 C   0  0  0  0  0  0
  -24.8607  -27.6741   19.5095 C   0  0  0  0  0  0
  -23.6270  -29.8169   20.1638 C   0  0  0  0  0  0
  -25.4107  -36.3087   24.0329 C   0  0  1  0  0  0
  -20.5872  -28.3695   23.1312 C   0  0  2  0  0  0
  -20.6771  -26.9427   22.5420 C   0  0  0  0  0  0
  -19.5737  -26.6408   21.5227 C   0  0  0  0  0  0
  -18.1918  -26.7953   22.1635 C   0  0  0  0  0  0
  -19.1529  -28.8867   23.2903 C   0  0  0  0  0  0
  -18.9451  -30.1472   23.8914 C   0  0  0  0  0  0
  -17.6451  -30.6606   24.0577 C   0  0  0  0  0  0
  -25.9058  -34.9461   23.5112 C   0  0  0  0  0  0
  -16.5344  -29.9110   23.6338 C   0  0  0  0  0  0
  -16.7266  -28.6522   23.0369 C   0  0  0  0  0  0
  -26.4490  -31.6602   25.0733 C   0  0  0  0  0  0
  -25.3730  -31.3722   26.1457 C   0  0  0  0  0  0
  -27.0337  -30.3040   24.6175 C   0  0  0  0  0  0
  -27.6063  -32.4321   25.7500 C   0  0  0  0  0  0
  -27.5600  -37.1761   24.8439 C   0  0  0  0  0  0
  -21.4172  -29.3046   22.3707 N   0  0  0  0  0  0
  -26.4270  -37.3799   23.9448 N   0  0  0  0  0  0
  -24.6826  -31.0647   22.0990 N   0  0  0  0  0  0
  -23.4178  -28.8189   23.3056 O   0  0  0  0  0  0
  -28.3906  -26.5630   20.1323 O   0  0  0  0  0  0
  -26.5630  -34.8925   22.4680 O   0  0  0  0  0  0
  -23.5408  -32.1410   23.7397 O   0  0  0  0  0  0
  -31.0665  -19.1334   20.7209 C   0  0  0  0  0  0
  -29.7901  -19.6228   20.4894 C   0  0  0  0  0  0
  -29.9963  -17.0905   20.6757 C   0  0  0  0  0  0
  -29.5482  -23.4557   20.9451 C   0  0  0  0  0  0
  -28.2502  -22.7745   18.9452 C   0  0  0  0  0  0
  -29.5499  -21.9547   21.4059 C   0  0  0  0  0  0
  -28.2239  -21.3028   19.4680 C   0  0  0  0  0  0
  -28.3597  -23.8867   20.0345 C   0  0  0  0  0  0
  -32.3192  -19.9469   20.8336 C   0  0  0  0  0  0
  -28.4988  -25.3221   19.3552 C   0  0  0  0  0  0
  -31.1665  -17.7253   20.8256 N   0  0  0  0  0  0
  -29.3840  -20.9875   20.3065 N   0  0  0  0  0  0
  -29.8125  -15.6553   20.7877 N   0  0  0  0  0  0
  -27.1400  -23.8815   20.7582 O   0  0  0  0  0  0
  -28.6690  -18.2521   20.4014 S   0  0  0  0  0  0
  -31.4759  -12.4861   19.1424 H   0  0  0  0  0  0
  -30.3569  -11.3712   19.8806 H   0  0  0  0  0  0
  -29.7626  -11.7535   17.4653 H   0  0  0  0  0  0
  -29.6495  -13.4724   17.7451 H   0  0  0  0  0  0
  -27.8580  -11.2887   18.8569 H   0  0  0  0  0  0
  -27.3721  -12.5800   17.7909 H   0  0  0  0  0  0
  -27.6732  -14.2456   19.5238 H   0  0  0  0  0  0
  -28.7028  -12.0336   21.3710 H   0  0  0  0  0  0
  -28.4524  -13.6884   21.8447 H   0  0  0  0  0  0
  -25.2762   -9.5665   22.4762 H   0  0  0  0  0  0
  -23.9995   -7.4625   22.7490 H   0  0  0  0  0  0
  -21.0844   -8.8774   19.8954 H   0  0  0  0  0  0
  -22.3708  -10.9673   19.6169 H   0  0  0  0  0  0
  -21.2014   -7.6151   23.9712 H   0  0  0  0  0  0
  -21.1485   -6.0531   25.9079 H   0  0  0  0  0  0
  -22.0601   -2.7612   23.2852 H   0  0  0  0  0  0
  -22.4132  -11.9873   22.4765 H   0  0  0  0  0  0
  -21.1126  -13.1253   22.2618 H   0  0  0  0  0  0
  -24.6511  -15.8342   20.5063 H   0  0  0  0  0  0
  -26.2602  -15.6294   20.0406 H   0  0  0  0  0  0
  -26.7172  -32.5481   23.1125 H   0  0  0  0  0  0
  -25.0054  -33.9755   25.0425 H   0  0  0  0  0  0
  -22.7075  -31.3045   21.4069 H   0  0  0  0  0  0
  -23.3792  -35.9562   23.3206 H   0  0  0  0  0  0
  -24.3588  -36.8993   22.2062 H   0  0  0  0  0  0
  -23.7167  -37.6424   23.6715 H   0  0  0  0  0  0
  -26.0807  -31.5643   20.6050 H   0  0  0  0  0  0
  -26.8360  -30.8494   21.9982 H   0  0  0  0  0  0
  -28.1102  -29.0162   21.1691 H   0  0  0  0  0  0
  -25.9548  -25.9093   19.0650 H   0  0  0  0  0  0
  -23.9595  -27.2856   19.0566 H   0  0  0  0  0  0
  -23.7432  -30.5925   19.4060 H   0  0  0  0  0  0
  -22.7491  -29.2425   19.8630 H   0  0  0  0  0  0
  -25.1271  -36.1925   25.0814 H   0  0  0  0  0  0
  -20.9955  -28.3270   24.1438 H   0  0  0  0  0  0
  -20.5687  -26.2314   23.3613 H   0  0  0  0  0  0
  -21.6641  -26.7464   22.1208 H   0  0  0  0  0  0
  -19.6887  -25.6321   21.1262 H   0  0  0  0  0  0
  -19.6674  -27.3222   20.6758 H   0  0  0  0  0  0
  -17.4189  -26.6722   21.4032 H   0  0  0  0  0  0
  -18.0290  -26.0088   22.9017 H   0  0  0  0  0  0
  -19.7919  -30.7296   24.2283 H   0  0  0  0  0  0
  -17.5002  -31.6286   24.5181 H   0  0  0  0  0  0
  -15.5347  -30.3021   23.7647 H   0  0  0  0  0  0
  -15.8667  -28.0843   22.7088 H   0  0  0  0  0  0
  -24.5903  -30.7081   25.7766 H   0  0  0  0  0  0
  -24.8920  -32.2881   26.4900 H   0  0  0  0  0  0
  -25.8049  -30.8874   27.0220 H   0  0  0  0  0  0
  -26.2903  -29.6799   24.1203 H   0  0  0  0  0  0
  -27.4049  -29.7294   25.4672 H   0  0  0  0  0  0
  -27.8765  -30.4343   23.9383 H   0  0  0  0  0  0
  -27.2693  -33.3629   26.2075 H   0  0  0  0  0  0
  -28.3871  -32.6862   25.0318 H   0  0  0  0  0  0
  -28.0735  -31.8441   26.5410 H   0  0  0  0  0  0
  -28.2505  -38.0173   24.7687 H   0  0  0  0  0  0
  -28.1209  -36.2723   24.6014 H   0  0  0  0  0  0
  -27.2352  -37.1100   25.8838 H   0  0  0  0  0  0
  -20.9363  -29.8760   21.6903 H   0  0  0  0  0  0
  -26.0142  -38.2837   24.1590 H   0  0  0  0  0  0
  -30.4763  -23.6347   20.4016 H   0  0  0  0  0  0
  -29.5949  -24.1063   21.8190 H   0  0  0  0  0  0
  -27.3701  -22.9476   18.3235 H   0  0  0  0  0  0
  -29.0987  -22.8718   18.2661 H   0  0  0  0  0  0
  -28.7451  -21.7985   22.1258 H   0  0  0  0  0  0
  -30.4746  -21.7498   21.9455 H   0  0  0  0  0  0
  -28.2014  -20.6232   18.6147 H   0  0  0  0  0  0
  -27.3085  -21.1179   20.0323 H   0  0  0  0  0  0
  -32.2630  -20.8437   20.2162 H   0  0  0  0  0  0
  -33.1958  -19.3845   20.5113 H   0  0  0  0  0  0
  -32.4892  -20.2641   21.8618 H   0  0  0  0  0  0
  -27.8749  -25.3669   18.4642 H   0  0  0  0  0  0
  -29.5032  -25.3596   18.9318 H   0  0  0  0  0  0
  -28.8638  -15.3748   20.9735 H   0  0  0  0  0  0
  -27.0460  -23.0260   21.1585 H   0  0  0  0  0  0
  1 25  1  0  0  0
  1 30  2  0  0  0
  1 83  1  0  0  0
  2  3  1  0  0  0
  2 25  1  0  0  0
  2 86  1  0  0  0
  2 87  1  0  0  0
  3  4  1  0  0  0
  3 88  1  0  0  0
  3 89  1  0  0  0
  4  5  1  0  0  0
  4 90  1  0  0  0
  4 91  1  0  0  0
  5  6  1  0  0  0
  5 26  1  0  0  0
  5 92  1  0  0  0
  6 25  1  0  0  0
  6 93  1  0  0  0
  6 94  1  0  0  0
  7  8  2  0  0  0
  7 26  1  0  0  0
  7 29  1  0  0  0
  8  9  1  0  0  0
  8 22  1  0  0  0
  9 10  1  0  0  0
  9 27  2  0  0  0
 10 11  2  0  0  0
 10 15  1  0  0  0
 11 12  1  0  0  0
 11 95  1  0  0  0
 12 13  2  0  0  0
 12 96  1  0  0  0
 13 14  1  0  0  0
 13 31  1  0  0  0
 14 15  2  0  0  0
 14 97  1  0  0  0
 15 98  1  0  0  0
 16 17  2  0  0  0
 16 21  1  0  0  0
 16 31  1  0  0  0
 17 18  1  0  0  0
 17 99  1  0  0  0
 18 19  2  0  0  0
 18100  1  0  0  0
 19 20  1  0  0  0
 19 24  1  0  0  0
 20 21  2  0  0  0
 20101  1  0  0  0
 21 23  1  0  0  0
 22 28  1  0  0  0
 22 32  2  0  0  0
 26 27  1  0  0  0
 28102  1  0  0  0
 28103  1  0  0  0
 29104  1  0  0  0
 29105  1  0  0  0
 33 34  1  0  0  0
 33 66  1  0  0  0
 33 70  2  0  0  0
 34 36  1  0  0  0
 34 59  1  0  0  0
 34106  1  0  0  0
 35 44  2  0  0  0
 35 45  1  0  0  0
 35 68  1  0  0  0
 36 56  1  0  0  0
 36107  1  0  0  0
 37 39  1  0  0  0
 37 47  1  0  0  0
 37 66  1  0  0  0
 37108  1  0  0  0
 38 43  2  0  0  0
 38 46  1  0  0  0
 38 47  1  0  0  0
 39 64  1  0  0  0
 39 67  2  0  0  0
 40 52  1  0  0  0
 40 53  2  0  0  0
 40 58  1  0  0  0
 41109  1  0  0  0
 41110  1  0  0  0
 41111  1  0  0  0
 41 48  1  0  0  0
 42 43  1  0  0  0
 42 66  1  0  0  0
 42112  1  0  0  0
 42113  1  0  0  0
 43 44  1  0  0  0
 44114  1  0  0  0
 45 46  2  0  0  0
 45115  1  0  0  0
 46116  1  0  0  0
 47117  1  0  0  0
 47118  1  0  0  0
 48 56  1  0  0  0
 48 65  1  0  0  0
 48119  1  0  0  0
 49 50  1  0  0  0
 49 53  1  0  0  0
 49 64  1  0  0  0
 49120  1  0  0  0
 50 51  1  0  0  0
 50121  1  0  0  0
 50122  1  0  0  0
 51 52  1  0  0  0
 51123  1  0  0  0
 51124  1  0  0  0
 52125  1  0  0  0
 52126  1  0  0  0
 53 54  1  0  0  0
 54 55  2  0  0  0
 54127  1  0  0  0
 55 57  1  0  0  0
 55128  1  0  0  0
 56 69  2  0  0  0
 57 58  2  0  0  0
 57129  1  0  0  0
 58130  1  0  0  0
 59 60  1  0  0  0
 59 61  1  0  0  0
 59 62  1  0  0  0
 60131  1  0  0  0
 60132  1  0  0  0
 60133  1  0  0  0
 61134  1  0  0  0
 61135  1  0  0  0
 61136  1  0  0  0
 62137  1  0  0  0
 62138  1  0  0  0
 62139  1  0  0  0
 63 65  1  0  0  0
 63140  1  0  0  0
 63141  1  0  0  0
 63142  1  0  0  0
 64143  1  0  0  0
 65144  1  0  0  0
 68 80  1  0  0  0
 71 72  2  0  0  0
 71 79  1  0  0  0
 71 81  1  0  0  0
 72 82  1  0  0  0
 72 85  1  0  0  0
 73 81  2  0  0  0
 73 83  1  0  0  0
 73 85  1  0  0  0
 74 76  1  0  0  0
 74 78  1  0  0  0
 74145  1  0  0  0
 74146  1  0  0  0
 75 77  1  0  0  0
 75 78  1  0  0  0
 75147  1  0  0  0
 75148  1  0  0  0
 76 82  1  0  0  0
 76149  1  0  0  0
 76150  1  0  0  0
 77 82  1  0  0  0
 77151  1  0  0  0
 77152  1  0  0  0
 78 80  1  0  0  0
 78 84  1  0  0  0
 79153  1  0  0  0
 79154  1  0  0  0
 79155  1  0  0  0
 80156  1  0  0  0
 80157  1  0  0  0
 83158  1  0  0  0
 84159  1  0  0  0
M  ISO  4   1 100  68 101  80 101  83 100
M  END
> <chiral flag>
0

> <version>
0

> <s_m_source_file>
/data/baiqing/PycharmProjects/Reinvent-master-3.2/result/LINK_invent/BTK/process_docking_weight1_custom_product_contain_oxygen_bond_distance_aromatic_linkinvent_7_9_3/rearranged_h_0150.sdf

> <i_m_source_file_index>
15

> <r_mmod_Potential_Energy-OPLS-2005>
26.8722515106201

> <r_mmod_Stretch_Energy-OPLS-2005>
63.6563110351562

> <r_mmod_Bend_Energy-OPLS-2005>
137.617904663086

> <r_mmod_Torsional_Energy-OPLS-2005>
264.939483642578

> <r_mmod_Improper_Torsional_Energy-OPLS-2005>
8.01915264129639

> <r_mmod_Van_der_Waal_Energy-OPLS-2005>
124.939346313477

> <r_mmod_Electrostatic_Energy-OPLS-2005>
-358.734161376953

> <r_mmod_Solvation_Energy-OPLS-2005>
-249.664840698242

> <b_mmod_Minimization_Converged-OPLS-2005>
0

> <r_mmod_RMS_Derivative-OPLS-2005>
1.27073073387146

$$$$
15
                    3D
 Structure written by MMmdl.
148156  0  0  1  0            999 V2000
  -30.5074  -14.9872   20.4189 C   0  0  0  0  0  0
  -30.4497  -12.6125   19.5046 C   0  0  0  0  0  0
  -29.5275  -12.5364   18.2634 C   0  0  0  0  0  0
  -28.0605  -12.3173   18.6793 C   0  0  0  0  0  0
  -27.6326  -13.2488   19.8425 C   0  0  2  0  0  0
  -28.6747  -13.2746   20.9818 C   0  0  0  0  0  0
  -25.2472  -13.8217   20.5715 C   0  0  0  0  0  0
  -24.1786  -13.0440   20.9229 C   0  0  0  0  0  0
  -24.6402  -11.6926   20.8755 C   0  0  0  0  0  0
  -23.9085  -10.4292   21.0407 C   0  0  0  0  0  0
  -24.3630   -9.4206   21.9186 C   0  0  0  0  0  0
  -23.6299   -8.2245   22.0756 C   0  0  0  0  0  0
  -22.4283   -8.0283   21.3544 C   0  0  0  0  0  0
  -21.9921   -9.0259   20.4647 C   0  0  0  0  0  0
  -22.7255  -10.2135   20.3056 C   0  0  0  0  0  0
  -21.6854   -6.0739   22.5279 C   0  0  0  0  0  0
  -21.4015   -6.5641   23.8213 C   0  0  0  0  0  0
  -21.3659   -5.6795   24.9173 C   0  0  0  0  0  0
  -21.6043   -4.3057   24.7223 C   0  0  0  0  0  0
  -21.8820   -3.8148   23.4344 C   0  0  0  0  0  0
  -21.9193   -4.6966   22.3399 C   0  0  0  0  0  0
  -22.7803  -13.5209   21.1881 C   0  0  0  0  0  0
  -22.1661   -4.2151   21.0978 F   0  0  0  0  0  0
  -21.5628   -3.4540   25.7736 F   0  0  0  0  0  0
  -29.9498  -13.7053   20.3908 N   0  0  0  0  0  0
  -26.2900  -12.9450   20.3259 N   0  0  0  0  0  0
  -25.9337  -11.6580   20.5746 N   0  0  0  0  0  0
  -22.0449  -12.8194   22.0433 N   0  0  0  0  0  0
  -25.4137  -15.1948   20.4137 N   0  0  0  0  0  0
  -31.7004  -15.0860   20.1078 O   0  0  0  0  0  0
  -21.6644   -6.8882   21.4241 O   0  0  0  0  0  0
  -22.3485  -14.5511   20.6721 O   0  0  0  0  0  0
  -24.6457  -31.8414   23.1860 C   0  0  0  0  0  0
  -25.9214  -32.4681   23.8263 C   0  0  1  0  0  0
  -27.2114  -27.0925   20.1720 C   0  0  0  0  0  0
  -25.5945  -33.8488   24.2170 N   0  0  0  0  0  0
  -23.4518  -30.4602   21.5317 C   0  0  2  0  0  0
  -24.9033  -28.8802   20.1127 C   0  0  0  0  0  0
  -22.7581  -29.4536   22.4844 C   0  0  0  0  0  0
  -18.0308  -28.1401   22.8483 C   0  0  0  0  0  0
  -24.1486  -36.7247   23.2647 C   0  0  0  0  0  0
  -26.0110  -30.6990   21.3962 C   0  0  0  0  0  0
  -26.0793  -29.3048   20.7439 C   0  0  0  0  0  0
  -27.2338  -28.4275   20.7578 C   0  0  0  0  0  0
  -26.0254  -26.8025   19.4632 C   0  0  0  0  0  0
  -24.8907  -27.6422   19.4549 C   0  0  0  0  0  0
  -23.6822  -29.7880   20.1521 C   0  0  0  0  0  0
  -25.4121  -36.3023   24.0316 C   0  0  1  0  0  0
  -20.5922  -28.3726   23.1225 C   0  0  2  0  0  0
  -20.6786  -26.9425   22.5400 C   0  0  0  0  0  0
  -19.5758  -26.6385   21.5211 C   0  0  0  0  0  0
  -18.1941  -26.7939   22.1628 C   0  0  0  0  0  0
  -19.1566  -28.8883   23.2844 C   0  0  0  0  0  0
  -18.9486  -30.1479   23.8872 C   0  0  0  0  0  0
  -17.6481  -30.6597   24.0565 C   0  0  0  0  0  0
  -25.9076  -34.9401   23.5055 C   0  0  0  0  0  0
  -16.5370  -29.9093   23.6339 C   0  0  0  0  0  0
  -16.7292  -28.6511   23.0360 C   0  0  0  0  0  0
  -26.4524  -31.6563   25.0722 C   0  0  0  0  0  0
  -25.3698  -31.3764   26.1409 C   0  0  0  0  0  0
  -27.0399  -30.2952   24.6341 C   0  0  0  0  0  0
  -27.6044  -32.4339   25.7506 C   0  0  0  0  0  0
  -27.5570  -37.1780   24.8470 C   0  0  0  0  0  0
  -21.4270  -29.3047   22.3593 N   0  0  0  0  0  0
  -26.4282  -37.3740   23.9413 N   0  0  0  0  0  0
  -24.7225  -31.0234   22.0918 N   0  0  0  0  0  0
  -23.4207  -28.8092   23.3016 O   0  0  0  0  0  0
  -28.2605  -26.0853   20.1935 O   0  0  0  0  0  0
  -26.5677  -34.8903   22.4645 O   0  0  0  0  0  0
  -23.5565  -32.1311   23.7053 O   0  0  0  0  0  0
  -30.6852  -18.4294   19.8937 C   0  0  0  0  0  0
  -29.7497  -17.5749   20.4846 C   0  0  0  0  0  0
  -29.2686  -20.3046   20.4193 C   0  0  0  0  0  0
  -26.6400  -24.1394   20.8147 C   0  0  0  0  0  0
  -28.9550  -23.2059   20.0395 C   0  0  0  0  0  0
  -28.1072  -24.5664   20.6336 C   0  0  1  0  0  0
  -30.4147  -19.8614   19.8521 N   0  0  0  0  0  0
  -29.6776  -16.1298   20.6413 N   0  0  0  0  0  0
  -28.7527  -21.7170   20.5287 N   0  0  0  0  0  0
  -28.4620  -18.7621   21.0347 S   0  0  0  0  0  0
  -31.4791  -12.7879   19.1884 H   0  0  0  0  0  0
  -30.4625  -11.6612   20.0389 H   0  0  0  0  0  0
  -29.8516  -11.7340   17.5994 H   0  0  0  0  0  0
  -29.6106  -13.4611   17.6901 H   0  0  0  0  0  0
  -27.9590  -11.2760   18.9876 H   0  0  0  0  0  0
  -27.3979  -12.4464   17.8226 H   0  0  0  0  0  0
  -27.5955  -14.2511   19.4146 H   0  0  0  0  0  0
  -28.7699  -12.2938   21.4503 H   0  0  0  0  0  0
  -28.3657  -13.9623   21.7703 H   0  0  0  0  0  0
  -25.2771   -9.5681   22.4766 H   0  0  0  0  0  0
  -24.0003   -7.4637   22.7477 H   0  0  0  0  0  0
  -21.0852   -8.8782   19.8951 H   0  0  0  0  0  0
  -22.3715  -10.9676   19.6166 H   0  0  0  0  0  0
  -21.2009   -7.6151   23.9715 H   0  0  0  0  0  0
  -21.1479   -6.0525   25.9077 H   0  0  0  0  0  0
  -22.0598   -2.7611   23.2843 H   0  0  0  0  0  0
  -22.4073  -11.9861   22.4827 H   0  0  0  0  0  0
  -21.1062  -13.1210   22.2628 H   0  0  0  0  0  0
  -24.6415  -15.8434   20.5233 H   0  0  0  0  0  0
  -26.2489  -15.6353   20.0508 H   0  0  0  0  0  0
  -26.7278  -32.5280   23.0990 H   0  0  0  0  0  0
  -25.0046  -33.9601   25.0285 H   0  0  0  0  0  0
  -22.7561  -31.2870   21.3746 H   0  0  0  0  0  0
  -23.3753  -35.9576   23.3302 H   0  0  0  0  0  0
  -24.3565  -36.8885   22.2062 H   0  0  0  0  0  0
  -23.7233  -37.6438   23.6689 H   0  0  0  0  0  0
  -26.1752  -31.4466   20.6194 H   0  0  0  0  0  0
  -26.8787  -30.7507   22.0419 H   0  0  0  0  0  0
  -28.1287  -28.7504   21.2710 H   0  0  0  0  0  0
  -25.9548  -25.8760   18.9152 H   0  0  0  0  0  0
  -24.0023  -27.3199   18.9292 H   0  0  0  0  0  0
  -23.8241  -30.5620   19.3966 H   0  0  0  0  0  0
  -22.7960  -29.2330   19.8388 H   0  0  0  0  0  0
  -25.1308  -36.1848   25.0809 H   0  0  0  0  0  0
  -21.0018  -28.3319   24.1345 H   0  0  0  0  0  0
  -20.5661  -26.2347   23.3625 H   0  0  0  0  0  0
  -21.6655  -26.7414   22.1210 H   0  0  0  0  0  0
  -19.6911  -25.6288   21.1256 H   0  0  0  0  0  0
  -19.6694  -27.3187   20.6733 H   0  0  0  0  0  0
  -17.4207  -26.6685   21.4035 H   0  0  0  0  0  0
  -18.0341  -26.0089   22.9030 H   0  0  0  0  0  0
  -19.7961  -30.7304   24.2227 H   0  0  0  0  0  0
  -17.5037  -31.6275   24.5173 H   0  0  0  0  0  0
  -15.5371  -30.2990   23.7675 H   0  0  0  0  0  0
  -15.8692  -28.0822   22.7088 H   0  0  0  0  0  0
  -24.5898  -30.7084   25.7733 H   0  0  0  0  0  0
  -24.8864  -32.2947   26.4751 H   0  0  0  0  0  0
  -25.7977  -30.9001   27.0239 H   0  0  0  0  0  0
  -26.3032  -29.6661   24.1337 H   0  0  0  0  0  0
  -27.3978  -29.7268   25.4934 H   0  0  0  0  0  0
  -27.8952  -30.4175   23.9695 H   0  0  0  0  0  0
  -27.2636  -33.3672   26.2002 H   0  0  0  0  0  0
  -28.3899  -32.6846   25.0361 H   0  0  0  0  0  0
  -28.0667  -31.8519   26.5488 H   0  0  0  0  0  0
  -28.2589  -38.0074   24.7511 H   0  0  0  0  0  0
  -28.1062  -36.2604   24.6305 H   0  0  0  0  0  0
  -27.2290  -37.1438   25.8874 H   0  0  0  0  0  0
  -20.9480  -29.8758   21.6770 H   0  0  0  0  0  0
  -26.0144  -38.2808   24.1411 H   0  0  0  0  0  0
  -31.6061  -18.1000   19.4330 H   0  0  0  0  0  0
  -26.0600  -24.8820   21.3618 H   0  0  0  0  0  0
  -26.5752  -23.2215   21.3976 H   0  0  0  0  0  0
  -26.1567  -23.9383   19.8598 H   0  0  0  0  0  0
  -30.0194  -23.4206   20.1426 H   0  0  0  0  0  0
  -28.7840  -23.1810   18.9626 H   0  0  0  0  0  0
  -28.4770  -24.6377   21.6573 H   0  0  0  0  0  0
  -28.7650  -15.8281   20.9479 H   0  0  0  0  0  0
  -27.9063  -21.6878   21.0895 H   0  0  0  0  0  0
  1 25  1  0  0  0
  1 30  2  0  0  0
  1 78  1  0  0  0
  2  3  1  0  0  0
  2 25  1  0  0  0
  2 81  1  0  0  0
  2 82  1  0  0  0
  3  4  1  0  0  0
  3 83  1  0  0  0
  3 84  1  0  0  0
  4  5  1  0  0  0
  4 85  1  0  0  0
  4 86  1  0  0  0
  5  6  1  0  0  0
  5 26  1  0  0  0
  5 87  1  0  0  0
  6 25  1  0  0  0
  6 88  1  0  0  0
  6 89  1  0  0  0
  7  8  2  0  0  0
  7 26  1  0  0  0
  7 29  1  0  0  0
  8  9  1  0  0  0
  8 22  1  0  0  0
  9 10  1  0  0  0
  9 27  2  0  0  0
 10 11  2  0  0  0
 10 15  1  0  0  0
 11 12  1  0  0  0
 11 90  1  0  0  0
 12 13  2  0  0  0
 12 91  1  0  0  0
 13 14  1  0  0  0
 13 31  1  0  0  0
 14 15  2  0  0  0
 14 92  1  0  0  0
 15 93  1  0  0  0
 16 17  2  0  0  0
 16 21  1  0  0  0
 16 31  1  0  0  0
 17 18  1  0  0  0
 17 94  1  0  0  0
 18 19  2  0  0  0
 18 95  1  0  0  0
 19 20  1  0  0  0
 19 24  1  0  0  0
 20 21  2  0  0  0
 20 96  1  0  0  0
 21 23  1  0  0  0
 22 28  1  0  0  0
 22 32  2  0  0  0
 26 27  1  0  0  0
 28 97  1  0  0  0
 28 98  1  0  0  0
 29 99  1  0  0  0
 29100  1  0  0  0
 33 34  1  0  0  0
 33 66  1  0  0  0
 33 70  2  0  0  0
 34 36  1  0  0  0
 34 59  1  0  0  0
 34101  1  0  0  0
 35 44  2  0  0  0
 35 45  1  0  0  0
 35 68  1  0  0  0
 36 56  1  0  0  0
 36102  1  0  0  0
 37 39  1  0  0  0
 37 47  1  0  0  0
 37 66  1  0  0  0
 37103  1  0  0  0
 38 43  2  0  0  0
 38 46  1  0  0  0
 38 47  1  0  0  0
 39 64  1  0  0  0
 39 67  2  0  0  0
 40 52  1  0  0  0
 40 53  2  0  0  0
 40 58  1  0  0  0
 41104  1  0  0  0
 41105  1  0  0  0
 41106  1  0  0  0
 41 48  1  0  0  0
 42 43  1  0  0  0
 42 66  1  0  0  0
 42107  1  0  0  0
 42108  1  0  0  0
 43 44  1  0  0  0
 44109  1  0  0  0
 45 46  2  0  0  0
 45110  1  0  0  0
 46111  1  0  0  0
 47112  1  0  0  0
 47113  1  0  0  0
 48 56  1  0  0  0
 48 65  1  0  0  0
 48114  1  0  0  0
 49 50  1  0  0  0
 49 53  1  0  0  0
 49 64  1  0  0  0
 49115  1  0  0  0
 50 51  1  0  0  0
 50116  1  0  0  0
 50117  1  0  0  0
 51 52  1  0  0  0
 51118  1  0  0  0
 51119  1  0  0  0
 52120  1  0  0  0
 52121  1  0  0  0
 53 54  1  0  0  0
 54 55  2  0  0  0
 54122  1  0  0  0
 55 57  1  0  0  0
 55123  1  0  0  0
 56 69  2  0  0  0
 57 58  2  0  0  0
 57124  1  0  0  0
 58125  1  0  0  0
 59 60  1  0  0  0
 59 61  1  0  0  0
 59 62  1  0  0  0
 60126  1  0  0  0
 60127  1  0  0  0
 60128  1  0  0  0
 61129  1  0  0  0
 61130  1  0  0  0
 61131  1  0  0  0
 62132  1  0  0  0
 62133  1  0  0  0
 62134  1  0  0  0
 63 65  1  0  0  0
 63135  1  0  0  0
 63136  1  0  0  0
 63137  1  0  0  0
 64138  1  0  0  0
 65139  1  0  0  0
 68 76  1  0  0  0
 71 72  2  0  0  0
 71 77  1  0  0  0
 71140  1  0  0  0
 72 78  1  0  0  0
 72 80  1  0  0  0
 73 77  2  0  0  0
 73 79  1  0  0  0
 73 80  1  0  0  0
 74141  1  0  0  0
 74142  1  0  0  0
 74143  1  0  0  0
 74 76  1  0  0  0
 75 76  1  0  0  0
 75 79  1  0  0  0
 75144  1  0  0  0
 75145  1  0  0  0
 76146  1  0  0  0
 78147  1  0  0  0
 79148  1  0  0  0
M  ISO  4   1 100  68 101  76 101  78 100
M  END
> <chiral flag>
0

> <version>
0

> <s_m_source_file>
/data/baiqing/PycharmProjects/Reinvent-master-3.2/result/LINK_invent/BTK/process_docking_weight1_custom_product_contain_oxygen_bond_distance_aromatic_linkinvent_7_9_3/rearranged_h_0150.sdf

> <i_m_source_file_index>
16

> <r_mmod_Potential_Energy-OPLS-2005>
479.37744140625

> <r_mmod_Stretch_Energy-OPLS-2005>
271.230133056641

> <r_mmod_Bend_Energy-OPLS-2005>
282.412719726562

> <r_mmod_Torsional_Energy-OPLS-2005>
229.360870361328

> <r_mmod_Improper_Torsional_Energy-OPLS-2005>
3.59157180786133

> <r_mmod_Van_der_Waal_Energy-OPLS-2005>
113.589935302734

> <r_mmod_Electrostatic_Energy-OPLS-2005>
-413.795837402344

> <r_mmod_Solvation_Energy-OPLS-2005>
-231.369384765625

> <b_mmod_Minimization_Converged-OPLS-2005>
0

> <r_mmod_RMS_Derivative-OPLS-2005>
0.682744264602661

$$$$
16
                    3D
 Structure written by MMmdl.
161170  0  0  1  0            999 V2000
  -30.6448  -14.7579   20.5064 C   0  0  0  0  0  0
  -30.4113  -12.4775   19.4905 C   0  0  0  0  0  0
  -29.4977  -12.5148   18.2501 C   0  0  0  0  0  0
  -28.0306  -12.3305   18.6655 C   0  0  0  0  0  0
  -27.6318  -13.2408   19.8550 C   0  0  2  0  0  0
  -28.6679  -13.2037   20.9976 C   0  0  0  0  0  0
  -25.2443  -13.8220   20.5708 C   0  0  0  0  0  0
  -24.1745  -13.0427   20.9258 C   0  0  0  0  0  0
  -24.6373  -11.6930   20.8795 C   0  0  0  0  0  0
  -23.9062  -10.4289   21.0429 C   0  0  0  0  0  0
  -24.3622   -9.4211   21.9199 C   0  0  0  0  0  0
  -23.6294   -8.2242   22.0755 C   0  0  0  0  0  0
  -22.4287   -8.0282   21.3537 C   0  0  0  0  0  0
  -21.9930   -9.0260   20.4641 C   0  0  0  0  0  0
  -22.7246  -10.2142   20.3063 C   0  0  0  0  0  0
  -21.6850   -6.0751   22.5285 C   0  0  0  0  0  0
  -21.4007   -6.5645   23.8216 C   0  0  0  0  0  0
  -21.3659   -5.6797   24.9174 C   0  0  0  0  0  0
  -21.6045   -4.3058   24.7227 C   0  0  0  0  0  0
  -21.8818   -3.8157   23.4340 C   0  0  0  0  0  0
  -21.9195   -4.6980   22.3402 C   0  0  0  0  0  0
  -22.7773  -13.5218   21.1916 C   0  0  0  0  0  0
  -22.1666   -4.2151   21.0979 F   0  0  0  0  0  0
  -21.5636   -3.4545   25.7741 F   0  0  0  0  0  0
  -29.9685  -13.5527   20.4167 N   0  0  0  0  0  0
  -26.2864  -12.9433   20.3299 N   0  0  0  0  0  0
  -25.9298  -11.6581   20.5799 N   0  0  0  0  0  0
  -22.0424  -12.8165   22.0469 N   0  0  0  0  0  0
  -25.4128  -15.1925   20.4133 N   0  0  0  0  0  0
  -31.8133  -14.7926   20.1038 O   0  0  0  0  0  0
  -21.6644   -6.8889   21.4239 O   0  0  0  0  0  0
  -22.3467  -14.5538   20.6799 O   0  0  0  0  0  0
  -24.6385  -31.8544   23.1998 C   0  0  0  0  0  0
  -25.9183  -32.4740   23.8329 C   0  0  1  0  0  0
  -27.2093  -27.2226   20.1290 C   0  0  0  0  0  0
  -25.5994  -33.8531   24.2268 N   0  0  0  0  0  0
  -23.4376  -30.4789   21.5445 C   0  0  2  0  0  0
  -24.8813  -28.9388   20.1070 C   0  0  0  0  0  0
  -22.7538  -29.4592   22.4902 C   0  0  0  0  0  0
  -18.0326  -28.1366   22.8514 C   0  0  0  0  0  0
  -24.1522  -36.7259   23.2628 C   0  0  0  0  0  0
  -25.9887  -30.7528   21.3868 C   0  0  0  0  0  0
  -26.0589  -29.3780   20.7244 C   0  0  0  0  0  0
  -27.2254  -28.5362   20.7233 C   0  0  0  0  0  0
  -26.0055  -26.8876   19.4606 C   0  0  0  0  0  0
  -24.8647  -27.7049   19.4550 C   0  0  0  0  0  0
  -23.6520  -29.8229   20.1597 C   0  0  0  0  0  0
  -25.4154  -36.3043   24.0286 C   0  0  1  0  0  0
  -20.5929  -28.3698   23.1265 C   0  0  2  0  0  0
  -20.6829  -26.9415   22.5412 C   0  0  0  0  0  0
  -19.5786  -26.6380   21.5226 C   0  0  0  0  0  0
  -18.1949  -26.7928   22.1631 C   0  0  0  0  0  0
  -19.1588  -28.8846   23.2898 C   0  0  0  0  0  0
  -18.9488  -30.1468   23.8863 C   0  0  0  0  0  0
  -17.6477  -30.6573   24.0561 C   0  0  0  0  0  0
  -25.9091  -34.9407   23.5070 C   0  0  0  0  0  0
  -16.5366  -29.9058   23.6334 C   0  0  0  0  0  0
  -16.7313  -28.6478   23.0368 C   0  0  0  0  0  0
  -26.4541  -31.6550   25.0708 C   0  0  0  0  0  0
  -25.3759  -31.3606   26.1401 C   0  0  0  0  0  0
  -27.0403  -30.2979   24.6168 C   0  0  0  0  0  0
  -27.6129  -32.4284   25.7465 C   0  0  0  0  0  0
  -27.5598  -37.1767   24.8475 C   0  0  0  0  0  0
  -21.4237  -29.3035   22.3650 N   0  0  0  0  0  0
  -26.4319  -37.3735   23.9391 N   0  0  0  0  0  0
  -24.7091  -31.0463   22.1005 N   0  0  0  0  0  0
  -23.4209  -28.8105   23.3019 O   0  0  0  0  0  0
  -28.2712  -26.2627   20.2364 O   0  0  0  0  0  0
  -26.5629  -34.8890   22.4615 O   0  0  0  0  0  0
  -23.5524  -32.1429   23.7234 O   0  0  0  0  0  0
  -28.7731  -19.5998   20.3617 C   0  0  0  0  0  0
  -30.4722  -20.7805   21.6404 C   0  0  0  0  0  0
  -29.3806  -18.3311   20.7126 C   0  0  0  0  0  0
  -30.4881  -18.3117   21.5300 C   0  0  0  0  0  0
  -29.3107  -20.8747   20.8102 C   0  0  0  0  0  0
  -31.0622  -19.5221   21.9885 C   0  0  0  0  0  0
  -29.0560  -16.8435   20.3524 C   0  0  0  0  0  0
  -30.9217  -16.8684   21.8123 C   0  0  0  0  0  0
  -27.7021  -24.3866   18.7091 C   0  0  0  0  0  0
  -26.8259  -24.4900   21.1585 C   0  0  0  0  0  0
  -29.1131  -23.6049   20.6439 C   0  0  0  0  0  0
  -28.0132  -24.7436   20.1893 C   0  0  0  0  0  0
  -30.0596  -15.9209   21.0288 N   0  0  0  0  0  0
  -32.2187  -19.4609   22.7699 N   0  0  0  0  0  0
  -28.6938  -22.1422   20.4332 N   0  0  0  0  0  0
  -31.4526  -12.5906   19.1820 H   0  0  0  0  0  0
  -30.3536  -11.5076   19.9841 H   0  0  0  0  0  0
  -29.7838  -11.7315   17.5450 H   0  0  0  0  0  0
  -29.6131  -13.4616   17.7203 H   0  0  0  0  0  0
  -27.9009  -11.2838   18.9483 H   0  0  0  0  0  0
  -27.3653  -12.4984   17.8165 H   0  0  0  0  0  0
  -27.6210  -14.2580   19.4618 H   0  0  0  0  0  0
  -28.7015  -12.2153   21.4591 H   0  0  0  0  0  0
  -28.3925  -13.9016   21.7896 H   0  0  0  0  0  0
  -25.2760   -9.5691   22.4795 H   0  0  0  0  0  0
  -24.0007   -7.4634   22.7481 H   0  0  0  0  0  0
  -21.0872   -8.8785   19.8941 H   0  0  0  0  0  0
  -22.3705  -10.9699   19.6198 H   0  0  0  0  0  0
  -21.1987   -7.6147   23.9714 H   0  0  0  0  0  0
  -21.1490   -6.0526   25.9073 H   0  0  0  0  0  0
  -22.0600   -2.7612   23.2844 H   0  0  0  0  0  0
  -22.4052  -11.9795   22.4772 H   0  0  0  0  0  0
  -21.1063  -13.1206   22.2728 H   0  0  0  0  0  0
  -24.6448  -15.8488   20.5091 H   0  0  0  0  0  0
  -26.2556  -15.6216   20.0555 H   0  0  0  0  0  0
  -26.7226  -32.5332   23.1067 H   0  0  0  0  0  0
  -25.0186  -33.9703   25.0429 H   0  0  0  0  0  0
  -22.7405  -31.3053   21.3999 H   0  0  0  0  0  0
  -23.3816  -35.9573   23.3306 H   0  0  0  0  0  0
  -24.3612  -36.8927   22.2063 H   0  0  0  0  0  0
  -23.7309  -37.6444   23.6688 H   0  0  0  0  0  0
  -26.1279  -31.5113   20.6152 H   0  0  0  0  0  0
  -26.8671  -30.8008   22.0151 H   0  0  0  0  0  0
  -28.1207  -28.8625   21.2331 H   0  0  0  0  0  0
  -25.8674  -25.9492   18.9586 H   0  0  0  0  0  0
  -23.9712  -27.3653   18.9484 H   0  0  0  0  0  0
  -23.7646  -30.6059   19.4062 H   0  0  0  0  0  0
  -22.7723  -29.2486   19.8647 H   0  0  0  0  0  0
  -25.1346  -36.1889   25.0783 H   0  0  0  0  0  0
  -21.0011  -28.3277   24.1385 H   0  0  0  0  0  0
  -20.5821  -26.2253   23.3602 H   0  0  0  0  0  0
  -21.6657  -26.7468   22.1140 H   0  0  0  0  0  0
  -19.6949  -25.6308   21.1242 H   0  0  0  0  0  0
  -19.6734  -27.3193   20.6778 H   0  0  0  0  0  0
  -17.4242  -26.6727   21.4014 H   0  0  0  0  0  0
  -18.0326  -26.0043   22.9019 H   0  0  0  0  0  0
  -19.7951  -30.7335   24.2180 H   0  0  0  0  0  0
  -17.5005  -31.6252   24.5189 H   0  0  0  0  0  0
  -15.5342  -30.2923   23.7703 H   0  0  0  0  0  0
  -15.8722  -28.0792   22.7040 H   0  0  0  0  0  0
  -24.6064  -30.6819   25.7720 H   0  0  0  0  0  0
  -24.8753  -32.2693   26.4756 H   0  0  0  0  0  0
  -25.8096  -30.8880   27.0236 H   0  0  0  0  0  0
  -26.2968  -29.6686   24.1246 H   0  0  0  0  0  0
  -27.4219  -29.7267   25.4649 H   0  0  0  0  0  0
  -27.8809  -30.4327   23.9343 H   0  0  0  0  0  0
  -27.2838  -33.3709   26.1885 H   0  0  0  0  0  0
  -28.3999  -32.6646   25.0273 H   0  0  0  0  0  0
  -28.0707  -31.8460   26.5501 H   0  0  0  0  0  0
  -28.2562  -38.0113   24.7542 H   0  0  0  0  0  0
  -28.1143  -36.2613   24.6302 H   0  0  0  0  0  0
  -27.2250  -37.1427   25.8860 H   0  0  0  0  0  0
  -20.9398  -29.8728   21.6854 H   0  0  0  0  0  0
  -26.0201  -38.2799   24.1442 H   0  0  0  0  0  0
  -27.8790  -19.5938   19.7502 H   0  0  0  0  0  0
  -30.9158  -21.6866   22.0296 H   0  0  0  0  0  0
  -29.0874  -16.7088   19.2677 H   0  0  0  0  0  0
  -28.0497  -16.5957   20.6925 H   0  0  0  0  0  0
  -30.8016  -16.6663   22.8820 H   0  0  0  0  0  0
  -31.9853  -16.7684   21.5777 H   0  0  0  0  0  0
  -26.6847  -24.0181   18.5888 H   0  0  0  0  0  0
  -28.3512  -23.6133   18.3050 H   0  0  0  0  0  0
  -27.8378  -25.2349   18.0379 H   0  0  0  0  0  0
  -26.7997  -25.2451   21.9431 H   0  0  0  0  0  0
  -26.9096  -23.5365   21.6784 H   0  0  0  0  0  0
  -25.8543  -24.4790   20.6672 H   0  0  0  0  0  0
  -29.3723  -23.7360   21.6943 H   0  0  0  0  0  0
  -30.0443  -23.7637   20.1005 H   0  0  0  0  0  0
  -32.7935  -20.2925   22.8501 H   0  0  0  0  0  0
  -32.7842  -18.6207   22.6975 H   0  0  0  0  0  0
  -27.8506  -22.0604   19.8749 H   0  0  0  0  0  0
  1 25  1  0  0  0
  1 30  2  0  0  0
  1 83  1  0  0  0
  2  3  1  0  0  0
  2 25  1  0  0  0
  2 86  1  0  0  0
  2 87  1  0  0  0
  3  4  1  0  0  0
  3 88  1  0  0  0
  3 89  1  0  0  0
  4  5  1  0  0  0
  4 90  1  0  0  0
  4 91  1  0  0  0
  5  6  1  0  0  0
  5 26  1  0  0  0
  5 92  1  0  0  0
  6 25  1  0  0  0
  6 93  1  0  0  0
  6 94  1  0  0  0
  7  8  2  0  0  0
  7 26  1  0  0  0
  7 29  1  0  0  0
  8  9  1  0  0  0
  8 22  1  0  0  0
  9 10  1  0  0  0
  9 27  2  0  0  0
 10 11  2  0  0  0
 10 15  1  0  0  0
 11 12  1  0  0  0
 11 95  1  0  0  0
 12 13  2  0  0  0
 12 96  1  0  0  0
 13 14  1  0  0  0
 13 31  1  0  0  0
 14 15  2  0  0  0
 14 97  1  0  0  0
 15 98  1  0  0  0
 16 17  2  0  0  0
 16 21  1  0  0  0
 16 31  1  0  0  0
 17 18  1  0  0  0
 17 99  1  0  0  0
 18 19  2  0  0  0
 18100  1  0  0  0
 19 20  1  0  0  0
 19 24  1  0  0  0
 20 21  2  0  0  0
 20101  1  0  0  0
 21 23  1  0  0  0
 22 28  1  0  0  0
 22 32  2  0  0  0
 26 27  1  0  0  0
 28102  1  0  0  0
 28103  1  0  0  0
 29104  1  0  0  0
 29105  1  0  0  0
 33 34  1  0  0  0
 33 66  1  0  0  0
 33 70  2  0  0  0
 34 36  1  0  0  0
 34 59  1  0  0  0
 34106  1  0  0  0
 35 44  2  0  0  0
 35 45  1  0  0  0
 35 68  1  0  0  0
 36 56  1  0  0  0
 36107  1  0  0  0
 37 39  1  0  0  0
 37 47  1  0  0  0
 37 66  1  0  0  0
 37108  1  0  0  0
 38 43  2  0  0  0
 38 46  1  0  0  0
 38 47  1  0  0  0
 39 64  1  0  0  0
 39 67  2  0  0  0
 40 52  1  0  0  0
 40 53  2  0  0  0
 40 58  1  0  0  0
 41109  1  0  0  0
 41110  1  0  0  0
 41111  1  0  0  0
 41 48  1  0  0  0
 42 43  1  0  0  0
 42 66  1  0  0  0
 42112  1  0  0  0
 42113  1  0  0  0
 43 44  1  0  0  0
 44114  1  0  0  0
 45 46  2  0  0  0
 45115  1  0  0  0
 46116  1  0  0  0
 47117  1  0  0  0
 47118  1  0  0  0
 48 56  1  0  0  0
 48 65  1  0  0  0
 48119  1  0  0  0
 49 50  1  0  0  0
 49 53  1  0  0  0
 49 64  1  0  0  0
 49120  1  0  0  0
 50 51  1  0  0  0
 50121  1  0  0  0
 50122  1  0  0  0
 51 52  1  0  0  0
 51123  1  0  0  0
 51124  1  0  0  0
 52125  1  0  0  0
 52126  1  0  0  0
 53 54  1  0  0  0
 54 55  2  0  0  0
 54127  1  0  0  0
 55 57  1  0  0  0
 55128  1  0  0  0
 56 69  2  0  0  0
 57 58  2  0  0  0
 57129  1  0  0  0
 58130  1  0  0  0
 59 60  1  0  0  0
 59 61  1  0  0  0
 59 62  1  0  0  0
 60131  1  0  0  0
 60132  1  0  0  0
 60133  1  0  0  0
 61134  1  0  0  0
 61135  1  0  0  0
 61136  1  0  0  0
 62137  1  0  0  0
 62138  1  0  0  0
 62139  1  0  0  0
 63 65  1  0  0  0
 63140  1  0  0  0
 63141  1  0  0  0
 63142  1  0  0  0
 64143  1  0  0  0
 65144  1  0  0  0
 68 82  1  0  0  0
 71 73  2  0  0  0
 71 75  1  0  0  0
 71145  1  0  0  0
 72 75  2  0  0  0
 72 76  1  0  0  0
 72146  1  0  0  0
 73 74  1  0  0  0
 73 77  1  0  0  0
 74 76  2  0  0  0
 74 78  1  0  0  0
 75 85  1  0  0  0
 76 84  1  0  0  0
 77 83  1  0  0  0
 77147  1  0  0  0
 77148  1  0  0  0
 78 83  1  0  0  0
 78149  1  0  0  0
 78150  1  0  0  0
 79151  1  0  0  0
 79152  1  0  0  0
 79153  1  0  0  0
 79 82  1  0  0  0
 80 82  1  0  0  0
 80154  1  0  0  0
 80155  1  0  0  0
 80156  1  0  0  0
 81 82  1  0  0  0
 81 85  1  0  0  0
 81157  1  0  0  0
 81158  1  0  0  0
 84159  1  0  0  0
 84160  1  0  0  0
 85161  1  0  0  0
M  ISO  4   1 100  68 101  82 101  83 100
M  END
> <chiral flag>
0

> <version>
0

> <s_m_source_file>
/data/baiqing/PycharmProjects/Reinvent-master-3.2/result/LINK_invent/BTK/process_docking_weight1_custom_product_contain_oxygen_bond_distance_aromatic_linkinvent_7_9_3/rearranged_h_0150.sdf

> <i_m_source_file_index>
17

> <r_mmod_Potential_Energy-OPLS-2005>
378.198303222656

> <r_mmod_Stretch_Energy-OPLS-2005>
154.149353027344

> <r_mmod_Bend_Energy-OPLS-2005>
253.122146606445

> <r_mmod_Torsional_Energy-OPLS-2005>
280.784057617188

> <r_mmod_Improper_Torsional_Energy-OPLS-2005>
9.18960857391357

> <r_mmod_Van_der_Waal_Energy-OPLS-2005>
156.84504699707

> <r_mmod_Electrostatic_Energy-OPLS-2005>
-363.59033203125

> <r_mmod_Solvation_Energy-OPLS-2005>
-217.260498046875

> <b_mmod_Minimization_Converged-OPLS-2005>
0

> <r_mmod_RMS_Derivative-OPLS-2005>
6.52454137802124

$$$$
17
                    3D
 Structure written by MMmdl.
157165  0  0  1  0            999 V2000
  -30.6874  -14.4786   20.6313 C   0  0  0  0  0  0
  -30.4341  -12.3302   19.4288 C   0  0  0  0  0  0
  -29.5025  -12.5268   18.2154 C   0  0  0  0  0  0
  -28.0232  -12.3743   18.6213 C   0  0  0  0  0  0
  -27.6667  -13.2063   19.8813 C   0  0  2  0  0  0
  -28.7021  -12.9655   21.0022 C   0  0  0  0  0  0
  -25.2609  -13.8167   20.5670 C   0  0  0  0  0  0
  -24.1842  -13.0431   20.9169 C   0  0  0  0  0  0
  -24.6407  -11.6900   20.8712 C   0  0  0  0  0  0
  -23.9067  -10.4290   21.0380 C   0  0  0  0  0  0
  -24.3616   -9.4216   21.9173 C   0  0  0  0  0  0
  -23.6295   -8.2245   22.0743 C   0  0  0  0  0  0
  -22.4279   -8.0279   21.3535 C   0  0  0  0  0  0
  -21.9910   -9.0252   20.4639 C   0  0  0  0  0  0
  -22.7238  -10.2132   20.3050 C   0  0  0  0  0  0
  -21.6853   -6.0742   22.5276 C   0  0  0  0  0  0
  -21.4014   -6.5640   23.8214 C   0  0  0  0  0  0
  -21.3674   -5.6792   24.9177 C   0  0  0  0  0  0
  -21.6032   -4.3049   24.7220 C   0  0  0  0  0  0
  -21.8829   -3.8149   23.4341 C   0  0  0  0  0  0
  -21.9196   -4.6968   22.3399 C   0  0  0  0  0  0
  -22.7874  -13.5213   21.1835 C   0  0  0  0  0  0
  -22.1663   -4.2148   21.0977 F   0  0  0  0  0  0
  -21.5630   -3.4542   25.7737 F   0  0  0  0  0  0
  -30.0404  -13.2877   20.4736 N   0  0  0  0  0  0
  -26.3047  -12.9332   20.3370 N   0  0  0  0  0  0
  -25.9339  -11.6490   20.5752 N   0  0  0  0  0  0
  -22.0515  -12.8212   22.0404 N   0  0  0  0  0  0
  -25.4315  -15.1887   20.4121 N   0  0  0  0  0  0
  -31.7442  -14.7484   20.0515 O   0  0  0  0  0  0
  -21.6638   -6.8880   21.4239 O   0  0  0  0  0  0
  -22.3554  -14.5525   20.6697 O   0  0  0  0  0  0
  -24.6105  -31.8702   23.2106 C   0  0  0  0  0  0
  -25.9022  -32.4818   23.8367 C   0  0  1  0  0  0
  -27.2212  -27.4124   20.1059 C   0  0  0  0  0  0
  -25.5920  -33.8615   24.2317 N   0  0  0  0  0  0
  -23.3984  -30.4961   21.5535 C   0  0  2  0  0  0
  -24.8429  -28.9575   20.1155 C   0  0  0  0  0  0
  -22.7377  -29.4695   22.4982 C   0  0  0  0  0  0
  -18.0356  -28.1285   22.8605 C   0  0  0  0  0  0
  -24.1504  -36.7311   23.2642 C   0  0  0  0  0  0
  -25.9267  -30.8228   21.3719 C   0  0  0  0  0  0
  -26.0009  -29.4565   20.7210 C   0  0  0  0  0  0
  -27.1886  -28.6887   20.7201 C   0  0  0  0  0  0
  -26.0448  -26.9429   19.4763 C   0  0  0  0  0  0
  -24.8608  -27.7001   19.4915 C   0  0  0  0  0  0
  -23.6090  -29.8317   20.1665 C   0  0  0  0  0  0
  -25.4114  -36.3097   24.0337 C   0  0  1  0  0  0
  -20.5927  -28.3642   23.1372 C   0  0  2  0  0  0
  -20.6888  -26.9421   22.5385 C   0  0  0  0  0  0
  -19.5774  -26.6346   21.5283 C   0  0  0  0  0  0
  -18.2035  -26.7779   22.1874 C   0  0  0  0  0  0
  -19.1592  -28.8778   23.2958 C   0  0  0  0  0  0
  -18.9520  -30.1430   23.8881 C   0  0  0  0  0  0
  -17.6537  -30.6576   24.0489 C   0  0  0  0  0  0
  -25.9038  -34.9471   23.5112 C   0  0  0  0  0  0
  -16.5426  -29.9041   23.6298 C   0  0  0  0  0  0
  -16.7340  -28.6402   23.0431 C   0  0  0  0  0  0
  -26.4474  -31.6585   25.0683 C   0  0  0  0  0  0
  -25.3759  -31.3676   26.1446 C   0  0  0  0  0  0
  -27.0310  -30.3025   24.6081 C   0  0  0  0  0  0
  -27.6052  -32.4289   25.7457 C   0  0  0  0  0  0
  -27.5580  -37.1815   24.8464 C   0  0  0  0  0  0
  -21.4093  -29.3137   22.3854 N   0  0  0  0  0  0
  -26.4301  -37.3777   23.9399 N   0  0  0  0  0  0
  -24.6634  -31.0772   22.1044 N   0  0  0  0  0  0
  -23.4198  -28.8132   23.2895 O   0  0  0  0  0  0
  -28.3947  -26.6796   20.1576 O   0  0  0  0  0  0
  -26.5580  -34.8924   22.4658 O   0  0  0  0  0  0
  -23.5310  -32.1523   23.7492 O   0  0  0  0  0  0
  -30.3793  -17.5704   22.4717 C   0  0  0  0  0  0
  -30.1046  -18.9485   22.1825 C   0  0  0  0  0  0
  -30.0828  -16.7034   21.4450 C   0  0  0  0  0  0
  -29.5718  -19.1526   20.9323 C   0  0  0  0  0  0
  -28.4302  -22.7814   20.2040 C   0  0  0  0  0  0
  -29.0296  -24.4937   22.0543 C   0  0  0  0  0  0
  -29.0544  -21.6306   21.0500 C   0  0  0  0  0  0
  -28.4547  -25.3030   19.7093 C   0  0  0  0  0  0
  -28.1655  -24.2039   20.8007 C   0  0  1  0  0  0
  -30.1054  -15.3379   21.4953 N   0  0  0  0  0  0
  -29.1234  -20.3424   20.3283 N   0  0  0  0  0  0
  -26.7268  -24.1779   21.1624 N   0  3  0  0  0  0
  -28.0358  -22.5275   19.0610 O   0  0  0  0  0  0
  -29.4742  -17.6205   20.0725 S   0  0  0  0  0  0
  -31.4753  -12.4526   19.1295 H   0  0  0  0  0  0
  -30.3556  -11.3112   19.8113 H   0  0  0  0  0  0
  -29.7501  -11.8081   17.4340 H   0  0  0  0  0  0
  -29.6659  -13.5161   17.7846 H   0  0  0  0  0  0
  -27.8341  -11.3180   18.8106 H   0  0  0  0  0  0
  -27.3747  -12.6532   17.7900 H   0  0  0  0  0  0
  -27.7175  -14.2578   19.5961 H   0  0  0  0  0  0
  -28.6784  -11.9225   21.3192 H   0  0  0  0  0  0
  -28.4397  -13.5350   21.8936 H   0  0  0  0  0  0
  -25.2767   -9.5687   22.4750 H   0  0  0  0  0  0
  -24.0011   -7.4633   22.7458 H   0  0  0  0  0  0
  -21.0849   -8.8775   19.8942 H   0  0  0  0  0  0
  -22.3698  -10.9673   19.6157 H   0  0  0  0  0  0
  -21.2002   -7.6148   23.9718 H   0  0  0  0  0  0
  -21.1486   -6.0518   25.9076 H   0  0  0  0  0  0
  -22.0596   -2.7611   23.2842 H   0  0  0  0  0  0
  -22.4151  -11.9874   22.4801 H   0  0  0  0  0  0
  -21.1122  -13.1224   22.2600 H   0  0  0  0  0  0
  -24.6663  -15.8444   20.5312 H   0  0  0  0  0  0
  -26.2925  -15.6326   20.1180 H   0  0  0  0  0  0
  -26.7034  -32.5531   23.1079 H   0  0  0  0  0  0
  -25.0097  -33.9777   25.0483 H   0  0  0  0  0  0
  -22.6925  -31.3159   21.4165 H   0  0  0  0  0  0
  -23.3761  -35.9653   23.3305 H   0  0  0  0  0  0
  -24.3618  -36.8931   22.2063 H   0  0  0  0  0  0
  -23.7277  -37.6522   23.6655 H   0  0  0  0  0  0
  -26.0360  -31.5879   20.6040 H   0  0  0  0  0  0
  -26.8154  -30.8789   21.9870 H   0  0  0  0  0  0
  -28.0720  -29.0749   21.2111 H   0  0  0  0  0  0
  -26.0005  -25.9982   18.9584 H   0  0  0  0  0  0
  -23.9756  -27.3095   19.0077 H   0  0  0  0  0  0
  -23.7247  -30.6188   19.4198 H   0  0  0  0  0  0
  -22.7305  -29.2596   19.8600 H   0  0  0  0  0  0
  -25.1299  -36.1948   25.0830 H   0  0  0  0  0  0
  -21.0084  -28.3157   24.1470 H   0  0  0  0  0  0
  -20.6029  -26.2191   23.3521 H   0  0  0  0  0  0
  -21.6707  -26.7610   22.1020 H   0  0  0  0  0  0
  -19.6997  -25.6292   21.1286 H   0  0  0  0  0  0
  -19.6520  -27.3143   20.6791 H   0  0  0  0  0  0
  -17.4187  -26.6305   21.4452 H   0  0  0  0  0  0
  -18.0739  -26.0041   22.9449 H   0  0  0  0  0  0
  -19.7991  -30.7305   24.2193 H   0  0  0  0  0  0
  -17.5139  -31.6324   24.4953 H   0  0  0  0  0  0
  -15.5435  -30.2971   23.7595 H   0  0  0  0  0  0
  -15.8788  -28.0626   22.7187 H   0  0  0  0  0  0
  -24.5952  -30.7001   25.7783 H   0  0  0  0  0  0
  -24.8944  -32.2826   26.4907 H   0  0  0  0  0  0
  -25.8161  -30.8848   27.0185 H   0  0  0  0  0  0
  -26.2851  -29.6767   24.1180 H   0  0  0  0  0  0
  -27.4110  -29.7286   25.4542 H   0  0  0  0  0  0
  -27.8655  -30.4335   23.9194 H   0  0  0  0  0  0
  -27.2681  -33.3584   26.2060 H   0  0  0  0  0  0
  -28.3866  -32.6860   25.0287 H   0  0  0  0  0  0
  -28.0707  -31.8391   26.5380 H   0  0  0  0  0  0
  -28.2588  -38.0119   24.7482 H   0  0  0  0  0  0
  -28.1086  -36.2648   24.6303 H   0  0  0  0  0  0
  -27.2300  -37.1453   25.8871 H   0  0  0  0  0  0
  -20.9111  -29.9134   21.7435 H   0  0  0  0  0  0
  -26.0188  -38.2855   24.1388 H   0  0  0  0  0  0
  -30.7748  -17.2689   23.4312 H   0  0  0  0  0  0
  -30.2924  -19.7200   22.9164 H   0  0  0  0  0  0
  -30.0932  -24.4503   21.8193 H   0  0  0  0  0  0
  -28.8384  -23.7893   22.8632 H   0  0  0  0  0  0
  -28.8394  -25.4909   22.4604 H   0  0  0  0  0  0
  -28.4736  -21.5045   21.9647 H   0  0  0  0  0  0
  -30.0634  -21.9284   21.3420 H   0  0  0  0  0  0
  -27.8995  -25.1422   18.7865 H   0  0  0  0  0  0
  -29.4931  -25.1892   19.3980 H   0  0  0  0  0  0
  -29.3853  -14.9140   22.0614 H   0  0  0  0  0  0
  -28.6592  -20.3573   19.4179 H   0  0  0  0  0  0
  -26.5437  -23.5292   21.9096 H   0  0  0  0  0  0
  -26.1840  -23.8646   20.3720 H   0  0  0  0  0  0
  -26.3957  -25.0825   21.4520 H   0  0  0  0  0  0
  1 25  1  0  0  0
  1 30  2  0  0  0
  1 80  1  0  0  0
  2  3  1  0  0  0
  2 25  1  0  0  0
  2 85  1  0  0  0
  2 86  1  0  0  0
  3  4  1  0  0  0
  3 87  1  0  0  0
  3 88  1  0  0  0
  4  5  1  0  0  0
  4 89  1  0  0  0
  4 90  1  0  0  0
  5  6  1  0  0  0
  5 26  1  0  0  0
  5 91  1  0  0  0
  6 25  1  0  0  0
  6 92  1  0  0  0
  6 93  1  0  0  0
  7  8  2  0  0  0
  7 26  1  0  0  0
  7 29  1  0  0  0
  8  9  1  0  0  0
  8 22  1  0  0  0
  9 10  1  0  0  0
  9 27  2  0  0  0
 10 11  2  0  0  0
 10 15  1  0  0  0
 11 12  1  0  0  0
 11 94  1  0  0  0
 12 13  2  0  0  0
 12 95  1  0  0  0
 13 14  1  0  0  0
 13 31  1  0  0  0
 14 15  2  0  0  0
 14 96  1  0  0  0
 15 97  1  0  0  0
 16 17  2  0  0  0
 16 21  1  0  0  0
 16 31  1  0  0  0
 17 18  1  0  0  0
 17 98  1  0  0  0
 18 19  2  0  0  0
 18 99  1  0  0  0
 19 20  1  0  0  0
 19 24  1  0  0  0
 20 21  2  0  0  0
 20100  1  0  0  0
 21 23  1  0  0  0
 22 28  1  0  0  0
 22 32  2  0  0  0
 26 27  1  0  0  0
 28101  1  0  0  0
 28102  1  0  0  0
 29103  1  0  0  0
 29104  1  0  0  0
 33 34  1  0  0  0
 33 66  1  0  0  0
 33 70  2  0  0  0
 34 36  1  0  0  0
 34 59  1  0  0  0
 34105  1  0  0  0
 35 44  2  0  0  0
 35 45  1  0  0  0
 35 68  1  0  0  0
 36 56  1  0  0  0
 36106  1  0  0  0
 37 39  1  0  0  0
 37 47  1  0  0  0
 37 66  1  0  0  0
 37107  1  0  0  0
 38 43  2  0  0  0
 38 46  1  0  0  0
 38 47  1  0  0  0
 39 64  1  0  0  0
 39 67  2  0  0  0
 40 52  1  0  0  0
 40 53  2  0  0  0
 40 58  1  0  0  0
 41108  1  0  0  0
 41109  1  0  0  0
 41110  1  0  0  0
 41 48  1  0  0  0
 42 43  1  0  0  0
 42 66  1  0  0  0
 42111  1  0  0  0
 42112  1  0  0  0
 43 44  1  0  0  0
 44113  1  0  0  0
 45 46  2  0  0  0
 45114  1  0  0  0
 46115  1  0  0  0
 47116  1  0  0  0
 47117  1  0  0  0
 48 56  1  0  0  0
 48 65  1  0  0  0
 48118  1  0  0  0
 49 50  1  0  0  0
 49 53  1  0  0  0
 49 64  1  0  0  0
 49119  1  0  0  0
 50 51  1  0  0  0
 50120  1  0  0  0
 50121  1  0  0  0
 51 52  1  0  0  0
 51122  1  0  0  0
 51123  1  0  0  0
 52124  1  0  0  0
 52125  1  0  0  0
 53 54  1  0  0  0
 54 55  2  0  0  0
 54126  1  0  0  0
 55 57  1  0  0  0
 55127  1  0  0  0
 56 69  2  0  0  0
 57 58  2  0  0  0
 57128  1  0  0  0
 58129  1  0  0  0
 59 60  1  0  0  0
 59 61  1  0  0  0
 59 62  1  0  0  0
 60130  1  0  0  0
 60131  1  0  0  0
 60132  1  0  0  0
 61133  1  0  0  0
 61134  1  0  0  0
 61135  1  0  0  0
 62136  1  0  0  0
 62137  1  0  0  0
 62138  1  0  0  0
 63 65  1  0  0  0
 63139  1  0  0  0
 63140  1  0  0  0
 63141  1  0  0  0
 64142  1  0  0  0
 65143  1  0  0  0
 68 78  1  0  0  0
 71 72  1  0  0  0
 71 73  2  0  0  0
 71144  1  0  0  0
 72 74  2  0  0  0
 72145  1  0  0  0
 73 80  1  0  0  0
 73 84  1  0  0  0
 74 81  1  0  0  0
 74 84  1  0  0  0
 75 77  1  0  0  0
 75 83  2  0  0  0
 75 79  1  0  0  0
 76146  1  0  0  0
 76147  1  0  0  0
 76148  1  0  0  0
 76 79  1  0  0  0
 77 81  1  0  0  0
 77149  1  0  0  0
 77150  1  0  0  0
 78 79  1  0  0  0
 78151  1  0  0  0
 78152  1  0  0  0
 79 82  1  0  0  0
 80153  1  0  0  0
 81154  1  0  0  0
 82155  1  0  0  0
 82156  1  0  0  0
 82157  1  0  0  0
M  CHG  1  82   1
M  ISO  4   1 100  68 101  78 101  80 100
M  END
> <chiral flag>
0

> <version>
0

> <s_m_source_file>
/data/baiqing/PycharmProjects/Reinvent-master-3.2/result/LINK_invent/BTK/process_docking_weight1_custom_product_contain_oxygen_bond_distance_aromatic_linkinvent_7_9_3/rearranged_h_0150.sdf

> <i_m_source_file_index>
18

> <r_mmod_Potential_Energy-OPLS-2005>
-257.90185546875

> <r_mmod_Stretch_Energy-OPLS-2005>
43.9856414794922

> <r_mmod_Bend_Energy-OPLS-2005>
122.800933837891

> <r_mmod_Torsional_Energy-OPLS-2005>
245.716903686523

> <r_mmod_Improper_Torsional_Energy-OPLS-2005>
4.7399468421936

> <r_mmod_Van_der_Waal_Energy-OPLS-2005>
129.338470458984

> <r_mmod_Electrostatic_Energy-OPLS-2005>
-330.579650878906

> <r_mmod_Solvation_Energy-OPLS-2005>
-489.277618408203

> <b_mmod_Minimization_Converged-OPLS-2005>
0

> <r_mmod_RMS_Derivative-OPLS-2005>
4.18807411193848

$$$$
18
                    3D
 Structure written by MMmdl.
154162  0  0  1  0            999 V2000
  -30.5552  -14.7773   20.4921 C   0  0  0  0  0  0
  -30.4564  -12.4810   19.4703 C   0  0  0  0  0  0
  -29.5203  -12.5309   18.2387 C   0  0  0  0  0  0
  -28.0459  -12.3416   18.6496 C   0  0  0  0  0  0
  -27.6513  -13.2237   19.8626 C   0  0  2  0  0  0
  -28.6979  -13.1140   20.9950 C   0  0  0  0  0  0
  -25.2521  -13.8137   20.5650 C   0  0  0  0  0  0
  -24.1817  -13.0405   20.9208 C   0  0  0  0  0  0
  -24.6409  -11.6887   20.8754 C   0  0  0  0  0  0
  -23.9077  -10.4274   21.0412 C   0  0  0  0  0  0
  -24.3624   -9.4190   21.9190 C   0  0  0  0  0  0
  -23.6291   -8.2231   22.0757 C   0  0  0  0  0  0
  -22.4274   -8.0277   21.3545 C   0  0  0  0  0  0
  -21.9913   -9.0253   20.4648 C   0  0  0  0  0  0
  -22.7249  -10.2127   20.3059 C   0  0  0  0  0  0
  -21.6850   -6.0733   22.5278 C   0  0  0  0  0  0
  -21.4013   -6.5638   23.8212 C   0  0  0  0  0  0
  -21.3658   -5.6791   24.9175 C   0  0  0  0  0  0
  -21.6044   -4.3054   24.7225 C   0  0  0  0  0  0
  -21.8820   -3.8145   23.4346 C   0  0  0  0  0  0
  -21.9192   -4.6961   22.3402 C   0  0  0  0  0  0
  -22.7839  -13.5204   21.1862 C   0  0  0  0  0  0
  -22.1661   -4.2147   21.0979 F   0  0  0  0  0  0
  -21.5627   -3.4539   25.7738 F   0  0  0  0  0  0
  -30.0022  -13.5113   20.4344 N   0  0  0  0  0  0
  -26.2979  -12.9350   20.3307 N   0  0  0  0  0  0
  -25.9346  -11.6502   20.5771 N   0  0  0  0  0  0
  -22.0479  -12.8206   22.0422 N   0  0  0  0  0  0
  -25.4142  -15.1840   20.3950 N   0  0  0  0  0  0
  -31.7043  -14.9729   20.0814 O   0  0  0  0  0  0
  -21.6634   -6.8878   21.4242 O   0  0  0  0  0  0
  -22.3532  -14.5513   20.6707 O   0  0  0  0  0  0
  -24.6351  -31.8532   23.1973 C   0  0  0  0  0  0
  -25.9163  -32.4744   23.8325 C   0  0  1  0  0  0
  -27.2243  -27.2310   20.1202 C   0  0  0  0  0  0
  -25.5946  -33.8547   24.2243 N   0  0  0  0  0  0
  -23.4332  -30.4767   21.5421 C   0  0  2  0  0  0
  -24.8807  -28.9235   20.1100 C   0  0  0  0  0  0
  -22.7522  -29.4594   22.4903 C   0  0  0  0  0  0
  -18.0296  -28.1390   22.8483 C   0  0  0  0  0  0
  -24.1492  -36.7279   23.2640 C   0  0  0  0  0  0
  -25.9837  -30.7547   21.3844 C   0  0  0  0  0  0
  -26.0553  -29.3758   20.7234 C   0  0  0  0  0  0
  -27.2255  -28.5420   20.7205 C   0  0  0  0  0  0
  -26.0189  -26.8636   19.4732 C   0  0  0  0  0  0
  -24.8697  -27.6756   19.4751 C   0  0  0  0  0  0
  -23.6532  -29.8136   20.1581 C   0  0  0  0  0  0
  -25.4120  -36.3063   24.0322 C   0  0  1  0  0  0
  -20.5903  -28.3707   23.1260 C   0  0  2  0  0  0
  -20.6784  -26.9420   22.5406 C   0  0  0  0  0  0
  -19.5757  -26.6383   21.5214 C   0  0  0  0  0  0
  -18.1939  -26.7931   22.1627 C   0  0  0  0  0  0
  -19.1551  -28.8866   23.2864 C   0  0  0  0  0  0
  -18.9469  -30.1465   23.8885 C   0  0  0  0  0  0
  -17.6467  -30.6589   24.0562 C   0  0  0  0  0  0
  -25.9063  -34.9433   23.5085 C   0  0  0  0  0  0
  -16.5359  -29.9085   23.6334 C   0  0  0  0  0  0
  -16.7282  -28.6503   23.0354 C   0  0  0  0  0  0
  -26.4510  -31.6581   25.0732 C   0  0  0  0  0  0
  -25.3714  -31.3749   26.1440 C   0  0  0  0  0  0
  -27.0365  -30.2990   24.6256 C   0  0  0  0  0  0
  -27.6053  -32.4332   25.7511 C   0  0  0  0  0  0
  -27.5578  -37.1798   24.8464 C   0  0  0  0  0  0
  -21.4225  -29.3048   22.3645 N   0  0  0  0  0  0
  -26.4292  -37.3764   23.9404 N   0  0  0  0  0  0
  -24.7033  -31.0466   22.0970 N   0  0  0  0  0  0
  -23.4206  -28.8130   23.3011 O   0  0  0  0  0  0
  -28.3145  -26.3109   20.1967 O   0  0  0  0  0  0
  -26.5637  -34.8912   22.4656 O   0  0  0  0  0  0
  -23.5492  -32.1370   23.7246 O   0  0  0  0  0  0
  -30.0670  -18.4058   20.5582 C   0  0  0  0  0  0
  -29.1618  -19.6014   20.6253 C   0  0  0  0  0  0
  -29.4380  -17.1542   20.7790 C   0  0  0  0  0  0
  -29.5763  -21.1026   20.5928 C   0  0  0  0  0  0
  -29.1141  -23.7029   20.3244 C   0  0  0  0  0  0
  -28.4726  -24.9798   18.1811 C   0  0  0  0  0  0
  -27.5109  -21.8734   19.4949 C   0  0  0  0  0  0
  -28.1808  -24.8774   19.6951 C   0  0  2  0  0  0
  -27.9172  -19.2516   20.8724 N   0  0  0  0  0  0
  -29.7136  -15.7785   20.9556 N   0  0  0  0  0  0
  -28.7904  -22.2099   20.1572 N   0  0  0  0  0  0
  -30.8001  -21.3295   21.1029 N   0  3  0  0  0  0
  -30.1435  -24.0274   20.9337 O   0  0  0  0  0  0
  -27.7716  -17.5831   21.0266 S   0  0  0  0  0  0
  -31.4909  -12.6428   19.1629 H   0  0  0  0  0  0
  -30.4338  -11.4926   19.9322 H   0  0  0  0  0  0
  -29.8073  -11.7674   17.5144 H   0  0  0  0  0  0
  -29.6360  -13.4902   17.7316 H   0  0  0  0  0  0
  -27.9051  -11.2892   18.8992 H   0  0  0  0  0  0
  -27.3879  -12.5439   17.8036 H   0  0  0  0  0  0
  -27.6553  -14.2534   19.5046 H   0  0  0  0  0  0
  -28.7438  -12.0924   21.3756 H   0  0  0  0  0  0
  -28.4153  -13.7313   21.8489 H   0  0  0  0  0  0
  -25.2771   -9.5659   22.4765 H   0  0  0  0  0  0
  -23.9994   -7.4620   22.7477 H   0  0  0  0  0  0
  -21.0841   -8.8780   19.8955 H   0  0  0  0  0  0
  -22.3715  -10.9670   19.6167 H   0  0  0  0  0  0
  -21.2007   -7.6146   23.9716 H   0  0  0  0  0  0
  -21.1478   -6.0521   25.9078 H   0  0  0  0  0  0
  -22.0601   -2.7607   23.2848 H   0  0  0  0  0  0
  -22.4091  -11.9867   22.4812 H   0  0  0  0  0  0
  -21.1099  -13.1239   22.2629 H   0  0  0  0  0  0
  -24.6283  -15.8209   20.4702 H   0  0  0  0  0  0
  -26.2277  -15.6080   19.9704 H   0  0  0  0  0  0
  -26.7229  -32.5380   23.1063 H   0  0  0  0  0  0
  -25.0082  -33.9678   25.0381 H   0  0  0  0  0  0
  -22.7315  -31.3005   21.3960 H   0  0  0  0  0  0
  -23.3753  -35.9612   23.3303 H   0  0  0  0  0  0
  -24.3578  -36.8904   22.2054 H   0  0  0  0  0  0
  -23.7248  -37.6480   23.6667 H   0  0  0  0  0  0
  -26.1295  -31.5156   20.6164 H   0  0  0  0  0  0
  -26.8582  -30.8010   22.0215 H   0  0  0  0  0  0
  -28.1205  -28.8834   21.2215 H   0  0  0  0  0  0
  -25.9104  -25.9203   18.9637 H   0  0  0  0  0  0
  -23.9716  -27.3240   18.9857 H   0  0  0  0  0  0
  -23.7807  -30.5915   19.4045 H   0  0  0  0  0  0
  -22.7703  -29.2506   19.8504 H   0  0  0  0  0  0
  -25.1304  -36.1906   25.0815 H   0  0  0  0  0  0
  -20.9994  -28.3288   24.1382 H   0  0  0  0  0  0
  -20.5687  -26.2317   23.3614 H   0  0  0  0  0  0
  -21.6651  -26.7441   22.1198 H   0  0  0  0  0  0
  -19.6918  -25.6291   21.1250 H   0  0  0  0  0  0
  -19.6693  -27.3187   20.6740 H   0  0  0  0  0  0
  -17.4206  -26.6675   21.4032 H   0  0  0  0  0  0
  -18.0340  -26.0076   22.9027 H   0  0  0  0  0  0
  -19.7945  -30.7286   24.2247 H   0  0  0  0  0  0
  -17.5021  -31.6268   24.5167 H   0  0  0  0  0  0
  -15.5358  -30.2982   23.7666 H   0  0  0  0  0  0
  -15.8682  -28.0819   22.7075 H   0  0  0  0  0  0
  -24.5897  -30.7090   25.7765 H   0  0  0  0  0  0
  -24.8897  -32.2926   26.4827 H   0  0  0  0  0  0
  -25.8015  -30.8951   27.0240 H   0  0  0  0  0  0
  -26.2967  -29.6730   24.1255 H   0  0  0  0  0  0
  -27.3997  -29.7265   25.4802 H   0  0  0  0  0  0
  -27.8865  -30.4248   23.9546 H   0  0  0  0  0  0
  -27.2652  -33.3641   26.2059 H   0  0  0  0  0  0
  -28.3879  -32.6878   25.0352 H   0  0  0  0  0  0
  -28.0702  -31.8477   26.5453 H   0  0  0  0  0  0
  -28.2595  -38.0095   24.7505 H   0  0  0  0  0  0
  -28.1074  -36.2624   24.6302 H   0  0  0  0  0  0
  -27.2292  -37.1458   25.8867 H   0  0  0  0  0  0
  -20.9416  -29.8773   21.6847 H   0  0  0  0  0  0
  -26.0169  -38.2838   24.1399 H   0  0  0  0  0  0
  -31.1287  -18.5221   20.3979 H   0  0  0  0  0  0
  -28.4731  -24.0110   17.6825 H   0  0  0  0  0  0
  -29.4534  -25.4252   18.0113 H   0  0  0  0  0  0
  -27.7456  -25.6037   17.6638 H   0  0  0  0  0  0
  -27.6399  -21.0031   18.8534 H   0  0  0  0  0  0
  -27.1087  -22.6435   18.8440 H   0  0  0  0  0  0
  -26.7504  -21.6435   20.2408 H   0  0  0  0  0  0
  -27.1649  -24.5441   19.8918 H   0  0  0  0  0  0
  -28.9072  -15.3151   21.3464 H   0  0  0  0  0  0
  -31.3458  -20.5728   21.4846 H   0  0  0  0  0  0
  -31.1364  -22.2794   21.2099 H   0  0  0  0  0  0
  1 25  1  0  0  0
  1 30  2  0  0  0
  1 80  1  0  0  0
  2  3  1  0  0  0
  2 25  1  0  0  0
  2 85  1  0  0  0
  2 86  1  0  0  0
  3  4  1  0  0  0
  3 87  1  0  0  0
  3 88  1  0  0  0
  4  5  1  0  0  0
  4 89  1  0  0  0
  4 90  1  0  0  0
  5  6  1  0  0  0
  5 26  1  0  0  0
  5 91  1  0  0  0
  6 25  1  0  0  0
  6 92  1  0  0  0
  6 93  1  0  0  0
  7  8  2  0  0  0
  7 26  1  0  0  0
  7 29  1  0  0  0
  8  9  1  0  0  0
  8 22  1  0  0  0
  9 10  1  0  0  0
  9 27  2  0  0  0
 10 11  2  0  0  0
 10 15  1  0  0  0
 11 12  1  0  0  0
 11 94  1  0  0  0
 12 13  2  0  0  0
 12 95  1  0  0  0
 13 14  1  0  0  0
 13 31  1  0  0  0
 14 15  2  0  0  0
 14 96  1  0  0  0
 15 97  1  0  0  0
 16 17  2  0  0  0
 16 21  1  0  0  0
 16 31  1  0  0  0
 17 18  1  0  0  0
 17 98  1  0  0  0
 18 19  2  0  0  0
 18 99  1  0  0  0
 19 20  1  0  0  0
 19 24  1  0  0  0
 20 21  2  0  0  0
 20100  1  0  0  0
 21 23  1  0  0  0
 22 28  1  0  0  0
 22 32  2  0  0  0
 26 27  1  0  0  0
 28101  1  0  0  0
 28102  1  0  0  0
 29103  1  0  0  0
 29104  1  0  0  0
 33 34  1  0  0  0
 33 66  1  0  0  0
 33 70  2  0  0  0
 34 36  1  0  0  0
 34 59  1  0  0  0
 34105  1  0  0  0
 35 44  2  0  0  0
 35 45  1  0  0  0
 35 68  1  0  0  0
 36 56  1  0  0  0
 36106  1  0  0  0
 37 39  1  0  0  0
 37 47  1  0  0  0
 37 66  1  0  0  0
 37107  1  0  0  0
 38 43  2  0  0  0
 38 46  1  0  0  0
 38 47  1  0  0  0
 39 64  1  0  0  0
 39 67  2  0  0  0
 40 52  1  0  0  0
 40 53  2  0  0  0
 40 58  1  0  0  0
 41108  1  0  0  0
 41109  1  0  0  0
 41110  1  0  0  0
 41 48  1  0  0  0
 42 43  1  0  0  0
 42 66  1  0  0  0
 42111  1  0  0  0
 42112  1  0  0  0
 43 44  1  0  0  0
 44113  1  0  0  0
 45 46  2  0  0  0
 45114  1  0  0  0
 46115  1  0  0  0
 47116  1  0  0  0
 47117  1  0  0  0
 48 56  1  0  0  0
 48 65  1  0  0  0
 48118  1  0  0  0
 49 50  1  0  0  0
 49 53  1  0  0  0
 49 64  1  0  0  0
 49119  1  0  0  0
 50 51  1  0  0  0
 50120  1  0  0  0
 50121  1  0  0  0
 51 52  1  0  0  0
 51122  1  0  0  0
 51123  1  0  0  0
 52124  1  0  0  0
 52125  1  0  0  0
 53 54  1  0  0  0
 54 55  2  0  0  0
 54126  1  0  0  0
 55 57  1  0  0  0
 55127  1  0  0  0
 56 69  2  0  0  0
 57 58  2  0  0  0
 57128  1  0  0  0
 58129  1  0  0  0
 59 60  1  0  0  0
 59 61  1  0  0  0
 59 62  1  0  0  0
 60130  1  0  0  0
 60131  1  0  0  0
 60132  1  0  0  0
 61133  1  0  0  0
 61134  1  0  0  0
 61135  1  0  0  0
 62136  1  0  0  0
 62137  1  0  0  0
 62138  1  0  0  0
 63 65  1  0  0  0
 63139  1  0  0  0
 63140  1  0  0  0
 63141  1  0  0  0
 64142  1  0  0  0
 65143  1  0  0  0
 68 78  1  0  0  0
 71 72  1  0  0  0
 71 73  2  0  0  0
 71144  1  0  0  0
 72 74  1  0  0  0
 72 79  2  0  0  0
 73 80  1  0  0  0
 73 84  1  0  0  0
 74 81  1  0  0  0
 74 82  2  0  0  0
 75 78  1  0  0  0
 75 81  1  0  0  0
 75 83  2  0  0  0
 76145  1  0  0  0
 76146  1  0  0  0
 76147  1  0  0  0
 76 78  1  0  0  0
 77 81  1  0  0  0
 77148  1  0  0  0
 77149  1  0  0  0
 77150  1  0  0  0
 78151  1  0  0  0
 79 84  1  0  0  0
 80152  1  0  0  0
 82153  1  0  0  0
 82154  1  0  0  0
M  CHG  1  82   1
M  ISO  4   1 100  68 101  78 101  80 100
M  END
> <chiral flag>
0

> <version>
0

> <s_m_source_file>
/data/baiqing/PycharmProjects/Reinvent-master-3.2/result/LINK_invent/BTK/process_docking_weight1_custom_product_contain_oxygen_bond_distance_aromatic_linkinvent_7_9_3/rearranged_h_0150.sdf

> <i_m_source_file_index>
19

> <r_mmod_Potential_Energy-OPLS-2005>
79.1096038818359

> <r_mmod_Stretch_Energy-OPLS-2005>
162.186798095703

> <r_mmod_Bend_Energy-OPLS-2005>
232.203460693359

> <r_mmod_Torsional_Energy-OPLS-2005>
232.477966308594

> <r_mmod_Improper_Torsional_Energy-OPLS-2005>
5.3950047492981

> <r_mmod_Van_der_Waal_Energy-OPLS-2005>
136.05973815918

> <r_mmod_Electrostatic_Energy-OPLS-2005>
-325.875091552734

> <r_mmod_Solvation_Energy-OPLS-2005>
-465.944122314453

> <b_mmod_Minimization_Converged-OPLS-2005>
0

> <r_mmod_RMS_Derivative-OPLS-2005>
0.273521274328232

$$$$
19
                    3D
 Structure written by MMmdl.
165174  0  0  1  0            999 V2000
  -30.5801  -14.7672   20.4591 C   0  0  0  0  0  0
  -30.4386  -12.4683   19.4743 C   0  0  0  0  0  0
  -29.5128  -12.5065   18.2371 C   0  0  0  0  0  0
  -28.0415  -12.3161   18.6546 C   0  0  0  0  0  0
  -27.6379  -13.2245   19.8463 C   0  0  2  0  0  0
  -28.6821  -13.1599   20.9828 C   0  0  0  0  0  0
  -25.2486  -13.8183   20.5685 C   0  0  0  0  0  0
  -24.1771  -13.0439   20.9203 C   0  0  0  0  0  0
  -24.6349  -11.6911   20.8740 C   0  0  0  0  0  0
  -23.9034  -10.4290   21.0409 C   0  0  0  0  0  0
  -24.3582   -9.4212   21.9189 C   0  0  0  0  0  0
  -23.6273   -8.2239   22.0753 C   0  0  0  0  0  0
  -22.4255   -8.0263   21.3549 C   0  0  0  0  0  0
  -21.9886   -9.0235   20.4654 C   0  0  0  0  0  0
  -22.7207  -10.2116   20.3067 C   0  0  0  0  0  0
  -21.6850   -6.0709   22.5272 C   0  0  0  0  0  0
  -21.4016   -6.5614   23.8207 C   0  0  0  0  0  0
  -21.3677   -5.6771   24.9175 C   0  0  0  0  0  0
  -21.6047   -4.3033   24.7234 C   0  0  0  0  0  0
  -21.8817   -3.8125   23.4364 C   0  0  0  0  0  0
  -21.9196   -4.6942   22.3410 C   0  0  0  0  0  0
  -22.7800  -13.5236   21.1873 C   0  0  0  0  0  0
  -22.1663   -4.2122   21.0996 F   0  0  0  0  0  0
  -21.5638   -3.4525   25.7757 F   0  0  0  0  0  0
  -29.9811  -13.5271   20.4023 N   0  0  0  0  0  0
  -26.2895  -12.9370   20.3245 N   0  0  0  0  0  0
  -25.9273  -11.6527   20.5726 N   0  0  0  0  0  0
  -22.0437  -12.8226   22.0421 N   0  0  0  0  0  0
  -25.4178  -15.1912   20.4122 N   0  0  0  0  0  0
  -31.7782  -14.8763   20.1720 O   0  0  0  0  0  0
  -21.6638   -6.8845   21.4229 O   0  0  0  0  0  0
  -22.3496  -14.5555   20.6740 O   0  0  0  0  0  0
  -24.6300  -31.8529   23.1960 C   0  0  0  0  0  0
  -25.9126  -32.4741   23.8307 C   0  0  1  0  0  0
  -27.2292  -27.2626   20.1398 C   0  0  0  0  0  0
  -25.5925  -33.8542   24.2245 N   0  0  0  0  0  0
  -23.4278  -30.4708   21.5392 C   0  0  2  0  0  0
  -24.8776  -28.9092   20.1162 C   0  0  0  0  0  0
  -22.7496  -29.4580   22.4922 C   0  0  0  0  0  0
  -18.0289  -28.1386   22.8479 C   0  0  0  0  0  0
  -24.1485  -36.7272   23.2640 C   0  0  0  0  0  0
  -25.9707  -30.7687   21.3719 C   0  0  0  0  0  0
  -26.0483  -29.3871   20.7212 C   0  0  0  0  0  0
  -27.2284  -28.5781   20.7153 C   0  0  0  0  0  0
  -26.0383  -26.8435   19.5129 C   0  0  0  0  0  0
  -24.8778  -27.6450   19.5009 C   0  0  0  0  0  0
  -23.6469  -29.7957   20.1587 C   0  0  0  0  0  0
  -25.4112  -36.3058   24.0324 C   0  0  1  0  0  0
  -20.5887  -28.3689   23.1270 C   0  0  2  0  0  0
  -20.6771  -26.9401   22.5407 C   0  0  0  0  0  0
  -19.5755  -26.6383   21.5200 C   0  0  0  0  0  0
  -18.1935  -26.7930   22.1612 C   0  0  0  0  0  0
  -19.1540  -28.8856   23.2867 C   0  0  0  0  0  0
  -18.9464  -30.1456   23.8885 C   0  0  0  0  0  0
  -17.6464  -30.6582   24.0561 C   0  0  0  0  0  0
  -25.9057  -34.9428   23.5086 C   0  0  0  0  0  0
  -16.5354  -29.9079   23.6333 C   0  0  0  0  0  0
  -16.7276  -28.6497   23.0352 C   0  0  0  0  0  0
  -26.4502  -31.6564   25.0693 C   0  0  0  0  0  0
  -25.3743  -31.3721   26.1434 C   0  0  0  0  0  0
  -27.0341  -30.2976   24.6170 C   0  0  0  0  0  0
  -27.6055  -32.4309   25.7471 C   0  0  0  0  0  0
  -27.5571  -37.1788   24.8463 C   0  0  0  0  0  0
  -21.4199  -29.3037   22.3670 N   0  0  0  0  0  0
  -26.4284  -37.3762   23.9413 N   0  0  0  0  0  0
  -24.6956  -31.0489   22.0934 N   0  0  0  0  0  0
  -23.4193  -28.8127   23.3031 O   0  0  0  0  0  0
  -28.3438  -26.3924   20.1278 O   0  0  0  0  0  0
  -26.5628  -34.8909   22.4660 O   0  0  0  0  0  0
  -23.5450  -32.1354   23.7252 O   0  0  0  0  0  0
  -31.1300  -17.9310   21.0876 C   0  0  0  0  0  0
  -29.9827  -17.3430   20.6122 C   0  0  0  0  0  0
  -29.4223  -19.6902   20.3940 C   0  0  0  0  0  0
  -26.2395  -21.2163   20.9547 C   0  0  0  0  0  0
  -26.9783  -21.5981   22.2572 C   0  0  0  0  0  0
  -27.1131  -20.7459   19.7682 C   0  0  0  0  0  0
  -28.4619  -22.0090   22.1187 C   0  0  0  0  0  0
  -28.6377  -20.9980   19.8906 C   0  0  1  0  0  0
  -27.3759  -25.1893   22.0438 C   0  0  0  0  0  0
  -29.8354  -25.2524   21.5014 C   0  0  0  0  0  0
  -28.3501  -23.6473   20.1186 C   0  0  0  0  0  0
  -28.4254  -25.0934   20.9067 C   0  0  0  0  0  0
  -29.0393  -18.3705   20.2322 N   0  0  0  0  0  0
  -29.7470  -15.8752   20.5982 N   0  0  0  0  0  0
  -28.8757  -22.2885   20.7181 N   0  3  1  0  0  0
  -31.0618  -19.7005   21.0697 S   0  0  0  0  0  0
  -31.4801  -12.6011   19.1771 H   0  0  0  0  0  0
  -30.3894  -11.4928   19.9602 H   0  0  0  0  0  0
  -29.8004  -11.7317   17.5252 H   0  0  0  0  0  0
  -29.6256  -13.4584   17.7157 H   0  0  0  0  0  0
  -27.9136  -11.2696   18.9349 H   0  0  0  0  0  0
  -27.3822  -12.4856   17.8030 H   0  0  0  0  0  0
  -27.6273  -14.2409   19.4531 H   0  0  0  0  0  0
  -28.7245  -12.1585   21.4143 H   0  0  0  0  0  0
  -28.4112  -13.8302   21.8008 H   0  0  0  0  0  0
  -25.2725   -9.5693   22.4768 H   0  0  0  0  0  0
  -23.9991   -7.4627   22.7473 H   0  0  0  0  0  0
  -21.0815   -8.8742   19.8966 H   0  0  0  0  0  0
  -22.3656  -10.9641   19.6177 H   0  0  0  0  0  0
  -21.1988   -7.6117   23.9694 H   0  0  0  0  0  0
  -21.1519   -6.0514   25.9072 H   0  0  0  0  0  0
  -22.0588   -2.7587   23.2879 H   0  0  0  0  0  0
  -22.4054  -11.9884   22.4787 H   0  0  0  0  0  0
  -21.1071  -13.1279   22.2674 H   0  0  0  0  0  0
  -24.6419  -15.8375   20.5112 H   0  0  0  0  0  0
  -26.2502  -15.6314   20.0432 H   0  0  0  0  0  0
  -26.7192  -32.5401   23.1050 H   0  0  0  0  0  0
  -25.0074  -33.9681   25.0390 H   0  0  0  0  0  0
  -22.7234  -31.2913   21.3884 H   0  0  0  0  0  0
  -23.3748  -35.9602   23.3298 H   0  0  0  0  0  0
  -24.3575  -36.8901   22.2053 H   0  0  0  0  0  0
  -23.7238  -37.6469   23.6674 H   0  0  0  0  0  0
  -26.1009  -31.5248   20.5964 H   0  0  0  0  0  0
  -26.8512  -30.8273   22.0002 H   0  0  0  0  0  0
  -28.1318  -28.9426   21.1845 H   0  0  0  0  0  0
  -26.0029  -25.8702   19.0439 H   0  0  0  0  0  0
  -23.9826  -27.2741   19.0214 H   0  0  0  0  0  0
  -23.7680  -30.5662   19.3965 H   0  0  0  0  0  0
  -22.7670  -29.2234   19.8597 H   0  0  0  0  0  0
  -25.1293  -36.1895   25.0814 H   0  0  0  0  0  0
  -20.9975  -28.3268   24.1395 H   0  0  0  0  0  0
  -20.5648  -26.2296   23.3613 H   0  0  0  0  0  0
  -21.6643  -26.7420   22.1214 H   0  0  0  0  0  0
  -19.6907  -25.6297   21.1229 H   0  0  0  0  0  0
  -19.6688  -27.3193   20.6730 H   0  0  0  0  0  0
  -17.4196  -26.6672   21.4021 H   0  0  0  0  0  0
  -18.0331  -26.0073   22.9008 H   0  0  0  0  0  0
  -19.7941  -30.7271   24.2244 H   0  0  0  0  0  0
  -17.5021  -31.6262   24.5166 H   0  0  0  0  0  0
  -15.5355  -30.2974   23.7673 H   0  0  0  0  0  0
  -15.8676  -28.0816   22.7076 H   0  0  0  0  0  0
  -24.5922  -30.7053   25.7791 H   0  0  0  0  0  0
  -24.8929  -32.2888   26.4844 H   0  0  0  0  0  0
  -25.8079  -30.8928   27.0220 H   0  0  0  0  0  0
  -26.2912  -29.6722   24.1204 H   0  0  0  0  0  0
  -27.4035  -29.7239   25.4681 H   0  0  0  0  0  0
  -27.8786  -30.4243   23.9394 H   0  0  0  0  0  0
  -27.2659  -33.3618   26.2027 H   0  0  0  0  0  0
  -28.3878  -32.6854   25.0309 H   0  0  0  0  0  0
  -28.0710  -31.8449   26.5408 H   0  0  0  0  0  0
  -28.2586  -38.0087   24.7508 H   0  0  0  0  0  0
  -28.1068  -36.2614   24.6289 H   0  0  0  0  0  0
  -27.2292  -37.1441   25.8869 H   0  0  0  0  0  0
  -20.9385  -29.8755   21.6868 H   0  0  0  0  0  0
  -26.0150  -38.2827   24.1436 H   0  0  0  0  0  0
  -32.0169  -17.4387   21.4661 H   0  0  0  0  0  0
  -25.6639  -22.0830   20.6271 H   0  0  0  0  0  0
  -25.4851  -20.4602   21.1756 H   0  0  0  0  0  0
  -26.9279  -20.7599   22.9529 H   0  0  0  0  0  0
  -26.4203  -22.3970   22.7481 H   0  0  0  0  0  0
  -26.7639  -21.2894   18.8890 H   0  0  0  0  0  0
  -26.9077  -19.7026   19.5290 H   0  0  0  0  0  0
  -29.0635  -21.1856   22.5024 H   0  0  0  0  0  0
  -28.7307  -22.8094   22.7995 H   0  0  0  0  0  0
  -29.0238  -21.1905   18.8891 H   0  0  0  0  0  0
  -27.5264  -24.4817   22.8486 H   0  0  0  0  0  0
  -26.3650  -25.0334   21.6687 H   0  0  0  0  0  0
  -27.4046  -26.1661   22.5270 H   0  0  0  0  0  0
  -30.0944  -24.4582   22.1969 H   0  0  0  0  0  0
  -29.9237  -26.1912   22.0495 H   0  0  0  0  0  0
  -30.5946  -25.2626   20.7193 H   0  0  0  0  0  0
  -28.8977  -23.7760   19.1846 H   0  0  0  0  0  0
  -27.3155  -23.5148   19.8086 H   0  0  0  0  0  0
  -28.7767  -15.6150   20.6662 H   0  0  0  0  0  0
  -29.8796  -22.3938   20.7503 H   0  0  0  0  0  0
  1 25  1  0  0  0
  1 30  2  0  0  0
  1 84  1  0  0  0
  2  3  1  0  0  0
  2 25  1  0  0  0
  2 87  1  0  0  0
  2 88  1  0  0  0
  3  4  1  0  0  0
  3 89  1  0  0  0
  3 90  1  0  0  0
  4  5  1  0  0  0
  4 91  1  0  0  0
  4 92  1  0  0  0
  5  6  1  0  0  0
  5 26  1  0  0  0
  5 93  1  0  0  0
  6 25  1  0  0  0
  6 94  1  0  0  0
  6 95  1  0  0  0
  7  8  2  0  0  0
  7 26  1  0  0  0
  7 29  1  0  0  0
  8  9  1  0  0  0
  8 22  1  0  0  0
  9 10  1  0  0  0
  9 27  2  0  0  0
 10 11  2  0  0  0
 10 15  1  0  0  0
 11 12  1  0  0  0
 11 96  1  0  0  0
 12 13  2  0  0  0
 12 97  1  0  0  0
 13 14  1  0  0  0
 13 31  1  0  0  0
 14 15  2  0  0  0
 14 98  1  0  0  0
 15 99  1  0  0  0
 16 17  2  0  0  0
 16 21  1  0  0  0
 16 31  1  0  0  0
 17 18  1  0  0  0
 17100  1  0  0  0
 18 19  2  0  0  0
 18101  1  0  0  0
 19 20  1  0  0  0
 19 24  1  0  0  0
 20 21  2  0  0  0
 20102  1  0  0  0
 21 23  1  0  0  0
 22 28  1  0  0  0
 22 32  2  0  0  0
 26 27  1  0  0  0
 28103  1  0  0  0
 28104  1  0  0  0
 29105  1  0  0  0
 29106  1  0  0  0
 33 34  1  0  0  0
 33 66  1  0  0  0
 33 70  2  0  0  0
 34 36  1  0  0  0
 34 59  1  0  0  0
 34107  1  0  0  0
 35 44  2  0  0  0
 35 45  1  0  0  0
 35 68  1  0  0  0
 36 56  1  0  0  0
 36108  1  0  0  0
 37 39  1  0  0  0
 37 47  1  0  0  0
 37 66  1  0  0  0
 37109  1  0  0  0
 38 43  2  0  0  0
 38 46  1  0  0  0
 38 47  1  0  0  0
 39 64  1  0  0  0
 39 67  2  0  0  0
 40 52  1  0  0  0
 40 53  2  0  0  0
 40 58  1  0  0  0
 41110  1  0  0  0
 41111  1  0  0  0
 41112  1  0  0  0
 41 48  1  0  0  0
 42 43  1  0  0  0
 42 66  1  0  0  0
 42113  1  0  0  0
 42114  1  0  0  0
 43 44  1  0  0  0
 44115  1  0  0  0
 45 46  2  0  0  0
 45116  1  0  0  0
 46117  1  0  0  0
 47118  1  0  0  0
 47119  1  0  0  0
 48 56  1  0  0  0
 48 65  1  0  0  0
 48120  1  0  0  0
 49 50  1  0  0  0
 49 53  1  0  0  0
 49 64  1  0  0  0
 49121  1  0  0  0
 50 51  1  0  0  0
 50122  1  0  0  0
 50123  1  0  0  0
 51 52  1  0  0  0
 51124  1  0  0  0
 51125  1  0  0  0
 52126  1  0  0  0
 52127  1  0  0  0
 53 54  1  0  0  0
 54 55  2  0  0  0
 54128  1  0  0  0
 55 57  1  0  0  0
 55129  1  0  0  0
 56 69  2  0  0  0
 57 58  2  0  0  0
 57130  1  0  0  0
 58131  1  0  0  0
 59 60  1  0  0  0
 59 61  1  0  0  0
 59 62  1  0  0  0
 60132  1  0  0  0
 60133  1  0  0  0
 60134  1  0  0  0
 61135  1  0  0  0
 61136  1  0  0  0
 61137  1  0  0  0
 62138  1  0  0  0
 62139  1  0  0  0
 62140  1  0  0  0
 63 65  1  0  0  0
 63141  1  0  0  0
 63142  1  0  0  0
 63143  1  0  0  0
 64144  1  0  0  0
 65145  1  0  0  0
 68 82  1  0  0  0
 71 72  2  0  0  0
 71 86  1  0  0  0
 71146  1  0  0  0
 72 83  1  0  0  0
 72 84  1  0  0  0
 73 83  2  0  0  0
 73 86  1  0  0  0
 73 78  1  0  0  0
 74 75  1  0  0  0
 74 76  1  0  0  0
 74147  1  0  0  0
 74148  1  0  0  0
 75 77  1  0  0  0
 75149  1  0  0  0
 75150  1  0  0  0
 76 78  1  0  0  0
 76151  1  0  0  0
 76152  1  0  0  0
 77 85  1  0  0  0
 77153  1  0  0  0
 77154  1  0  0  0
 78 85  1  0  0  0
 78155  1  0  0  0
 79156  1  0  0  0
 79157  1  0  0  0
 79158  1  0  0  0
 79 82  1  0  0  0
 80 82  1  0  0  0
 80159  1  0  0  0
 80160  1  0  0  0
 80161  1  0  0  0
 81 82  1  0  0  0
 81162  1  0  0  0
 81163  1  0  0  0
 81 85  1  0  0  0
 84164  1  0  0  0
 85165  1  0  0  0
M  CHG  1  85   1
M  ISO  4   1 100  68 101  82 101  84 100
M  END
> <chiral flag>
0

> <version>
0

> <s_m_source_file>
/data/baiqing/PycharmProjects/Reinvent-master-3.2/result/LINK_invent/BTK/process_docking_weight1_custom_product_contain_oxygen_bond_distance_aromatic_linkinvent_7_9_3/rearranged_h_0150.sdf

> <i_m_source_file_index>
20

> <r_mmod_Potential_Energy-OPLS-2005>
183.475326538086

> <r_mmod_Stretch_Energy-OPLS-2005>
148.046859741211

> <r_mmod_Bend_Energy-OPLS-2005>
216.085891723633

> <r_mmod_Torsional_Energy-OPLS-2005>
340.833801269531

> <r_mmod_Improper_Torsional_Energy-OPLS-2005>
6.77036952972412

> <r_mmod_Van_der_Waal_Energy-OPLS-2005>
123.62914276123

> <r_mmod_Electrostatic_Energy-OPLS-2005>
-316.42431640625

> <r_mmod_Solvation_Energy-OPLS-2005>
-423.468383789062

> <b_mmod_Minimization_Converged-OPLS-2005>
0

> <r_mmod_RMS_Derivative-OPLS-2005>
2.00510835647583

$$$$
20
                    3D
 Structure written by MMmdl.
174183  0  0  1  0            999 V2000
  -30.6052  -14.7260   20.4577 C   0  0  0  0  0  0
  -30.4315  -12.4385   19.4694 C   0  0  0  0  0  0
  -29.5079  -12.5059   18.2327 C   0  0  0  0  0  0
  -28.0334  -12.3331   18.6457 C   0  0  0  0  0  0
  -27.6435  -13.2270   19.8530 C   0  0  2  0  0  0
  -28.6886  -13.1443   20.9875 C   0  0  0  0  0  0
  -25.2525  -13.8189   20.5693 C   0  0  0  0  0  0
  -24.1814  -13.0439   20.9196 C   0  0  0  0  0  0
  -24.6395  -11.6914   20.8742 C   0  0  0  0  0  0
  -23.9075  -10.4288   21.0406 C   0  0  0  0  0  0
  -24.3622   -9.4206   21.9184 C   0  0  0  0  0  0
  -23.6292   -8.2244   22.0755 C   0  0  0  0  0  0
  -22.4276   -8.0279   21.3545 C   0  0  0  0  0  0
  -21.9915   -9.0253   20.4645 C   0  0  0  0  0  0
  -22.7246  -10.2131   20.3054 C   0  0  0  0  0  0
  -21.6855   -6.0733   22.5278 C   0  0  0  0  0  0
  -21.4017   -6.5638   23.8210 C   0  0  0  0  0  0
  -21.3657   -5.6791   24.9172 C   0  0  0  0  0  0
  -21.6048   -4.3052   24.7224 C   0  0  0  0  0  0
  -21.8816   -3.8144   23.4343 C   0  0  0  0  0  0
  -21.9193   -4.6963   22.3403 C   0  0  0  0  0  0
  -22.7834  -13.5229   21.1860 C   0  0  0  0  0  0
  -22.1661   -4.2148   21.0981 F   0  0  0  0  0  0
  -21.5628   -3.4540   25.7741 F   0  0  0  0  0  0
  -29.9912  -13.4952   20.4080 N   0  0  0  0  0  0
  -26.2946  -12.9384   20.3287 N   0  0  0  0  0  0
  -25.9328  -11.6530   20.5757 N   0  0  0  0  0  0
  -22.0486  -12.8210   22.0407 N   0  0  0  0  0  0
  -25.4223  -15.1912   20.4114 N   0  0  0  0  0  0
  -31.7924  -14.8270   20.1359 O   0  0  0  0  0  0
  -21.6641   -6.8877   21.4241 O   0  0  0  0  0  0
  -22.3520  -14.5538   20.6710 O   0  0  0  0  0  0
  -24.6310  -31.8557   23.1970 C   0  0  0  0  0  0
  -25.9131  -32.4761   23.8334 C   0  0  1  0  0  0
  -27.2237  -27.2575   20.1211 C   0  0  0  0  0  0
  -25.5934  -33.8565   24.2268 N   0  0  0  0  0  0
  -23.4276  -30.4761   21.5413 C   0  0  2  0  0  0
  -24.8731  -28.9208   20.1087 C   0  0  0  0  0  0
  -22.7523  -29.4584   22.4929 C   0  0  0  0  0  0
  -18.0295  -28.1388   22.8485 C   0  0  0  0  0  0
  -24.1493  -36.7276   23.2643 C   0  0  0  0  0  0
  -25.9730  -30.7648   21.3771 C   0  0  0  0  0  0
  -26.0427  -29.3861   20.7207 C   0  0  0  0  0  0
  -27.2144  -28.5649   20.7178 C   0  0  0  0  0  0
  -26.0234  -26.8551   19.4902 C   0  0  0  0  0  0
  -24.8701  -27.6654   19.4828 C   0  0  0  0  0  0
  -23.6447  -29.8089   20.1568 C   0  0  0  0  0  0
  -25.4117  -36.3076   24.0341 C   0  0  1  0  0  0
  -20.5901  -28.3686   23.1287 C   0  0  2  0  0  0
  -20.6785  -26.9407   22.5409 C   0  0  0  0  0  0
  -19.5749  -26.6370   21.5225 C   0  0  0  0  0  0
  -18.1926  -26.7930   22.1624 C   0  0  0  0  0  0
  -19.1550  -28.8855   23.2881 C   0  0  0  0  0  0
  -18.9467  -30.1462   23.8897 C   0  0  0  0  0  0
  -17.6464  -30.6588   24.0559 C   0  0  0  0  0  0
  -25.9059  -34.9445   23.5107 C   0  0  0  0  0  0
  -16.5355  -29.9081   23.6329 C   0  0  0  0  0  0
  -16.7280  -28.6501   23.0352 C   0  0  0  0  0  0
  -26.4498  -31.6581   25.0721 C   0  0  0  0  0  0
  -25.3717  -31.3695   26.1431 C   0  0  0  0  0  0
  -27.0350  -30.3015   24.6169 C   0  0  0  0  0  0
  -27.6066  -32.4320   25.7480 C   0  0  0  0  0  0
  -27.5587  -37.1791   24.8472 C   0  0  0  0  0  0
  -21.4228  -29.3039   22.3697 N   0  0  0  0  0  0
  -26.4292  -37.3773   23.9422 N   0  0  0  0  0  0
  -24.6965  -31.0518   22.0946 N   0  0  0  0  0  0
  -23.4233  -28.8132   23.3023 O   0  0  0  0  0  0
  -28.3501  -26.4035   20.2010 O   0  0  0  0  0  0
  -26.5627  -34.8918   22.4675 O   0  0  0  0  0  0
  -23.5459  -32.1380   23.7263 O   0  0  0  0  0  0
  -31.2430  -17.8717   20.2822 C   0  0  0  0  0  0
  -31.2325  -19.3272   20.1715 C   0  0  0  0  0  0
  -29.9708  -19.8995   20.4039 C   0  0  0  0  0  0
  -30.0584  -17.2211   20.5347 C   0  0  0  0  0  0
  -29.8304  -23.5803   21.3391 C   0  0  0  0  0  0
  -30.0276  -22.0912   21.7189 C   0  0  0  0  0  0
  -28.5473  -23.6461   20.4858 C   0  0  1  0  0  0
  -28.7062  -22.1982   19.7291 C   0  0  0  0  0  0
  -27.3245  -23.6505   21.4313 C   0  0  0  0  0  0
  -29.3831  -22.4073   18.3626 C   0  0  0  0  0  0
  -27.3579  -21.5027   19.4537 C   0  0  0  0  0  0
  -33.3970  -19.2238   18.8232 C   0  0  0  0  0  0
  -33.4117  -20.0621   21.1767 C   0  0  0  0  0  0
  -32.4743  -21.4322   19.2966 C   0  0  0  0  0  0
  -28.4348  -25.0218   19.6078 C   0  0  0  0  0  0
  -32.5809  -20.0134   19.8802 C   0  0  0  0  0  0
  -29.5676  -21.3013   20.5820 N   0  0  0  0  0  0
  -29.8066  -15.8425   20.6740 N   0  0  0  0  0  0
  -28.8413  -18.5283   20.6749 S   0  0  0  0  0  0
  -31.4748  -12.5558   19.1713 H   0  0  0  0  0  0
  -30.3679  -11.4581   19.9439 H   0  0  0  0  0  0
  -29.7849  -11.7381   17.5090 H   0  0  0  0  0  0
  -29.6367  -13.4636   17.7262 H   0  0  0  0  0  0
  -27.8847  -11.2829   18.8998 H   0  0  0  0  0  0
  -27.3761  -12.5341   17.7991 H   0  0  0  0  0  0
  -27.6415  -14.2511   19.4794 H   0  0  0  0  0  0
  -28.7196  -12.1410   21.4145 H   0  0  0  0  0  0
  -28.4297  -13.8152   21.8084 H   0  0  0  0  0  0
  -25.2767   -9.5688   22.4759 H   0  0  0  0  0  0
  -24.0001   -7.4643   22.7481 H   0  0  0  0  0  0
  -21.0847   -8.8770   19.8952 H   0  0  0  0  0  0
  -22.3704  -10.9669   19.6163 H   0  0  0  0  0  0
  -21.2007   -7.6143   23.9717 H   0  0  0  0  0  0
  -21.1484   -6.0518   25.9074 H   0  0  0  0  0  0
  -22.0596   -2.7605   23.2848 H   0  0  0  0  0  0
  -22.4104  -11.9869   22.4789 H   0  0  0  0  0  0
  -21.1102  -13.1225   22.2623 H   0  0  0  0  0  0
  -24.6524  -15.8425   20.5212 H   0  0  0  0  0  0
  -26.2614  -15.6317   20.0574 H   0  0  0  0  0  0
  -26.7191  -32.5401   23.1069 H   0  0  0  0  0  0
  -25.0118  -33.9715   25.0437 H   0  0  0  0  0  0
  -22.7221  -31.2961   21.3943 H   0  0  0  0  0  0
  -23.3777  -35.9585   23.3291 H   0  0  0  0  0  0
  -24.3580  -36.8915   22.2060 H   0  0  0  0  0  0
  -23.7219  -37.6463   23.6670 H   0  0  0  0  0  0
  -26.1141  -31.5228   20.6055 H   0  0  0  0  0  0
  -26.8516  -30.8147   22.0087 H   0  0  0  0  0  0
  -28.1090  -28.9169   21.2115 H   0  0  0  0  0  0
  -25.9248  -25.8926   19.0165 H   0  0  0  0  0  0
  -23.9735  -27.3043   18.9978 H   0  0  0  0  0  0
  -23.7695  -30.5854   19.4015 H   0  0  0  0  0  0
  -22.7625  -29.2436   19.8510 H   0  0  0  0  0  0
  -25.1293  -36.1925   25.0833 H   0  0  0  0  0  0
  -20.9971  -28.3242   24.1417 H   0  0  0  0  0  0
  -20.5691  -26.2300   23.3614 H   0  0  0  0  0  0
  -21.6653  -26.7429   22.1195 H   0  0  0  0  0  0
  -19.6918  -25.6279   21.1255 H   0  0  0  0  0  0
  -19.6687  -27.3184   20.6759 H   0  0  0  0  0  0
  -17.4202  -26.6706   21.4018 H   0  0  0  0  0  0
  -18.0298  -26.0067   22.9010 H   0  0  0  0  0  0
  -19.7942  -30.7287   24.2263 H   0  0  0  0  0  0
  -17.5006  -31.6267   24.5158 H   0  0  0  0  0  0
  -15.5351  -30.2979   23.7653 H   0  0  0  0  0  0
  -15.8683  -28.0812   22.7069 H   0  0  0  0  0  0
  -24.5947  -30.6988   25.7740 H   0  0  0  0  0  0
  -24.8833  -32.2836   26.4820 H   0  0  0  0  0  0
  -25.8034  -30.8902   27.0227 H   0  0  0  0  0  0
  -26.2917  -29.6761   24.1208 H   0  0  0  0  0  0
  -27.4095  -29.7269   25.4649 H   0  0  0  0  0  0
  -27.8766  -30.4337   23.9368 H   0  0  0  0  0  0
  -27.2710  -33.3661   26.1993 H   0  0  0  0  0  0
  -28.3893  -32.6809   25.0301 H   0  0  0  0  0  0
  -28.0707  -31.8476   26.5434 H   0  0  0  0  0  0
  -28.2580  -38.0112   24.7542 H   0  0  0  0  0  0
  -28.1112  -36.2644   24.6259 H   0  0  0  0  0  0
  -27.2314  -37.1392   25.8878 H   0  0  0  0  0  0
  -20.9425  -29.8779   21.6915 H   0  0  0  0  0  0
  -26.0180  -38.2852   24.1417 H   0  0  0  0  0  0
  -32.1631  -17.3205   20.1817 H   0  0  0  0  0  0
  -30.6794  -23.9154   20.7425 H   0  0  0  0  0  0
  -29.7942  -24.2274   22.2169 H   0  0  0  0  0  0
  -29.4140  -21.8374   22.5842 H   0  0  0  0  0  0
  -31.0610  -21.8800   21.9884 H   0  0  0  0  0  0
  -27.3120  -22.7849   22.0935 H   0  0  0  0  0  0
  -26.3898  -23.6507   20.8699 H   0  0  0  0  0  0
  -27.3184  -24.5413   22.0596 H   0  0  0  0  0  0
  -28.7381  -22.9624   17.6813 H   0  0  0  0  0  0
  -29.6121  -21.4592   17.8753 H   0  0  0  0  0  0
  -30.3075  -22.9755   18.4511 H   0  0  0  0  0  0
  -26.6841  -22.1520   18.8938 H   0  0  0  0  0  0
  -26.8515  -21.2070   20.3725 H   0  0  0  0  0  0
  -27.4917  -20.5956   18.8632 H   0  0  0  0  0  0
  -33.7355  -18.2497   19.1729 H   0  0  0  0  0  0
  -34.3048  -19.7580   18.5381 H   0  0  0  0  0  0
  -32.8179  -19.0668   17.9120 H   0  0  0  0  0  0
  -33.6310  -19.0585   21.5446 H   0  0  0  0  0  0
  -32.8873  -20.5896   21.9724 H   0  0  0  0  0  0
  -34.3672  -20.5657   21.0240 H   0  0  0  0  0  0
  -31.9216  -21.4187   18.3592 H   0  0  0  0  0  0
  -33.4585  -21.8459   19.0733 H   0  0  0  0  0  0
  -32.0058  -22.1380   19.9728 H   0  0  0  0  0  0
  -27.6733  -24.8717   18.8489 H   0  0  0  0  0  0
  -29.3466  -25.0783   19.0144 H   0  0  0  0  0  0
  -28.8519  -15.6079   20.9003 H   0  0  0  0  0  0
  1 25  1  0  0  0
  1 30  2  0  0  0
  1 88  1  0  0  0
  2  3  1  0  0  0
  2 25  1  0  0  0
  2 90  1  0  0  0
  2 91  1  0  0  0
  3  4  1  0  0  0
  3 92  1  0  0  0
  3 93  1  0  0  0
  4  5  1  0  0  0
  4 94  1  0  0  0
  4 95  1  0  0  0
  5  6  1  0  0  0
  5 26  1  0  0  0
  5 96  1  0  0  0
  6 25  1  0  0  0
  6 97  1  0  0  0
  6 98  1  0  0  0
  7  8  2  0  0  0
  7 26  1  0  0  0
  7 29  1  0  0  0
  8  9  1  0  0  0
  8 22  1  0  0  0
  9 10  1  0  0  0
  9 27  2  0  0  0
 10 11  2  0  0  0
 10 15  1  0  0  0
 11 12  1  0  0  0
 11 99  1  0  0  0
 12 13  2  0  0  0
 12100  1  0  0  0
 13 14  1  0  0  0
 13 31  1  0  0  0
 14 15  2  0  0  0
 14101  1  0  0  0
 15102  1  0  0  0
 16 17  2  0  0  0
 16 21  1  0  0  0
 16 31  1  0  0  0
 17 18  1  0  0  0
 17103  1  0  0  0
 18 19  2  0  0  0
 18104  1  0  0  0
 19 20  1  0  0  0
 19 24  1  0  0  0
 20 21  2  0  0  0
 20105  1  0  0  0
 21 23  1  0  0  0
 22 28  1  0  0  0
 22 32  2  0  0  0
 26 27  1  0  0  0
 28106  1  0  0  0
 28107  1  0  0  0
 29108  1  0  0  0
 29109  1  0  0  0
 33 34  1  0  0  0
 33 66  1  0  0  0
 33 70  2  0  0  0
 34 36  1  0  0  0
 34 59  1  0  0  0
 34110  1  0  0  0
 35 44  2  0  0  0
 35 45  1  0  0  0
 35 68  1  0  0  0
 36 56  1  0  0  0
 36111  1  0  0  0
 37 39  1  0  0  0
 37 47  1  0  0  0
 37 66  1  0  0  0
 37112  1  0  0  0
 38 43  2  0  0  0
 38 46  1  0  0  0
 38 47  1  0  0  0
 39 64  1  0  0  0
 39 67  2  0  0  0
 40 52  1  0  0  0
 40 53  2  0  0  0
 40 58  1  0  0  0
 41113  1  0  0  0
 41114  1  0  0  0
 41115  1  0  0  0
 41 48  1  0  0  0
 42 43  1  0  0  0
 42 66  1  0  0  0
 42116  1  0  0  0
 42117  1  0  0  0
 43 44  1  0  0  0
 44118  1  0  0  0
 45 46  2  0  0  0
 45119  1  0  0  0
 46120  1  0  0  0
 47121  1  0  0  0
 47122  1  0  0  0
 48 56  1  0  0  0
 48 65  1  0  0  0
 48123  1  0  0  0
 49 50  1  0  0  0
 49 53  1  0  0  0
 49 64  1  0  0  0
 49124  1  0  0  0
 50 51  1  0  0  0
 50125  1  0  0  0
 50126  1  0  0  0
 51 52  1  0  0  0
 51127  1  0  0  0
 51128  1  0  0  0
 52129  1  0  0  0
 52130  1  0  0  0
 53 54  1  0  0  0
 54 55  2  0  0  0
 54131  1  0  0  0
 55 57  1  0  0  0
 55132  1  0  0  0
 56 69  2  0  0  0
 57 58  2  0  0  0
 57133  1  0  0  0
 58134  1  0  0  0
 59 60  1  0  0  0
 59 61  1  0  0  0
 59 62  1  0  0  0
 60135  1  0  0  0
 60136  1  0  0  0
 60137  1  0  0  0
 61138  1  0  0  0
 61139  1  0  0  0
 61140  1  0  0  0
 62141  1  0  0  0
 62142  1  0  0  0
 62143  1  0  0  0
 63 65  1  0  0  0
 63144  1  0  0  0
 63145  1  0  0  0
 63146  1  0  0  0
 64147  1  0  0  0
 65148  1  0  0  0
 68 85  1  0  0  0
 71 72  1  0  0  0
 71 74  2  0  0  0
 71149  1  0  0  0
 72 73  2  0  0  0
 72 86  1  0  0  0
 73 87  1  0  0  0
 73 89  1  0  0  0
 74 88  1  0  0  0
 74 89  1  0  0  0
 75 76  1  0  0  0
 75 77  1  0  0  0
 75150  1  0  0  0
 75151  1  0  0  0
 76 87  1  0  0  0
 76152  1  0  0  0
 76153  1  0  0  0
 77 78  1  0  0  0
 77 79  1  0  0  0
 77 85  1  0  0  0
 78 80  1  0  0  0
 78 81  1  0  0  0
 78 87  1  0  0  0
 79154  1  0  0  0
 79155  1  0  0  0
 79156  1  0  0  0
 80157  1  0  0  0
 80158  1  0  0  0
 80159  1  0  0  0
 81160  1  0  0  0
 81161  1  0  0  0
 81162  1  0  0  0
 82163  1  0  0  0
 82164  1  0  0  0
 82165  1  0  0  0
 82 86  1  0  0  0
 83 86  1  0  0  0
 83166  1  0  0  0
 83167  1  0  0  0
 83168  1  0  0  0
 84 86  1  0  0  0
 84169  1  0  0  0
 84170  1  0  0  0
 84171  1  0  0  0
 85172  1  0  0  0
 85173  1  0  0  0
 88174  1  0  0  0
M  ISO  4   1 100  68 101  85 101  88 100
M  END
> <chiral flag>
0

> <version>
0

> <s_m_source_file>
/data/baiqing/PycharmProjects/Reinvent-master-3.2/result/LINK_invent/BTK/process_docking_weight1_custom_product_contain_oxygen_bond_distance_aromatic_linkinvent_7_9_3/rearranged_h_0150.sdf

> <i_m_source_file_index>
21

> <r_mmod_Potential_Energy-OPLS-2005>
314.707458496094

> <r_mmod_Stretch_Energy-OPLS-2005>
129.454544067383

> <r_mmod_Bend_Energy-OPLS-2005>
244.066589355469

> <r_mmod_Torsional_Energy-OPLS-2005>
333.757354736328

> <r_mmod_Improper_Torsional_Energy-OPLS-2005>
5.10183668136597

> <r_mmod_Van_der_Waal_Energy-OPLS-2005>
123.455955505371

> <r_mmod_Electrostatic_Energy-OPLS-2005>
-408.634429931641

> <r_mmod_Solvation_Energy-OPLS-2005>
-191.268188476562

> <b_mmod_Minimization_Converged-OPLS-2005>
0

> <r_mmod_RMS_Derivative-OPLS-2005>
1.45029318332672

$$$$
21
                    3D
 Structure written by MMmdl.
163172  0  0  1  0            999 V2000
  -30.5884  -14.6102   20.5348 C   0  0  0  0  0  0
  -30.4541  -12.3873   19.4254 C   0  0  0  0  0  0
  -29.5067  -12.5208   18.2099 C   0  0  0  0  0  0
  -28.0266  -12.3444   18.6204 C   0  0  0  0  0  0
  -27.6529  -13.1978   19.8593 C   0  0  2  0  0  0
  -28.6973  -13.0081   20.9832 C   0  0  0  0  0  0
  -25.2544  -13.8140   20.5653 C   0  0  0  0  0  0
  -24.1798  -13.0425   20.9176 C   0  0  0  0  0  0
  -24.6335  -11.6896   20.8719 C   0  0  0  0  0  0
  -23.8996  -10.4276   21.0415 C   0  0  0  0  0  0
  -24.3558   -9.4203   21.9188 C   0  0  0  0  0  0
  -23.6262   -8.2236   22.0752 C   0  0  0  0  0  0
  -22.4238   -8.0264   21.3542 C   0  0  0  0  0  0
  -21.9848   -9.0235   20.4641 C   0  0  0  0  0  0
  -22.7174  -10.2118   20.3055 C   0  0  0  0  0  0
  -21.6841   -6.0700   22.5270 C   0  0  0  0  0  0
  -21.4018   -6.5606   23.8201 C   0  0  0  0  0  0
  -21.3674   -5.6763   24.9159 C   0  0  0  0  0  0
  -21.6039   -4.3029   24.7217 C   0  0  0  0  0  0
  -21.8821   -3.8114   23.4337 C   0  0  0  0  0  0
  -21.9198   -4.6928   22.3395 C   0  0  0  0  0  0
  -22.7806  -13.5243   21.1846 C   0  0  0  0  0  0
  -22.1659   -4.2109   21.0975 F   0  0  0  0  0  0
  -21.5644   -3.4522   25.7741 F   0  0  0  0  0  0
  -30.0162  -13.3727   20.4284 N   0  0  0  0  0  0
  -26.2946  -12.9291   20.3250 N   0  0  0  0  0  0
  -25.9259  -11.6460   20.5692 N   0  0  0  0  0  0
  -22.0418  -12.8270   22.0406 N   0  0  0  0  0  0
  -25.4292  -15.1867   20.4075 N   0  0  0  0  0  0
  -31.7574  -14.8344   20.1986 O   0  0  0  0  0  0
  -21.6617   -6.8849   21.4224 O   0  0  0  0  0  0
  -22.3526  -14.5550   20.6688 O   0  0  0  0  0  0
  -24.6202  -31.8619   23.2045 C   0  0  0  0  0  0
  -25.9039  -32.4816   23.8373 C   0  0  1  0  0  0
  -27.2317  -27.3570   20.1155 C   0  0  0  0  0  0
  -25.5854  -33.8622   24.2266 N   0  0  0  0  0  0
  -23.4145  -30.4819   21.5474 C   0  0  2  0  0  0
  -24.8632  -28.9385   20.1160 C   0  0  0  0  0  0
  -22.7446  -29.4613   22.4972 C   0  0  0  0  0  0
  -18.0267  -28.1387   22.8464 C   0  0  0  0  0  0
  -24.1469  -36.7307   23.2638 C   0  0  0  0  0  0
  -25.9526  -30.8028   21.3726 C   0  0  0  0  0  0
  -26.0294  -29.4352   20.7125 C   0  0  0  0  0  0
  -27.2222  -28.6574   20.6945 C   0  0  0  0  0  0
  -26.0442  -26.9012   19.4996 C   0  0  0  0  0  0
  -24.8703  -27.6753   19.5021 C   0  0  0  0  0  0
  -23.6293  -29.8122   20.1651 C   0  0  0  0  0  0
  -25.4098  -36.3109   24.0322 C   0  0  1  0  0  0
  -20.5862  -28.3670   23.1290 C   0  0  2  0  0  0
  -20.6742  -26.9399   22.5407 C   0  0  0  0  0  0
  -19.5739  -26.6379   21.5181 C   0  0  0  0  0  0
  -18.1918  -26.7931   22.1599 C   0  0  0  0  0  0
  -19.1522  -28.8846   23.2870 C   0  0  0  0  0  0
  -18.9460  -30.1450   23.8895 C   0  0  0  0  0  0
  -17.6468  -30.6605   24.0558 C   0  0  0  0  0  0
  -25.9037  -34.9479   23.5107 C   0  0  0  0  0  0
  -16.5350  -29.9110   23.6337 C   0  0  0  0  0  0
  -16.7256  -28.6515   23.0363 C   0  0  0  0  0  0
  -26.4428  -31.6668   25.0768 C   0  0  0  0  0  0
  -25.3645  -31.3853   26.1501 C   0  0  0  0  0  0
  -27.0251  -30.3080   24.6243 C   0  0  0  0  0  0
  -27.5986  -32.4424   25.7536 C   0  0  0  0  0  0
  -27.5588  -37.1788   24.8445 C   0  0  0  0  0  0
  -21.4164  -29.3031   22.3701 N   0  0  0  0  0  0
  -26.4277  -37.3801   23.9426 N   0  0  0  0  0  0
  -24.6804  -31.0647   22.0988 N   0  0  0  0  0  0
  -23.4169  -28.8150   23.3043 O   0  0  0  0  0  0
  -28.3611  -26.5397   20.1292 O   0  0  0  0  0  0
  -26.5646  -34.8934   22.4700 O   0  0  0  0  0  0
  -23.5362  -32.1405   23.7371 O   0  0  0  0  0  0
  -29.1248  -17.1446   22.5287 C   0  0  0  0  0  0
  -29.0328  -18.4309   23.0895 C   0  0  0  0  0  0
  -30.2008  -18.1008   20.5715 C   0  0  0  0  0  0
  -30.1162  -19.4368   21.1195 C   0  0  0  0  0  0
  -29.7513  -16.9421   21.2857 C   0  0  0  0  0  0
  -29.5633  -19.5615   22.4339 C   0  0  0  0  0  0
  -30.7290  -20.5916   20.3545 C   0  0  0  0  0  0
  -30.5316  -24.3125   19.8814 C   0  0  0  0  0  0
  -31.1754  -22.9483   19.5921 C   0  0  0  0  0  0
  -29.0818  -22.6143   20.7247 C   0  0  0  0  0  0
  -29.0405  -24.0101   19.9930 C   0  0  1  0  0  0
  -28.1829  -25.1718   20.6425 C   0  0  0  0  0  0
  -30.3100  -21.9106   20.2190 N   0  0  0  0  0  0
  -29.5594  -20.7489   23.1746 N   0  0  0  0  0  0
  -29.6756  -15.5931   20.7699 N   0  0  0  0  0  0
  -31.8773  -20.3040   19.7333 N   0  3  0  0  0  0
  -28.4857  -23.7301   18.7171 O   0  0  0  0  0  0
  -31.4912  -12.5488   19.1215 H   0  0  0  0  0  0
  -30.4152  -11.3802   19.8434 H   0  0  0  0  0  0
  -29.7764  -11.7935   17.4426 H   0  0  0  0  0  0
  -29.6339  -13.5058   17.7541 H   0  0  0  0  0  0
  -27.8585  -11.2895   18.8373 H   0  0  0  0  0  0
  -27.3725  -12.5931   17.7838 H   0  0  0  0  0  0
  -27.6780  -14.2362   19.5276 H   0  0  0  0  0  0
  -28.7062  -11.9684   21.3189 H   0  0  0  0  0  0
  -28.4409  -13.5976   21.8655 H   0  0  0  0  0  0
  -25.2705   -9.5694   22.4733 H   0  0  0  0  0  0
  -23.9981   -7.4614   22.7461 H   0  0  0  0  0  0
  -21.0792   -8.8745   19.8957 H   0  0  0  0  0  0
  -22.3648  -10.9638   19.6137 H   0  0  0  0  0  0
  -21.2011   -7.6115   23.9695 H   0  0  0  0  0  0
  -21.1494   -6.0485   25.9059 H   0  0  0  0  0  0
  -22.0599   -2.7577   23.2843 H   0  0  0  0  0  0
  -22.4006  -11.9954   22.4852 H   0  0  0  0  0  0
  -21.1031  -13.1338   22.2542 H   0  0  0  0  0  0
  -24.6553  -15.8366   20.5036 H   0  0  0  0  0  0
  -26.2544  -15.6182   20.0131 H   0  0  0  0  0  0
  -26.7113  -32.5486   23.1134 H   0  0  0  0  0  0
  -24.9906  -33.9787   25.0335 H   0  0  0  0  0  0
  -22.7048  -31.2993   21.4026 H   0  0  0  0  0  0
  -23.3755  -35.9617   23.3277 H   0  0  0  0  0  0
  -24.3550  -36.8965   22.2059 H   0  0  0  0  0  0
  -23.7183  -37.6476   23.6688 H   0  0  0  0  0  0
  -26.0819  -31.5689   20.6068 H   0  0  0  0  0  0
  -26.8320  -30.8478   22.0045 H   0  0  0  0  0  0
  -28.1254  -29.0372   21.1499 H   0  0  0  0  0  0
  -26.0179  -25.9328   19.0170 H   0  0  0  0  0  0
  -23.9733  -27.2874   19.0371 H   0  0  0  0  0  0
  -23.7450  -30.5833   19.4035 H   0  0  0  0  0  0
  -22.7528  -29.2347   19.8680 H   0  0  0  0  0  0
  -25.1268  -36.1965   25.0812 H   0  0  0  0  0  0
  -20.9929  -28.3235   24.1418 H   0  0  0  0  0  0
  -20.5587  -26.2279   23.3593 H   0  0  0  0  0  0
  -21.6622  -26.7409   22.1242 H   0  0  0  0  0  0
  -19.6896  -25.6273   21.1241 H   0  0  0  0  0  0
  -19.6707  -27.3158   20.6682 H   0  0  0  0  0  0
  -17.4174  -26.6648   21.4028 H   0  0  0  0  0  0
  -18.0365  -26.0092   22.9018 H   0  0  0  0  0  0
  -19.7944  -30.7253   24.2279 H   0  0  0  0  0  0
  -17.5039  -31.6295   24.5157 H   0  0  0  0  0  0
  -15.5352  -30.3031   23.7678 H   0  0  0  0  0  0
  -15.8638  -28.0842   22.7111 H   0  0  0  0  0  0
  -24.5736  -30.7313   25.7812 H   0  0  0  0  0  0
  -24.8938  -32.3062   26.4973 H   0  0  0  0  0  0
  -25.7928  -30.8956   27.0255 H   0  0  0  0  0  0
  -26.2836  -29.6909   24.1159 H   0  0  0  0  0  0
  -27.3789  -29.7296   25.4787 H   0  0  0  0  0  0
  -27.8780  -30.4359   23.9573 H   0  0  0  0  0  0
  -27.2560  -33.3689   26.2170 H   0  0  0  0  0  0
  -28.3761  -32.7075   25.0355 H   0  0  0  0  0  0
  -28.0704  -31.8541   26.5416 H   0  0  0  0  0  0
  -28.2563  -38.0128   24.7574 H   0  0  0  0  0  0
  -28.1127  -36.2667   24.6162 H   0  0  0  0  0  0
  -27.2331  -37.1317   25.8851 H   0  0  0  0  0  0
  -20.9339  -29.8764   21.6926 H   0  0  0  0  0  0
  -26.0167  -38.2867   24.1483 H   0  0  0  0  0  0
  -28.7041  -16.3068   23.0671 H   0  0  0  0  0  0
  -28.5632  -18.5288   24.0590 H   0  0  0  0  0  0
  -30.6104  -17.9617   19.5792 H   0  0  0  0  0  0
  -30.7508  -25.0467   19.1060 H   0  0  0  0  0  0
  -30.9205  -24.7074   20.8225 H   0  0  0  0  0  0
  -32.2009  -22.9269   19.9688 H   0  0  0  0  0  0
  -31.2118  -22.7861   18.5138 H   0  0  0  0  0  0
  -28.1735  -22.0317   20.5668 H   0  0  0  0  0  0
  -29.1665  -22.7873   21.7966 H   0  0  0  0  0  0
  -28.4443  -25.2328   21.7000 H   0  0  0  0  0  0
  -27.1386  -24.8612   20.6443 H   0  0  0  0  0  0
  -29.2815  -20.6953   24.1492 H   0  0  0  0  0  0
  -30.3576  -21.3657   23.0613 H   0  0  0  0  0  0
  -28.7720  -15.1695   20.9135 H   0  0  0  0  0  0
  -32.3213  -19.4140   19.9017 H   0  0  0  0  0  0
  -32.3409  -20.9618   19.1307 H   0  0  0  0  0  0
  -28.7647  -22.8481   18.4934 H   0  0  0  0  0  0
  1 25  1  0  0  0
  1 30  2  0  0  0
  1 85  1  0  0  0
  2  3  1  0  0  0
  2 25  1  0  0  0
  2 88  1  0  0  0
  2 89  1  0  0  0
  3  4  1  0  0  0
  3 90  1  0  0  0
  3 91  1  0  0  0
  4  5  1  0  0  0
  4 92  1  0  0  0
  4 93  1  0  0  0
  5  6  1  0  0  0
  5 26  1  0  0  0
  5 94  1  0  0  0
  6 25  1  0  0  0
  6 95  1  0  0  0
  6 96  1  0  0  0
  7  8  2  0  0  0
  7 26  1  0  0  0
  7 29  1  0  0  0
  8  9  1  0  0  0
  8 22  1  0  0  0
  9 10  1  0  0  0
  9 27  2  0  0  0
 10 11  2  0  0  0
 10 15  1  0  0  0
 11 12  1  0  0  0
 11 97  1  0  0  0
 12 13  2  0  0  0
 12 98  1  0  0  0
 13 14  1  0  0  0
 13 31  1  0  0  0
 14 15  2  0  0  0
 14 99  1  0  0  0
 15100  1  0  0  0
 16 17  2  0  0  0
 16 21  1  0  0  0
 16 31  1  0  0  0
 17 18  1  0  0  0
 17101  1  0  0  0
 18 19  2  0  0  0
 18102  1  0  0  0
 19 20  1  0  0  0
 19 24  1  0  0  0
 20 21  2  0  0  0
 20103  1  0  0  0
 21 23  1  0  0  0
 22 28  1  0  0  0
 22 32  2  0  0  0
 26 27  1  0  0  0
 28104  1  0  0  0
 28105  1  0  0  0
 29106  1  0  0  0
 29107  1  0  0  0
 33 34  1  0  0  0
 33 66  1  0  0  0
 33 70  2  0  0  0
 34 36  1  0  0  0
 34 59  1  0  0  0
 34108  1  0  0  0
 35 44  2  0  0  0
 35 45  1  0  0  0
 35 68  1  0  0  0
 36 56  1  0  0  0
 36109  1  0  0  0
 37 39  1  0  0  0
 37 47  1  0  0  0
 37 66  1  0  0  0
 37110  1  0  0  0
 38 43  2  0  0  0
 38 46  1  0  0  0
 38 47  1  0  0  0
 39 64  1  0  0  0
 39 67  2  0  0  0
 40 52  1  0  0  0
 40 53  2  0  0  0
 40 58  1  0  0  0
 41111  1  0  0  0
 41112  1  0  0  0
 41113  1  0  0  0
 41 48  1  0  0  0
 42 43  1  0  0  0
 42 66  1  0  0  0
 42114  1  0  0  0
 42115  1  0  0  0
 43 44  1  0  0  0
 44116  1  0  0  0
 45 46  2  0  0  0
 45117  1  0  0  0
 46118  1  0  0  0
 47119  1  0  0  0
 47120  1  0  0  0
 48 56  1  0  0  0
 48 65  1  0  0  0
 48121  1  0  0  0
 49 50  1  0  0  0
 49 53  1  0  0  0
 49 64  1  0  0  0
 49122  1  0  0  0
 50 51  1  0  0  0
 50123  1  0  0  0
 50124  1  0  0  0
 51 52  1  0  0  0
 51125  1  0  0  0
 51126  1  0  0  0
 52127  1  0  0  0
 52128  1  0  0  0
 53 54  1  0  0  0
 54 55  2  0  0  0
 54129  1  0  0  0
 55 57  1  0  0  0
 55130  1  0  0  0
 56 69  2  0  0  0
 57 58  2  0  0  0
 57131  1  0  0  0
 58132  1  0  0  0
 59 60  1  0  0  0
 59 61  1  0  0  0
 59 62  1  0  0  0
 60133  1  0  0  0
 60134  1  0  0  0
 60135  1  0  0  0
 61136  1  0  0  0
 61137  1  0  0  0
 61138  1  0  0  0
 62139  1  0  0  0
 62140  1  0  0  0
 62141  1  0  0  0
 63 65  1  0  0  0
 63142  1  0  0  0
 63143  1  0  0  0
 63144  1  0  0  0
 64145  1  0  0  0
 65146  1  0  0  0
 68 82  1  0  0  0
 71 72  2  0  0  0
 71 75  1  0  0  0
 71147  1  0  0  0
 72 76  1  0  0  0
 72148  1  0  0  0
 73 74  1  0  0  0
 73 75  2  0  0  0
 73149  1  0  0  0
 74 76  2  0  0  0
 74 77  1  0  0  0
 75 85  1  0  0  0
 76 84  1  0  0  0
 77 83  1  0  0  0
 77 86  2  0  0  0
 78 79  1  0  0  0
 78 81  1  0  0  0
 78150  1  0  0  0
 78151  1  0  0  0
 79 83  1  0  0  0
 79152  1  0  0  0
 79153  1  0  0  0
 80 81  1  0  0  0
 80 83  1  0  0  0
 80154  1  0  0  0
 80155  1  0  0  0
 81 82  1  0  0  0
 81 87  1  0  0  0
 82156  1  0  0  0
 82157  1  0  0  0
 84158  1  0  0  0
 84159  1  0  0  0
 85160  1  0  0  0
 86161  1  0  0  0
 86162  1  0  0  0
 87163  1  0  0  0
M  CHG  1  86   1
M  ISO  4   1 100  68 101  82 101  85 100
M  END
> <chiral flag>
0

> <version>
0

> <s_m_source_file>
/data/baiqing/PycharmProjects/Reinvent-master-3.2/result/LINK_invent/BTK/process_docking_weight1_custom_product_contain_oxygen_bond_distance_aromatic_linkinvent_7_9_3/rearranged_h_0150.sdf

> <i_m_source_file_index>
22

> <r_mmod_Potential_Energy-OPLS-2005>
61.6874809265137

> <r_mmod_Stretch_Energy-OPLS-2005>
73.0296859741211

> <r_mmod_Bend_Energy-OPLS-2005>
182.281311035156

> <r_mmod_Torsional_Energy-OPLS-2005>
347.041168212891

> <r_mmod_Improper_Torsional_Energy-OPLS-2005>
14.3306913375854

> <r_mmod_Van_der_Waal_Energy-OPLS-2005>
152.839340209961

> <r_mmod_Electrostatic_Energy-OPLS-2005>
-312.408172607422

> <r_mmod_Solvation_Energy-OPLS-2005>
-434.839996337891

> <b_mmod_Minimization_Converged-OPLS-2005>
0

> <r_mmod_RMS_Derivative-OPLS-2005>
3.65653872489929

$$$$
22
                    3D
 Structure written by MMmdl.
170179  0  0  1  0            999 V2000
  -30.5979  -14.7624   20.4476 C   0  0  0  0  0  0
  -30.4304  -12.4618   19.4856 C   0  0  0  0  0  0
  -29.5153  -12.5089   18.2431 C   0  0  0  0  0  0
  -28.0388  -12.3390   18.6499 C   0  0  0  0  0  0
  -27.6445  -13.2341   19.8558 C   0  0  2  0  0  0
  -28.6836  -13.1664   20.9947 C   0  0  0  0  0  0
  -25.2520  -13.8196   20.5681 C   0  0  0  0  0  0
  -24.1813  -13.0440   20.9206 C   0  0  0  0  0  0
  -24.6395  -11.6918   20.8739 C   0  0  0  0  0  0
  -23.9063  -10.4298   21.0410 C   0  0  0  0  0  0
  -24.3615   -9.4204   21.9188 C   0  0  0  0  0  0
  -23.6307   -8.2226   22.0736 C   0  0  0  0  0  0
  -22.4286   -8.0280   21.3536 C   0  0  0  0  0  0
  -21.9917   -9.0247   20.4628 C   0  0  0  0  0  0
  -22.7232  -10.2135   20.3051 C   0  0  0  0  0  0
  -21.6852   -6.0743   22.5284 C   0  0  0  0  0  0
  -21.4008   -6.5635   23.8220 C   0  0  0  0  0  0
  -21.3660   -5.6786   24.9179 C   0  0  0  0  0  0
  -21.6051   -4.3050   24.7225 C   0  0  0  0  0  0
  -21.8825   -3.8143   23.4342 C   0  0  0  0  0  0
  -21.9184   -4.6971   22.3402 C   0  0  0  0  0  0
  -22.7833  -13.5226   21.1883 C   0  0  0  0  0  0
  -22.1661   -4.2151   21.0983 F   0  0  0  0  0  0
  -21.5628   -3.4537   25.7739 F   0  0  0  0  0  0
  -29.9866  -13.5260   20.4209 N   0  0  0  0  0  0
  -26.2944  -12.9410   20.3275 N   0  0  0  0  0  0
  -25.9327  -11.6548   20.5734 N   0  0  0  0  0  0
  -22.0466  -12.8227   22.0438 N   0  0  0  0  0  0
  -25.4243  -15.1914   20.4096 N   0  0  0  0  0  0
  -31.7802  -14.8500   20.0977 O   0  0  0  0  0  0
  -21.6636   -6.8887   21.4247 O   0  0  0  0  0  0
  -22.3528  -14.5537   20.6729 O   0  0  0  0  0  0
  -24.6348  -31.8556   23.1990 C   0  0  0  0  0  0
  -25.9161  -32.4757   23.8352 C   0  0  1  0  0  0
  -27.2118  -27.2457   20.1273 C   0  0  0  0  0  0
  -25.5951  -33.8560   24.2268 N   0  0  0  0  0  0
  -23.4319  -30.4801   21.5442 C   0  0  2  0  0  0
  -24.8757  -28.9288   20.1138 C   0  0  0  0  0  0
  -22.7534  -29.4611   22.4916 C   0  0  0  0  0  0
  -18.0297  -28.1384   22.8482 C   0  0  0  0  0  0
  -24.1495  -36.7277   23.2642 C   0  0  0  0  0  0
  -25.9819  -30.7636   21.3826 C   0  0  0  0  0  0
  -26.0524  -29.3870   20.7191 C   0  0  0  0  0  0
  -27.2249  -28.5606   20.7097 C   0  0  0  0  0  0
  -26.0013  -26.8582   19.5041 C   0  0  0  0  0  0
  -24.8551  -27.6718   19.4973 C   0  0  0  0  0  0
  -23.6507  -29.8195   20.1600 C   0  0  0  0  0  0
  -25.4118  -36.3073   24.0335 C   0  0  1  0  0  0
  -20.5908  -28.3698   23.1267 C   0  0  2  0  0  0
  -20.6785  -26.9408   22.5415 C   0  0  0  0  0  0
  -19.5762  -26.6370   21.5219 C   0  0  0  0  0  0
  -18.1938  -26.7932   22.1615 C   0  0  0  0  0  0
  -19.1549  -28.8856   23.2872 C   0  0  0  0  0  0
  -18.9465  -30.1454   23.8891 C   0  0  0  0  0  0
  -17.6460  -30.6582   24.0553 C   0  0  0  0  0  0
  -25.9059  -34.9443   23.5102 C   0  0  0  0  0  0
  -16.5352  -29.9070   23.6331 C   0  0  0  0  0  0
  -16.7284  -28.6487   23.0362 C   0  0  0  0  0  0
  -26.4490  -31.6602   25.0766 C   0  0  0  0  0  0
  -25.3691  -31.3778   26.1481 C   0  0  0  0  0  0
  -27.0316  -30.3005   24.6286 C   0  0  0  0  0  0
  -27.6066  -32.4333   25.7512 C   0  0  0  0  0  0
  -27.5591  -37.1784   24.8450 C   0  0  0  0  0  0
  -21.4240  -29.3043   22.3659 N   0  0  0  0  0  0
  -26.4286  -37.3778   23.9417 N   0  0  0  0  0  0
  -24.7022  -31.0521   22.0967 N   0  0  0  0  0  0
  -23.4229  -28.8149   23.3013 O   0  0  0  0  0  0
  -28.2988  -26.3326   20.1828 O   0  0  0  0  0  0
  -26.5633  -34.8919   22.4670 O   0  0  0  0  0  0
  -23.5492  -32.1373   23.7277 O   0  0  0  0  0  0
  -29.4991  -18.4804   20.7145 C   0  0  0  0  0  0
  -29.8223  -19.6970   19.9225 C   0  0  0  0  0  0
  -30.5814  -19.3135   18.8129 C   0  0  0  0  0  0
  -29.9863  -17.2309   20.2630 C   0  0  0  0  0  0
  -30.3249  -24.0680   19.2369 C   0  0  0  0  0  0
  -29.5272  -23.2371   21.5281 C   0  0  0  0  0  0
  -30.0855  -21.7733   21.4632 C   0  0  0  0  0  0
  -28.6067  -22.1581   19.7020 C   0  0  0  0  0  0
  -29.1075  -23.6419   20.0925 C   0  0  2  0  0  0
  -30.1129  -24.3096   17.7464 C   0  0  0  0  0  0
  -32.2567  -21.1312   18.3114 C   0  0  0  0  0  0
  -30.2637  -20.8130   16.7658 C   0  0  0  0  0  0
  -32.1263  -19.2398   16.7586 C   0  0  0  0  0  0
  -28.0277  -24.8604   19.9606 C   0  0  0  0  0  0
  -31.2684  -20.1217   17.7052 C   0  0  0  0  0  0
  -29.4572  -21.0832   20.3315 N   0  0  0  0  0  0
  -29.8456  -15.9033   20.7326 N   0  0  0  0  0  0
  -31.4412  -24.2608   19.7284 O   0  0  0  0  0  0
  -30.8277  -17.5589   18.7806 S   0  0  0  0  0  0
  -31.4723  -12.5837   19.1866 H   0  0  0  0  0  0
  -30.3729  -11.4837   19.9643 H   0  0  0  0  0  0
  -29.7999  -11.7257   17.5396 H   0  0  0  0  0  0
  -29.6493  -13.4552   17.7162 H   0  0  0  0  0  0
  -27.8903  -11.2903   18.9079 H   0  0  0  0  0  0
  -27.3812  -12.5392   17.8026 H   0  0  0  0  0  0
  -27.6436  -14.2583   19.4832 H   0  0  0  0  0  0
  -28.7199  -12.1662   21.4269 H   0  0  0  0  0  0
  -28.4093  -13.8382   21.8092 H   0  0  0  0  0  0
  -25.2763   -9.5677   22.4759 H   0  0  0  0  0  0
  -24.0024   -7.4614   22.7441 H   0  0  0  0  0  0
  -21.0841   -8.8755   19.8947 H   0  0  0  0  0  0
  -22.3686  -10.9670   19.6152 H   0  0  0  0  0  0
  -21.2000   -7.6151   23.9734 H   0  0  0  0  0  0
  -21.1477   -6.0507   25.9089 H   0  0  0  0  0  0
  -22.0599   -2.7609   23.2828 H   0  0  0  0  0  0
  -22.4081  -11.9904   22.4861 H   0  0  0  0  0  0
  -21.1074  -13.1239   22.2606 H   0  0  0  0  0  0
  -24.6628  -15.8491   20.5376 H   0  0  0  0  0  0
  -26.2685  -15.6248   20.0555 H   0  0  0  0  0  0
  -26.7237  -32.5394   23.1101 H   0  0  0  0  0  0
  -25.0109  -33.9693   25.0423 H   0  0  0  0  0  0
  -22.7290  -31.3026   21.3992 H   0  0  0  0  0  0
  -23.3777  -35.9587   23.3270 H   0  0  0  0  0  0
  -24.3592  -36.8929   22.2063 H   0  0  0  0  0  0
  -23.7212  -37.6454   23.6679 H   0  0  0  0  0  0
  -26.1324  -31.5266   20.6176 H   0  0  0  0  0  0
  -26.8561  -30.8048   22.0212 H   0  0  0  0  0  0
  -28.1265  -28.9076   21.1959 H   0  0  0  0  0  0
  -25.8862  -25.8959   19.0319 H   0  0  0  0  0  0
  -23.9490  -27.3116   19.0294 H   0  0  0  0  0  0
  -23.7828  -30.5962   19.4057 H   0  0  0  0  0  0
  -22.7681  -29.2571   19.8515 H   0  0  0  0  0  0
  -25.1295  -36.1917   25.0826 H   0  0  0  0  0  0
  -20.9999  -28.3269   24.1388 H   0  0  0  0  0  0
  -20.5672  -26.2308   23.3626 H   0  0  0  0  0  0
  -21.6658  -26.7423   22.1213 H   0  0  0  0  0  0
  -19.6920  -25.6271   21.1266 H   0  0  0  0  0  0
  -19.6713  -27.3165   20.6735 H   0  0  0  0  0  0
  -17.4225  -26.6706   21.3999 H   0  0  0  0  0  0
  -18.0305  -26.0064   22.8992 H   0  0  0  0  0  0
  -19.7935  -30.7273   24.2278 H   0  0  0  0  0  0
  -17.5005  -31.6265   24.5145 H   0  0  0  0  0  0
  -15.5348  -30.2963   23.7655 H   0  0  0  0  0  0
  -15.8688  -28.0791   22.7095 H   0  0  0  0  0  0
  -24.5908  -30.7066   25.7821 H   0  0  0  0  0  0
  -24.8824  -32.2950   26.4816 H   0  0  0  0  0  0
  -25.8001  -30.9042   27.0315 H   0  0  0  0  0  0
  -26.2904  -29.6772   24.1274 H   0  0  0  0  0  0
  -27.3913  -29.7262   25.4832 H   0  0  0  0  0  0
  -27.8829  -30.4241   23.9591 H   0  0  0  0  0  0
  -27.2702  -33.3634   26.2103 H   0  0  0  0  0  0
  -28.3859  -32.6895   25.0322 H   0  0  0  0  0  0
  -28.0769  -31.8460   26.5408 H   0  0  0  0  0  0
  -28.2589  -38.0102   24.7540 H   0  0  0  0  0  0
  -28.1109  -36.2641   24.6211 H   0  0  0  0  0  0
  -27.2334  -37.1362   25.8858 H   0  0  0  0  0  0
  -20.9435  -29.8766   21.6860 H   0  0  0  0  0  0
  -26.0171  -38.2848   24.1441 H   0  0  0  0  0  0
  -28.9118  -18.5783   21.6166 H   0  0  0  0  0  0
  -30.2430  -23.9263   21.9791 H   0  0  0  0  0  0
  -28.6482  -23.2518   22.1731 H   0  0  0  0  0  0
  -29.9043  -21.2466   22.4022 H   0  0  0  0  0  0
  -31.1657  -21.7950   21.3112 H   0  0  0  0  0  0
  -28.4350  -22.0352   18.6407 H   0  0  0  0  0  0
  -27.6097  -22.0302   20.1279 H   0  0  0  0  0  0
  -29.1339  -23.9612   17.4211 H   0  0  0  0  0  0
  -30.8739  -23.7862   17.1692 H   0  0  0  0  0  0
  -30.1890  -25.3755   17.5309 H   0  0  0  0  0  0
  -31.7838  -21.7604   19.0548 H   0  0  0  0  0  0
  -32.6822  -21.7859   17.5497 H   0  0  0  0  0  0
  -33.0823  -20.6256   18.8128 H   0  0  0  0  0  0
  -29.7344  -21.6145   17.2498 H   0  0  0  0  0  0
  -29.5284  -20.1110   16.3710 H   0  0  0  0  0  0
  -30.7587  -21.2770   15.9123 H   0  0  0  0  0  0
  -32.9136  -18.7063   17.2923 H   0  0  0  0  0  0
  -32.6266  -19.8386   15.9961 H   0  0  0  0  0  0
  -31.5217  -18.5044   16.2251 H   0  0  0  0  0  0
  -27.1781  -24.5894   20.5874 H   0  0  0  0  0  0
  -27.6612  -24.7828   18.9371 H   0  0  0  0  0  0
  -28.9866  -15.7149   21.2288 H   0  0  0  0  0  0
  1 25  1  0  0  0
  1 30  2  0  0  0
  1 87  1  0  0  0
  2  3  1  0  0  0
  2 25  1  0  0  0
  2 90  1  0  0  0
  2 91  1  0  0  0
  3  4  1  0  0  0
  3 92  1  0  0  0
  3 93  1  0  0  0
  4  5  1  0  0  0
  4 94  1  0  0  0
  4 95  1  0  0  0
  5  6  1  0  0  0
  5 26  1  0  0  0
  5 96  1  0  0  0
  6 25  1  0  0  0
  6 97  1  0  0  0
  6 98  1  0  0  0
  7  8  2  0  0  0
  7 26  1  0  0  0
  7 29  1  0  0  0
  8  9  1  0  0  0
  8 22  1  0  0  0
  9 10  1  0  0  0
  9 27  2  0  0  0
 10 11  2  0  0  0
 10 15  1  0  0  0
 11 12  1  0  0  0
 11 99  1  0  0  0
 12 13  2  0  0  0
 12100  1  0  0  0
 13 14  1  0  0  0
 13 31  1  0  0  0
 14 15  2  0  0  0
 14101  1  0  0  0
 15102  1  0  0  0
 16 17  2  0  0  0
 16 21  1  0  0  0
 16 31  1  0  0  0
 17 18  1  0  0  0
 17103  1  0  0  0
 18 19  2  0  0  0
 18104  1  0  0  0
 19 20  1  0  0  0
 19 24  1  0  0  0
 20 21  2  0  0  0
 20105  1  0  0  0
 21 23  1  0  0  0
 22 28  1  0  0  0
 22 32  2  0  0  0
 26 27  1  0  0  0
 28106  1  0  0  0
 28107  1  0  0  0
 29108  1  0  0  0
 29109  1  0  0  0
 33 34  1  0  0  0
 33 66  1  0  0  0
 33 70  2  0  0  0
 34 36  1  0  0  0
 34 59  1  0  0  0
 34110  1  0  0  0
 35 44  2  0  0  0
 35 45  1  0  0  0
 35 68  1  0  0  0
 36 56  1  0  0  0
 36111  1  0  0  0
 37 39  1  0  0  0
 37 47  1  0  0  0
 37 66  1  0  0  0
 37112  1  0  0  0
 38 43  2  0  0  0
 38 46  1  0  0  0
 38 47  1  0  0  0
 39 64  1  0  0  0
 39 67  2  0  0  0
 40 52  1  0  0  0
 40 53  2  0  0  0
 40 58  1  0  0  0
 41113  1  0  0  0
 41114  1  0  0  0
 41115  1  0  0  0
 41 48  1  0  0  0
 42 43  1  0  0  0
 42 66  1  0  0  0
 42116  1  0  0  0
 42117  1  0  0  0
 43 44  1  0  0  0
 44118  1  0  0  0
 45 46  2  0  0  0
 45119  1  0  0  0
 46120  1  0  0  0
 47121  1  0  0  0
 47122  1  0  0  0
 48 56  1  0  0  0
 48 65  1  0  0  0
 48123  1  0  0  0
 49 50  1  0  0  0
 49 53  1  0  0  0
 49 64  1  0  0  0
 49124  1  0  0  0
 50 51  1  0  0  0
 50125  1  0  0  0
 50126  1  0  0  0
 51 52  1  0  0  0
 51127  1  0  0  0
 51128  1  0  0  0
 52129  1  0  0  0
 52130  1  0  0  0
 53 54  1  0  0  0
 54 55  2  0  0  0
 54131  1  0  0  0
 55 57  1  0  0  0
 55132  1  0  0  0
 56 69  2  0  0  0
 57 58  2  0  0  0
 57133  1  0  0  0
 58134  1  0  0  0
 59 60  1  0  0  0
 59 61  1  0  0  0
 59 62  1  0  0  0
 60135  1  0  0  0
 60136  1  0  0  0
 60137  1  0  0  0
 61138  1  0  0  0
 61139  1  0  0  0
 61140  1  0  0  0
 62141  1  0  0  0
 62142  1  0  0  0
 62143  1  0  0  0
 63 65  1  0  0  0
 63144  1  0  0  0
 63145  1  0  0  0
 63146  1  0  0  0
 64147  1  0  0  0
 65148  1  0  0  0
 68 84  1  0  0  0
 71 72  1  0  0  0
 71 74  2  0  0  0
 71149  1  0  0  0
 72 73  2  0  0  0
 72 86  1  0  0  0
 73 85  1  0  0  0
 73 89  1  0  0  0
 74 87  1  0  0  0
 74 89  1  0  0  0
 75 80  1  0  0  0
 75 88  2  0  0  0
 75 79  1  0  0  0
 76 77  1  0  0  0
 76 79  1  0  0  0
 76150  1  0  0  0
 76151  1  0  0  0
 77 86  1  0  0  0
 77152  1  0  0  0
 77153  1  0  0  0
 78 79  1  0  0  0
 78 86  1  0  0  0
 78154  1  0  0  0
 78155  1  0  0  0
 79 84  1  0  0  0
 80156  1  0  0  0
 80157  1  0  0  0
 80158  1  0  0  0
 81159  1  0  0  0
 81160  1  0  0  0
 81161  1  0  0  0
 81 85  1  0  0  0
 82 85  1  0  0  0
 82162  1  0  0  0
 82163  1  0  0  0
 82164  1  0  0  0
 83 85  1  0  0  0
 83165  1  0  0  0
 83166  1  0  0  0
 83167  1  0  0  0
 84168  1  0  0  0
 84169  1  0  0  0
 87170  1  0  0  0
M  ISO  4   1 100  68 101  84 101  87 100
M  END
> <chiral flag>
0

> <version>
0

> <s_m_source_file>
/data/baiqing/PycharmProjects/Reinvent-master-3.2/result/LINK_invent/BTK/process_docking_weight1_custom_product_contain_oxygen_bond_distance_aromatic_linkinvent_7_9_3/rearranged_h_0150.sdf

> <i_m_source_file_index>
23

> <r_mmod_Potential_Energy-OPLS-2005>
315.63720703125

> <r_mmod_Stretch_Energy-OPLS-2005>
138.309417724609

> <r_mmod_Bend_Energy-OPLS-2005>
238.092498779297

> <r_mmod_Torsional_Energy-OPLS-2005>
266.031555175781

> <r_mmod_Improper_Torsional_Energy-OPLS-2005>
4.27367353439331

> <r_mmod_Van_der_Waal_Energy-OPLS-2005>
129.457611083984

> <r_mmod_Electrostatic_Energy-OPLS-2005>
-323.353668212891

> <r_mmod_Solvation_Energy-OPLS-2005>
-230.956848144531

> <b_mmod_Minimization_Converged-OPLS-2005>
0

> <r_mmod_RMS_Derivative-OPLS-2005>
2.31941890716553

$$$$
23
                    3D
 Structure written by MMmdl.
160169  0  0  1  0            999 V2000
  -30.6748  -14.6182   20.4880 C   0  0  0  0  0  0
  -30.4262  -12.3789   19.4488 C   0  0  0  0  0  0
  -29.5008  -12.4992   18.2191 C   0  0  0  0  0  0
  -28.0236  -12.3442   18.6326 C   0  0  0  0  0  0
  -27.6508  -13.2233   19.8571 C   0  0  2  0  0  0
  -28.6996  -13.1073   20.9873 C   0  0  0  0  0  0
  -25.2545  -13.8183   20.5700 C   0  0  0  0  0  0
  -24.1826  -13.0436   20.9191 C   0  0  0  0  0  0
  -24.6397  -11.6911   20.8722 C   0  0  0  0  0  0
  -23.9067  -10.4287   21.0387 C   0  0  0  0  0  0
  -24.3609   -9.4201   21.9171 C   0  0  0  0  0  0
  -23.6290   -8.2231   22.0750 C   0  0  0  0  0  0
  -22.4266   -8.0266   21.3537 C   0  0  0  0  0  0
  -21.9900   -9.0247   20.4641 C   0  0  0  0  0  0
  -22.7232  -10.2126   20.3042 C   0  0  0  0  0  0
  -21.6853   -6.0732   22.5286 C   0  0  0  0  0  0
  -21.4020   -6.5637   23.8221 C   0  0  0  0  0  0
  -21.3655   -5.6791   24.9185 C   0  0  0  0  0  0
  -21.6042   -4.3058   24.7232 C   0  0  0  0  0  0
  -21.8818   -3.8151   23.4352 C   0  0  0  0  0  0
  -21.9187   -4.6963   22.3402 C   0  0  0  0  0  0
  -22.7840  -13.5227   21.1844 C   0  0  0  0  0  0
  -22.1639   -4.2153   21.0977 F   0  0  0  0  0  0
  -21.5633   -3.4532   25.7741 F   0  0  0  0  0  0
  -30.0131  -13.4219   20.4072 N   0  0  0  0  0  0
  -26.2991  -12.9391   20.3320 N   0  0  0  0  0  0
  -25.9339  -11.6538   20.5774 N   0  0  0  0  0  0
  -22.0471  -12.8245   22.0410 N   0  0  0  0  0  0
  -25.4238  -15.1909   20.4119 N   0  0  0  0  0  0
  -31.8596  -14.7068   20.1536 O   0  0  0  0  0  0
  -21.6606   -6.8879   21.4253 O   0  0  0  0  0  0
  -22.3540  -14.5526   20.6664 O   0  0  0  0  0  0
  -24.6254  -31.8634   23.2067 C   0  0  0  0  0  0
  -25.9121  -32.4795   23.8383 C   0  0  1  0  0  0
  -27.2199  -27.3318   20.0942 C   0  0  0  0  0  0
  -25.5940  -33.8598   24.2298 N   0  0  0  0  0  0
  -23.4173  -30.4922   21.5484 C   0  0  2  0  0  0
  -24.8611  -28.9533   20.1123 C   0  0  0  0  0  0
  -22.7477  -29.4651   22.4929 C   0  0  0  0  0  0
  -18.0292  -28.1382   22.8484 C   0  0  0  0  0  0
  -24.1492  -36.7293   23.2639 C   0  0  0  0  0  0
  -25.9620  -30.7931   21.3812 C   0  0  0  0  0  0
  -26.0321  -29.4239   20.7186 C   0  0  0  0  0  0
  -27.2122  -28.6229   20.7066 C   0  0  0  0  0  0
  -26.0189  -26.9208   19.4619 C   0  0  0  0  0  0
  -24.8546  -27.7034   19.4819 C   0  0  0  0  0  0
  -23.6321  -29.8343   20.1618 C   0  0  0  0  0  0
  -25.4116  -36.3092   24.0329 C   0  0  1  0  0  0
  -20.5896  -28.3697   23.1271 C   0  0  2  0  0  0
  -20.6776  -26.9421   22.5401 C   0  0  0  0  0  0
  -19.5754  -26.6387   21.5201 C   0  0  0  0  0  0
  -18.1936  -26.7924   22.1612 C   0  0  0  0  0  0
  -19.1546  -28.8854   23.2873 C   0  0  0  0  0  0
  -18.9468  -30.1452   23.8907 C   0  0  0  0  0  0
  -17.6470  -30.6592   24.0559 C   0  0  0  0  0  0
  -25.9060  -34.9461   23.5109 C   0  0  0  0  0  0
  -16.5361  -29.9098   23.6320 C   0  0  0  0  0  0
  -16.7281  -28.6503   23.0360 C   0  0  0  0  0  0
  -26.4497  -31.6615   25.0767 C   0  0  0  0  0  0
  -25.3726  -31.3744   26.1492 C   0  0  0  0  0  0
  -27.0335  -30.3040   24.6235 C   0  0  0  0  0  0
  -27.6069  -32.4340   25.7535 C   0  0  0  0  0  0
  -27.5582  -37.1810   24.8467 C   0  0  0  0  0  0
  -21.4188  -29.3058   22.3672 N   0  0  0  0  0  0
  -26.4297  -37.3788   23.9407 N   0  0  0  0  0  0
  -24.6869  -31.0661   22.1012 N   0  0  0  0  0  0
  -23.4209  -28.8172   23.2985 O   0  0  0  0  0  0
  -28.3409  -26.4833   20.1393 O   0  0  0  0  0  0
  -26.5629  -34.8929   22.4679 O   0  0  0  0  0  0
  -23.5418  -32.1441   23.7392 O   0  0  0  0  0  0
  -29.4417  -18.2794   20.5278 C   0  0  0  0  0  0
  -31.5914  -17.5566   21.1022 C   0  0  0  0  0  0
  -30.3246  -17.1447   20.7713 C   0  0  0  0  0  0
  -30.0456  -19.5296   20.6749 C   0  0  0  0  0  0
  -28.7252  -22.7019   18.9551 C   0  0  0  0  0  0
  -29.2152  -23.2785   21.2847 C   0  0  0  0  0  0
  -29.5216  -21.3692   19.1205 C   0  0  0  0  0  0
  -30.0013  -21.9248   21.4020 C   0  0  0  0  0  0
  -29.1857  -23.8943   19.8532 C   0  0  0  0  0  0
  -31.1591  -25.3289   19.9375 C   0  0  0  0  0  0
  -28.1674  -25.1064   19.6354 C   0  0  0  0  0  0
  -29.5273  -20.8560   20.4952 N   0  0  0  0  0  0
  -29.9198  -15.7389   20.7208 N   0  0  0  0  0  0
  -30.5014  -24.1999   19.3738 O   0  0  0  0  0  0
  -31.7240  -19.3020   21.1351 S   0  0  0  0  0  0
  -31.4697  -12.4782   19.1458 H   0  0  0  0  0  0
  -30.3429  -11.3910   19.9046 H   0  0  0  0  0  0
  -29.7637  -11.7447   17.4758 H   0  0  0  0  0  0
  -29.6449  -13.4676   17.7390 H   0  0  0  0  0  0
  -27.8527  -11.2919   18.8632 H   0  0  0  0  0  0
  -27.3701  -12.5776   17.7910 H   0  0  0  0  0  0
  -27.6638  -14.2538   19.5015 H   0  0  0  0  0  0
  -28.7048  -12.1000   21.4072 H   0  0  0  0  0  0
  -28.4565  -13.7769   21.8151 H   0  0  0  0  0  0
  -25.2741   -9.5690   22.4764 H   0  0  0  0  0  0
  -23.9995   -7.4629   22.7482 H   0  0  0  0  0  0
  -21.0820   -8.8770   19.8969 H   0  0  0  0  0  0
  -22.3680  -10.9658   19.6148 H   0  0  0  0  0  0
  -21.2023   -7.6150   23.9718 H   0  0  0  0  0  0
  -21.1469   -6.0527   25.9085 H   0  0  0  0  0  0
  -22.0602   -2.7614   23.2842 H   0  0  0  0  0  0
  -22.4066  -11.9901   22.4807 H   0  0  0  0  0  0
  -21.1099  -13.1307   22.2594 H   0  0  0  0  0  0
  -24.6528  -15.8392   20.5292 H   0  0  0  0  0  0
  -26.2702  -15.6378   20.0844 H   0  0  0  0  0  0
  -26.7191  -32.5466   23.1122 H   0  0  0  0  0  0
  -25.0083  -33.9743   25.0439 H   0  0  0  0  0  0
  -22.7099  -31.3127   21.4076 H   0  0  0  0  0  0
  -23.3754  -35.9628   23.3306 H   0  0  0  0  0  0
  -24.3579  -36.8915   22.2055 H   0  0  0  0  0  0
  -23.7252  -37.6500   23.6655 H   0  0  0  0  0  0
  -26.1038  -31.5576   20.6157 H   0  0  0  0  0  0
  -26.8391  -30.8321   22.0157 H   0  0  0  0  0  0
  -28.1098  -28.9797   21.1919 H   0  0  0  0  0  0
  -25.9270  -25.9780   18.9456 H   0  0  0  0  0  0
  -23.9557  -27.3359   19.0057 H   0  0  0  0  0  0
  -23.7577  -30.6148   19.4107 H   0  0  0  0  0  0
  -22.7510  -29.2689   19.8521 H   0  0  0  0  0  0
  -25.1285  -36.1941   25.0822 H   0  0  0  0  0  0
  -20.9992  -28.3274   24.1389 H   0  0  0  0  0  0
  -20.5667  -26.2315   23.3604 H   0  0  0  0  0  0
  -21.6642  -26.7448   22.1199 H   0  0  0  0  0  0
  -19.6915  -25.6291   21.1253 H   0  0  0  0  0  0
  -19.6691  -27.3182   20.6718 H   0  0  0  0  0  0
  -17.4203  -26.6680   21.4018 H   0  0  0  0  0  0
  -18.0342  -26.0066   22.9009 H   0  0  0  0  0  0
  -19.7954  -30.7252   24.2296 H   0  0  0  0  0  0
  -17.5039  -31.6279   24.5147 H   0  0  0  0  0  0
  -15.5366  -30.3004   23.7644 H   0  0  0  0  0  0
  -15.8673  -28.0821   22.7085 H   0  0  0  0  0  0
  -24.5887  -30.7111   25.7810 H   0  0  0  0  0  0
  -24.8925  -32.2908   26.4951 H   0  0  0  0  0  0
  -25.8051  -30.8894   27.0258 H   0  0  0  0  0  0
  -26.2914  -29.6807   24.1240 H   0  0  0  0  0  0
  -27.3997  -29.7289   25.4751 H   0  0  0  0  0  0
  -27.8804  -30.4309   23.9484 H   0  0  0  0  0  0
  -27.2692  -33.3627   26.2144 H   0  0  0  0  0  0
  -28.3876  -32.6936   25.0367 H   0  0  0  0  0  0
  -28.0756  -31.8455   26.5435 H   0  0  0  0  0  0
  -28.2606  -38.0103   24.7504 H   0  0  0  0  0  0
  -28.1067  -36.2636   24.6285 H   0  0  0  0  0  0
  -27.2296  -37.1452   25.8871 H   0  0  0  0  0  0
  -20.9373  -29.8804   21.6899 H   0  0  0  0  0  0
  -26.0171  -38.2865   24.1401 H   0  0  0  0  0  0
  -28.4067  -18.1408   20.2513 H   0  0  0  0  0  0
  -32.4629  -16.9568   21.3361 H   0  0  0  0  0  0
  -27.6709  -22.4963   19.1463 H   0  0  0  0  0  0
  -28.7736  -23.0008   17.9061 H   0  0  0  0  0  0
  -29.6254  -23.9972   21.9925 H   0  0  0  0  0  0
  -28.1902  -23.1118   21.6178 H   0  0  0  0  0  0
  -30.5529  -21.5218   18.7965 H   0  0  0  0  0  0
  -29.1022  -20.6151   18.4523 H   0  0  0  0  0  0
  -29.9441  -21.5695   22.4328 H   0  0  0  0  0  0
  -31.0572  -22.1210   21.2051 H   0  0  0  0  0  0
  -32.2067  -25.3108   19.6371 H   0  0  0  0  0  0
  -31.1352  -25.3368   21.0268 H   0  0  0  0  0  0
  -30.7384  -26.2615   19.5646 H   0  0  0  0  0  0
  -28.0285  -25.2084   18.5583 H   0  0  0  0  0  0
  -27.2273  -24.7225   20.0326 H   0  0  0  0  0  0
  -28.9313  -15.5623   20.8110 H   0  0  0  0  0  0
  1 25  1  0  0  0
  1 30  2  0  0  0
  1 83  1  0  0  0
  2  3  1  0  0  0
  2 25  1  0  0  0
  2 86  1  0  0  0
  2 87  1  0  0  0
  3  4  1  0  0  0
  3 88  1  0  0  0
  3 89  1  0  0  0
  4  5  1  0  0  0
  4 90  1  0  0  0
  4 91  1  0  0  0
  5  6  1  0  0  0
  5 26  1  0  0  0
  5 92  1  0  0  0
  6 25  1  0  0  0
  6 93  1  0  0  0
  6 94  1  0  0  0
  7  8  2  0  0  0
  7 26  1  0  0  0
  7 29  1  0  0  0
  8  9  1  0  0  0
  8 22  1  0  0  0
  9 10  1  0  0  0
  9 27  2  0  0  0
 10 11  2  0  0  0
 10 15  1  0  0  0
 11 12  1  0  0  0
 11 95  1  0  0  0
 12 13  2  0  0  0
 12 96  1  0  0  0
 13 14  1  0  0  0
 13 31  1  0  0  0
 14 15  2  0  0  0
 14 97  1  0  0  0
 15 98  1  0  0  0
 16 17  2  0  0  0
 16 21  1  0  0  0
 16 31  1  0  0  0
 17 18  1  0  0  0
 17 99  1  0  0  0
 18 19  2  0  0  0
 18100  1  0  0  0
 19 20  1  0  0  0
 19 24  1  0  0  0
 20 21  2  0  0  0
 20101  1  0  0  0
 21 23  1  0  0  0
 22 28  1  0  0  0
 22 32  2  0  0  0
 26 27  1  0  0  0
 28102  1  0  0  0
 28103  1  0  0  0
 29104  1  0  0  0
 29105  1  0  0  0
 33 34  1  0  0  0
 33 66  1  0  0  0
 33 70  2  0  0  0
 34 36  1  0  0  0
 34 59  1  0  0  0
 34106  1  0  0  0
 35 44  2  0  0  0
 35 45  1  0  0  0
 35 68  1  0  0  0
 36 56  1  0  0  0
 36107  1  0  0  0
 37 39  1  0  0  0
 37 47  1  0  0  0
 37 66  1  0  0  0
 37108  1  0  0  0
 38 43  2  0  0  0
 38 46  1  0  0  0
 38 47  1  0  0  0
 39 64  1  0  0  0
 39 67  2  0  0  0
 40 52  1  0  0  0
 40 53  2  0  0  0
 40 58  1  0  0  0
 41109  1  0  0  0
 41110  1  0  0  0
 41111  1  0  0  0
 41 48  1  0  0  0
 42 43  1  0  0  0
 42 66  1  0  0  0
 42112  1  0  0  0
 42113  1  0  0  0
 43 44  1  0  0  0
 44114  1  0  0  0
 45 46  2  0  0  0
 45115  1  0  0  0
 46116  1  0  0  0
 47117  1  0  0  0
 47118  1  0  0  0
 48 56  1  0  0  0
 48 65  1  0  0  0
 48119  1  0  0  0
 49 50  1  0  0  0
 49 53  1  0  0  0
 49 64  1  0  0  0
 49120  1  0  0  0
 50 51  1  0  0  0
 50121  1  0  0  0
 50122  1  0  0  0
 51 52  1  0  0  0
 51123  1  0  0  0
 51124  1  0  0  0
 52125  1  0  0  0
 52126  1  0  0  0
 53 54  1  0  0  0
 54 55  2  0  0  0
 54127  1  0  0  0
 55 57  1  0  0  0
 55128  1  0  0  0
 56 69  2  0  0  0
 57 58  2  0  0  0
 57129  1  0  0  0
 58130  1  0  0  0
 59 60  1  0  0  0
 59 61  1  0  0  0
 59 62  1  0  0  0
 60131  1  0  0  0
 60132  1  0  0  0
 60133  1  0  0  0
 61134  1  0  0  0
 61135  1  0  0  0
 61136  1  0  0  0
 62137  1  0  0  0
 62138  1  0  0  0
 62139  1  0  0  0
 63 65  1  0  0  0
 63140  1  0  0  0
 63141  1  0  0  0
 63142  1  0  0  0
 64143  1  0  0  0
 65144  1  0  0  0
 68 81  1  0  0  0
 71 73  1  0  0  0
 71 74  2  0  0  0
 71145  1  0  0  0
 72 73  2  0  0  0
 72 85  1  0  0  0
 72146  1  0  0  0
 73 83  1  0  0  0
 74 82  1  0  0  0
 74 85  1  0  0  0
 75 77  1  0  0  0
 75 79  1  0  0  0
 75147  1  0  0  0
 75148  1  0  0  0
 76 78  1  0  0  0
 76 79  1  0  0  0
 76149  1  0  0  0
 76150  1  0  0  0
 77 82  1  0  0  0
 77151  1  0  0  0
 77152  1  0  0  0
 78 82  1  0  0  0
 78153  1  0  0  0
 78154  1  0  0  0
 79 81  1  0  0  0
 79 84  1  0  0  0
 80 84  1  0  0  0
 80155  1  0  0  0
 80156  1  0  0  0
 80157  1  0  0  0
 81158  1  0  0  0
 81159  1  0  0  0
 83160  1  0  0  0
M  ISO  4   1 100  68 101  81 101  83 100
M  END
> <chiral flag>
0

> <version>
0

> <s_m_source_file>
/data/baiqing/PycharmProjects/Reinvent-master-3.2/result/LINK_invent/BTK/process_docking_weight1_custom_product_contain_oxygen_bond_distance_aromatic_linkinvent_7_9_3/rearranged_h_0150.sdf

> <i_m_source_file_index>
24

> <r_mmod_Potential_Energy-OPLS-2005>
103.352432250977

> <r_mmod_Stretch_Energy-OPLS-2005>
73.1743469238281

> <r_mmod_Bend_Energy-OPLS-2005>
149.836441040039

> <r_mmod_Torsional_Energy-OPLS-2005>
260.280395507812

> <r_mmod_Improper_Torsional_Energy-OPLS-2005>
9.77541828155518

> <r_mmod_Van_der_Waal_Energy-OPLS-2005>
141.165618896484

> <r_mmod_Electrostatic_Energy-OPLS-2005>
-344.163665771484

> <r_mmod_Solvation_Energy-OPLS-2005>
-232.15544128418

> <b_mmod_Minimization_Converged-OPLS-2005>
0

> <r_mmod_RMS_Derivative-OPLS-2005>
2.24060082435608

$$$$
24
                    3D
 Structure written by MMmdl.
158167  0  0  1  0            999 V2000
  -30.6122  -14.7261   20.4593 C   0  0  0  0  0  0
  -30.4325  -12.4405   19.4721 C   0  0  0  0  0  0
  -29.5097  -12.5051   18.2348 C   0  0  0  0  0  0
  -28.0351  -12.3319   18.6480 C   0  0  0  0  0  0
  -27.6436  -13.2286   19.8529 C   0  0  2  0  0  0
  -28.6880  -13.1501   20.9883 C   0  0  0  0  0  0
  -25.2519  -13.8192   20.5692 C   0  0  0  0  0  0
  -24.1807  -13.0442   20.9208 C   0  0  0  0  0  0
  -24.6393  -11.6918   20.8749 C   0  0  0  0  0  0
  -23.9069  -10.4295   21.0410 C   0  0  0  0  0  0
  -24.3621   -9.4208   21.9185 C   0  0  0  0  0  0
  -23.6296   -8.2243   22.0754 C   0  0  0  0  0  0
  -22.4278   -8.0282   21.3544 C   0  0  0  0  0  0
  -21.9914   -9.0255   20.4647 C   0  0  0  0  0  0
  -22.7242  -10.2135   20.3057 C   0  0  0  0  0  0
  -21.6853   -6.0737   22.5280 C   0  0  0  0  0  0
  -21.4013   -6.5641   23.8213 C   0  0  0  0  0  0
  -21.3658   -5.6793   24.9175 C   0  0  0  0  0  0
  -21.6044   -4.3056   24.7226 C   0  0  0  0  0  0
  -21.8819   -3.8148   23.4347 C   0  0  0  0  0  0
  -21.9194   -4.6965   22.3403 C   0  0  0  0  0  0
  -22.7828  -13.5224   21.1868 C   0  0  0  0  0  0
  -22.1662   -4.2151   21.0981 F   0  0  0  0  0  0
  -21.5629   -3.4539   25.7738 F   0  0  0  0  0  0
  -29.9923  -13.4982   20.4103 N   0  0  0  0  0  0
  -26.2944  -12.9393   20.3287 N   0  0  0  0  0  0
  -25.9323  -11.6538   20.5756 N   0  0  0  0  0  0
  -22.0475  -12.8212   22.0423 N   0  0  0  0  0  0
  -25.4208  -15.1917   20.4101 N   0  0  0  0  0  0
  -31.7995  -14.8215   20.1341 O   0  0  0  0  0  0
  -21.6641   -6.8880   21.4241 O   0  0  0  0  0  0
  -22.3513  -14.5530   20.6714 O   0  0  0  0  0  0
  -24.6304  -31.8559   23.1989 C   0  0  0  0  0  0
  -25.9132  -32.4758   23.8336 C   0  0  1  0  0  0
  -27.2180  -27.2699   20.1366 C   0  0  0  0  0  0
  -25.5929  -33.8560   24.2261 N   0  0  0  0  0  0
  -23.4268  -30.4782   21.5421 C   0  0  2  0  0  0
  -24.8746  -28.9251   20.1122 C   0  0  0  0  0  0
  -22.7496  -29.4604   22.4916 C   0  0  0  0  0  0
  -18.0291  -28.1386   22.8487 C   0  0  0  0  0  0
  -24.1487  -36.7279   23.2641 C   0  0  0  0  0  0
  -25.9719  -30.7722   21.3773 C   0  0  0  0  0  0
  -26.0456  -29.3946   20.7214 C   0  0  0  0  0  0
  -27.2230  -28.5804   20.7199 C   0  0  0  0  0  0
  -26.0290  -26.8694   19.4902 C   0  0  0  0  0  0
  -24.8707  -27.6701   19.4846 C   0  0  0  0  0  0
  -23.6451  -29.8114   20.1586 C   0  0  0  0  0  0
  -25.4115  -36.3069   24.0328 C   0  0  1  0  0  0
  -20.5894  -28.3694   23.1271 C   0  0  2  0  0  0
  -20.6778  -26.9411   22.5407 C   0  0  0  0  0  0
  -19.5753  -26.6386   21.5211 C   0  0  0  0  0  0
  -18.1935  -26.7930   22.1626 C   0  0  0  0  0  0
  -19.1544  -28.8858   23.2874 C   0  0  0  0  0  0
  -18.9467  -30.1460   23.8890 C   0  0  0  0  0  0
  -17.6466  -30.6588   24.0562 C   0  0  0  0  0  0
  -25.9056  -34.9440   23.5098 C   0  0  0  0  0  0
  -16.5357  -29.9085   23.6334 C   0  0  0  0  0  0
  -16.7277  -28.6502   23.0356 C   0  0  0  0  0  0
  -26.4503  -31.6579   25.0721 C   0  0  0  0  0  0
  -25.3727  -31.3728   26.1441 C   0  0  0  0  0  0
  -27.0348  -30.2997   24.6201 C   0  0  0  0  0  0
  -27.6064  -32.4314   25.7489 C   0  0  0  0  0  0
  -27.5576  -37.1794   24.8468 C   0  0  0  0  0  0
  -21.4204  -29.3039   22.3657 N   0  0  0  0  0  0
  -26.4288  -37.3768   23.9411 N   0  0  0  0  0  0
  -24.6953  -31.0532   22.0961 N   0  0  0  0  0  0
  -23.4198  -28.8149   23.3017 O   0  0  0  0  0  0
  -28.3115  -26.3779   20.1657 O   0  0  0  0  0  0
  -26.5628  -34.8915   22.4667 O   0  0  0  0  0  0
  -23.5455  -32.1377   23.7289 O   0  0  0  0  0  0
  -31.2243  -19.2833   20.0626 C   0  0  0  0  0  0
  -31.2656  -17.8433   20.1638 C   0  0  0  0  0  0
  -30.0149  -19.8948   20.3259 C   0  0  0  0  0  0
  -30.0855  -17.2221   20.5142 C   0  0  0  0  0  0
  -28.5946  -23.7379   18.3952 C   0  0  0  0  0  0
  -30.3662  -23.6975   20.2457 C   0  0  0  0  0  0
  -30.8886  -22.2608   20.0002 C   0  0  0  0  0  0
  -28.5562  -22.1771   20.4401 C   0  0  0  0  0  0
  -28.8562  -23.6838   19.9199 C   0  0  2  0  0  0
  -27.1782  -23.4618   17.9018 C   0  0  0  0  0  0
  -28.0694  -24.9475   20.5742 C   0  0  0  0  0  0
  -29.7904  -21.3392   20.2879 N   0  0  0  0  0  0
  -29.8240  -15.8483   20.6821 N   0  0  0  0  0  0
  -29.4824  -24.0077   17.5797 O   0  0  0  0  0  0
  -28.8812  -18.5601   20.7139 S   0  0  0  0  0  0
  -31.4742  -12.5606   19.1701 H   0  0  0  0  0  0
  -30.3719  -11.4607   19.9485 H   0  0  0  0  0  0
  -29.7888  -11.7351   17.5143 H   0  0  0  0  0  0
  -29.6394  -13.4619   17.7266 H   0  0  0  0  0  0
  -27.8891  -11.2827   18.9073 H   0  0  0  0  0  0
  -27.3778  -12.5283   17.8000 H   0  0  0  0  0  0
  -27.6417  -14.2518   19.4770 H   0  0  0  0  0  0
  -28.7178  -12.1484   21.4198 H   0  0  0  0  0  0
  -28.4255  -13.8248   21.8046 H   0  0  0  0  0  0
  -25.2766   -9.5685   22.4760 H   0  0  0  0  0  0
  -24.0006   -7.4633   22.7470 H   0  0  0  0  0  0
  -21.0846   -8.8773   19.8951 H   0  0  0  0  0  0
  -22.3700  -10.9674   19.6166 H   0  0  0  0  0  0
  -21.2003   -7.6149   23.9717 H   0  0  0  0  0  0
  -21.1481   -6.0524   25.9078 H   0  0  0  0  0  0
  -22.0598   -2.7610   23.2846 H   0  0  0  0  0  0
  -22.4094  -11.9875   22.4811 H   0  0  0  0  0  0
  -21.1091  -13.1233   22.2629 H   0  0  0  0  0  0
  -24.6491  -15.8417   20.5138 H   0  0  0  0  0  0
  -26.2614  -15.6316   20.0587 H   0  0  0  0  0  0
  -26.7197  -32.5415   23.1079 H   0  0  0  0  0  0
  -25.0064  -33.9699   25.0398 H   0  0  0  0  0  0
  -22.7230  -31.3002   21.3960 H   0  0  0  0  0  0
  -23.3755  -35.9605   23.3302 H   0  0  0  0  0  0
  -24.3578  -36.8902   22.2055 H   0  0  0  0  0  0
  -23.7234  -37.6477   23.6667 H   0  0  0  0  0  0
  -26.1095  -31.5326   20.6074 H   0  0  0  0  0  0
  -26.8497  -30.8219   22.0098 H   0  0  0  0  0  0
  -28.1207  -28.9352   21.2064 H   0  0  0  0  0  0
  -25.9799  -25.9137   18.9902 H   0  0  0  0  0  0
  -23.9763  -27.3082   18.9964 H   0  0  0  0  0  0
  -23.7693  -30.5873   19.4021 H   0  0  0  0  0  0
  -22.7636  -29.2443   19.8538 H   0  0  0  0  0  0
  -25.1297  -36.1913   25.0821 H   0  0  0  0  0  0
  -20.9992  -28.3270   24.1389 H   0  0  0  0  0  0
  -20.5679  -26.2301   23.3611 H   0  0  0  0  0  0
  -21.6645  -26.7436   22.1198 H   0  0  0  0  0  0
  -19.6913  -25.6296   21.1241 H   0  0  0  0  0  0
  -19.6690  -27.3196   20.6741 H   0  0  0  0  0  0
  -17.4202  -26.6675   21.4032 H   0  0  0  0  0  0
  -18.0338  -26.0075   22.9026 H   0  0  0  0  0  0
  -19.7942  -30.7279   24.2255 H   0  0  0  0  0  0
  -17.5020  -31.6268   24.5164 H   0  0  0  0  0  0
  -15.5357  -30.2983   23.7667 H   0  0  0  0  0  0
  -15.8678  -28.0819   22.7076 H   0  0  0  0  0  0
  -24.5893  -30.7093   25.7762 H   0  0  0  0  0  0
  -24.8933  -32.2900   26.4871 H   0  0  0  0  0  0
  -25.8041  -30.8891   27.0214 H   0  0  0  0  0  0
  -26.2926  -29.6737   24.1232 H   0  0  0  0  0  0
  -27.4038  -29.7263   25.4715 H   0  0  0  0  0  0
  -27.8801  -30.4272   23.9438 H   0  0  0  0  0  0
  -27.2687  -33.3631   26.2040 H   0  0  0  0  0  0
  -28.3889  -32.6841   25.0321 H   0  0  0  0  0  0
  -28.0714  -31.8449   26.5424 H   0  0  0  0  0  0
  -28.2596  -38.0088   24.7511 H   0  0  0  0  0  0
  -28.1069  -36.2619   24.6300 H   0  0  0  0  0  0
  -27.2294  -37.1448   25.8871 H   0  0  0  0  0  0
  -20.9389  -29.8749   21.6852 H   0  0  0  0  0  0
  -26.0166  -38.2840   24.1414 H   0  0  0  0  0  0
  -32.1216  -19.8197   19.7918 H   0  0  0  0  0  0
  -32.1910  -17.3216   19.9668 H   0  0  0  0  0  0
  -30.9272  -24.4409   19.6776 H   0  0  0  0  0  0
  -30.5033  -23.9502   21.2978 H   0  0  0  0  0  0
  -31.7611  -22.0548   20.6225 H   0  0  0  0  0  0
  -31.1918  -22.1402   18.9586 H   0  0  0  0  0  0
  -27.7217  -21.7172   19.9088 H   0  0  0  0  0  0
  -28.2781  -22.1992   21.4947 H   0  0  0  0  0  0
  -26.4774  -23.3821   18.7317 H   0  0  0  0  0  0
  -27.1543  -22.5267   17.3432 H   0  0  0  0  0  0
  -26.8452  -24.2655   17.2459 H   0  0  0  0  0  0
  -28.2878  -24.9298   21.6422 H   0  0  0  0  0  0
  -27.0054  -24.7183   20.5443 H   0  0  0  0  0  0
  -28.8730  -15.6248   20.9340 H   0  0  0  0  0  0
  1 25  1  0  0  0
  1 30  2  0  0  0
  1 83  1  0  0  0
  2  3  1  0  0  0
  2 25  1  0  0  0
  2 86  1  0  0  0
  2 87  1  0  0  0
  3  4  1  0  0  0
  3 88  1  0  0  0
  3 89  1  0  0  0
  4  5  1  0  0  0
  4 90  1  0  0  0
  4 91  1  0  0  0
  5  6  1  0  0  0
  5 26  1  0  0  0
  5 92  1  0  0  0
  6 25  1  0  0  0
  6 93  1  0  0  0
  6 94  1  0  0  0
  7  8  2  0  0  0
  7 26  1  0  0  0
  7 29  1  0  0  0
  8  9  1  0  0  0
  8 22  1  0  0  0
  9 10  1  0  0  0
  9 27  2  0  0  0
 10 11  2  0  0  0
 10 15  1  0  0  0
 11 12  1  0  0  0
 11 95  1  0  0  0
 12 13  2  0  0  0
 12 96  1  0  0  0
 13 14  1  0  0  0
 13 31  1  0  0  0
 14 15  2  0  0  0
 14 97  1  0  0  0
 15 98  1  0  0  0
 16 17  2  0  0  0
 16 21  1  0  0  0
 16 31  1  0  0  0
 17 18  1  0  0  0
 17 99  1  0  0  0
 18 19  2  0  0  0
 18100  1  0  0  0
 19 20  1  0  0  0
 19 24  1  0  0  0
 20 21  2  0  0  0
 20101  1  0  0  0
 21 23  1  0  0  0
 22 28  1  0  0  0
 22 32  2  0  0  0
 26 27  1  0  0  0
 28102  1  0  0  0
 28103  1  0  0  0
 29104  1  0  0  0
 29105  1  0  0  0
 33 34  1  0  0  0
 33 66  1  0  0  0
 33 70  2  0  0  0
 34 36  1  0  0  0
 34 59  1  0  0  0
 34106  1  0  0  0
 35 44  2  0  0  0
 35 45  1  0  0  0
 35 68  1  0  0  0
 36 56  1  0  0  0
 36107  1  0  0  0
 37 39  1  0  0  0
 37 47  1  0  0  0
 37 66  1  0  0  0
 37108  1  0  0  0
 38 43  2  0  0  0
 38 46  1  0  0  0
 38 47  1  0  0  0
 39 64  1  0  0  0
 39 67  2  0  0  0
 40 52  1  0  0  0
 40 53  2  0  0  0
 40 58  1  0  0  0
 41109  1  0  0  0
 41110  1  0  0  0
 41111  1  0  0  0
 41 48  1  0  0  0
 42 43  1  0  0  0
 42 66  1  0  0  0
 42112  1  0  0  0
 42113  1  0  0  0
 43 44  1  0  0  0
 44114  1  0  0  0
 45 46  2  0  0  0
 45115  1  0  0  0
 46116  1  0  0  0
 47117  1  0  0  0
 47118  1  0  0  0
 48 56  1  0  0  0
 48 65  1  0  0  0
 48119  1  0  0  0
 49 50  1  0  0  0
 49 53  1  0  0  0
 49 64  1  0  0  0
 49120  1  0  0  0
 50 51  1  0  0  0
 50121  1  0  0  0
 50122  1  0  0  0
 51 52  1  0  0  0
 51123  1  0  0  0
 51124  1  0  0  0
 52125  1  0  0  0
 52126  1  0  0  0
 53 54  1  0  0  0
 54 55  2  0  0  0
 54127  1  0  0  0
 55 57  1  0  0  0
 55128  1  0  0  0
 56 69  2  0  0  0
 57 58  2  0  0  0
 57129  1  0  0  0
 58130  1  0  0  0
 59 60  1  0  0  0
 59 61  1  0  0  0
 59 62  1  0  0  0
 60131  1  0  0  0
 60132  1  0  0  0
 60133  1  0  0  0
 61134  1  0  0  0
 61135  1  0  0  0
 61136  1  0  0  0
 62137  1  0  0  0
 62138  1  0  0  0
 62139  1  0  0  0
 63 65  1  0  0  0
 63140  1  0  0  0
 63141  1  0  0  0
 63142  1  0  0  0
 64143  1  0  0  0
 65144  1  0  0  0
 68 81  1  0  0  0
 71 72  1  0  0  0
 71 73  2  0  0  0
 71145  1  0  0  0
 72 74  2  0  0  0
 72146  1  0  0  0
 73 82  1  0  0  0
 73 85  1  0  0  0
 74 83  1  0  0  0
 74 85  1  0  0  0
 75 80  1  0  0  0
 75 84  2  0  0  0
 75 79  1  0  0  0
 76 77  1  0  0  0
 76 79  1  0  0  0
 76147  1  0  0  0
 76148  1  0  0  0
 77 82  1  0  0  0
 77149  1  0  0  0
 77150  1  0  0  0
 78 79  1  0  0  0
 78 82  1  0  0  0
 78151  1  0  0  0
 78152  1  0  0  0
 79 81  1  0  0  0
 80153  1  0  0  0
 80154  1  0  0  0
 80155  1  0  0  0
 81156  1  0  0  0
 81157  1  0  0  0
 83158  1  0  0  0
M  ISO  4   1 100  68 101  81 101  83 100
M  END
> <chiral flag>
0

> <version>
0

> <s_m_source_file>
/data/baiqing/PycharmProjects/Reinvent-master-3.2/result/LINK_invent/BTK/process_docking_weight1_custom_product_contain_oxygen_bond_distance_aromatic_linkinvent_7_9_3/rearranged_h_0150.sdf

> <i_m_source_file_index>
25

> <r_mmod_Potential_Energy-OPLS-2005>
233.179336547852

> <r_mmod_Stretch_Energy-OPLS-2005>
113.182525634766

> <r_mmod_Bend_Energy-OPLS-2005>
213.173492431641

> <r_mmod_Torsional_Energy-OPLS-2005>
261.962219238281

> <r_mmod_Improper_Torsional_Energy-OPLS-2005>
4.51093626022339

> <r_mmod_Van_der_Waal_Energy-OPLS-2005>
119.959594726562

> <r_mmod_Electrostatic_Energy-OPLS-2005>
-318.577575683594

> <r_mmod_Solvation_Energy-OPLS-2005>
-239.02619934082

> <b_mmod_Minimization_Converged-OPLS-2005>
0

> <r_mmod_RMS_Derivative-OPLS-2005>
0.352784603834152

$$$$
25
                    3D
 Structure written by MMmdl.
163172  0  0  1  0            999 V2000
  -30.5809  -14.6655   20.5120 C   0  0  0  0  0  0
  -30.4241  -12.4160   19.4339 C   0  0  0  0  0  0
  -29.4748  -12.5156   18.2052 C   0  0  0  0  0  0
  -28.0034  -12.3355   18.6219 C   0  0  0  0  0  0
  -27.6437  -13.2056   19.8567 C   0  0  2  0  0  0
  -28.6862  -13.0338   20.9809 C   0  0  0  0  0  0
  -25.2484  -13.8173   20.5722 C   0  0  0  0  0  0
  -24.1763  -13.0446   20.9242 C   0  0  0  0  0  0
  -24.6325  -11.6920   20.8753 C   0  0  0  0  0  0
  -23.8991  -10.4315   21.0417 C   0  0  0  0  0  0
  -24.3560   -9.4218   21.9182 C   0  0  0  0  0  0
  -23.6261   -8.2232   22.0747 C   0  0  0  0  0  0
  -22.4237   -8.0263   21.3544 C   0  0  0  0  0  0
  -21.9876   -9.0219   20.4628 C   0  0  0  0  0  0
  -22.7179  -10.2121   20.3046 C   0  0  0  0  0  0
  -21.6855   -6.0712   22.5267 C   0  0  0  0  0  0
  -21.4014   -6.5623   23.8194 C   0  0  0  0  0  0
  -21.3667   -5.6787   24.9173 C   0  0  0  0  0  0
  -21.6049   -4.3042   24.7233 C   0  0  0  0  0  0
  -21.8817   -3.8126   23.4354 C   0  0  0  0  0  0
  -21.9189   -4.6943   22.3406 C   0  0  0  0  0  0
  -22.7792  -13.5242   21.1916 C   0  0  0  0  0  0
  -22.1661   -4.2129   21.0984 F   0  0  0  0  0  0
  -21.5636   -3.4526   25.7745 F   0  0  0  0  0  0
  -29.9948  -13.4236   20.4310 N   0  0  0  0  0  0
  -26.2887  -12.9332   20.3311 N   0  0  0  0  0  0
  -25.9253  -11.6497   20.5817 N   0  0  0  0  0  0
  -22.0429  -12.8224   22.0444 N   0  0  0  0  0  0
  -25.4233  -15.1884   20.4039 N   0  0  0  0  0  0
  -31.7307  -14.8534   20.0877 O   0  0  0  0  0  0
  -21.6624   -6.8845   21.4230 O   0  0  0  0  0  0
  -22.3503  -14.5575   20.6798 O   0  0  0  0  0  0
  -24.6508  -31.8509   23.1950 C   0  0  0  0  0  0
  -25.9259  -32.4774   23.8301 C   0  0  1  0  0  0
  -27.2356  -27.2430   20.1893 C   0  0  0  0  0  0
  -25.6012  -33.8558   24.2276 N   0  0  0  0  0  0
  -23.4613  -30.4692   21.5381 C   0  0  2  0  0  0
  -24.8949  -28.8960   20.0941 C   0  0  0  0  0  0
  -22.7776  -29.4732   22.5009 C   0  0  0  0  0  0
  -17.9979  -28.1254   22.8685 C   0  0  0  0  0  0
  -24.1498  -36.7255   23.2629 C   0  0  0  0  0  0
  -25.9839  -30.7568   21.3628 C   0  0  0  0  0  0
  -26.0483  -29.3682   20.7296 C   0  0  0  0  0  0
  -27.2169  -28.5481   20.7817 C   0  0  0  0  0  0
  -26.0898  -26.8583   19.4651 C   0  0  0  0  0  0
  -24.9198  -27.6548   19.4280 C   0  0  0  0  0  0
  -23.6599  -29.7777   20.1612 C   0  0  0  0  0  0
  -25.4123  -36.3038   24.0308 C   0  0  1  0  0  0
  -20.4809  -28.4702   22.7600 C   0  0  2  0  0  0
  -20.7002  -26.9715   22.5286 C   0  0  0  0  0  0
  -19.5639  -26.4600   21.6148 C   0  0  0  0  0  0
  -18.1631  -26.7525   22.2000 C   0  0  0  0  0  0
  -19.1200  -28.9043   23.2443 C   0  0  0  0  0  0
  -18.9396  -30.1507   23.8774 C   0  0  0  0  0  0
  -17.6408  -30.6504   24.0827 C   0  0  0  0  0  0
  -25.9123  -34.9433   23.5071 C   0  0  0  0  0  0
  -16.5239  -29.8984   23.6728 C   0  0  0  0  0  0
  -16.7026  -28.6320   23.0853 C   0  0  0  0  0  0
  -26.4552  -31.6560   25.0698 C   0  0  0  0  0  0
  -25.3799  -31.3779   26.1421 C   0  0  0  0  0  0
  -27.0414  -30.2993   24.6131 C   0  0  0  0  0  0
  -27.6004  -32.4254   25.7613 C   0  0  0  0  0  0
  -27.5589  -37.1799   24.8473 C   0  0  0  0  0  0
  -21.4535  -29.4558   22.3740 N   0  0  0  0  0  0
  -26.4302  -37.3718   23.9404 N   0  0  0  0  0  0
  -24.7248  -31.0425   22.0931 N   0  0  0  0  0  0
  -23.4163  -28.7590   23.2759 O   0  0  0  0  0  0
  -28.3838  -26.4359   20.3369 O   0  0  0  0  0  0
  -26.5668  -34.8878   22.4624 O   0  0  0  0  0  0
  -23.5641  -32.1259   23.7220 O   0  0  0  0  0  0
  -28.3996  -19.2626   21.0997 C   0  0  0  0  0  0
  -28.5160  -17.8432   21.1095 C   0  0  0  0  0  0
  -30.8494  -18.0027   20.5890 C   0  0  0  0  0  0
  -30.7549  -19.4318   20.6891 C   0  0  0  0  0  0
  -29.5189  -20.1309   20.9229 C   0  0  0  0  0  0
  -29.7400  -17.1569   20.8615 C   0  0  0  0  0  0
  -32.0098  -20.2437   20.6217 C   0  0  0  0  0  0
  -30.7093  -22.0211   21.7175 C   0  0  0  0  0  0
  -26.5567  -23.3320   20.0267 C   0  0  0  0  0  0
  -27.0314  -24.3663   22.2611 C   0  0  0  0  0  0
  -28.2756  -22.3282   21.5346 C   0  0  0  0  0  0
  -28.5664  -24.9355   20.3009 C   0  0  0  0  0  0
  -27.6848  -23.7598   20.9975 C   0  0  0  0  0  0
  -31.8989  -21.4834   21.0686 N   0  0  0  0  0  0
  -29.4843  -21.5881   21.0206 N   0  0  0  0  0  0
  -29.7733  -15.6832   20.9776 N   0  0  0  0  0  0
  -33.0856  -19.7687   20.2389 O   0  0  0  0  0  0
  -31.4633  -12.5562   19.1354 H   0  0  0  0  0  0
  -30.3738  -11.4109   19.8558 H   0  0  0  0  0  0
  -29.7255  -11.7559   17.4612 H   0  0  0  0  0  0
  -29.5857  -13.4821   17.7054 H   0  0  0  0  0  0
  -27.8420  -11.2836   18.8497 H   0  0  0  0  0  0
  -27.3307  -12.5607   17.7960 H   0  0  0  0  0  0
  -27.6808  -14.2431   19.5213 H   0  0  0  0  0  0
  -28.7082  -11.9930   21.3045 H   0  0  0  0  0  0
  -28.4142  -13.6021   21.8662 H   0  0  0  0  0  0
  -25.2711   -9.5701   22.4760 H   0  0  0  0  0  0
  -23.9978   -7.4628   22.7466 H   0  0  0  0  0  0
  -21.0812   -8.8684   19.8937 H   0  0  0  0  0  0
  -22.3603  -10.9622   19.6133 H   0  0  0  0  0  0
  -21.2004   -7.6132   23.9701 H   0  0  0  0  0  0
  -21.1499   -6.0520   25.9080 H   0  0  0  0  0  0
  -22.0593   -2.7586   23.2852 H   0  0  0  0  0  0
  -22.4092  -11.9876   22.4749 H   0  0  0  0  0  0
  -21.1039  -13.1219   22.2689 H   0  0  0  0  0  0
  -24.6505  -15.8365   20.5032 H   0  0  0  0  0  0
  -26.2467  -15.6021   19.9867 H   0  0  0  0  0  0
  -26.7498  -32.5335   23.1182 H   0  0  0  0  0  0
  -25.0184  -33.9692   25.0476 H   0  0  0  0  0  0
  -22.7782  -31.3039   21.3645 H   0  0  0  0  0  0
  -23.3715  -35.9632   23.3228 H   0  0  0  0  0  0
  -24.3669  -36.8924   22.2088 H   0  0  0  0  0  0
  -23.7344  -37.6451   23.6698 H   0  0  0  0  0  0
  -26.1140  -31.4744   20.5524 H   0  0  0  0  0  0
  -26.8749  -30.8409   21.9788 H   0  0  0  0  0  0
  -28.0875  -28.8844   21.3289 H   0  0  0  0  0  0
  -26.1026  -25.9355   18.9179 H   0  0  0  0  0  0
  -24.0387  -27.2876   18.9113 H   0  0  0  0  0  0
  -23.7713  -30.5377   19.3890 H   0  0  0  0  0  0
  -22.7658  -29.2074   19.9000 H   0  0  0  0  0  0
  -25.1317  -36.1874   25.0800 H   0  0  0  0  0  0
  -20.1528  -28.6966   21.7427 H   0  0  0  0  0  0
  -20.6911  -26.4437   23.4832 H   0  0  0  0  0  0
  -21.6710  -26.7757   22.0631 H   0  0  0  0  0  0
  -19.6761  -25.3864   21.4503 H   0  0  0  0  0  0
  -19.6545  -26.9162   20.6262 H   0  0  0  0  0  0
  -17.4075  -26.6239   21.4195 H   0  0  0  0  0  0
  -17.9363  -26.0016   22.9630 H   0  0  0  0  0  0
  -19.7977  -30.7555   24.1477 H   0  0  0  0  0  0
  -17.5040  -31.6223   24.5366 H   0  0  0  0  0  0
  -15.5278  -30.2927   23.8221 H   0  0  0  0  0  0
  -15.8324  -28.0592   22.7880 H   0  0  0  0  0  0
  -24.6004  -30.7067   25.7818 H   0  0  0  0  0  0
  -24.9051  -32.3050   26.4596 H   0  0  0  0  0  0
  -25.8117  -30.9162   27.0338 H   0  0  0  0  0  0
  -26.3073  -29.6725   24.1051 H   0  0  0  0  0  0
  -27.4060  -29.7215   25.4638 H   0  0  0  0  0  0
  -27.8849  -30.4182   23.9312 H   0  0  0  0  0  0
  -27.2446  -33.3502   26.2113 H   0  0  0  0  0  0
  -28.3877  -32.6873   25.0566 H   0  0  0  0  0  0
  -28.0547  -31.8427   26.5654 H   0  0  0  0  0  0
  -28.2522  -38.0140   24.7491 H   0  0  0  0  0  0
  -28.1142  -36.2702   24.6267 H   0  0  0  0  0  0
  -27.2326  -37.1359   25.8858 H   0  0  0  0  0  0
  -21.0819  -30.1632   21.7533 H   0  0  0  0  0  0
  -26.0109  -38.2737   24.1405 H   0  0  0  0  0  0
  -27.4078  -19.6490   21.2503 H   0  0  0  0  0  0
  -27.6224  -17.2741   21.3195 H   0  0  0  0  0  0
  -31.8084  -17.5502   20.3575 H   0  0  0  0  0  0
  -30.8114  -23.1057   21.7590 H   0  0  0  0  0  0
  -30.7077  -21.6939   22.7705 H   0  0  0  0  0  0
  -25.9040  -22.5733   20.4568 H   0  0  0  0  0  0
  -26.9590  -22.9135   19.1039 H   0  0  0  0  0  0
  -25.8765  -24.1339   19.7671 H   0  0  0  0  0  0
  -27.7933  -24.6489   22.9961 H   0  0  0  0  0  0
  -26.3681  -23.6497   22.7528 H   0  0  0  0  0  0
  -26.4458  -25.2608   22.0646 H   0  0  0  0  0  0
  -27.4431  -21.6304   21.5256 H   0  0  0  0  0  0
  -28.4513  -22.4033   22.6082 H   0  0  0  0  0  0
  -28.8562  -24.6357   19.2923 H   0  0  0  0  0  0
  -29.5126  -24.8756   20.8413 H   0  0  0  0  0  0
  -32.7484  -22.0219   21.1571 H   0  0  0  0  0  0
  -28.9695  -15.2928   21.4468 H   0  0  0  0  0  0
  1 25  1  0  0  0
  1 30  2  0  0  0
  1 86  1  0  0  0
  2  3  1  0  0  0
  2 25  1  0  0  0
  2 88  1  0  0  0
  2 89  1  0  0  0
  3  4  1  0  0  0
  3 90  1  0  0  0
  3 91  1  0  0  0
  4  5  1  0  0  0
  4 92  1  0  0  0
  4 93  1  0  0  0
  5  6  1  0  0  0
  5 26  1  0  0  0
  5 94  1  0  0  0
  6 25  1  0  0  0
  6 95  1  0  0  0
  6 96  1  0  0  0
  7  8  2  0  0  0
  7 26  1  0  0  0
  7 29  1  0  0  0
  8  9  1  0  0  0
  8 22  1  0  0  0
  9 10  1  0  0  0
  9 27  2  0  0  0
 10 11  2  0  0  0
 10 15  1  0  0  0
 11 12  1  0  0  0
 11 97  1  0  0  0
 12 13  2  0  0  0
 12 98  1  0  0  0
 13 14  1  0  0  0
 13 31  1  0  0  0
 14 15  2  0  0  0
 14 99  1  0  0  0
 15100  1  0  0  0
 16 17  2  0  0  0
 16 21  1  0  0  0
 16 31  1  0  0  0
 17 18  1  0  0  0
 17101  1  0  0  0
 18 19  2  0  0  0
 18102  1  0  0  0
 19 20  1  0  0  0
 19 24  1  0  0  0
 20 21  2  0  0  0
 20103  1  0  0  0
 21 23  1  0  0  0
 22 28  1  0  0  0
 22 32  2  0  0  0
 26 27  1  0  0  0
 28104  1  0  0  0
 28105  1  0  0  0
 29106  1  0  0  0
 29107  1  0  0  0
 33 34  1  0  0  0
 33 66  1  0  0  0
 33 70  2  0  0  0
 34 36  1  0  0  0
 34 59  1  0  0  0
 34108  1  0  0  0
 35 44  2  0  0  0
 35 45  1  0  0  0
 35 68  1  0  0  0
 36 56  1  0  0  0
 36109  1  0  0  0
 37 39  1  0  0  0
 37 47  1  0  0  0
 37 66  1  0  0  0
 37110  1  0  0  0
 38 43  2  0  0  0
 38 46  1  0  0  0
 38 47  1  0  0  0
 39 64  1  0  0  0
 39 67  2  0  0  0
 40 52  1  0  0  0
 40 53  2  0  0  0
 40 58  1  0  0  0
 41111  1  0  0  0
 41112  1  0  0  0
 41113  1  0  0  0
 41 48  1  0  0  0
 42 43  1  0  0  0
 42 66  1  0  0  0
 42114  1  0  0  0
 42115  1  0  0  0
 43 44  1  0  0  0
 44116  1  0  0  0
 45 46  2  0  0  0
 45117  1  0  0  0
 46118  1  0  0  0
 47119  1  0  0  0
 47120  1  0  0  0
 48 56  1  0  0  0
 48 65  1  0  0  0
 48121  1  0  0  0
 49 50  1  0  0  0
 49 53  1  0  0  0
 49 64  1  0  0  0
 49122  1  0  0  0
 50 51  1  0  0  0
 50123  1  0  0  0
 50124  1  0  0  0
 51 52  1  0  0  0
 51125  1  0  0  0
 51126  1  0  0  0
 52127  1  0  0  0
 52128  1  0  0  0
 53 54  1  0  0  0
 54 55  2  0  0  0
 54129  1  0  0  0
 55 57  1  0  0  0
 55130  1  0  0  0
 56 69  2  0  0  0
 57 58  2  0  0  0
 57131  1  0  0  0
 58132  1  0  0  0
 59 60  1  0  0  0
 59 61  1  0  0  0
 59 62  1  0  0  0
 60133  1  0  0  0
 60134  1  0  0  0
 60135  1  0  0  0
 61136  1  0  0  0
 61137  1  0  0  0
 61138  1  0  0  0
 62139  1  0  0  0
 62140  1  0  0  0
 62141  1  0  0  0
 63 65  1  0  0  0
 63142  1  0  0  0
 63143  1  0  0  0
 63144  1  0  0  0
 64145  1  0  0  0
 65146  1  0  0  0
 68 82  1  0  0  0
 71 72  2  0  0  0
 71 75  1  0  0  0
 71147  1  0  0  0
 72 76  1  0  0  0
 72148  1  0  0  0
 73 74  1  0  0  0
 73 76  2  0  0  0
 73149  1  0  0  0
 74 75  2  0  0  0
 74 77  1  0  0  0
 75 85  1  0  0  0
 76 86  1  0  0  0
 77 84  1  0  0  0
 77 87  2  0  0  0
 78 84  1  0  0  0
 78 85  1  0  0  0
 78150  1  0  0  0
 78151  1  0  0  0
 79152  1  0  0  0
 79153  1  0  0  0
 79154  1  0  0  0
 79 83  1  0  0  0
 80 83  1  0  0  0
 80155  1  0  0  0
 80156  1  0  0  0
 80157  1  0  0  0
 81 83  1  0  0  0
 81 85  1  0  0  0
 81158  1  0  0  0
 81159  1  0  0  0
 82 83  1  0  0  0
 82160  1  0  0  0
 82161  1  0  0  0
 84162  1  0  0  0
 86163  1  0  0  0
M  ISO  4   1 100  68 101  82 101  86 100
M  END
> <chiral flag>
0

> <version>
0

> <s_m_source_file>
/data/baiqing/PycharmProjects/Reinvent-master-3.2/result/LINK_invent/BTK/process_docking_weight1_custom_product_contain_oxygen_bond_distance_aromatic_linkinvent_7_9_3/rearranged_h_0150.sdf

> <i_m_source_file_index>
26

> <r_mmod_Potential_Energy-OPLS-2005>
280.503234863281

> <r_mmod_Stretch_Energy-OPLS-2005>
119.211486816406

> <r_mmod_Bend_Energy-OPLS-2005>
376.642974853516

> <r_mmod_Torsional_Energy-OPLS-2005>
277.620361328125

> <r_mmod_Improper_Torsional_Energy-OPLS-2005>
10.9658889770508

> <r_mmod_Van_der_Waal_Energy-OPLS-2005>
164.95622253418

> <r_mmod_Electrostatic_Energy-OPLS-2005>
-506.947631835938

> <r_mmod_Solvation_Energy-OPLS-2005>
-258.183532714844

> <b_mmod_Minimization_Converged-OPLS-2005>
0

> <r_mmod_RMS_Derivative-OPLS-2005>
15.1787176132202

$$$$
26
                    3D
 Structure written by MMmdl.
162171  0  0  1  0            999 V2000
  -30.5868  -14.7126   20.4673 C   0  0  0  0  0  0
  -30.4412  -12.4326   19.4605 C   0  0  0  0  0  0
  -29.5134  -12.5054   18.2268 C   0  0  0  0  0  0
  -28.0393  -12.3286   18.6398 C   0  0  0  0  0  0
  -27.6469  -13.2183   19.8502 C   0  0  2  0  0  0
  -28.6913  -13.1155   20.9833 C   0  0  0  0  0  0
  -25.2559  -13.8174   20.5660 C   0  0  0  0  0  0
  -24.1826  -13.0447   20.9178 C   0  0  0  0  0  0
  -24.6380  -11.6901   20.8724 C   0  0  0  0  0  0
  -23.9045  -10.4277   21.0397 C   0  0  0  0  0  0
  -24.3605   -9.4193   21.9192 C   0  0  0  0  0  0
  -23.6262   -8.2237   22.0744 C   0  0  0  0  0  0
  -22.4254   -8.0272   21.3533 C   0  0  0  0  0  0
  -21.9868   -9.0254   20.4652 C   0  0  0  0  0  0
  -22.7211  -10.2122   20.3042 C   0  0  0  0  0  0
  -21.6850   -6.0714   22.5277 C   0  0  0  0  0  0
  -21.4036   -6.5628   23.8211 C   0  0  0  0  0  0
  -21.3634   -5.6789   24.9176 C   0  0  0  0  0  0
  -21.6021   -4.3049   24.7243 C   0  0  0  0  0  0
  -21.8830   -3.8115   23.4373 C   0  0  0  0  0  0
  -21.9199   -4.6930   22.3420 C   0  0  0  0  0  0
  -22.7866  -13.5249   21.1836 C   0  0  0  0  0  0
  -22.1670   -4.2103   21.1004 F   0  0  0  0  0  0
  -21.5575   -3.4557   25.7758 F   0  0  0  0  0  0
  -29.9985  -13.4723   20.4131 N   0  0  0  0  0  0
  -26.2950  -12.9345   20.3236 N   0  0  0  0  0  0
  -25.9308  -11.6501   20.5730 N   0  0  0  0  0  0
  -22.0481  -12.8270   22.0397 N   0  0  0  0  0  0
  -25.4303  -15.1903   20.4098 N   0  0  0  0  0  0
  -31.7691  -14.8614   20.1408 O   0  0  0  0  0  0
  -21.6622   -6.8861   21.4240 O   0  0  0  0  0  0
  -22.3581  -14.5559   20.6670 O   0  0  0  0  0  0
  -24.6299  -31.8578   23.2024 C   0  0  0  0  0  0
  -25.9132  -32.4772   23.8363 C   0  0  1  0  0  0
  -27.2103  -27.2821   20.1246 C   0  0  0  0  0  0
  -25.5958  -33.8565   24.2303 N   0  0  0  0  0  0
  -23.4274  -30.4825   21.5456 C   0  0  2  0  0  0
  -24.8709  -28.9340   20.1141 C   0  0  0  0  0  0
  -22.7508  -29.4616   22.4912 C   0  0  0  0  0  0
  -18.0317  -28.1372   22.8482 C   0  0  0  0  0  0
  -24.1476  -36.7254   23.2637 C   0  0  0  0  0  0
  -25.9725  -30.7767   21.3809 C   0  0  0  0  0  0
  -26.0454  -29.4018   20.7194 C   0  0  0  0  0  0
  -27.2234  -28.5892   20.7133 C   0  0  0  0  0  0
  -26.0178  -26.8790   19.4959 C   0  0  0  0  0  0
  -24.8605  -27.6755   19.4940 C   0  0  0  0  0  0
  -23.6443  -29.8243   20.1611 C   0  0  0  0  0  0
  -25.4107  -36.3074   24.0343 C   0  0  1  0  0  0
  -20.5923  -28.3689   23.1258 C   0  0  2  0  0  0
  -20.6790  -26.9398   22.5415 C   0  0  0  0  0  0
  -19.5777  -26.6369   21.5206 C   0  0  0  0  0  0
  -18.1955  -26.7926   22.1600 C   0  0  0  0  0  0
  -19.1568  -28.8847   23.2871 C   0  0  0  0  0  0
  -18.9488  -30.1442   23.8909 C   0  0  0  0  0  0
  -17.6478  -30.6571   24.0570 C   0  0  0  0  0  0
  -25.9069  -34.9450   23.5131 C   0  0  0  0  0  0
  -16.5370  -29.9073   23.6322 C   0  0  0  0  0  0
  -16.7302  -28.6481   23.0356 C   0  0  0  0  0  0
  -26.4485  -31.6573   25.0731 C   0  0  0  0  0  0
  -25.3707  -31.3752   26.1457 C   0  0  0  0  0  0
  -27.0296  -30.2991   24.6202 C   0  0  0  0  0  0
  -27.6099  -32.4261   25.7463 C   0  0  0  0  0  0
  -27.5598  -37.1747   24.8441 C   0  0  0  0  0  0
  -21.4224  -29.3026   22.3639 N   0  0  0  0  0  0
  -26.4264  -37.3788   23.9441 N   0  0  0  0  0  0
  -24.6963  -31.0557   22.0997 N   0  0  0  0  0  0
  -23.4200  -28.8171   23.3029 O   0  0  0  0  0  0
  -28.2826  -26.3673   20.1354 O   0  0  0  0  0  0
  -26.5645  -34.8921   22.4705 O   0  0  0  0  0  0
  -23.5454  -32.1400   23.7327 O   0  0  0  0  0  0
  -30.6720  -19.4114   20.2425 C   0  0  0  0  0  0
  -30.9419  -17.9825   20.3010 C   0  0  0  0  0  0
  -29.3580  -19.7917   20.4367 C   0  0  0  0  0  0
  -29.8535  -17.1675   20.5609 C   0  0  0  0  0  0
  -27.0585  -22.7170   21.1440 C   0  0  0  0  0  0
  -27.3325  -21.2182   20.9149 C   0  0  0  0  0  0
  -28.0300  -23.5367   20.2507 C   0  0  1  0  0  0
  -29.2821  -22.4918   20.3274 C   0  0  0  0  0  0
  -27.4194  -23.5660   18.8292 C   0  0  0  0  0  0
  -30.1429  -22.7743   21.5794 C   0  0  0  0  0  0
  -30.1944  -22.6078   19.0830 C   0  0  0  0  0  0
  -28.0736  -25.0679   20.8567 C   0  0  0  0  0  0
  -28.7043  -21.0980   20.4385 N   0  0  0  0  0  0
  -29.7373  -15.7779   20.7035 N   0  0  0  0  0  0
  -28.4548  -18.2699   20.7123 S   0  0  0  0  0  0
  -31.4822  -12.5664   19.1622 H   0  0  0  0  0  0
  -30.3830  -11.4478   19.9283 H   0  0  0  0  0  0
  -29.7888  -11.7418   17.4966 H   0  0  0  0  0  0
  -29.6379  -13.4686   17.7300 H   0  0  0  0  0  0
  -27.8944  -11.2766   18.8912 H   0  0  0  0  0  0
  -27.3849  -12.5297   17.7919 H   0  0  0  0  0  0
  -27.6460  -14.2449   19.4834 H   0  0  0  0  0  0
  -28.7197  -12.1062   21.3929 H   0  0  0  0  0  0
  -28.4322  -13.7702   21.8164 H   0  0  0  0  0  0
  -25.2763   -9.5654   22.4773 H   0  0  0  0  0  0
  -23.9940   -7.4638   22.7484 H   0  0  0  0  0  0
  -21.0768   -8.8804   19.9007 H   0  0  0  0  0  0
  -22.3677  -10.9667   19.6145 H   0  0  0  0  0  0
  -21.2075   -7.6147   23.9728 H   0  0  0  0  0  0
  -21.1413   -6.0511   25.9076 H   0  0  0  0  0  0
  -22.0619   -2.7572   23.2923 H   0  0  0  0  0  0
  -22.4069  -11.9956   22.4827 H   0  0  0  0  0  0
  -21.1105  -13.1339   22.2564 H   0  0  0  0  0  0
  -24.6672  -15.8472   20.5286 H   0  0  0  0  0  0
  -26.2671  -15.6218   20.0381 H   0  0  0  0  0  0
  -26.7210  -32.5418   23.1116 H   0  0  0  0  0  0
  -25.0054  -33.9686   25.0418 H   0  0  0  0  0  0
  -22.7249  -31.3070   21.4066 H   0  0  0  0  0  0
  -23.3782  -35.9536   23.3225 H   0  0  0  0  0  0
  -24.3585  -36.8938   22.2067 H   0  0  0  0  0  0
  -23.7157  -37.6404   23.6690 H   0  0  0  0  0  0
  -26.1133  -31.5413   20.6158 H   0  0  0  0  0  0
  -26.8499  -30.8196   22.0163 H   0  0  0  0  0  0
  -28.1232  -28.9424   21.1985 H   0  0  0  0  0  0
  -25.9680  -25.9215   19.0082 H   0  0  0  0  0  0
  -23.9611  -27.3057   19.0197 H   0  0  0  0  0  0
  -23.7748  -30.6089   19.4150 H   0  0  0  0  0  0
  -22.7580  -29.2701   19.8458 H   0  0  0  0  0  0
  -25.1254  -36.1934   25.0830 H   0  0  0  0  0  0
  -21.0016  -28.3275   24.1368 H   0  0  0  0  0  0
  -20.5640  -26.2305   23.3619 H   0  0  0  0  0  0
  -21.6663  -26.7370   22.1245 H   0  0  0  0  0  0
  -19.6927  -25.6284   21.1217 H   0  0  0  0  0  0
  -19.6733  -27.3189   20.6752 H   0  0  0  0  0  0
  -17.4228  -26.6722   21.3986 H   0  0  0  0  0  0
  -18.0319  -26.0045   22.8965 H   0  0  0  0  0  0
  -19.7958  -30.7263   24.2276 H   0  0  0  0  0  0
  -17.5025  -31.6237   24.5204 H   0  0  0  0  0  0
  -15.5370  -30.2977   23.7617 H   0  0  0  0  0  0
  -15.8706  -28.0789   22.7071 H   0  0  0  0  0  0
  -24.5931  -30.7023   25.7808 H   0  0  0  0  0  0
  -24.8828  -32.2917   26.4787 H   0  0  0  0  0  0
  -25.8018  -30.9018   27.0290 H   0  0  0  0  0  0
  -26.2851  -29.6759   24.1229 H   0  0  0  0  0  0
  -27.3974  -29.7241   25.4711 H   0  0  0  0  0  0
  -27.8741  -30.4262   23.9432 H   0  0  0  0  0  0
  -27.2792  -33.3576   26.2070 H   0  0  0  0  0  0
  -28.3880  -32.6773   25.0238 H   0  0  0  0  0  0
  -28.0790  -31.8339   26.5331 H   0  0  0  0  0  0
  -28.2550  -38.0110   24.7603 H   0  0  0  0  0  0
  -28.1144  -36.2653   24.6081 H   0  0  0  0  0  0
  -27.2337  -37.1188   25.8841 H   0  0  0  0  0  0
  -20.9422  -29.8721   21.6818 H   0  0  0  0  0  0
  -26.0142  -38.2827   24.1564 H   0  0  0  0  0  0
  -31.4833  -20.1019   20.0607 H   0  0  0  0  0  0
  -31.9454  -17.6139   20.1514 H   0  0  0  0  0  0
  -27.2476  -22.9419   22.1958 H   0  0  0  0  0  0
  -26.0079  -22.9602   20.9751 H   0  0  0  0  0  0
  -26.6587  -20.8203   20.1533 H   0  0  0  0  0  0
  -27.1667  -20.6515   21.8330 H   0  0  0  0  0  0
  -27.4377  -22.5827   18.3561 H   0  0  0  0  0  0
  -27.9573  -24.2543   18.1756 H   0  0  0  0  0  0
  -26.3714  -23.8649   18.8478 H   0  0  0  0  0  0
  -30.6324  -23.7468   21.5124 H   0  0  0  0  0  0
  -30.9387  -22.0387   21.6995 H   0  0  0  0  0  0
  -29.5539  -22.7671   22.4958 H   0  0  0  0  0  0
  -30.4028  -23.6494   18.8411 H   0  0  0  0  0  0
  -29.7417  -22.1584   18.1979 H   0  0  0  0  0  0
  -31.1636  -22.1279   19.2214 H   0  0  0  0  0  0
  -28.7686  -25.0883   21.6943 H   0  0  0  0  0  0
  -27.1115  -25.1927   21.3585 H   0  0  0  0  0  0
  -28.8053  -15.4661   20.9375 H   0  0  0  0  0  0
  1 25  1  0  0  0
  1 30  2  0  0  0
  1 84  1  0  0  0
  2  3  1  0  0  0
  2 25  1  0  0  0
  2 86  1  0  0  0
  2 87  1  0  0  0
  3  4  1  0  0  0
  3 88  1  0  0  0
  3 89  1  0  0  0
  4  5  1  0  0  0
  4 90  1  0  0  0
  4 91  1  0  0  0
  5  6  1  0  0  0
  5 26  1  0  0  0
  5 92  1  0  0  0
  6 25  1  0  0  0
  6 93  1  0  0  0
  6 94  1  0  0  0
  7  8  2  0  0  0
  7 26  1  0  0  0
  7 29  1  0  0  0
  8  9  1  0  0  0
  8 22  1  0  0  0
  9 10  1  0  0  0
  9 27  2  0  0  0
 10 11  2  0  0  0
 10 15  1  0  0  0
 11 12  1  0  0  0
 11 95  1  0  0  0
 12 13  2  0  0  0
 12 96  1  0  0  0
 13 14  1  0  0  0
 13 31  1  0  0  0
 14 15  2  0  0  0
 14 97  1  0  0  0
 15 98  1  0  0  0
 16 17  2  0  0  0
 16 21  1  0  0  0
 16 31  1  0  0  0
 17 18  1  0  0  0
 17 99  1  0  0  0
 18 19  2  0  0  0
 18100  1  0  0  0
 19 20  1  0  0  0
 19 24  1  0  0  0
 20 21  2  0  0  0
 20101  1  0  0  0
 21 23  1  0  0  0
 22 28  1  0  0  0
 22 32  2  0  0  0
 26 27  1  0  0  0
 28102  1  0  0  0
 28103  1  0  0  0
 29104  1  0  0  0
 29105  1  0  0  0
 33 34  1  0  0  0
 33 66  1  0  0  0
 33 70  2  0  0  0
 34 36  1  0  0  0
 34 59  1  0  0  0
 34106  1  0  0  0
 35 44  2  0  0  0
 35 45  1  0  0  0
 35 68  1  0  0  0
 36 56  1  0  0  0
 36107  1  0  0  0
 37 39  1  0  0  0
 37 47  1  0  0  0
 37 66  1  0  0  0
 37108  1  0  0  0
 38 43  2  0  0  0
 38 46  1  0  0  0
 38 47  1  0  0  0
 39 64  1  0  0  0
 39 67  2  0  0  0
 40 52  1  0  0  0
 40 53  2  0  0  0
 40 58  1  0  0  0
 41109  1  0  0  0
 41110  1  0  0  0
 41111  1  0  0  0
 41 48  1  0  0  0
 42 43  1  0  0  0
 42 66  1  0  0  0
 42112  1  0  0  0
 42113  1  0  0  0
 43 44  1  0  0  0
 44114  1  0  0  0
 45 46  2  0  0  0
 45115  1  0  0  0
 46116  1  0  0  0
 47117  1  0  0  0
 47118  1  0  0  0
 48 56  1  0  0  0
 48 65  1  0  0  0
 48119  1  0  0  0
 49 50  1  0  0  0
 49 53  1  0  0  0
 49 64  1  0  0  0
 49120  1  0  0  0
 50 51  1  0  0  0
 50121  1  0  0  0
 50122  1  0  0  0
 51 52  1  0  0  0
 51123  1  0  0  0
 51124  1  0  0  0
 52125  1  0  0  0
 52126  1  0  0  0
 53 54  1  0  0  0
 54 55  2  0  0  0
 54127  1  0  0  0
 55 57  1  0  0  0
 55128  1  0  0  0
 56 69  2  0  0  0
 57 58  2  0  0  0
 57129  1  0  0  0
 58130  1  0  0  0
 59 60  1  0  0  0
 59 61  1  0  0  0
 59 62  1  0  0  0
 60131  1  0  0  0
 60132  1  0  0  0
 60133  1  0  0  0
 61134  1  0  0  0
 61135  1  0  0  0
 61136  1  0  0  0
 62137  1  0  0  0
 62138  1  0  0  0
 62139  1  0  0  0
 63 65  1  0  0  0
 63140  1  0  0  0
 63141  1  0  0  0
 63142  1  0  0  0
 64143  1  0  0  0
 65144  1  0  0  0
 68 82  1  0  0  0
 71 72  1  0  0  0
 71 73  2  0  0  0
 71145  1  0  0  0
 72 74  2  0  0  0
 72146  1  0  0  0
 73 83  1  0  0  0
 73 85  1  0  0  0
 74 84  1  0  0  0
 74 85  1  0  0  0
 75 76  1  0  0  0
 75 77  1  0  0  0
 75147  1  0  0  0
 75148  1  0  0  0
 76 83  1  0  0  0
 76149  1  0  0  0
 76150  1  0  0  0
 77 78  1  0  0  0
 77 79  1  0  0  0
 77 82  1  0  0  0
 78 80  1  0  0  0
 78 81  1  0  0  0
 78 83  1  0  0  0
 79151  1  0  0  0
 79152  1  0  0  0
 79153  1  0  0  0
 80154  1  0  0  0
 80155  1  0  0  0
 80156  1  0  0  0
 81157  1  0  0  0
 81158  1  0  0  0
 81159  1  0  0  0
 82160  1  0  0  0
 82161  1  0  0  0
 84162  1  0  0  0
M  ISO  4   1 100  68 101  82 101  84 100
M  END
> <chiral flag>
0

> <version>
0

> <s_m_source_file>
/data/baiqing/PycharmProjects/Reinvent-master-3.2/result/LINK_invent/BTK/process_docking_weight1_custom_product_contain_oxygen_bond_distance_aromatic_linkinvent_7_9_3/rearranged_h_0150.sdf

> <i_m_source_file_index>
27

> <r_mmod_Potential_Energy-OPLS-2005>
263.961578369141

> <r_mmod_Stretch_Energy-OPLS-2005>
114.738677978516

> <r_mmod_Bend_Energy-OPLS-2005>
226.071685791016

> <r_mmod_Torsional_Energy-OPLS-2005>
331.166870117188

> <r_mmod_Improper_Torsional_Energy-OPLS-2005>
5.35007238388062

> <r_mmod_Van_der_Waal_Energy-OPLS-2005>
121.075584411621

> <r_mmod_Electrostatic_Energy-OPLS-2005>
-403.862884521484

> <r_mmod_Solvation_Energy-OPLS-2005>
-205.881530761719

> <b_mmod_Minimization_Converged-OPLS-2005>
0

> <r_mmod_RMS_Derivative-OPLS-2005>
3.82981991767883

$$$$
27
                    3D
 Structure written by MMmdl.
169177  0  0  1  0            999 V2000
  -30.7323  -14.4830   20.5555 C   0  0  0  0  0  0
  -30.4122  -12.3132   19.4322 C   0  0  0  0  0  0
  -29.4909  -12.4976   18.2095 C   0  0  0  0  0  0
  -28.0137  -12.3599   18.6239 C   0  0  0  0  0  0
  -27.6571  -13.2155   19.8698 C   0  0  2  0  0  0
  -28.7010  -13.0386   20.9969 C   0  0  0  0  0  0
  -25.2561  -13.8172   20.5658 C   0  0  0  0  0  0
  -24.1827  -13.0445   20.9181 C   0  0  0  0  0  0
  -24.6395  -11.6917   20.8748 C   0  0  0  0  0  0
  -23.9062  -10.4296   21.0409 C   0  0  0  0  0  0
  -24.3611   -9.4213   21.9191 C   0  0  0  0  0  0
  -23.6286   -8.2248   22.0761 C   0  0  0  0  0  0
  -22.4272   -8.0284   21.3547 C   0  0  0  0  0  0
  -21.9908   -9.0255   20.4647 C   0  0  0  0  0  0
  -22.7237  -10.2134   20.3056 C   0  0  0  0  0  0
  -21.6856   -6.0734   22.5275 C   0  0  0  0  0  0
  -21.4014   -6.5637   23.8204 C   0  0  0  0  0  0
  -21.3656   -5.6791   24.9167 C   0  0  0  0  0  0
  -21.6043   -4.3053   24.7221 C   0  0  0  0  0  0
  -21.8820   -3.8144   23.4340 C   0  0  0  0  0  0
  -21.9194   -4.6960   22.3397 C   0  0  0  0  0  0
  -22.7850  -13.5247   21.1841 C   0  0  0  0  0  0
  -22.1662   -4.2147   21.0974 F   0  0  0  0  0  0
  -21.5628   -3.4540   25.7731 F   0  0  0  0  0  0
  -30.0297  -13.3223   20.4342 N   0  0  0  0  0  0
  -26.3007  -12.9365   20.3362 N   0  0  0  0  0  0
  -25.9330  -11.6519   20.5793 N   0  0  0  0  0  0
  -22.0492  -12.8230   22.0390 N   0  0  0  0  0  0
  -25.4259  -15.1875   20.3989 N   0  0  0  0  0  0
  -31.8650  -14.6213   20.0886 O   0  0  0  0  0  0
  -21.6643   -6.8879   21.4239 O   0  0  0  0  0  0
  -22.3539  -14.5557   20.6695 O   0  0  0  0  0  0
  -24.6192  -31.8665   23.2098 C   0  0  0  0  0  0
  -25.9076  -32.4808   23.8398 C   0  0  1  0  0  0
  -27.2207  -27.4010   20.0988 C   0  0  0  0  0  0
  -25.5925  -33.8606   24.2332 N   0  0  0  0  0  0
  -23.4068  -30.4942   21.5510 C   0  0  2  0  0  0
  -24.8499  -28.9647   20.1100 C   0  0  0  0  0  0
  -22.7431  -29.4668   22.4973 C   0  0  0  0  0  0
  -18.0273  -28.1379   22.8490 C   0  0  0  0  0  0
  -24.1486  -36.7298   23.2644 C   0  0  0  0  0  0
  -25.9409  -30.8245   21.3669 C   0  0  0  0  0  0
  -26.0156  -29.4596   20.7084 C   0  0  0  0  0  0
  -27.2059  -28.6880   20.6956 C   0  0  0  0  0  0
  -26.0333  -26.9424   19.4783 C   0  0  0  0  0  0
  -24.8564  -27.7078   19.4889 C   0  0  0  0  0  0
  -23.6141  -29.8334   20.1638 C   0  0  0  0  0  0
  -25.4107  -36.3099   24.0339 C   0  0  1  0  0  0
  -20.5871  -28.3677   23.1298 C   0  0  2  0  0  0
  -20.6768  -26.9406   22.5409 C   0  0  0  0  0  0
  -19.5743  -26.6380   21.5211 C   0  0  0  0  0  0
  -18.1918  -26.7927   22.1615 C   0  0  0  0  0  0
  -19.1525  -28.8842   23.2893 C   0  0  0  0  0  0
  -18.9454  -30.1449   23.8902 C   0  0  0  0  0  0
  -17.6454  -30.6581   24.0570 C   0  0  0  0  0  0
  -25.9041  -34.9465   23.5129 C   0  0  0  0  0  0
  -16.5345  -29.9084   23.6333 C   0  0  0  0  0  0
  -16.7261  -28.6502   23.0350 C   0  0  0  0  0  0
  -26.4488  -31.6583   25.0729 C   0  0  0  0  0  0
  -25.3744  -31.3659   26.1462 C   0  0  0  0  0  0
  -27.0347  -30.3033   24.6121 C   0  0  0  0  0  0
  -27.6063  -32.4303   25.7493 C   0  0  0  0  0  0
  -27.5572  -37.1814   24.8469 C   0  0  0  0  0  0
  -21.4154  -29.3049   22.3710 N   0  0  0  0  0  0
  -26.4288  -37.3789   23.9406 N   0  0  0  0  0  0
  -24.6743  -31.0761   22.1005 N   0  0  0  0  0  0
  -23.4193  -28.8200   23.3016 O   0  0  0  0  0  0
  -28.3585  -26.6045   20.1467 O   0  0  0  0  0  0
  -26.5600  -34.8921   22.4688 O   0  0  0  0  0  0
  -23.5378  -32.1425   23.7482 O   0  0  0  0  0  0
  -28.5876  -17.7935   22.3062 C   0  0  0  0  0  0
  -29.8326  -19.3685   20.9263 C   0  0  0  0  0  0
  -27.9080  -20.1321   22.1983 C   0  0  0  0  0  0
  -29.6514  -18.0444   21.4157 C   0  0  0  0  0  0
  -27.7044  -18.8231   22.7061 C   0  0  0  0  0  0
  -28.9848  -20.4348   21.3274 C   0  0  0  0  0  0
  -28.8543  -22.9698   21.3196 C   0  0  0  0  0  0
  -27.1884  -17.9838   25.0222 C   0  0  0  0  0  0
  -25.6644  -17.3949   23.1143 C   0  0  0  0  0  0
  -25.6838  -19.7076   24.0364 C   0  0  0  0  0  0
  -29.3017  -24.2670   20.5945 C   0  0  0  0  0  0
  -28.1211  -25.1705   20.1309 C   0  0  0  0  0  0
  -30.6503  -16.9285   21.0501 C   0  0  2  0  0  0
  -26.5745  -18.4913   23.7017 C   0  0  0  0  0  0
  -29.2437  -21.7649   20.8263 N   0  0  0  0  0  0
  -30.0999  -15.5488   21.0882 N   0  0  0  0  0  0
  -31.8829  -17.1691   21.8217 N   0  3  0  0  0  0
  -28.1899  -23.0910   22.3515 O   0  0  0  0  0  0
  -31.4589  -12.3900   19.1314 H   0  0  0  0  0  0
  -30.2991  -11.3109   19.8485 H   0  0  0  0  0  0
  -29.7319  -11.7617   17.4413 H   0  0  0  0  0  0
  -29.6591  -13.4777   17.7596 H   0  0  0  0  0  0
  -27.8278  -11.3056   18.8330 H   0  0  0  0  0  0
  -27.3617  -12.6220   17.7895 H   0  0  0  0  0  0
  -27.6889  -14.2579   19.5519 H   0  0  0  0  0  0
  -28.6768  -12.0182   21.3819 H   0  0  0  0  0  0
  -28.4666  -13.6804   21.8473 H   0  0  0  0  0  0
  -25.2754   -9.5695   22.4768 H   0  0  0  0  0  0
  -23.9990   -7.4649   22.7490 H   0  0  0  0  0  0
  -21.0838   -8.8773   19.8955 H   0  0  0  0  0  0
  -22.3696  -10.9673   19.6160 H   0  0  0  0  0  0
  -21.2005   -7.6142   23.9708 H   0  0  0  0  0  0
  -21.1475   -6.0521   25.9070 H   0  0  0  0  0  0
  -22.0600   -2.7609   23.2842 H   0  0  0  0  0  0
  -22.4093  -11.9873   22.4755 H   0  0  0  0  0  0
  -21.1110  -13.1255   22.2597 H   0  0  0  0  0  0
  -24.6590  -15.8400   20.5128 H   0  0  0  0  0  0
  -26.2750  -15.6298   20.0720 H   0  0  0  0  0  0
  -26.7154  -32.5503   23.1165 H   0  0  0  0  0  0
  -25.0114  -33.9768   25.0504 H   0  0  0  0  0  0
  -22.6968  -31.3128   21.4142 H   0  0  0  0  0  0
  -23.3752  -35.9626   23.3302 H   0  0  0  0  0  0
  -24.3589  -36.8915   22.2059 H   0  0  0  0  0  0
  -23.7235  -37.6499   23.6660 H   0  0  0  0  0  0
  -26.0596  -31.5924   20.6009 H   0  0  0  0  0  0
  -26.8271  -30.8731   21.9882 H   0  0  0  0  0  0
  -28.1024  -29.0633   21.1695 H   0  0  0  0  0  0
  -25.9848  -25.9841   18.9832 H   0  0  0  0  0  0
  -23.9620  -27.3242   19.0173 H   0  0  0  0  0  0
  -23.7225  -30.6109   19.4068 H   0  0  0  0  0  0
  -22.7373  -29.2551   19.8660 H   0  0  0  0  0  0
  -25.1289  -36.1963   25.0834 H   0  0  0  0  0  0
  -20.9958  -28.3240   24.1417 H   0  0  0  0  0  0
  -20.5666  -26.2286   23.3606 H   0  0  0  0  0  0
  -21.6637  -26.7442   22.1199 H   0  0  0  0  0  0
  -19.6903  -25.6295   21.1234 H   0  0  0  0  0  0
  -19.6679  -27.3204   20.6752 H   0  0  0  0  0  0
  -17.4194  -26.6696   21.4007 H   0  0  0  0  0  0
  -18.0299  -26.0051   22.8988 H   0  0  0  0  0  0
  -19.7933  -30.7275   24.2258 H   0  0  0  0  0  0
  -17.5008  -31.6262   24.5173 H   0  0  0  0  0  0
  -15.5347  -30.2991   23.7658 H   0  0  0  0  0  0
  -15.8656  -28.0829   22.7057 H   0  0  0  0  0  0
  -24.5968  -30.6952   25.7782 H   0  0  0  0  0  0
  -24.8875  -32.2791   26.4897 H   0  0  0  0  0  0
  -25.8103  -30.8849   27.0228 H   0  0  0  0  0  0
  -26.2909  -29.6760   24.1196 H   0  0  0  0  0  0
  -27.4145  -29.7299   25.4587 H   0  0  0  0  0  0
  -27.8719  -30.4352   23.9264 H   0  0  0  0  0  0
  -27.2701  -33.3620   26.2050 H   0  0  0  0  0  0
  -28.3889  -32.6826   25.0324 H   0  0  0  0  0  0
  -28.0709  -31.8429   26.5422 H   0  0  0  0  0  0
  -28.2597  -38.0106   24.7517 H   0  0  0  0  0  0
  -28.1064  -36.2639   24.6297 H   0  0  0  0  0  0
  -27.2289  -37.1459   25.8874 H   0  0  0  0  0  0
  -20.9312  -29.8791   21.6951 H   0  0  0  0  0  0
  -26.0166  -38.2863   24.1405 H   0  0  0  0  0  0
  -28.4540  -16.8001   22.7085 H   0  0  0  0  0  0
  -30.6545  -19.5747   20.2540 H   0  0  0  0  0  0
  -27.2325  -20.9193   22.4855 H   0  0  0  0  0  0
  -27.7666  -17.0698   24.8855 H   0  0  0  0  0  0
  -26.4176  -17.7618   25.7611 H   0  0  0  0  0  0
  -27.8543  -18.7289   25.4594 H   0  0  0  0  0  0
  -26.2031  -16.4672   22.9219 H   0  0  0  0  0  0
  -25.2190  -17.7152   22.1720 H   0  0  0  0  0  0
  -24.8484  -17.1481   23.7944 H   0  0  0  0  0  0
  -26.2548  -20.5124   24.5010 H   0  0  0  0  0  0
  -24.8928  -19.4386   24.7376 H   0  0  0  0  0  0
  -25.1952  -20.1077   23.1471 H   0  0  0  0  0  0
  -29.9570  -24.0390   19.7535 H   0  0  0  0  0  0
  -29.9094  -24.8238   21.3078 H   0  0  0  0  0  0
  -27.2512  -24.9557   20.7549 H   0  0  0  0  0  0
  -27.8583  -24.8673   19.1170 H   0  0  0  0  0  0
  -30.9110  -17.1113   20.0044 H   0  0  0  0  0  0
  -29.8507  -21.8142   20.0192 H   0  0  0  0  0  0
  -29.1515  -15.4261   21.4041 H   0  0  0  0  0  0
  -31.7243  -17.0430   22.8040 H   0  0  0  0  0  0
  -32.1998  -18.1099   21.6746 H   0  0  0  0  0  0
  -32.6135  -16.5483   21.5206 H   0  0  0  0  0  0
  1 25  1  0  0  0
  1 30  2  0  0  0
  1 86  1  0  0  0
  2  3  1  0  0  0
  2 25  1  0  0  0
  2 89  1  0  0  0
  2 90  1  0  0  0
  3  4  1  0  0  0
  3 91  1  0  0  0
  3 92  1  0  0  0
  4  5  1  0  0  0
  4 93  1  0  0  0
  4 94  1  0  0  0
  5  6  1  0  0  0
  5 26  1  0  0  0
  5 95  1  0  0  0
  6 25  1  0  0  0
  6 96  1  0  0  0
  6 97  1  0  0  0
  7  8  2  0  0  0
  7 26  1  0  0  0
  7 29  1  0  0  0
  8  9  1  0  0  0
  8 22  1  0  0  0
  9 10  1  0  0  0
  9 27  2  0  0  0
 10 11  2  0  0  0
 10 15  1  0  0  0
 11 12  1  0  0  0
 11 98  1  0  0  0
 12 13  2  0  0  0
 12 99  1  0  0  0
 13 14  1  0  0  0
 13 31  1  0  0  0
 14 15  2  0  0  0
 14100  1  0  0  0
 15101  1  0  0  0
 16 17  2  0  0  0
 16 21  1  0  0  0
 16 31  1  0  0  0
 17 18  1  0  0  0
 17102  1  0  0  0
 18 19  2  0  0  0
 18103  1  0  0  0
 19 20  1  0  0  0
 19 24  1  0  0  0
 20 21  2  0  0  0
 20104  1  0  0  0
 21 23  1  0  0  0
 22 28  1  0  0  0
 22 32  2  0  0  0
 26 27  1  0  0  0
 28105  1  0  0  0
 28106  1  0  0  0
 29107  1  0  0  0
 29108  1  0  0  0
 33 34  1  0  0  0
 33 66  1  0  0  0
 33 70  2  0  0  0
 34 36  1  0  0  0
 34 59  1  0  0  0
 34109  1  0  0  0
 35 44  2  0  0  0
 35 45  1  0  0  0
 35 68  1  0  0  0
 36 56  1  0  0  0
 36110  1  0  0  0
 37 39  1  0  0  0
 37 47  1  0  0  0
 37 66  1  0  0  0
 37111  1  0  0  0
 38 43  2  0  0  0
 38 46  1  0  0  0
 38 47  1  0  0  0
 39 64  1  0  0  0
 39 67  2  0  0  0
 40 52  1  0  0  0
 40 53  2  0  0  0
 40 58  1  0  0  0
 41112  1  0  0  0
 41113  1  0  0  0
 41114  1  0  0  0
 41 48  1  0  0  0
 42 43  1  0  0  0
 42 66  1  0  0  0
 42115  1  0  0  0
 42116  1  0  0  0
 43 44  1  0  0  0
 44117  1  0  0  0
 45 46  2  0  0  0
 45118  1  0  0  0
 46119  1  0  0  0
 47120  1  0  0  0
 47121  1  0  0  0
 48 56  1  0  0  0
 48 65  1  0  0  0
 48122  1  0  0  0
 49 50  1  0  0  0
 49 53  1  0  0  0
 49 64  1  0  0  0
 49123  1  0  0  0
 50 51  1  0  0  0
 50124  1  0  0  0
 50125  1  0  0  0
 51 52  1  0  0  0
 51126  1  0  0  0
 51127  1  0  0  0
 52128  1  0  0  0
 52129  1  0  0  0
 53 54  1  0  0  0
 54 55  2  0  0  0
 54130  1  0  0  0
 55 57  1  0  0  0
 55131  1  0  0  0
 56 69  2  0  0  0
 57 58  2  0  0  0
 57132  1  0  0  0
 58133  1  0  0  0
 59 60  1  0  0  0
 59 61  1  0  0  0
 59 62  1  0  0  0
 60134  1  0  0  0
 60135  1  0  0  0
 60136  1  0  0  0
 61137  1  0  0  0
 61138  1  0  0  0
 61139  1  0  0  0
 62140  1  0  0  0
 62141  1  0  0  0
 62142  1  0  0  0
 63 65  1  0  0  0
 63143  1  0  0  0
 63144  1  0  0  0
 63145  1  0  0  0
 64146  1  0  0  0
 65147  1  0  0  0
 68 82  1  0  0  0
 71 74  2  0  0  0
 71 75  1  0  0  0
 71148  1  0  0  0
 72 74  1  0  0  0
 72 76  2  0  0  0
 72149  1  0  0  0
 73 75  2  0  0  0
 73 76  1  0  0  0
 73150  1  0  0  0
 74 83  1  0  0  0
 75 84  1  0  0  0
 76 85  1  0  0  0
 77 81  1  0  0  0
 77 85  1  0  0  0
 77 88  2  0  0  0
 78151  1  0  0  0
 78152  1  0  0  0
 78153  1  0  0  0
 78 84  1  0  0  0
 79 84  1  0  0  0
 79154  1  0  0  0
 79155  1  0  0  0
 79156  1  0  0  0
 80 84  1  0  0  0
 80157  1  0  0  0
 80158  1  0  0  0
 80159  1  0  0  0
 81 82  1  0  0  0
 81160  1  0  0  0
 81161  1  0  0  0
 82162  1  0  0  0
 82163  1  0  0  0
 83 86  1  0  0  0
 83 87  1  0  0  0
 83164  1  0  0  0
 85165  1  0  0  0
 86166  1  0  0  0
 87167  1  0  0  0
 87168  1  0  0  0
 87169  1  0  0  0
M  CHG  1  87   1
M  ISO  4   1 100  68 101  82 101  86 100
M  END
> <chiral flag>
0

> <version>
0

> <s_m_source_file>
/data/baiqing/PycharmProjects/Reinvent-master-3.2/result/LINK_invent/BTK/process_docking_weight1_custom_product_contain_oxygen_bond_distance_aromatic_linkinvent_7_9_3/rearranged_h_0150.sdf

> <i_m_source_file_index>
28

> <r_mmod_Potential_Energy-OPLS-2005>
-463.141326904297

> <r_mmod_Stretch_Energy-OPLS-2005>
49.3799362182617

> <r_mmod_Bend_Energy-OPLS-2005>
111.407752990723

> <r_mmod_Torsional_Energy-OPLS-2005>
203.067581176758

> <r_mmod_Improper_Torsional_Energy-OPLS-2005>
3.52455019950867

> <r_mmod_Van_der_Waal_Energy-OPLS-2005>
166.37141418457

> <r_mmod_Electrostatic_Energy-OPLS-2005>
-509.847106933594

> <r_mmod_Solvation_Energy-OPLS-2005>
-506.480224609375

> <b_mmod_Minimization_Converged-OPLS-2005>
0

> <r_mmod_RMS_Derivative-OPLS-2005>
0.867500126361847

$$$$
28
                    3D
 Structure written by MMmdl.
147155  0  0  1  0            999 V2000
  -30.6423  -14.7515   20.4487 C   0  0  0  0  0  0
  -30.4240  -12.4577   19.4833 C   0  0  0  0  0  0
  -29.5105  -12.5120   18.2401 C   0  0  0  0  0  0
  -28.0380  -12.3337   18.6533 C   0  0  0  0  0  0
  -27.6410  -13.2392   19.8501 C   0  0  2  0  0  0
  -28.6854  -13.1957   20.9883 C   0  0  0  0  0  0
  -25.2500  -13.8199   20.5676 C   0  0  0  0  0  0
  -24.1804  -13.0435   20.9211 C   0  0  0  0  0  0
  -24.6390  -11.6915   20.8739 C   0  0  0  0  0  0
  -23.9062  -10.4286   21.0397 C   0  0  0  0  0  0
  -24.3612   -9.4208   21.9181 C   0  0  0  0  0  0
  -23.6299   -8.2236   22.0745 C   0  0  0  0  0  0
  -22.4279   -8.0263   21.3538 C   0  0  0  0  0  0
  -21.9902   -9.0238   20.4637 C   0  0  0  0  0  0
  -22.7223  -10.2126   20.3046 C   0  0  0  0  0  0
  -21.6851   -6.0726   22.5279 C   0  0  0  0  0  0
  -21.4009   -6.5631   23.8214 C   0  0  0  0  0  0
  -21.3674   -5.6784   24.9180 C   0  0  0  0  0  0
  -21.6060   -4.3049   24.7216 C   0  0  0  0  0  0
  -21.8825   -3.8135   23.4337 C   0  0  0  0  0  0
  -21.9190   -4.6957   22.3393 C   0  0  0  0  0  0
  -22.7822  -13.5224   21.1874 C   0  0  0  0  0  0
  -22.1664   -4.2144   21.0968 F   0  0  0  0  0  0
  -21.5633   -3.4533   25.7733 F   0  0  0  0  0  0
  -29.9868  -13.5386   20.4010 N   0  0  0  0  0  0
  -26.2939  -12.9426   20.3274 N   0  0  0  0  0  0
  -25.9332  -11.6552   20.5746 N   0  0  0  0  0  0
  -22.0452  -12.8232   22.0419 N   0  0  0  0  0  0
  -25.4176  -15.1918   20.4103 N   0  0  0  0  0  0
  -31.8378  -14.7784   20.1430 O   0  0  0  0  0  0
  -21.6628   -6.8874   21.4240 O   0  0  0  0  0  0
  -22.3521  -14.5543   20.6736 O   0  0  0  0  0  0
  -24.6332  -31.8556   23.2006 C   0  0  0  0  0  0
  -25.9155  -32.4753   23.8348 C   0  0  1  0  0  0
  -27.2134  -27.2520   20.1370 C   0  0  0  0  0  0
  -25.5945  -33.8554   24.2270 N   0  0  0  0  0  0
  -23.4303  -30.4802   21.5435 C   0  0  2  0  0  0
  -24.8761  -28.9309   20.1112 C   0  0  0  0  0  0
  -22.7529  -29.4602   22.4913 C   0  0  0  0  0  0
  -18.0299  -28.1376   22.8493 C   0  0  0  0  0  0
  -24.1495  -36.7282   23.2638 C   0  0  0  0  0  0
  -25.9780  -30.7666   21.3821 C   0  0  0  0  0  0
  -26.0491  -29.3894   20.7236 C   0  0  0  0  0  0
  -27.2227  -28.5649   20.7232 C   0  0  0  0  0  0
  -26.0193  -26.8756   19.4800 C   0  0  0  0  0  0
  -24.8681  -27.6830   19.4749 C   0  0  0  0  0  0
  -23.6489  -29.8191   20.1589 C   0  0  0  0  0  0
  -25.4118  -36.3064   24.0326 C   0  0  1  0  0  0
  -20.5911  -28.3686   23.1269 C   0  0  2  0  0  0
  -20.6783  -26.9403   22.5402 C   0  0  0  0  0  0
  -19.5750  -26.6376   21.5214 C   0  0  0  0  0  0
  -18.1935  -26.7917   22.1635 C   0  0  0  0  0  0
  -19.1552  -28.8850   23.2871 C   0  0  0  0  0  0
  -18.9464  -30.1456   23.8885 C   0  0  0  0  0  0
  -17.6461  -30.6576   24.0553 C   0  0  0  0  0  0
  -25.9066  -34.9437   23.5095 C   0  0  0  0  0  0
  -16.5361  -29.9070   23.6327 C   0  0  0  0  0  0
  -16.7284  -28.6484   23.0359 C   0  0  0  0  0  0
  -26.4516  -31.6576   25.0737 C   0  0  0  0  0  0
  -25.3744  -31.3740   26.1470 C   0  0  0  0  0  0
  -27.0336  -30.2980   24.6224 C   0  0  0  0  0  0
  -27.6088  -32.4302   25.7501 C   0  0  0  0  0  0
  -27.5588  -37.1789   24.8460 C   0  0  0  0  0  0
  -21.4231  -29.3042   22.3665 N   0  0  0  0  0  0
  -26.4287  -37.3771   23.9420 N   0  0  0  0  0  0
  -24.6999  -31.0524   22.0983 N   0  0  0  0  0  0
  -23.4226  -28.8135   23.3001 O   0  0  0  0  0  0
  -28.2830  -26.3239   20.1991 O   0  0  0  0  0  0
  -26.5632  -34.8910   22.4668 O   0  0  0  0  0  0
  -23.5480  -32.1382   23.7302 O   0  0  0  0  0  0
  -31.5844  -17.7217   20.0799 C   0  0  0  0  0  0
  -30.3084  -17.3601   20.4492 C   0  0  0  0  0  0
  -30.1348  -19.7483   20.3565 C   0  0  0  0  0  0
  -29.0249  -23.7238   20.3487 C   0  0  0  0  0  0
  -28.6409  -22.1676   20.5149 C   0  0  0  0  0  0
  -27.9087  -24.8734   20.4147 C   0  0  0  0  0  0
  -29.4828  -18.5564   20.5927 N   0  0  0  0  0  0
  -29.9138  -15.9294   20.6318 N   0  0  0  0  0  0
  -29.7503  -21.1451   20.3735 N   0  0  0  0  0  0
  -30.2113  -24.0163   20.1575 O   0  0  0  0  0  0
  -31.8164  -19.4488   19.9322 S   0  0  0  0  0  0
  -31.4694  -12.5555   19.1842 H   0  0  0  0  0  0
  -30.3486  -11.4874   19.9771 H   0  0  0  0  0  0
  -29.7991  -11.7402   17.5245 H   0  0  0  0  0  0
  -29.6375  -13.4671   17.7288 H   0  0  0  0  0  0
  -27.8992  -11.2872   18.9244 H   0  0  0  0  0  0
  -27.3805  -12.5227   17.8042 H   0  0  0  0  0  0
  -27.6314  -14.2576   19.4612 H   0  0  0  0  0  0
  -28.7220  -12.2072   21.4507 H   0  0  0  0  0  0
  -28.4193  -13.8965   21.7826 H   0  0  0  0  0  0
  -25.2746   -9.5703   22.4769 H   0  0  0  0  0  0
  -24.0012   -7.4628   22.7459 H   0  0  0  0  0  0
  -21.0826   -8.8762   19.8942 H   0  0  0  0  0  0
  -22.3668  -10.9677   19.6166 H   0  0  0  0  0  0
  -21.2003   -7.6146   23.9723 H   0  0  0  0  0  0
  -21.1500   -6.0502   25.9090 H   0  0  0  0  0  0
  -22.0594   -2.7596   23.2822 H   0  0  0  0  0  0
  -22.4044  -11.9895   22.4821 H   0  0  0  0  0  0
  -21.1077  -13.1293   22.2641 H   0  0  0  0  0  0
  -24.6428  -15.8380   20.5157 H   0  0  0  0  0  0
  -26.2564  -15.6374   20.0611 H   0  0  0  0  0  0
  -26.7226  -32.5393   23.1092 H   0  0  0  0  0  0
  -25.0083  -33.9688   25.0406 H   0  0  0  0  0  0
  -22.7253  -31.3017   21.4007 H   0  0  0  0  0  0
  -23.3761  -35.9606   23.3264 H   0  0  0  0  0  0
  -24.3600  -36.8943   22.2058 H   0  0  0  0  0  0
  -23.7239  -37.6470   23.6684 H   0  0  0  0  0  0
  -26.1192  -31.5261   20.6124 H   0  0  0  0  0  0
  -26.8567  -30.8154   22.0136 H   0  0  0  0  0  0
  -28.1167  -28.9121   21.2212 H   0  0  0  0  0  0
  -25.9387  -25.9352   18.9589 H   0  0  0  0  0  0
  -23.9742  -27.3324   18.9764 H   0  0  0  0  0  0
  -23.7739  -30.5973   19.4049 H   0  0  0  0  0  0
  -22.7678  -29.2521   19.8530 H   0  0  0  0  0  0
  -25.1296  -36.1906   25.0817 H   0  0  0  0  0  0
  -20.9999  -28.3248   24.1390 H   0  0  0  0  0  0
  -20.5687  -26.2291   23.3602 H   0  0  0  0  0  0
  -21.6644  -26.7421   22.1188 H   0  0  0  0  0  0
  -19.6901  -25.6284   21.1242 H   0  0  0  0  0  0
  -19.6674  -27.3192   20.6742 H   0  0  0  0  0  0
  -17.4205  -26.6667   21.4043 H   0  0  0  0  0  0
  -18.0333  -26.0060   22.9029 H   0  0  0  0  0  0
  -19.7940  -30.7277   24.2245 H   0  0  0  0  0  0
  -17.5014  -31.6263   24.5148 H   0  0  0  0  0  0
  -15.5355  -30.2960   23.7653 H   0  0  0  0  0  0
  -15.8688  -28.0793   22.7073 H   0  0  0  0  0  0
  -24.5841  -30.7189   25.7789 H   0  0  0  0  0  0
  -24.9025  -32.2918   26.4987 H   0  0  0  0  0  0
  -25.8046  -30.8813   27.0196 H   0  0  0  0  0  0
  -26.2893  -29.6742   24.1253 H   0  0  0  0  0  0
  -27.4008  -29.7245   25.4746 H   0  0  0  0  0  0
  -27.8799  -30.4238   23.9466 H   0  0  0  0  0  0
  -27.2721  -33.3617   26.2066 H   0  0  0  0  0  0
  -28.3905  -32.6835   25.0325 H   0  0  0  0  0  0
  -28.0745  -31.8421   26.5420 H   0  0  0  0  0  0
  -28.2576  -38.0117   24.7545 H   0  0  0  0  0  0
  -28.1111  -36.2646   24.6228 H   0  0  0  0  0  0
  -27.2310  -37.1376   25.8863 H   0  0  0  0  0  0
  -20.9417  -29.8770   21.6875 H   0  0  0  0  0  0
  -26.0158  -38.2839   24.1429 H   0  0  0  0  0  0
  -32.4355  -17.0879   19.8757 H   0  0  0  0  0  0
  -27.8689  -21.9404   19.7794 H   0  0  0  0  0  0
  -28.1751  -22.0455   21.4935 H   0  0  0  0  0  0
  -27.4352  -24.8044   21.3951 H   0  0  0  0  0  0
  -27.1574  -24.5568   19.6964 H   0  0  0  0  0  0
  -28.9445  -15.7827   20.8627 H   0  0  0  0  0  0
  -30.5886  -21.6961   20.2012 H   0  0  0  0  0  0
  1 25  1  0  0  0
  1 30  2  0  0  0
  1 78  1  0  0  0
  2  3  1  0  0  0
  2 25  1  0  0  0
  2 82  1  0  0  0
  2 83  1  0  0  0
  3  4  1  0  0  0
  3 84  1  0  0  0
  3 85  1  0  0  0
  4  5  1  0  0  0
  4 86  1  0  0  0
  4 87  1  0  0  0
  5  6  1  0  0  0
  5 26  1  0  0  0
  5 88  1  0  0  0
  6 25  1  0  0  0
  6 89  1  0  0  0
  6 90  1  0  0  0
  7  8  2  0  0  0
  7 26  1  0  0  0
  7 29  1  0  0  0
  8  9  1  0  0  0
  8 22  1  0  0  0
  9 10  1  0  0  0
  9 27  2  0  0  0
 10 11  2  0  0  0
 10 15  1  0  0  0
 11 12  1  0  0  0
 11 91  1  0  0  0
 12 13  2  0  0  0
 12 92  1  0  0  0
 13 14  1  0  0  0
 13 31  1  0  0  0
 14 15  2  0  0  0
 14 93  1  0  0  0
 15 94  1  0  0  0
 16 17  2  0  0  0
 16 21  1  0  0  0
 16 31  1  0  0  0
 17 18  1  0  0  0
 17 95  1  0  0  0
 18 19  2  0  0  0
 18 96  1  0  0  0
 19 20  1  0  0  0
 19 24  1  0  0  0
 20 21  2  0  0  0
 20 97  1  0  0  0
 21 23  1  0  0  0
 22 28  1  0  0  0
 22 32  2  0  0  0
 26 27  1  0  0  0
 28 98  1  0  0  0
 28 99  1  0  0  0
 29100  1  0  0  0
 29101  1  0  0  0
 33 34  1  0  0  0
 33 66  1  0  0  0
 33 70  2  0  0  0
 34 36  1  0  0  0
 34 59  1  0  0  0
 34102  1  0  0  0
 35 44  2  0  0  0
 35 45  1  0  0  0
 35 68  1  0  0  0
 36 56  1  0  0  0
 36103  1  0  0  0
 37 39  1  0  0  0
 37 47  1  0  0  0
 37 66  1  0  0  0
 37104  1  0  0  0
 38 43  2  0  0  0
 38 46  1  0  0  0
 38 47  1  0  0  0
 39 64  1  0  0  0
 39 67  2  0  0  0
 40 52  1  0  0  0
 40 53  2  0  0  0
 40 58  1  0  0  0
 41105  1  0  0  0
 41106  1  0  0  0
 41107  1  0  0  0
 41 48  1  0  0  0
 42 43  1  0  0  0
 42 66  1  0  0  0
 42108  1  0  0  0
 42109  1  0  0  0
 43 44  1  0  0  0
 44110  1  0  0  0
 45 46  2  0  0  0
 45111  1  0  0  0
 46112  1  0  0  0
 47113  1  0  0  0
 47114  1  0  0  0
 48 56  1  0  0  0
 48 65  1  0  0  0
 48115  1  0  0  0
 49 50  1  0  0  0
 49 53  1  0  0  0
 49 64  1  0  0  0
 49116  1  0  0  0
 50 51  1  0  0  0
 50117  1  0  0  0
 50118  1  0  0  0
 51 52  1  0  0  0
 51119  1  0  0  0
 51120  1  0  0  0
 52121  1  0  0  0
 52122  1  0  0  0
 53 54  1  0  0  0
 54 55  2  0  0  0
 54123  1  0  0  0
 55 57  1  0  0  0
 55124  1  0  0  0
 56 69  2  0  0  0
 57 58  2  0  0  0
 57125  1  0  0  0
 58126  1  0  0  0
 59 60  1  0  0  0
 59 61  1  0  0  0
 59 62  1  0  0  0
 60127  1  0  0  0
 60128  1  0  0  0
 60129  1  0  0  0
 61130  1  0  0  0
 61131  1  0  0  0
 61132  1  0  0  0
 62133  1  0  0  0
 62134  1  0  0  0
 62135  1  0  0  0
 63 65  1  0  0  0
 63136  1  0  0  0
 63137  1  0  0  0
 63138  1  0  0  0
 64139  1  0  0  0
 65140  1  0  0  0
 68 76  1  0  0  0
 71 72  2  0  0  0
 71 81  1  0  0  0
 71141  1  0  0  0
 72 77  1  0  0  0
 72 78  1  0  0  0
 73 77  2  0  0  0
 73 79  1  0  0  0
 73 81  1  0  0  0
 74 75  1  0  0  0
 74 76  1  0  0  0
 74 80  2  0  0  0
 75 79  1  0  0  0
 75142  1  0  0  0
 75143  1  0  0  0
 76144  1  0  0  0
 76145  1  0  0  0
 78146  1  0  0  0
 79147  1  0  0  0
M  ISO  4   1 100  68 101  76 101  78 100
M  END
> <chiral flag>
0

> <version>
0

> <s_m_source_file>
/data/baiqing/PycharmProjects/Reinvent-master-3.2/result/LINK_invent/BTK/process_docking_weight1_custom_product_contain_oxygen_bond_distance_aromatic_linkinvent_7_9_3/rearranged_h_0150.sdf

> <i_m_source_file_index>
29

> <r_mmod_Potential_Energy-OPLS-2005>
101.447273254395

> <r_mmod_Stretch_Energy-OPLS-2005>
125.18879699707

> <r_mmod_Bend_Energy-OPLS-2005>
182.884628295898

> <r_mmod_Torsional_Energy-OPLS-2005>
207.250717163086

> <r_mmod_Improper_Torsional_Energy-OPLS-2005>
4.58963251113892

> <r_mmod_Van_der_Waal_Energy-OPLS-2005>
126.286865234375

> <r_mmod_Electrostatic_Energy-OPLS-2005>
-396.981628417969

> <r_mmod_Solvation_Energy-OPLS-2005>
-240.473770141602

> <b_mmod_Minimization_Converged-OPLS-2005>
0

> <r_mmod_RMS_Derivative-OPLS-2005>
2.3463032245636

$$$$
29
                    3D
 Structure written by MMmdl.
156165  0  0  1  0            999 V2000
  -30.5659  -14.7639   20.4657 C   0  0  0  0  0  0
  -30.4468  -12.4704   19.4668 C   0  0  0  0  0  0
  -29.5161  -12.5083   18.2338 C   0  0  0  0  0  0
  -28.0407  -12.3285   18.6460 C   0  0  0  0  0  0
  -27.6411  -13.2234   19.8484 C   0  0  2  0  0  0
  -28.6873  -13.1384   20.9828 C   0  0  0  0  0  0
  -25.2512  -13.8178   20.5680 C   0  0  0  0  0  0
  -24.1796  -13.0432   20.9191 C   0  0  0  0  0  0
  -24.6357  -11.6899   20.8731 C   0  0  0  0  0  0
  -23.9040  -10.4298   21.0396 C   0  0  0  0  0  0
  -24.3593   -9.4213   21.9174 C   0  0  0  0  0  0
  -23.6277   -8.2253   22.0760 C   0  0  0  0  0  0
  -22.4278   -8.0275   21.3540 C   0  0  0  0  0  0
  -21.9896   -9.0235   20.4631 C   0  0  0  0  0  0
  -22.7220  -10.2109   20.3039 C   0  0  0  0  0  0
  -21.6843   -6.0723   22.5263 C   0  0  0  0  0  0
  -21.4012   -6.5634   23.8201 C   0  0  0  0  0  0
  -21.3659   -5.6781   24.9162 C   0  0  0  0  0  0
  -21.6063   -4.3045   24.7216 C   0  0  0  0  0  0
  -21.8820   -3.8128   23.4331 C   0  0  0  0  0  0
  -21.9196   -4.6950   22.3379 C   0  0  0  0  0  0
  -22.7817  -13.5219   21.1830 C   0  0  0  0  0  0
  -22.1666   -4.2131   21.0952 F   0  0  0  0  0  0
  -21.5631   -3.4512   25.7735 F   0  0  0  0  0  0
  -29.9857  -13.5155   20.4056 N   0  0  0  0  0  0
  -26.2915  -12.9334   20.3238 N   0  0  0  0  0  0
  -25.9283  -11.6490   20.5721 N   0  0  0  0  0  0
  -22.0449  -12.8220   22.0381 N   0  0  0  0  0  0
  -25.4229  -15.1899   20.4119 N   0  0  0  0  0  0
  -31.7583  -14.9060   20.1767 O   0  0  0  0  0  0
  -21.6639   -6.8860   21.4241 O   0  0  0  0  0  0
  -22.3502  -14.5521   20.6680 O   0  0  0  0  0  0
  -24.6306  -31.8549   23.1978 C   0  0  0  0  0  0
  -25.9116  -32.4767   23.8336 C   0  0  1  0  0  0
  -27.2136  -27.2594   20.1368 C   0  0  0  0  0  0
  -25.5919  -33.8571   24.2303 N   0  0  0  0  0  0
  -23.4297  -30.4781   21.5390 C   0  0  2  0  0  0
  -24.8791  -28.9198   20.1112 C   0  0  0  0  0  0
  -22.7471  -29.4635   22.4903 C   0  0  0  0  0  0
  -18.0280  -28.1413   22.8503 C   0  0  0  0  0  0
  -24.1488  -36.7248   23.2650 C   0  0  0  0  0  0
  -25.9745  -30.7714   21.3716 C   0  0  0  0  0  0
  -26.0504  -29.3887   20.7232 C   0  0  0  0  0  0
  -27.2256  -28.5700   20.7243 C   0  0  0  0  0  0
  -26.0235  -26.8513   19.5081 C   0  0  0  0  0  0
  -24.8694  -27.6589   19.4931 C   0  0  0  0  0  0
  -23.6515  -29.8093   20.1572 C   0  0  0  0  0  0
  -25.4091  -36.3068   24.0371 C   0  0  1  0  0  0
  -20.5886  -28.3692   23.1280 C   0  0  2  0  0  0
  -20.6806  -26.9421   22.5400 C   0  0  0  0  0  0
  -19.5765  -26.6409   21.5222 C   0  0  0  0  0  0
  -18.1944  -26.7986   22.1609 C   0  0  0  0  0  0
  -19.1556  -28.8858   23.2920 C   0  0  0  0  0  0
  -18.9487  -30.1470   23.8920 C   0  0  0  0  0  0
  -17.6502  -30.6615   24.0581 C   0  0  0  0  0  0
  -25.9012  -34.9448   23.5105 C   0  0  0  0  0  0
  -16.5366  -29.9132   23.6342 C   0  0  0  0  0  0
  -16.7282  -28.6547   23.0348 C   0  0  0  0  0  0
  -26.4496  -31.6569   25.0694 C   0  0  0  0  0  0
  -25.3738  -31.3687   26.1409 C   0  0  0  0  0  0
  -27.0356  -30.3034   24.6071 C   0  0  0  0  0  0
  -27.6102  -32.4226   25.7466 C   0  0  0  0  0  0
  -27.5569  -37.1780   24.8477 C   0  0  0  0  0  0
  -21.4169  -29.3086   22.3689 N   0  0  0  0  0  0
  -26.4275  -37.3755   23.9436 N   0  0  0  0  0  0
  -24.6985  -31.0484   22.0961 N   0  0  0  0  0  0
  -23.4162  -28.8150   23.2982 O   0  0  0  0  0  0
  -28.2890  -26.3516   20.1133 O   0  0  0  0  0  0
  -26.5562  -34.8917   22.4668 O   0  0  0  0  0  0
  -23.5445  -32.1404   23.7255 O   0  0  0  0  0  0
  -30.6495  -19.5017   20.9250 C   0  0  0  0  0  0
  -30.8938  -18.0640   20.9855 C   0  0  0  0  0  0
  -29.4072  -19.8917   20.4636 C   0  0  0  0  0  0
  -29.8475  -17.2474   20.5936 C   0  0  0  0  0  0
  -27.4292  -23.0576   19.4744 C   0  0  0  0  0  0
  -27.6332  -21.5025   19.4735 C   0  0  0  0  0  0
  -29.2812  -22.5330   20.8539 C   0  0  0  0  0  0
  -28.0480  -23.5616   20.7995 C   0  0  2  0  0  0
  -27.0983  -23.1463   21.9653 C   0  0  0  0  0  0
  -28.2608  -25.1809   21.0458 C   0  0  0  0  0  0
  -28.8485  -21.2286   20.2507 N   0  0  0  0  0  0
  -29.7002  -15.8446   20.6025 N   0  0  0  0  0  0
  -28.5267  -18.3678   20.1166 S   0  0  0  0  0  0
  -31.4818  -12.6288   19.1616 H   0  0  0  0  0  0
  -30.4250  -11.4901   19.9434 H   0  0  0  0  0  0
  -29.8087  -11.7391   17.5192 H   0  0  0  0  0  0
  -29.6346  -13.4620   17.7173 H   0  0  0  0  0  0
  -27.8959  -11.2784   18.9048 H   0  0  0  0  0  0
  -27.3834  -12.5184   17.7955 H   0  0  0  0  0  0
  -27.6366  -14.2472   19.4715 H   0  0  0  0  0  0
  -28.7280  -12.1301   21.3940 H   0  0  0  0  0  0
  -28.4141  -13.7938   21.8116 H   0  0  0  0  0  0
  -25.2740   -9.5699   22.4736 H   0  0  0  0  0  0
  -23.9987   -7.4643   22.7477 H   0  0  0  0  0  0
  -21.0833   -8.8720   19.8915 H   0  0  0  0  0  0
  -22.3673  -10.9631   19.6124 H   0  0  0  0  0  0
  -21.2002   -7.6142   23.9705 H   0  0  0  0  0  0
  -21.1483   -6.0499   25.9063 H   0  0  0  0  0  0
  -22.0608   -2.7594   23.2817 H   0  0  0  0  0  0
  -22.4015  -11.9847   22.4759 H   0  0  0  0  0  0
  -21.1052  -13.1224   22.2556 H   0  0  0  0  0  0
  -24.6551  -15.8425   20.5288 H   0  0  0  0  0  0
  -26.2645  -15.6319   20.0724 H   0  0  0  0  0  0
  -26.7185  -32.5413   23.1087 H   0  0  0  0  0  0
  -25.0240  -33.9761   25.0554 H   0  0  0  0  0  0
  -22.7283  -31.3018   21.3852 H   0  0  0  0  0  0
  -23.3808  -35.9522   23.3271 H   0  0  0  0  0  0
  -24.3641  -36.8878   22.2083 H   0  0  0  0  0  0
  -23.7183  -37.6422   23.6651 H   0  0  0  0  0  0
  -26.0923  -31.5265   20.5917 H   0  0  0  0  0  0
  -26.8621  -30.8362   21.9935 H   0  0  0  0  0  0
  -28.1264  -28.9255   21.2058 H   0  0  0  0  0  0
  -25.9891  -25.8763   19.0418 H   0  0  0  0  0  0
  -23.9738  -27.2930   19.0099 H   0  0  0  0  0  0
  -23.7872  -30.5841   19.4016 H   0  0  0  0  0  0
  -22.7676  -29.2493   19.8458 H   0  0  0  0  0  0
  -25.1299  -36.1914   25.0875 H   0  0  0  0  0  0
  -20.9971  -28.3242   24.1389 H   0  0  0  0  0  0
  -20.5713  -26.2291   23.3587 H   0  0  0  0  0  0
  -21.6667  -26.7499   22.1147 H   0  0  0  0  0  0
  -19.6919  -25.6327   21.1241 H   0  0  0  0  0  0
  -19.6718  -27.3228   20.6773 H   0  0  0  0  0  0
  -17.4224  -26.6764   21.4004 H   0  0  0  0  0  0
  -18.0287  -26.0152   22.8989 H   0  0  0  0  0  0
  -19.7989  -30.7280   24.2277 H   0  0  0  0  0  0
  -17.5083  -31.6307   24.5150 H   0  0  0  0  0  0
  -15.5375  -30.3041   23.7702 H   0  0  0  0  0  0
  -15.8674  -28.0893   22.6994 H   0  0  0  0  0  0
  -24.5982  -30.6918   25.7781 H   0  0  0  0  0  0
  -24.8822  -32.2830   26.4716 H   0  0  0  0  0  0
  -25.8092  -30.9010   27.0239 H   0  0  0  0  0  0
  -26.2948  -29.6742   24.1114 H   0  0  0  0  0  0
  -27.4226  -29.7267   25.4470 H   0  0  0  0  0  0
  -27.8695  -30.4473   23.9216 H   0  0  0  0  0  0
  -27.2825  -33.3612   26.1938 H   0  0  0  0  0  0
  -28.3968  -32.6564   25.0278 H   0  0  0  0  0  0
  -28.0639  -31.8327   26.5445 H   0  0  0  0  0  0
  -28.2539  -38.0122   24.7532 H   0  0  0  0  0  0
  -28.1116  -36.2640   24.6272 H   0  0  0  0  0  0
  -27.2308  -37.1371   25.8890 H   0  0  0  0  0  0
  -20.9274  -29.8915   21.7052 H   0  0  0  0  0  0
  -26.0156  -38.2826   24.1443 H   0  0  0  0  0  0
  -31.4253  -20.1953   21.2247 H   0  0  0  0  0  0
  -31.8417  -17.6892   21.3500 H   0  0  0  0  0  0
  -26.3816  -23.3401   19.3551 H   0  0  0  0  0  0
  -27.9701  -23.4810   18.6256 H   0  0  0  0  0  0
  -27.6885  -21.1076   18.4569 H   0  0  0  0  0  0
  -26.7855  -21.0066   19.9510 H   0  0  0  0  0  0
  -29.6300  -22.4025   21.8766 H   0  0  0  0  0  0
  -30.1276  -22.9166   20.2768 H   0  0  0  0  0  0
  -26.9194  -22.0731   22.0131 H   0  0  0  0  0  0
  -26.1201  -23.6267   21.8935 H   0  0  0  0  0  0
  -27.5182  -23.4307   22.9337 H   0  0  0  0  0  0
  -29.1928  -25.2587   21.6032 H   0  0  0  0  0  0
  -27.5229  -25.4885   21.7886 H   0  0  0  0  0  0
  -28.7411  -15.5402   20.6523 H   0  0  0  0  0  0
  1 25  1  0  0  0
  1 30  2  0  0  0
  1 82  1  0  0  0
  2  3  1  0  0  0
  2 25  1  0  0  0
  2 84  1  0  0  0
  2 85  1  0  0  0
  3  4  1  0  0  0
  3 86  1  0  0  0
  3 87  1  0  0  0
  4  5  1  0  0  0
  4 88  1  0  0  0
  4 89  1  0  0  0
  5  6  1  0  0  0
  5 26  1  0  0  0
  5 90  1  0  0  0
  6 25  1  0  0  0
  6 91  1  0  0  0
  6 92  1  0  0  0
  7  8  2  0  0  0
  7 26  1  0  0  0
  7 29  1  0  0  0
  8  9  1  0  0  0
  8 22  1  0  0  0
  9 10  1  0  0  0
  9 27  2  0  0  0
 10 11  2  0  0  0
 10 15  1  0  0  0
 11 12  1  0  0  0
 11 93  1  0  0  0
 12 13  2  0  0  0
 12 94  1  0  0  0
 13 14  1  0  0  0
 13 31  1  0  0  0
 14 15  2  0  0  0
 14 95  1  0  0  0
 15 96  1  0  0  0
 16 17  2  0  0  0
 16 21  1  0  0  0
 16 31  1  0  0  0
 17 18  1  0  0  0
 17 97  1  0  0  0
 18 19  2  0  0  0
 18 98  1  0  0  0
 19 20  1  0  0  0
 19 24  1  0  0  0
 20 21  2  0  0  0
 20 99  1  0  0  0
 21 23  1  0  0  0
 22 28  1  0  0  0
 22 32  2  0  0  0
 26 27  1  0  0  0
 28100  1  0  0  0
 28101  1  0  0  0
 29102  1  0  0  0
 29103  1  0  0  0
 33 34  1  0  0  0
 33 66  1  0  0  0
 33 70  2  0  0  0
 34 36  1  0  0  0
 34 59  1  0  0  0
 34104  1  0  0  0
 35 44  2  0  0  0
 35 45  1  0  0  0
 35 68  1  0  0  0
 36 56  1  0  0  0
 36105  1  0  0  0
 37 39  1  0  0  0
 37 47  1  0  0  0
 37 66  1  0  0  0
 37106  1  0  0  0
 38 43  2  0  0  0
 38 46  1  0  0  0
 38 47  1  0  0  0
 39 64  1  0  0  0
 39 67  2  0  0  0
 40 52  1  0  0  0
 40 53  2  0  0  0
 40 58  1  0  0  0
 41107  1  0  0  0
 41108  1  0  0  0
 41109  1  0  0  0
 41 48  1  0  0  0
 42 43  1  0  0  0
 42 66  1  0  0  0
 42110  1  0  0  0
 42111  1  0  0  0
 43 44  1  0  0  0
 44112  1  0  0  0
 45 46  2  0  0  0
 45113  1  0  0  0
 46114  1  0  0  0
 47115  1  0  0  0
 47116  1  0  0  0
 48 56  1  0  0  0
 48 65  1  0  0  0
 48117  1  0  0  0
 49 50  1  0  0  0
 49 53  1  0  0  0
 49 64  1  0  0  0
 49118  1  0  0  0
 50 51  1  0  0  0
 50119  1  0  0  0
 50120  1  0  0  0
 51 52  1  0  0  0
 51121  1  0  0  0
 51122  1  0  0  0
 52123  1  0  0  0
 52124  1  0  0  0
 53 54  1  0  0  0
 54 55  2  0  0  0
 54125  1  0  0  0
 55 57  1  0  0  0
 55126  1  0  0  0
 56 69  2  0  0  0
 57 58  2  0  0  0
 57127  1  0  0  0
 58128  1  0  0  0
 59 60  1  0  0  0
 59 61  1  0  0  0
 59 62  1  0  0  0
 60129  1  0  0  0
 60130  1  0  0  0
 60131  1  0  0  0
 61132  1  0  0  0
 61133  1  0  0  0
 61134  1  0  0  0
 62135  1  0  0  0
 62136  1  0  0  0
 62137  1  0  0  0
 63 65  1  0  0  0
 63138  1  0  0  0
 63139  1  0  0  0
 63140  1  0  0  0
 64141  1  0  0  0
 65142  1  0  0  0
 68 80  1  0  0  0
 71 72  1  0  0  0
 71 73  2  0  0  0
 71143  1  0  0  0
 72 74  2  0  0  0
 72144  1  0  0  0
 73 81  1  0  0  0
 73 83  1  0  0  0
 74 82  1  0  0  0
 74 83  1  0  0  0
 75 76  1  0  0  0
 75 78  1  0  0  0
 75145  1  0  0  0
 75146  1  0  0  0
 76 81  1  0  0  0
 76147  1  0  0  0
 76148  1  0  0  0
 77 78  1  0  0  0
 77 81  1  0  0  0
 77149  1  0  0  0
 77150  1  0  0  0
 78 79  1  0  0  0
 78 80  1  0  0  0
 79151  1  0  0  0
 79152  1  0  0  0
 79153  1  0  0  0
 80154  1  0  0  0
 80155  1  0  0  0
 82156  1  0  0  0
M  ISO  4   1 100  68 101  80 101  82 100
M  END
> <chiral flag>
0

> <version>
0

> <s_m_source_file>
/data/baiqing/PycharmProjects/Reinvent-master-3.2/result/LINK_invent/BTK/process_docking_weight1_custom_product_contain_oxygen_bond_distance_aromatic_linkinvent_7_9_3/rearranged_h_0150.sdf

> <i_m_source_file_index>
30

> <r_mmod_Potential_Energy-OPLS-2005>
328.135101318359

> <r_mmod_Stretch_Energy-OPLS-2005>
117.715202331543

> <r_mmod_Bend_Energy-OPLS-2005>
248.118362426758

> <r_mmod_Torsional_Energy-OPLS-2005>
316.423706054688

> <r_mmod_Improper_Torsional_Energy-OPLS-2005>
6.24892377853394

> <r_mmod_Van_der_Waal_Energy-OPLS-2005>
112.494110107422

> <r_mmod_Electrostatic_Energy-OPLS-2005>
-343.688079833984

> <r_mmod_Solvation_Energy-OPLS-2005>
-220.522476196289

> <b_mmod_Minimization_Converged-OPLS-2005>
0

> <r_mmod_RMS_Derivative-OPLS-2005>
5.19483232498169

$$$$
30
                    3D
 Structure written by MMmdl.
165174  0  0  1  0            999 V2000
  -30.6578  -14.5539   20.6664 C   0  0  0  0  0  0
  -30.4285  -12.3940   19.4375 C   0  0  0  0  0  0
  -29.4927  -12.5167   18.2198 C   0  0  0  0  0  0
  -28.0293  -12.2696   18.6371 C   0  0  0  0  0  0
  -27.6377  -13.1533   19.8461 C   0  0  2  0  0  0
  -28.6691  -13.0288   20.9847 C   0  0  0  0  0  0
  -25.2487  -13.7916   20.5492 C   0  0  0  0  0  0
  -24.1726  -13.0318   20.9111 C   0  0  0  0  0  0
  -24.6279  -11.6757   20.8731 C   0  0  0  0  0  0
  -23.9004  -10.4189   21.0461 C   0  0  0  0  0  0
  -24.3610   -9.4132   21.9235 C   0  0  0  0  0  0
  -23.6276   -8.2200   22.0863 C   0  0  0  0  0  0
  -22.4252   -8.0237   21.3641 C   0  0  0  0  0  0
  -21.9876   -9.0191   20.4719 C   0  0  0  0  0  0
  -22.7193  -10.2066   20.3100 C   0  0  0  0  0  0
  -21.6811   -6.0660   22.5311 C   0  0  0  0  0  0
  -21.3916   -6.5641   23.8189 C   0  0  0  0  0  0
  -21.3647   -5.6850   24.9169 C   0  0  0  0  0  0
  -21.6060   -4.3112   24.7265 C   0  0  0  0  0  0
  -21.8796   -3.8135   23.4407 C   0  0  0  0  0  0
  -21.9182   -4.6886   22.3420 C   0  0  0  0  0  0
  -22.7766  -13.5168   21.1858 C   0  0  0  0  0  0
  -22.1723   -4.2062   21.0996 F   0  0  0  0  0  0
  -21.5663   -3.4614   25.7806 F   0  0  0  0  0  0
  -29.9983  -13.3758   20.4550 N   0  0  0  0  0  0
  -26.2881  -12.9001   20.3217 N   0  0  0  0  0  0
  -25.9234  -11.6233   20.5901 N   0  0  0  0  0  0
  -22.0420  -12.8216   22.0455 N   0  0  0  0  0  0
  -25.4244  -15.1599   20.3616 N   0  0  0  0  0  0
  -31.7859  -14.7474   20.1996 O   0  0  0  0  0  0
  -21.6634   -6.8828   21.4295 O   0  0  0  0  0  0
  -22.3489  -14.5494   20.6708 O   0  0  0  0  0  0
  -24.5964  -31.8790   23.2078 C   0  0  0  0  0  0
  -25.8912  -32.4854   23.8358 C   0  0  1  0  0  0
  -27.2417  -27.5086   20.1175 C   0  0  0  0  0  0
  -25.5810  -33.8637   24.2340 N   0  0  0  0  0  0
  -23.3726  -30.5006   21.5476 C   0  0  2  0  0  0
  -24.8195  -28.9678   20.1105 C   0  0  0  0  0  0
  -22.7241  -29.4711   22.4979 C   0  0  0  0  0  0
  -18.0255  -28.1330   22.8501 C   0  0  0  0  0  0
  -24.1511  -36.7370   23.2634 C   0  0  0  0  0  0
  -25.8851  -30.8772   21.3360 C   0  0  0  0  0  0
  -25.9681  -29.5101   20.6962 C   0  0  0  0  0  0
  -27.1769  -28.8001   20.6882 C   0  0  0  0  0  0
  -26.0839  -26.9747   19.5151 C   0  0  0  0  0  0
  -24.8698  -27.6941   19.5133 C   0  0  0  0  0  0
  -23.5703  -29.8189   20.1649 C   0  0  0  0  0  0
  -25.4111  -36.3143   24.0349 C   0  0  1  0  0  0
  -20.5809  -28.3595   23.1329 C   0  0  2  0  0  0
  -20.6762  -26.9334   22.5400 C   0  0  0  0  0  0
  -19.5757  -26.6364   21.5187 C   0  0  0  0  0  0
  -18.1935  -26.7863   22.1613 C   0  0  0  0  0  0
  -19.1496  -28.8770   23.2927 C   0  0  0  0  0  0
  -18.9444  -30.1408   23.8886 C   0  0  0  0  0  0
  -17.6463  -30.6552   24.0556 C   0  0  0  0  0  0
  -25.9008  -34.9496   23.5140 C   0  0  0  0  0  0
  -16.5349  -29.9060   23.6337 C   0  0  0  0  0  0
  -16.7248  -28.6477   23.0336 C   0  0  0  0  0  0
  -26.4419  -31.6552   25.0624 C   0  0  0  0  0  0
  -25.3761  -31.3628   26.1439 C   0  0  0  0  0  0
  -27.0261  -30.3025   24.5927 C   0  0  0  0  0  0
  -27.6011  -32.4242   25.7380 C   0  0  0  0  0  0
  -27.5587  -37.1849   24.8459 C   0  0  0  0  0  0
  -21.3977  -29.3036   22.3758 N   0  0  0  0  0  0
  -26.4319  -37.3818   23.9370 N   0  0  0  0  0  0
  -24.6348  -31.1010   22.0899 N   0  0  0  0  0  0
  -23.4097  -28.8234   23.2933 O   0  0  0  0  0  0
  -28.3726  -26.7249   20.1346 O   0  0  0  0  0  0
  -26.5620  -34.8954   22.4747 O   0  0  0  0  0  0
  -23.5209  -32.1458   23.7618 O   0  0  0  0  0  0
  -28.3170  -22.3212   22.5320 C   0  0  0  0  0  0
  -26.2395  -23.2733   23.0861 C   0  0  0  0  0  0
  -27.5475  -23.5078   22.7341 C   0  0  0  0  0  0
  -27.5985  -21.1656   22.6789 C   0  0  0  0  0  0
  -27.9872  -19.7490   22.4132 C   0  0  0  0  0  0
  -29.3888  -25.0746   22.6511 C   0  0  0  0  0  0
  -31.0653  -17.6057   22.3677 C   0  0  0  0  0  0
  -29.3457  -17.7099   20.4704 C   0  0  0  0  0  0
  -30.5971  -16.1474   22.6255 C   0  0  0  0  0  0
  -28.8961  -16.3173   20.9339 C   0  0  0  0  0  0
  -30.0898  -18.5083   21.5579 C   0  0  0  0  0  0
  -30.1376  -25.8483   21.5665 C   0  0  0  0  0  0
  -29.4184  -27.0891   21.0430 C   0  0  0  0  0  0
  -30.0208  -15.4999   21.4310 N   0  0  0  0  0  0
  -28.0883  -24.7922   22.4671 N   0  0  0  0  0  0
  -29.3157  -19.5239   22.3134 N   0  0  0  0  0  0
  -27.1342  -18.8755   22.2440 O   0  0  0  0  0  0
  -29.9989  -24.7068   23.6588 O   0  0  0  0  0  0
  -25.9296  -21.5488   23.1053 S   0  0  0  0  0  0
  -31.4608  -12.5517   19.1290 H   0  0  0  0  0  0
  -30.3900  -11.3844   19.8484 H   0  0  0  0  0  0
  -29.7875  -11.8067   17.4489 H   0  0  0  0  0  0
  -29.5967  -13.5109   17.7738 H   0  0  0  0  0  0
  -27.9288  -11.2090   18.8852 H   0  0  0  0  0  0
  -27.3573  -12.4514   17.7986 H   0  0  0  0  0  0
  -27.6374  -14.1564   19.4461 H   0  0  0  0  0  0
  -28.6815  -12.0066   21.3661 H   0  0  0  0  0  0
  -28.3630  -13.6445   21.8328 H   0  0  0  0  0  0
  -25.2788   -9.5596   22.4775 H   0  0  0  0  0  0
  -23.9945   -7.4619   22.7623 H   0  0  0  0  0  0
  -21.0799   -8.8679   19.9011 H   0  0  0  0  0  0
  -22.3714  -10.9609   19.6202 H   0  0  0  0  0  0
  -21.1853   -7.6146   23.9638 H   0  0  0  0  0  0
  -21.1566   -6.0623   25.9048 H   0  0  0  0  0  0
  -22.0578   -2.7595   23.2985 H   0  0  0  0  0  0
  -22.4115  -11.9841   22.4742 H   0  0  0  0  0  0
  -21.1012  -13.1172   22.2753 H   0  0  0  0  0  0
  -26.2631  -15.5365   19.9395 H   0  0  0  0  0  0
  -24.6313  -15.7866   20.2913 H   0  0  0  0  0  0
  -26.6953  -32.5694   23.1116 H   0  0  0  0  0  0
  -24.9867  -33.9769   25.0423 H   0  0  0  0  0  0
  -22.6494  -31.3107   21.4115 H   0  0  0  0  0  0
  -23.3766  -35.9719   23.3326 H   0  0  0  0  0  0
  -24.3620  -36.8969   22.2048 H   0  0  0  0  0  0
  -23.7305  -37.6594   23.6652 H   0  0  0  0  0  0
  -25.9790  -31.6371   20.5579 H   0  0  0  0  0  0
  -26.7767  -30.9476   21.9438 H   0  0  0  0  0  0
  -28.0412  -29.2808   21.1196 H   0  0  0  0  0  0
  -26.1308  -25.9938   19.0663 H   0  0  0  0  0  0
  -23.9833  -27.2601   19.0702 H   0  0  0  0  0  0
  -23.6373  -30.5855   19.3940 H   0  0  0  0  0  0
  -22.7038  -29.2147   19.8924 H   0  0  0  0  0  0
  -25.1304  -36.2014   25.0859 H   0  0  0  0  0  0
  -20.9987  -28.3195   24.1426 H   0  0  0  0  0  0
  -20.5695  -26.2180   23.3573 H   0  0  0  0  0  0
  -21.6628  -26.7435   22.1188 H   0  0  0  0  0  0
  -19.6929  -25.6304   21.1184 H   0  0  0  0  0  0
  -19.6693  -27.3203   20.6749 H   0  0  0  0  0  0
  -17.4197  -26.6573   21.4056 H   0  0  0  0  0  0
  -18.0393  -25.9975   22.8991 H   0  0  0  0  0  0
  -19.7928  -30.7233   24.2196 H   0  0  0  0  0  0
  -17.5023  -31.6220   24.5168 H   0  0  0  0  0  0
  -15.5353  -30.2968   23.7669 H   0  0  0  0  0  0
  -15.8643  -28.0834   22.7026 H   0  0  0  0  0  0
  -24.5752  -30.7231   25.7736 H   0  0  0  0  0  0
  -24.9200  -32.2809   26.5172 H   0  0  0  0  0  0
  -25.8118  -30.8483   27.0028 H   0  0  0  0  0  0
  -26.2809  -29.6743   24.1046 H   0  0  0  0  0  0
  -27.4175  -29.7272   25.4332 H   0  0  0  0  0  0
  -27.8547  -30.4398   23.8969 H   0  0  0  0  0  0
  -27.2601  -33.3382   26.2287 H   0  0  0  0  0  0
  -28.3648  -32.7110   25.0115 H   0  0  0  0  0  0
  -28.0932  -31.8214   26.5040 H   0  0  0  0  0  0
  -28.2641  -38.0105   24.7469 H   0  0  0  0  0  0
  -28.1051  -36.2660   24.6338 H   0  0  0  0  0  0
  -27.2306  -37.1547   25.8859 H   0  0  0  0  0  0
  -20.9020  -29.8738   21.7033 H   0  0  0  0  0  0
  -26.0225  -38.2925   24.1311 H   0  0  0  0  0  0
  -29.3558  -22.3507   22.2347 H   0  0  0  0  0  0
  -25.4425  -23.9756   23.3110 H   0  0  0  0  0  0
  -31.9813  -17.5251   21.7858 H   0  0  0  0  0  0
  -31.3702  -18.1011   23.2919 H   0  0  0  0  0  0
  -28.5049  -18.2695   20.0705 H   0  0  0  0  0  0
  -30.0237  -17.5805   19.6248 H   0  0  0  0  0  0
  -29.8412  -16.1579   23.4125 H   0  0  0  0  0  0
  -31.4277  -15.5562   23.0172 H   0  0  0  0  0  0
  -28.4040  -15.8751   20.0801 H   0  0  0  0  0  0
  -28.1453  -16.4138   21.7154 H   0  0  0  0  0  0
  -30.7422  -19.1820   20.9958 H   0  0  0  0  0  0
  -30.3722  -25.1851   20.7351 H   0  0  0  0  0  0
  -31.1005  -26.1520   21.9774 H   0  0  0  0  0  0
  -30.1289  -27.7204   20.5102 H   0  0  0  0  0  0
  -29.0808  -27.6531   21.9161 H   0  0  0  0  0  0
  -27.5895  -25.3630   21.7936 H   0  0  0  0  0  0
  -29.8689  -20.3174   22.6081 H   0  0  0  0  0  0
  1 25  1  0  0  0
  1 30  2  0  0  0
  1 84  1  0  0  0
  2  3  1  0  0  0
  2 25  1  0  0  0
  2 90  1  0  0  0
  2 91  1  0  0  0
  3  4  1  0  0  0
  3 92  1  0  0  0
  3 93  1  0  0  0
  4  5  1  0  0  0
  4 94  1  0  0  0
  4 95  1  0  0  0
  5  6  1  0  0  0
  5 26  1  0  0  0
  5 96  1  0  0  0
  6 25  1  0  0  0
  6 97  1  0  0  0
  6 98  1  0  0  0
  7  8  2  0  0  0
  7 26  1  0  0  0
  7 29  1  0  0  0
  8  9  1  0  0  0
  8 22  1  0  0  0
  9 10  1  0  0  0
  9 27  2  0  0  0
 10 11  2  0  0  0
 10 15  1  0  0  0
 11 12  1  0  0  0
 11 99  1  0  0  0
 12 13  2  0  0  0
 12100  1  0  0  0
 13 14  1  0  0  0
 13 31  1  0  0  0
 14 15  2  0  0  0
 14101  1  0  0  0
 15102  1  0  0  0
 16 17  2  0  0  0
 16 21  1  0  0  0
 16 31  1  0  0  0
 17 18  1  0  0  0
 17103  1  0  0  0
 18 19  2  0  0  0
 18104  1  0  0  0
 19 20  1  0  0  0
 19 24  1  0  0  0
 20 21  2  0  0  0
 20105  1  0  0  0
 21 23  1  0  0  0
 22 28  1  0  0  0
 22 32  2  0  0  0
 26 27  1  0  0  0
 28106  1  0  0  0
 28107  1  0  0  0
 29108  1  0  0  0
 29109  1  0  0  0
 33 34  1  0  0  0
 33 66  1  0  0  0
 33 70  2  0  0  0
 34 36  1  0  0  0
 34 59  1  0  0  0
 34110  1  0  0  0
 35 44  2  0  0  0
 35 45  1  0  0  0
 35 68  1  0  0  0
 36 56  1  0  0  0
 36111  1  0  0  0
 37 39  1  0  0  0
 37 47  1  0  0  0
 37 66  1  0  0  0
 37112  1  0  0  0
 38 43  2  0  0  0
 38 46  1  0  0  0
 38 47  1  0  0  0
 39 64  1  0  0  0
 39 67  2  0  0  0
 40 52  1  0  0  0
 40 53  2  0  0  0
 40 58  1  0  0  0
 41113  1  0  0  0
 41114  1  0  0  0
 41115  1  0  0  0
 41 48  1  0  0  0
 42 43  1  0  0  0
 42 66  1  0  0  0
 42116  1  0  0  0
 42117  1  0  0  0
 43 44  1  0  0  0
 44118  1  0  0  0
 45 46  2  0  0  0
 45119  1  0  0  0
 46120  1  0  0  0
 47121  1  0  0  0
 47122  1  0  0  0
 48 56  1  0  0  0
 48 65  1  0  0  0
 48123  1  0  0  0
 49 50  1  0  0  0
 49 53  1  0  0  0
 49 64  1  0  0  0
 49124  1  0  0  0
 50 51  1  0  0  0
 50125  1  0  0  0
 50126  1  0  0  0
 51 52  1  0  0  0
 51127  1  0  0  0
 51128  1  0  0  0
 52129  1  0  0  0
 52130  1  0  0  0
 53 54  1  0  0  0
 54 55  2  0  0  0
 54131  1  0  0  0
 55 57  1  0  0  0
 55132  1  0  0  0
 56 69  2  0  0  0
 57 58  2  0  0  0
 57133  1  0  0  0
 58134  1  0  0  0
 59 60  1  0  0  0
 59 61  1  0  0  0
 59 62  1  0  0  0
 60135  1  0  0  0
 60136  1  0  0  0
 60137  1  0  0  0
 61138  1  0  0  0
 61139  1  0  0  0
 61140  1  0  0  0
 62141  1  0  0  0
 62142  1  0  0  0
 62143  1  0  0  0
 63 65  1  0  0  0
 63144  1  0  0  0
 63145  1  0  0  0
 63146  1  0  0  0
 64147  1  0  0  0
 65148  1  0  0  0
 68 83  1  0  0  0
 71 73  1  0  0  0
 71 74  2  0  0  0
 71149  1  0  0  0
 72 73  2  0  0  0
 72 89  1  0  0  0
 72150  1  0  0  0
 73 85  1  0  0  0
 74 75  1  0  0  0
 74 89  1  0  0  0
 75 86  1  0  0  0
 75 87  2  0  0  0
 76 82  1  0  0  0
 76 85  1  0  0  0
 76 88  2  0  0  0
 77 79  1  0  0  0
 77 81  1  0  0  0
 77151  1  0  0  0
 77152  1  0  0  0
 78 80  1  0  0  0
 78 81  1  0  0  0
 78153  1  0  0  0
 78154  1  0  0  0
 79 84  1  0  0  0
 79155  1  0  0  0
 79156  1  0  0  0
 80 84  1  0  0  0
 80157  1  0  0  0
 80158  1  0  0  0
 81 86  1  0  0  0
 81159  1  0  0  0
 82 83  1  0  0  0
 82160  1  0  0  0
 82161  1  0  0  0
 83162  1  0  0  0
 83163  1  0  0  0
 85164  1  0  0  0
 86165  1  0  0  0
M  ISO  4   1 100  68 101  83 101  84 100
M  END
> <chiral flag>
0

> <version>
0

> <s_m_source_file>
/data/baiqing/PycharmProjects/Reinvent-master-3.2/result/LINK_invent/BTK/process_docking_weight1_custom_product_contain_oxygen_bond_distance_aromatic_linkinvent_7_9_3/rearranged_h_0150.sdf

> <i_m_source_file_index>
31

> <r_mmod_Potential_Energy-OPLS-2005>
132.054122924805

> <r_mmod_Stretch_Energy-OPLS-2005>
41.2621536254883

> <r_mmod_Bend_Energy-OPLS-2005>
137.646041870117

> <r_mmod_Torsional_Energy-OPLS-2005>
379.924743652344

> <r_mmod_Improper_Torsional_Energy-OPLS-2005>
7.30441379547119

> <r_mmod_Van_der_Waal_Energy-OPLS-2005>
141.785552978516

> <r_mmod_Electrostatic_Energy-OPLS-2005>
-360.060516357422

> <r_mmod_Solvation_Energy-OPLS-2005>
-240.369491577148

> <b_mmod_Minimization_Converged-OPLS-2005>
0

> <r_mmod_RMS_Derivative-OPLS-2005>
9.67729663848877

$$$$
31
                    3D
 Structure written by MMmdl.
154163  0  0  1  0            999 V2000
  -30.5870  -14.7204   20.4956 C   0  0  0  0  0  0
  -30.4512  -12.4424   19.4692 C   0  0  0  0  0  0
  -29.5163  -12.4939   18.2400 C   0  0  0  0  0  0
  -28.0425  -12.3159   18.6585 C   0  0  0  0  0  0
  -27.6511  -13.2121   19.8618 C   0  0  2  0  0  0
  -28.6945  -13.1116   20.9963 C   0  0  0  0  0  0
  -25.2573  -13.8133   20.5721 C   0  0  0  0  0  0
  -24.1835  -13.0437   20.9272 C   0  0  0  0  0  0
  -24.6390  -11.6885   20.8772 C   0  0  0  0  0  0
  -23.9089  -10.4257   21.0441 C   0  0  0  0  0  0
  -24.3626   -9.4164   21.9211 C   0  0  0  0  0  0
  -23.6287   -8.2206   22.0776 C   0  0  0  0  0  0
  -22.4257   -8.0283   21.3574 C   0  0  0  0  0  0
  -21.9923   -9.0260   20.4663 C   0  0  0  0  0  0
  -22.7270  -10.2118   20.3087 C   0  0  0  0  0  0
  -21.6850   -6.0736   22.5279 C   0  0  0  0  0  0
  -21.4003   -6.5649   23.8222 C   0  0  0  0  0  0
  -21.3649   -5.6792   24.9188 C   0  0  0  0  0  0
  -21.6037   -4.3072   24.7227 C   0  0  0  0  0  0
  -21.8808   -3.8150   23.4356 C   0  0  0  0  0  0
  -21.9185   -4.6952   22.3409 C   0  0  0  0  0  0
  -22.7854  -13.5236   21.1914 C   0  0  0  0  0  0
  -22.1668   -4.2162   21.0985 F   0  0  0  0  0  0
  -21.5620   -3.4549   25.7721 F   0  0  0  0  0  0
  -29.9987  -13.4776   20.4241 N   0  0  0  0  0  0
  -26.2987  -12.9295   20.3307 N   0  0  0  0  0  0
  -25.9319  -11.6459   20.5765 N   0  0  0  0  0  0
  -22.0466  -12.8225   22.0416 N   0  0  0  0  0  0
  -25.4323  -15.1867   20.4055 N   0  0  0  0  0  0
  -31.7663  -14.8753   20.1661 O   0  0  0  0  0  0
  -21.6648   -6.8866   21.4231 O   0  0  0  0  0  0
  -22.3563  -14.5545   20.6759 O   0  0  0  0  0  0
  -24.6250  -31.8556   23.1976 C   0  0  0  0  0  0
  -25.9071  -32.4751   23.8321 C   0  0  1  0  0  0
  -27.2341  -27.2833   20.1714 C   0  0  0  0  0  0
  -25.5888  -33.8561   24.2254 N   0  0  0  0  0  0
  -23.4221  -30.4714   21.5399 C   0  0  2  0  0  0
  -24.8788  -28.9160   20.1157 C   0  0  0  0  0  0
  -22.7480  -29.4579   22.4942 C   0  0  0  0  0  0
  -18.0306  -28.1334   22.8548 C   0  0  0  0  0  0
  -24.1482  -36.7275   23.2650 C   0  0  0  0  0  0
  -25.9603  -30.7812   21.3674 C   0  0  0  0  0  0
  -26.0435  -29.3992   20.7268 C   0  0  0  0  0  0
  -27.2260  -28.5970   20.7416 C   0  0  0  0  0  0
  -26.0550  -26.8535   19.5307 C   0  0  0  0  0  0
  -24.8882  -27.6491   19.5063 C   0  0  0  0  0  0
  -23.6430  -29.7946   20.1590 C   0  0  0  0  0  0
  -25.4104  -36.3072   24.0344 C   0  0  1  0  0  0
  -20.5903  -28.3642   23.1355 C   0  0  2  0  0  0
  -20.6815  -26.9388   22.5438 C   0  0  0  0  0  0
  -19.5768  -26.6349   21.5259 C   0  0  0  0  0  0
  -18.1950  -26.7882   22.1692 C   0  0  0  0  0  0
  -19.1552  -28.8818   23.2944 C   0  0  0  0  0  0
  -18.9465  -30.1423   23.8968 C   0  0  0  0  0  0
  -17.6462  -30.6579   24.0561 C   0  0  0  0  0  0
  -25.9028  -34.9446   23.5078 C   0  0  0  0  0  0
  -16.5354  -29.9056   23.6343 C   0  0  0  0  0  0
  -16.7302  -28.6454   23.0400 C   0  0  0  0  0  0
  -26.4461  -31.6579   25.0698 C   0  0  0  0  0  0
  -25.3708  -31.3753   26.1435 C   0  0  0  0  0  0
  -27.0322  -30.3024   24.6162 C   0  0  0  0  0  0
  -27.6014  -32.4316   25.7478 C   0  0  0  0  0  0
  -27.5573  -37.1800   24.8466 C   0  0  0  0  0  0
  -21.4185  -29.3005   22.3730 N   0  0  0  0  0  0
  -26.4288  -37.3768   23.9409 N   0  0  0  0  0  0
  -24.6867  -31.0545   22.0931 N   0  0  0  0  0  0
  -23.4188  -28.8148   23.3051 O   0  0  0  0  0  0
  -28.3458  -26.4221   20.1858 O   0  0  0  0  0  0
  -26.5618  -34.8921   22.4674 O   0  0  0  0  0  0
  -23.5405  -32.1381   23.7273 O   0  0  0  0  0  0
  -30.7796  -19.4317   20.7685 C   0  0  0  0  0  0
  -31.0155  -17.9922   20.7958 C   0  0  0  0  0  0
  -29.4640  -19.8219   20.6266 C   0  0  0  0  0  0
  -29.8918  -17.1848   20.7276 C   0  0  0  0  0  0
  -28.2359  -23.6424   18.9563 C   0  0  0  0  0  0
  -28.5301  -23.7552   20.2607 C   0  0  0  0  0  0
  -28.2116  -22.3124   18.2314 C   0  0  0  0  0  0
  -29.0019  -22.4391   21.0418 C   0  0  0  0  0  0
  -27.9405  -21.1428   19.1947 C   0  0  0  0  0  0
  -28.2938  -25.1514   20.9799 C   0  0  0  0  0  0
  -28.8979  -21.1227   20.2903 N   0  0  0  0  0  0
  -29.7382  -15.7874   20.7429 N   0  0  0  0  0  0
  -28.5035  -18.3086   20.6270 S   0  0  0  0  0  0
  -31.4863  -12.5953   19.1559 H   0  0  0  0  0  0
  -30.4245  -11.4563   19.9356 H   0  0  0  0  0  0
  -29.7912  -11.7184   17.5231 H   0  0  0  0  0  0
  -29.6351  -13.4448   17.7189 H   0  0  0  0  0  0
  -27.9051  -11.2658   18.9264 H   0  0  0  0  0  0
  -27.3776  -12.5018   17.8132 H   0  0  0  0  0  0
  -27.6550  -14.2363   19.4877 H   0  0  0  0  0  0
  -28.7285  -12.0971   21.3978 H   0  0  0  0  0  0
  -28.4292  -13.7564   21.8363 H   0  0  0  0  0  0
  -25.2740   -9.5614   22.4846 H   0  0  0  0  0  0
  -23.9960   -7.4566   22.7486 H   0  0  0  0  0  0
  -21.0863   -8.8799   19.8967 H   0  0  0  0  0  0
  -22.3742  -10.9683   19.6236 H   0  0  0  0  0  0
  -21.2022   -7.6163   23.9730 H   0  0  0  0  0  0
  -21.1491   -6.0535   25.9084 H   0  0  0  0  0  0
  -22.0611   -2.7617   23.2849 H   0  0  0  0  0  0
  -22.4076  -11.9872   22.4754 H   0  0  0  0  0  0
  -21.1116  -13.1300   22.2659 H   0  0  0  0  0  0
  -24.6602  -15.8353   20.5037 H   0  0  0  0  0  0
  -26.2582  -15.6091   20.0027 H   0  0  0  0  0  0
  -26.7159  -32.5470   23.1086 H   0  0  0  0  0  0
  -25.0029  -33.9711   25.0389 H   0  0  0  0  0  0
  -22.7185  -31.2930   21.3929 H   0  0  0  0  0  0
  -23.3748  -35.9595   23.3300 H   0  0  0  0  0  0
  -24.3558  -36.8913   22.2065 H   0  0  0  0  0  0
  -23.7244  -37.6484   23.6670 H   0  0  0  0  0  0
  -26.0814  -31.5386   20.5896 H   0  0  0  0  0  0
  -26.8402  -30.8457   21.9940 H   0  0  0  0  0  0
  -28.1188  -28.9684   21.2265 H   0  0  0  0  0  0
  -26.0323  -25.8833   19.0552 H   0  0  0  0  0  0
  -23.9951  -27.2701   19.0289 H   0  0  0  0  0  0
  -23.7563  -30.5652   19.3981 H   0  0  0  0  0  0
  -22.7662  -29.2191   19.8632 H   0  0  0  0  0  0
  -25.1288  -36.1910   25.0843 H   0  0  0  0  0  0
  -21.0018  -28.3215   24.1459 H   0  0  0  0  0  0
  -20.5754  -26.2236   23.3603 H   0  0  0  0  0  0
  -21.6677  -26.7484   22.1172 H   0  0  0  0  0  0
  -19.6951  -25.6279   21.1246 H   0  0  0  0  0  0
  -19.6620  -27.3200   20.6825 H   0  0  0  0  0  0
  -17.4228  -26.6713   21.4078 H   0  0  0  0  0  0
  -18.0314  -25.9961   22.9026 H   0  0  0  0  0  0
  -19.7947  -30.7216   24.2358 H   0  0  0  0  0  0
  -17.5016  -31.6277   24.5114 H   0  0  0  0  0  0
  -15.5349  -30.2947   23.7601 H   0  0  0  0  0  0
  -15.8738  -28.0732   22.7114 H   0  0  0  0  0  0
  -24.5854  -30.7110   25.7806 H   0  0  0  0  0  0
  -24.8887  -32.2926   26.4847 H   0  0  0  0  0  0
  -25.7999  -30.8972   27.0245 H   0  0  0  0  0  0
  -26.2916  -29.6778   24.1141 H   0  0  0  0  0  0
  -27.4023  -29.7274   25.4661 H   0  0  0  0  0  0
  -27.8757  -30.4355   23.9376 H   0  0  0  0  0  0
  -27.2629  -33.3633   26.2038 H   0  0  0  0  0  0
  -28.3826  -32.6865   25.0297 H   0  0  0  0  0  0
  -28.0663  -31.8449   26.5427 H   0  0  0  0  0  0
  -28.2590  -38.0101   24.7482 H   0  0  0  0  0  0
  -28.1077  -36.2628   24.6295 H   0  0  0  0  0  0
  -27.2287  -37.1450   25.8876 H   0  0  0  0  0  0
  -20.9330  -29.8684   21.6935 H   0  0  0  0  0  0
  -26.0163  -38.2835   24.1429 H   0  0  0  0  0  0
  -31.6085  -20.1243   20.7793 H   0  0  0  0  0  0
  -32.0219  -17.6002   20.8522 H   0  0  0  0  0  0
  -27.9373  -24.5118   18.3861 H   0  0  0  0  0  0
  -29.1491  -22.1748   17.6880 H   0  0  0  0  0  0
  -27.4167  -22.3457   17.4890 H   0  0  0  0  0  0
  -28.4000  -22.3509   21.9518 H   0  0  0  0  0  0
  -30.0289  -22.5915   21.3777 H   0  0  0  0  0  0
  -27.9706  -20.2052   18.6392 H   0  0  0  0  0  0
  -26.9414  -21.2250   19.6281 H   0  0  0  0  0  0
  -27.3400  -25.0769   21.5039 H   0  0  0  0  0  0
  -29.0424  -25.2474   21.7675 H   0  0  0  0  0  0
  -28.7883  -15.4787   20.8863 H   0  0  0  0  0  0
  1 25  1  0  0  0
  1 30  2  0  0  0
  1 82  1  0  0  0
  2  3  1  0  0  0
  2 25  1  0  0  0
  2 84  1  0  0  0
  2 85  1  0  0  0
  3  4  1  0  0  0
  3 86  1  0  0  0
  3 87  1  0  0  0
  4  5  1  0  0  0
  4 88  1  0  0  0
  4 89  1  0  0  0
  5  6  1  0  0  0
  5 26  1  0  0  0
  5 90  1  0  0  0
  6 25  1  0  0  0
  6 91  1  0  0  0
  6 92  1  0  0  0
  7  8  2  0  0  0
  7 26  1  0  0  0
  7 29  1  0  0  0
  8  9  1  0  0  0
  8 22  1  0  0  0
  9 10  1  0  0  0
  9 27  2  0  0  0
 10 11  2  0  0  0
 10 15  1  0  0  0
 11 12  1  0  0  0
 11 93  1  0  0  0
 12 13  2  0  0  0
 12 94  1  0  0  0
 13 14  1  0  0  0
 13 31  1  0  0  0
 14 15  2  0  0  0
 14 95  1  0  0  0
 15 96  1  0  0  0
 16 17  2  0  0  0
 16 21  1  0  0  0
 16 31  1  0  0  0
 17 18  1  0  0  0
 17 97  1  0  0  0
 18 19  2  0  0  0
 18 98  1  0  0  0
 19 20  1  0  0  0
 19 24  1  0  0  0
 20 21  2  0  0  0
 20 99  1  0  0  0
 21 23  1  0  0  0
 22 28  1  0  0  0
 22 32  2  0  0  0
 26 27  1  0  0  0
 28100  1  0  0  0
 28101  1  0  0  0
 29102  1  0  0  0
 29103  1  0  0  0
 33 34  1  0  0  0
 33 66  1  0  0  0
 33 70  2  0  0  0
 34 36  1  0  0  0
 34 59  1  0  0  0
 34104  1  0  0  0
 35 44  2  0  0  0
 35 45  1  0  0  0
 35 68  1  0  0  0
 36 56  1  0  0  0
 36105  1  0  0  0
 37 39  1  0  0  0
 37 47  1  0  0  0
 37 66  1  0  0  0
 37106  1  0  0  0
 38 43  2  0  0  0
 38 46  1  0  0  0
 38 47  1  0  0  0
 39 64  1  0  0  0
 39 67  2  0  0  0
 40 52  1  0  0  0
 40 53  2  0  0  0
 40 58  1  0  0  0
 41107  1  0  0  0
 41108  1  0  0  0
 41109  1  0  0  0
 41 48  1  0  0  0
 42 43  1  0  0  0
 42 66  1  0  0  0
 42110  1  0  0  0
 42111  1  0  0  0
 43 44  1  0  0  0
 44112  1  0  0  0
 45 46  2  0  0  0
 45113  1  0  0  0
 46114  1  0  0  0
 47115  1  0  0  0
 47116  1  0  0  0
 48 56  1  0  0  0
 48 65  1  0  0  0
 48117  1  0  0  0
 49 50  1  0  0  0
 49 53  1  0  0  0
 49 64  1  0  0  0
 49118  1  0  0  0
 50 51  1  0  0  0
 50119  1  0  0  0
 50120  1  0  0  0
 51 52  1  0  0  0
 51121  1  0  0  0
 51122  1  0  0  0
 52123  1  0  0  0
 52124  1  0  0  0
 53 54  1  0  0  0
 54 55  2  0  0  0
 54125  1  0  0  0
 55 57  1  0  0  0
 55126  1  0  0  0
 56 69  2  0  0  0
 57 58  2  0  0  0
 57127  1  0  0  0
 58128  1  0  0  0
 59 60  1  0  0  0
 59 61  1  0  0  0
 59 62  1  0  0  0
 60129  1  0  0  0
 60130  1  0  0  0
 60131  1  0  0  0
 61132  1  0  0  0
 61133  1  0  0  0
 61134  1  0  0  0
 62135  1  0  0  0
 62136  1  0  0  0
 62137  1  0  0  0
 63 65  1  0  0  0
 63138  1  0  0  0
 63139  1  0  0  0
 63140  1  0  0  0
 64141  1  0  0  0
 65142  1  0  0  0
 68 80  1  0  0  0
 71 72  1  0  0  0
 71 73  2  0  0  0
 71143  1  0  0  0
 72 74  2  0  0  0
 72144  1  0  0  0
 73 81  1  0  0  0
 73 83  1  0  0  0
 74 82  1  0  0  0
 74 83  1  0  0  0
 75 76  2  0  0  0
 75 77  1  0  0  0
 75145  1  0  0  0
 76 78  1  0  0  0
 76 80  1  0  0  0
 77 79  1  0  0  0
 77146  1  0  0  0
 77147  1  0  0  0
 78 81  1  0  0  0
 78148  1  0  0  0
 78149  1  0  0  0
 79 81  1  0  0  0
 79150  1  0  0  0
 79151  1  0  0  0
 80152  1  0  0  0
 80153  1  0  0  0
 82154  1  0  0  0
M  ISO  4   1 100  68 101  80 101  82 100
M  END
> <chiral flag>
0

> <version>
0

> <s_m_source_file>
/data/baiqing/PycharmProjects/Reinvent-master-3.2/result/LINK_invent/BTK/process_docking_weight1_custom_product_contain_oxygen_bond_distance_aromatic_linkinvent_7_9_3/rearranged_h_0150.sdf

> <i_m_source_file_index>
32

> <r_mmod_Potential_Energy-OPLS-2005>
177.15022277832

> <r_mmod_Stretch_Energy-OPLS-2005>
107.225845336914

> <r_mmod_Bend_Energy-OPLS-2005>
163.697784423828

> <r_mmod_Torsional_Energy-OPLS-2005>
264.527526855469

> <r_mmod_Improper_Torsional_Energy-OPLS-2005>
6.48355150222778

> <r_mmod_Van_der_Waal_Energy-OPLS-2005>
118.921524047852

> <r_mmod_Electrostatic_Energy-OPLS-2005>
-336.643737792969

> <r_mmod_Solvation_Energy-OPLS-2005>
-220.104400634766

> <b_mmod_Minimization_Converged-OPLS-2005>
0

> <r_mmod_RMS_Derivative-OPLS-2005>
5.69166707992554

$$$$
32
                    3D
 Structure written by MMmdl.
160169  0  0  1  0            999 V2000
  -30.6567  -14.6094   20.4765 C   0  0  0  0  0  0
  -30.4174  -12.3664   19.4558 C   0  0  0  0  0  0
  -29.4980  -12.4949   18.2233 C   0  0  0  0  0  0
  -28.0222  -12.3402   18.6385 C   0  0  0  0  0  0
  -27.6475  -13.2203   19.8606 C   0  0  2  0  0  0
  -28.6923  -13.0943   20.9918 C   0  0  0  0  0  0
  -25.2522  -13.8174   20.5699 C   0  0  0  0  0  0
  -24.1806  -13.0434   20.9223 C   0  0  0  0  0  0
  -24.6381  -11.6908   20.8764 C   0  0  0  0  0  0
  -23.9056  -10.4285   21.0415 C   0  0  0  0  0  0
  -24.3608   -9.4201   21.9193 C   0  0  0  0  0  0
  -23.6286   -8.2234   22.0756 C   0  0  0  0  0  0
  -22.4271   -8.0273   21.3546 C   0  0  0  0  0  0
  -21.9904   -9.0246   20.4652 C   0  0  0  0  0  0
  -22.7227  -10.2129   20.3064 C   0  0  0  0  0  0
  -21.6850   -6.0727   22.5277 C   0  0  0  0  0  0
  -21.4018   -6.5635   23.8212 C   0  0  0  0  0  0
  -21.3664   -5.6793   24.9174 C   0  0  0  0  0  0
  -21.6043   -4.3052   24.7231 C   0  0  0  0  0  0
  -21.8816   -3.8141   23.4351 C   0  0  0  0  0  0
  -21.9191   -4.6952   22.3406 C   0  0  0  0  0  0
  -22.7831  -13.5226   21.1872 C   0  0  0  0  0  0
  -22.1660   -4.2138   21.0981 F   0  0  0  0  0  0
  -21.5629   -3.4539   25.7745 F   0  0  0  0  0  0
  -30.0072  -13.4072   20.4179 N   0  0  0  0  0  0
  -26.2952  -12.9367   20.3319 N   0  0  0  0  0  0
  -25.9312  -11.6519   20.5781 N   0  0  0  0  0  0
  -22.0476  -12.8222   22.0428 N   0  0  0  0  0  0
  -25.4187  -15.1892   20.4073 N   0  0  0  0  0  0
  -31.8387  -14.6941   20.1375 O   0  0  0  0  0  0
  -21.6639   -6.8867   21.4239 O   0  0  0  0  0  0
  -22.3526  -14.5533   20.6709 O   0  0  0  0  0  0
  -24.6220  -31.8617   23.2038 C   0  0  0  0  0  0
  -25.9082  -32.4791   23.8353 C   0  0  1  0  0  0
  -27.2179  -27.3473   20.0909 C   0  0  0  0  0  0
  -25.5902  -33.8587   24.2281 N   0  0  0  0  0  0
  -23.4126  -30.4881   21.5467 C   0  0  2  0  0  0
  -24.8542  -28.9459   20.1082 C   0  0  0  0  0  0
  -22.7442  -29.4625   22.4932 C   0  0  0  0  0  0
  -18.0280  -28.1385   22.8500 C   0  0  0  0  0  0
  -24.1477  -36.7299   23.2643 C   0  0  0  0  0  0
  -25.9511  -30.7986   21.3691 C   0  0  0  0  0  0
  -26.0207  -29.4276   20.7138 C   0  0  0  0  0  0
  -27.2020  -28.6362   20.7010 C   0  0  0  0  0  0
  -26.0219  -26.9008   19.4841 C   0  0  0  0  0  0
  -24.8547  -27.6867   19.4902 C   0  0  0  0  0  0
  -23.6238  -29.8270   20.1595 C   0  0  0  0  0  0
  -25.4101  -36.3089   24.0339 C   0  0  1  0  0  0
  -20.5880  -28.3672   23.1307 C   0  0  2  0  0  0
  -20.6764  -26.9398   22.5418 C   0  0  0  0  0  0
  -19.5738  -26.6381   21.5220 C   0  0  0  0  0  0
  -18.1919  -26.7940   22.1628 C   0  0  0  0  0  0
  -19.1533  -28.8840   23.2906 C   0  0  0  0  0  0
  -18.9463  -30.1455   23.8912 C   0  0  0  0  0  0
  -17.6462  -30.6589   24.0574 C   0  0  0  0  0  0
  -25.9035  -34.9465   23.5112 C   0  0  0  0  0  0
  -16.5355  -29.9095   23.6329 C   0  0  0  0  0  0
  -16.7276  -28.6516   23.0350 C   0  0  0  0  0  0
  -26.4479  -31.6589   25.0713 C   0  0  0  0  0  0
  -25.3727  -31.3731   26.1454 C   0  0  0  0  0  0
  -27.0300  -30.3019   24.6123 C   0  0  0  0  0  0
  -27.6046  -32.4309   25.7492 C   0  0  0  0  0  0
  -27.5564  -37.1808   24.8474 C   0  0  0  0  0  0
  -21.4157  -29.3040   22.3700 N   0  0  0  0  0  0
  -26.4279  -37.3783   23.9422 N   0  0  0  0  0  0
  -24.6815  -31.0656   22.0978 N   0  0  0  0  0  0
  -23.4188  -28.8149   23.2975 O   0  0  0  0  0  0
  -28.3696  -26.5592   20.1268 O   0  0  0  0  0  0
  -26.5610  -34.8945   22.4682 O   0  0  0  0  0  0
  -23.5389  -32.1387   23.7388 O   0  0  0  0  0  0
  -31.4770  -17.6271   20.2310 C   0  0  0  0  0  0
  -31.7647  -19.0032   20.2063 C   0  0  0  0  0  0
  -29.2103  -18.1552   20.8755 C   0  0  0  0  0  0
  -29.4769  -19.5776   20.8885 C   0  0  0  0  0  0
  -30.1975  -17.1509   20.6019 C   0  0  0  0  0  0
  -30.8119  -19.9762   20.5700 C   0  0  0  0  0  0
  -28.6411  -22.7318   20.1579 C   0  0  0  0  0  0
  -28.1228  -23.9854   20.2695 C   0  0  0  0  0  0
  -28.3877  -20.5091   21.3969 C   0  0  0  0  0  0
  -27.0511  -24.0272   21.3195 C   0  0  0  0  0  0
  -26.9899  -22.5637   21.7972 C   0  0  0  0  0  0
  -28.4546  -25.2613   19.4436 C   0  0  0  0  0  0
  -28.0694  -21.8297   21.0758 N   0  0  0  0  0  0
  -31.2962  -21.2866   20.6390 N   0  0  0  0  0  0
  -29.8874  -15.7199   20.7185 N   0  0  0  0  0  0
  -27.6160  -19.9644   22.3474 N   0  3  0  0  0  0
  -31.4639  -12.4539   19.1621 H   0  0  0  0  0  0
  -30.3185  -11.3773   19.9064 H   0  0  0  0  0  0
  -29.7582  -11.7421   17.4783 H   0  0  0  0  0  0
  -29.6488  -13.4638   17.7452 H   0  0  0  0  0  0
  -27.8616  -11.2891   18.8807 H   0  0  0  0  0  0
  -27.3642  -12.5624   17.7968 H   0  0  0  0  0  0
  -27.6604  -14.2526   19.5106 H   0  0  0  0  0  0
  -28.6924  -12.0842   21.4050 H   0  0  0  0  0  0
  -28.4497  -13.7577   21.8232 H   0  0  0  0  0  0
  -25.2750   -9.5680   22.4775 H   0  0  0  0  0  0
  -23.9993   -7.4626   22.7475 H   0  0  0  0  0  0
  -21.0837   -8.8770   19.8958 H   0  0  0  0  0  0
  -22.3685  -10.9674   19.6178 H   0  0  0  0  0  0
  -21.2013   -7.6146   23.9710 H   0  0  0  0  0  0
  -21.1492   -6.0527   25.9079 H   0  0  0  0  0  0
  -22.0588   -2.7602   23.2858 H   0  0  0  0  0  0
  -22.4097  -11.9889   22.4828 H   0  0  0  0  0  0
  -21.1089  -13.1241   22.2624 H   0  0  0  0  0  0
  -24.6349  -15.8274   20.4926 H   0  0  0  0  0  0
  -26.2407  -15.6253   20.0112 H   0  0  0  0  0  0
  -26.7147  -32.5480   23.1101 H   0  0  0  0  0  0
  -25.0071  -33.9739   25.0441 H   0  0  0  0  0  0
  -22.7050  -31.3080   21.4084 H   0  0  0  0  0  0
  -23.3739  -35.9627   23.3312 H   0  0  0  0  0  0
  -24.3557  -36.8896   22.2048 H   0  0  0  0  0  0
  -23.7226  -37.6509   23.6653 H   0  0  0  0  0  0
  -26.0728  -31.5575   20.5947 H   0  0  0  0  0  0
  -26.8372  -30.8522   21.9902 H   0  0  0  0  0  0
  -28.1003  -29.0042   21.1765 H   0  0  0  0  0  0
  -25.9482  -25.9333   19.0139 H   0  0  0  0  0  0
  -23.9570  -27.3098   19.0199 H   0  0  0  0  0  0
  -23.7424  -30.6054   19.4052 H   0  0  0  0  0  0
  -22.7427  -29.2594   19.8561 H   0  0  0  0  0  0
  -25.1273  -36.1940   25.0829 H   0  0  0  0  0  0
  -20.9992  -28.3243   24.1418 H   0  0  0  0  0  0
  -20.5642  -26.2279   23.3607 H   0  0  0  0  0  0
  -21.6639  -26.7410   22.1225 H   0  0  0  0  0  0
  -19.6891  -25.6293   21.1233 H   0  0  0  0  0  0
  -19.6694  -27.3209   20.6768 H   0  0  0  0  0  0
  -17.4191  -26.6699   21.4031 H   0  0  0  0  0  0
  -18.0314  -26.0081   22.9018 H   0  0  0  0  0  0
  -19.7935  -30.7272   24.2275 H   0  0  0  0  0  0
  -17.5022  -31.6274   24.5173 H   0  0  0  0  0  0
  -15.5357  -30.3005   23.7651 H   0  0  0  0  0  0
  -15.8671  -28.0846   22.7045 H   0  0  0  0  0  0
  -24.5950  -30.6993   25.7838 H   0  0  0  0  0  0
  -24.8857  -32.2891   26.4819 H   0  0  0  0  0  0
  -25.8083  -30.9006   27.0265 H   0  0  0  0  0  0
  -26.2855  -29.6806   24.1122 H   0  0  0  0  0  0
  -27.4022  -29.7236   25.4591 H   0  0  0  0  0  0
  -27.8722  -30.4343   23.9324 H   0  0  0  0  0  0
  -27.2663  -33.3634   26.2035 H   0  0  0  0  0  0
  -28.3890  -32.6817   25.0337 H   0  0  0  0  0  0
  -28.0670  -31.8436   26.5441 H   0  0  0  0  0  0
  -28.2601  -38.0084   24.7499 H   0  0  0  0  0  0
  -28.1031  -36.2614   24.6318 H   0  0  0  0  0  0
  -27.2282  -37.1488   25.8877 H   0  0  0  0  0  0
  -20.9298  -29.8798   21.6965 H   0  0  0  0  0  0
  -26.0155  -38.2858   24.1422 H   0  0  0  0  0  0
  -32.2891  -16.9681   19.9782 H   0  0  0  0  0  0
  -32.7710  -19.2992   19.9455 H   0  0  0  0  0  0
  -28.2166  -17.8141   21.1297 H   0  0  0  0  0  0
  -29.3755  -22.3825   19.4462 H   0  0  0  0  0  0
  -26.0995  -24.3450   20.8932 H   0  0  0  0  0  0
  -27.3264  -24.7122   22.1227 H   0  0  0  0  0  0
  -26.0178  -22.1284   21.5564 H   0  0  0  0  0  0
  -27.1216  -22.5145   22.8795 H   0  0  0  0  0  0
  -29.4839  -25.1564   19.1006 H   0  0  0  0  0  0
  -27.8753  -25.2522   18.5214 H   0  0  0  0  0  0
  -30.7979  -21.9946   21.1685 H   0  0  0  0  0  0
  -32.2980  -21.4490   20.6096 H   0  0  0  0  0  0
  -28.9352  -15.5014   20.9655 H   0  0  0  0  0  0
  -27.8748  -19.0678   22.7277 H   0  0  0  0  0  0
  -26.8100  -20.4317   22.7220 H   0  0  0  0  0  0
  1 25  1  0  0  0
  1 30  2  0  0  0
  1 85  1  0  0  0
  2  3  1  0  0  0
  2 25  1  0  0  0
  2 87  1  0  0  0
  2 88  1  0  0  0
  3  4  1  0  0  0
  3 89  1  0  0  0
  3 90  1  0  0  0
  4  5  1  0  0  0
  4 91  1  0  0  0
  4 92  1  0  0  0
  5  6  1  0  0  0
  5 26  1  0  0  0
  5 93  1  0  0  0
  6 25  1  0  0  0
  6 94  1  0  0  0
  6 95  1  0  0  0
  7  8  2  0  0  0
  7 26  1  0  0  0
  7 29  1  0  0  0
  8  9  1  0  0  0
  8 22  1  0  0  0
  9 10  1  0  0  0
  9 27  2  0  0  0
 10 11  2  0  0  0
 10 15  1  0  0  0
 11 12  1  0  0  0
 11 96  1  0  0  0
 12 13  2  0  0  0
 12 97  1  0  0  0
 13 14  1  0  0  0
 13 31  1  0  0  0
 14 15  2  0  0  0
 14 98  1  0  0  0
 15 99  1  0  0  0
 16 17  2  0  0  0
 16 21  1  0  0  0
 16 31  1  0  0  0
 17 18  1  0  0  0
 17100  1  0  0  0
 18 19  2  0  0  0
 18101  1  0  0  0
 19 20  1  0  0  0
 19 24  1  0  0  0
 20 21  2  0  0  0
 20102  1  0  0  0
 21 23  1  0  0  0
 22 28  1  0  0  0
 22 32  2  0  0  0
 26 27  1  0  0  0
 28103  1  0  0  0
 28104  1  0  0  0
 29105  1  0  0  0
 29106  1  0  0  0
 33 34  1  0  0  0
 33 66  1  0  0  0
 33 70  2  0  0  0
 34 36  1  0  0  0
 34 59  1  0  0  0
 34107  1  0  0  0
 35 44  2  0  0  0
 35 45  1  0  0  0
 35 68  1  0  0  0
 36 56  1  0  0  0
 36108  1  0  0  0
 37 39  1  0  0  0
 37 47  1  0  0  0
 37 66  1  0  0  0
 37109  1  0  0  0
 38 43  2  0  0  0
 38 46  1  0  0  0
 38 47  1  0  0  0
 39 64  1  0  0  0
 39 67  2  0  0  0
 40 52  1  0  0  0
 40 53  2  0  0  0
 40 58  1  0  0  0
 41110  1  0  0  0
 41111  1  0  0  0
 41112  1  0  0  0
 41 48  1  0  0  0
 42 43  1  0  0  0
 42 66  1  0  0  0
 42113  1  0  0  0
 42114  1  0  0  0
 43 44  1  0  0  0
 44115  1  0  0  0
 45 46  2  0  0  0
 45116  1  0  0  0
 46117  1  0  0  0
 47118  1  0  0  0
 47119  1  0  0  0
 48 56  1  0  0  0
 48 65  1  0  0  0
 48120  1  0  0  0
 49 50  1  0  0  0
 49 53  1  0  0  0
 49 64  1  0  0  0
 49121  1  0  0  0
 50 51  1  0  0  0
 50122  1  0  0  0
 50123  1  0  0  0
 51 52  1  0  0  0
 51124  1  0  0  0
 51125  1  0  0  0
 52126  1  0  0  0
 52127  1  0  0  0
 53 54  1  0  0  0
 54 55  2  0  0  0
 54128  1  0  0  0
 55 57  1  0  0  0
 55129  1  0  0  0
 56 69  2  0  0  0
 57 58  2  0  0  0
 57130  1  0  0  0
 58131  1  0  0  0
 59 60  1  0  0  0
 59 61  1  0  0  0
 59 62  1  0  0  0
 60132  1  0  0  0
 60133  1  0  0  0
 60134  1  0  0  0
 61135  1  0  0  0
 61136  1  0  0  0
 61137  1  0  0  0
 62138  1  0  0  0
 62139  1  0  0  0
 62140  1  0  0  0
 63 65  1  0  0  0
 63141  1  0  0  0
 63142  1  0  0  0
 63143  1  0  0  0
 64144  1  0  0  0
 65145  1  0  0  0
 68 82  1  0  0  0
 71 72  2  0  0  0
 71 75  1  0  0  0
 71146  1  0  0  0
 72 76  1  0  0  0
 72147  1  0  0  0
 73 74  1  0  0  0
 73 75  2  0  0  0
 73148  1  0  0  0
 74 76  2  0  0  0
 74 79  1  0  0  0
 75 85  1  0  0  0
 76 84  1  0  0  0
 77 78  2  0  0  0
 77 83  1  0  0  0
 77149  1  0  0  0
 78 80  1  0  0  0
 78 82  1  0  0  0
 79 83  1  0  0  0
 79 86  2  0  0  0
 80 81  1  0  0  0
 80150  1  0  0  0
 80151  1  0  0  0
 81 83  1  0  0  0
 81152  1  0  0  0
 81153  1  0  0  0
 82154  1  0  0  0
 82155  1  0  0  0
 84156  1  0  0  0
 84157  1  0  0  0
 85158  1  0  0  0
 86159  1  0  0  0
 86160  1  0  0  0
M  CHG  1  86   1
M  ISO  4   1 100  68 101  82 101  85 100
M  END
> <chiral flag>
0

> <version>
0

> <s_m_source_file>
/data/baiqing/PycharmProjects/Reinvent-master-3.2/result/LINK_invent/BTK/process_docking_weight1_custom_product_contain_oxygen_bond_distance_aromatic_linkinvent_7_9_3/rearranged_h_0150.sdf

> <i_m_source_file_index>
33

> <r_mmod_Potential_Energy-OPLS-2005>
31.2817821502686

> <r_mmod_Stretch_Energy-OPLS-2005>
76.99609375

> <r_mmod_Bend_Energy-OPLS-2005>
212.864791870117

> <r_mmod_Torsional_Energy-OPLS-2005>
198.871322631836

> <r_mmod_Improper_Torsional_Energy-OPLS-2005>
8.26310634613037

> <r_mmod_Van_der_Waal_Energy-OPLS-2005>
164.336761474609

> <r_mmod_Electrostatic_Energy-OPLS-2005>
-257.873291015625

> <r_mmod_Solvation_Energy-OPLS-2005>
-410.783660888672

> <b_mmod_Minimization_Converged-OPLS-2005>
0

> <r_mmod_RMS_Derivative-OPLS-2005>
1.78902280330658

$$$$
33
                    3D
 Structure written by MMmdl.
159168  0  0  1  0            999 V2000
  -30.6371  -14.6964   20.5141 C   0  0  0  0  0  0
  -30.4278  -12.4399   19.4559 C   0  0  0  0  0  0
  -29.5015  -12.5101   18.2241 C   0  0  0  0  0  0
  -28.0286  -12.3396   18.6428 C   0  0  0  0  0  0
  -27.6430  -13.2320   19.8533 C   0  0  2  0  0  0
  -28.6872  -13.1427   20.9844 C   0  0  0  0  0  0
  -25.2519  -13.8211   20.5716 C   0  0  0  0  0  0
  -24.1801  -13.0448   20.9200 C   0  0  0  0  0  0
  -24.6391  -11.6925   20.8739 C   0  0  0  0  0  0
  -23.9072  -10.4297   21.0401 C   0  0  0  0  0  0
  -24.3620   -9.4211   21.9179 C   0  0  0  0  0  0
  -23.6294   -8.2247   22.0751 C   0  0  0  0  0  0
  -22.4280   -8.0281   21.3540 C   0  0  0  0  0  0
  -21.9914   -9.0257   20.4647 C   0  0  0  0  0  0
  -22.7243  -10.2135   20.3053 C   0  0  0  0  0  0
  -21.6856   -6.0735   22.5279 C   0  0  0  0  0  0
  -21.4017   -6.5637   23.8212 C   0  0  0  0  0  0
  -21.3657   -5.6790   24.9173 C   0  0  0  0  0  0
  -21.6045   -4.3054   24.7228 C   0  0  0  0  0  0
  -21.8818   -3.8145   23.4349 C   0  0  0  0  0  0
  -21.9194   -4.6962   22.3405 C   0  0  0  0  0  0
  -22.7821  -13.5222   21.1867 C   0  0  0  0  0  0
  -22.1660   -4.2146   21.0983 F   0  0  0  0  0  0
  -21.5629   -3.4539   25.7741 F   0  0  0  0  0  0
  -29.9871  -13.4904   20.4005 N   0  0  0  0  0  0
  -26.2945  -12.9420   20.3308 N   0  0  0  0  0  0
  -25.9323  -11.6559   20.5750 N   0  0  0  0  0  0
  -22.0475  -12.8203   22.0426 N   0  0  0  0  0  0
  -25.4238  -15.1934   20.4172 N   0  0  0  0  0  0
  -31.8120  -14.7945   20.1443 O   0  0  0  0  0  0
  -21.6641   -6.8879   21.4240 O   0  0  0  0  0  0
  -22.3495  -14.5523   20.6715 O   0  0  0  0  0  0
  -24.6278  -31.8576   23.1985 C   0  0  0  0  0  0
  -25.9117  -32.4762   23.8331 C   0  0  1  0  0  0
  -27.2187  -27.2910   20.1375 C   0  0  0  0  0  0
  -25.5926  -33.8566   24.2256 N   0  0  0  0  0  0
  -23.4235  -30.4777   21.5420 C   0  0  2  0  0  0
  -24.8702  -28.9223   20.1132 C   0  0  0  0  0  0
  -22.7479  -29.4609   22.4929 C   0  0  0  0  0  0
  -18.0275  -28.1390   22.8486 C   0  0  0  0  0  0
  -24.1492  -36.7282   23.2642 C   0  0  0  0  0  0
  -25.9640  -30.7809   21.3717 C   0  0  0  0  0  0
  -26.0388  -29.4034   20.7186 C   0  0  0  0  0  0
  -27.2194  -28.6009   20.7142 C   0  0  0  0  0  0
  -26.0337  -26.8600   19.5103 C   0  0  0  0  0  0
  -24.8711  -27.6574   19.4983 C   0  0  0  0  0  0
  -23.6400  -29.8070   20.1590 C   0  0  0  0  0  0
  -25.4116  -36.3066   24.0322 C   0  0  1  0  0  0
  -20.5878  -28.3697   23.1283 C   0  0  2  0  0  0
  -20.6772  -26.9418   22.5416 C   0  0  0  0  0  0
  -19.5746  -26.6387   21.5219 C   0  0  0  0  0  0
  -18.1921  -26.7932   22.1621 C   0  0  0  0  0  0
  -19.1527  -28.8854   23.2883 C   0  0  0  0  0  0
  -18.9457  -30.1456   23.8898 C   0  0  0  0  0  0
  -17.6461  -30.6597   24.0559 C   0  0  0  0  0  0
  -25.9057  -34.9438   23.5089 C   0  0  0  0  0  0
  -16.5348  -29.9092   23.6337 C   0  0  0  0  0  0
  -16.7266  -28.6509   23.0358 C   0  0  0  0  0  0
  -26.4499  -31.6577   25.0711 C   0  0  0  0  0  0
  -25.3731  -31.3723   26.1440 C   0  0  0  0  0  0
  -27.0348  -30.2997   24.6179 C   0  0  0  0  0  0
  -27.6063  -32.4318   25.7473 C   0  0  0  0  0  0
  -27.5568  -37.1789   24.8463 C   0  0  0  0  0  0
  -21.4185  -29.3048   22.3673 N   0  0  0  0  0  0
  -26.4286  -37.3765   23.9402 N   0  0  0  0  0  0
  -24.6906  -31.0564   22.0945 N   0  0  0  0  0  0
  -23.4186  -28.8169   23.3042 O   0  0  0  0  0  0
  -28.3341  -26.4378   20.1389 O   0  0  0  0  0  0
  -26.5637  -34.8907   22.4666 O   0  0  0  0  0  0
  -23.5433  -32.1383   23.7299 O   0  0  0  0  0  0
  -28.8239  -18.9452   19.5932 C   0  0  0  0  0  0
  -28.4689  -20.3598   19.5534 C   0  0  0  0  0  0
  -29.6772  -18.5752   20.6141 C   0  0  0  0  0  0
  -29.0170  -21.1359   20.5564 C   0  0  0  0  0  0
  -30.4184  -17.2324   20.9679 C   0  0  1  0  0  0
  -29.9341  -16.4656   22.1649 C   0  0  0  0  0  0
  -28.5377  -16.6593   22.7337 C   0  0  0  0  0  0
  -30.9205  -15.9367   23.1998 C   0  0  0  0  0  0
  -27.2942  -25.0807   21.9883 C   0  0  0  0  0  0
  -28.3807  -23.6900   20.0769 C   0  0  0  0  0  0
  -28.3258  -25.1156   20.8444 C   0  0  1  0  0  0
  -29.9106  -15.8257   20.8760 N   0  0  0  0  0  0
  -28.9219  -22.5394   20.8936 N   0  0  0  0  0  0
  -29.9838  -20.0438   21.5729 S   0  0  0  0  0  0
  -31.4677  -12.5638   19.1484 H   0  0  0  0  0  0
  -30.3716  -11.4577   19.9272 H   0  0  0  0  0  0
  -29.7758  -11.7416   17.5001 H   0  0  0  0  0  0
  -29.6315  -13.4686   17.7187 H   0  0  0  0  0  0
  -27.8815  -11.2898   18.8984 H   0  0  0  0  0  0
  -27.3691  -12.5419   17.7980 H   0  0  0  0  0  0
  -27.6456  -14.2600   19.4890 H   0  0  0  0  0  0
  -28.7148  -12.1406   21.4140 H   0  0  0  0  0  0
  -28.4261  -13.8185   21.7992 H   0  0  0  0  0  0
  -25.2766   -9.5687   22.4752 H   0  0  0  0  0  0
  -24.0006   -7.4638   22.7466 H   0  0  0  0  0  0
  -21.0848   -8.8776   19.8950 H   0  0  0  0  0  0
  -22.3702  -10.9673   19.6162 H   0  0  0  0  0  0
  -21.2008   -7.6145   23.9715 H   0  0  0  0  0  0
  -21.1480   -6.0521   25.9075 H   0  0  0  0  0  0
  -22.0599   -2.7608   23.2853 H   0  0  0  0  0  0
  -22.4101  -11.9870   22.4816 H   0  0  0  0  0  0
  -21.1090  -13.1215   22.2635 H   0  0  0  0  0  0
  -24.6655  -15.8547   20.5445 H   0  0  0  0  0  0
  -26.2936  -15.6337   20.1438 H   0  0  0  0  0  0
  -26.7184  -32.5436   23.1077 H   0  0  0  0  0  0
  -25.0065  -33.9722   25.0394 H   0  0  0  0  0  0
  -22.7189  -31.2983   21.3952 H   0  0  0  0  0  0
  -23.3751  -35.9618   23.3308 H   0  0  0  0  0  0
  -24.3586  -36.8913   22.2058 H   0  0  0  0  0  0
  -23.7244  -37.6478   23.6684 H   0  0  0  0  0  0
  -26.0945  -31.5404   20.5997 H   0  0  0  0  0  0
  -26.8437  -30.8333   22.0012 H   0  0  0  0  0  0
  -28.1204  -28.9666   21.1871 H   0  0  0  0  0  0
  -26.0054  -25.8859   19.0437 H   0  0  0  0  0  0
  -23.9748  -27.2833   19.0232 H   0  0  0  0  0  0
  -23.7605  -30.5821   19.4013 H   0  0  0  0  0  0
  -22.7587  -29.2383   19.8579 H   0  0  0  0  0  0
  -25.1293  -36.1909   25.0814 H   0  0  0  0  0  0
  -20.9960  -28.3281   24.1407 H   0  0  0  0  0  0
  -20.5675  -26.2310   23.3624 H   0  0  0  0  0  0
  -21.6643  -26.7455   22.1201 H   0  0  0  0  0  0
  -19.6918  -25.6299   21.1250 H   0  0  0  0  0  0
  -19.6687  -27.3196   20.6753 H   0  0  0  0  0  0
  -17.4193  -26.6680   21.4020 H   0  0  0  0  0  0
  -18.0312  -26.0076   22.9021 H   0  0  0  0  0  0
  -19.7936  -30.7263   24.2276 H   0  0  0  0  0  0
  -17.5020  -31.6281   24.5160 H   0  0  0  0  0  0
  -15.5353  -30.2993   23.7675 H   0  0  0  0  0  0
  -15.8664  -28.0832   22.7082 H   0  0  0  0  0  0
  -24.5902  -30.7078   25.7762 H   0  0  0  0  0  0
  -24.8929  -32.2893   26.4867 H   0  0  0  0  0  0
  -25.8037  -30.8890   27.0220 H   0  0  0  0  0  0
  -26.2918  -29.6728   24.1232 H   0  0  0  0  0  0
  -27.4068  -29.7266   25.4685 H   0  0  0  0  0  0
  -27.8774  -30.4271   23.9377 H   0  0  0  0  0  0
  -27.2687  -33.3638   26.2016 H   0  0  0  0  0  0
  -28.3877  -32.6851   25.0297 H   0  0  0  0  0  0
  -28.0724  -31.8469   26.5412 H   0  0  0  0  0  0
  -28.2584  -38.0088   24.7508 H   0  0  0  0  0  0
  -28.1058  -36.2613   24.6287 H   0  0  0  0  0  0
  -27.2288  -37.1436   25.8869 H   0  0  0  0  0  0
  -20.9375  -29.8761   21.6871 H   0  0  0  0  0  0
  -26.0157  -38.2832   24.1423 H   0  0  0  0  0  0
  -28.4601  -18.2583   18.8426 H   0  0  0  0  0  0
  -27.8198  -20.7469   18.7807 H   0  0  0  0  0  0
  -31.4942  -17.3670   20.8609 H   0  0  0  0  0  0
  -28.5334  -17.4986   23.4301 H   0  0  0  0  0  0
  -28.2114  -15.7666   23.2678 H   0  0  0  0  0  0
  -27.8151  -16.8691   21.9447 H   0  0  0  0  0  0
  -30.9876  -16.6357   24.0342 H   0  0  0  0  0  0
  -31.9228  -15.8313   22.7831 H   0  0  0  0  0  0
  -30.5965  -14.9709   23.5891 H   0  0  0  0  0  0
  -27.4460  -24.2090   22.6253 H   0  0  0  0  0  0
  -26.2733  -25.0314   21.6102 H   0  0  0  0  0  0
  -27.3765  -25.9628   22.6236 H   0  0  0  0  0  0
  -29.0115  -23.7937   19.1934 H   0  0  0  0  0  0
  -27.3856  -23.4353   19.7092 H   0  0  0  0  0  0
  -29.2914  -25.1648   21.3484 H   0  0  0  0  0  0
  -29.3846  -22.8271   21.7525 H   0  0  0  0  0  0
  1 25  1  0  0  0
  1 30  2  0  0  0
  1 82  1  0  0  0
  2  3  1  0  0  0
  2 25  1  0  0  0
  2 85  1  0  0  0
  2 86  1  0  0  0
  3  4  1  0  0  0
  3 87  1  0  0  0
  3 88  1  0  0  0
  4  5  1  0  0  0
  4 89  1  0  0  0
  4 90  1  0  0  0
  5  6  1  0  0  0
  5 26  1  0  0  0
  5 91  1  0  0  0
  6 25  1  0  0  0
  6 92  1  0  0  0
  6 93  1  0  0  0
  7  8  2  0  0  0
  7 26  1  0  0  0
  7 29  1  0  0  0
  8  9  1  0  0  0
  8 22  1  0  0  0
  9 10  1  0  0  0
  9 27  2  0  0  0
 10 11  2  0  0  0
 10 15  1  0  0  0
 11 12  1  0  0  0
 11 94  1  0  0  0
 12 13  2  0  0  0
 12 95  1  0  0  0
 13 14  1  0  0  0
 13 31  1  0  0  0
 14 15  2  0  0  0
 14 96  1  0  0  0
 15 97  1  0  0  0
 16 17  2  0  0  0
 16 21  1  0  0  0
 16 31  1  0  0  0
 17 18  1  0  0  0
 17 98  1  0  0  0
 18 19  2  0  0  0
 18 99  1  0  0  0
 19 20  1  0  0  0
 19 24  1  0  0  0
 20 21  2  0  0  0
 20100  1  0  0  0
 21 23  1  0  0  0
 22 28  1  0  0  0
 22 32  2  0  0  0
 26 27  1  0  0  0
 28101  1  0  0  0
 28102  1  0  0  0
 29103  1  0  0  0
 29104  1  0  0  0
 33 34  1  0  0  0
 33 66  1  0  0  0
 33 70  2  0  0  0
 34 36  1  0  0  0
 34 59  1  0  0  0
 34105  1  0  0  0
 35 44  2  0  0  0
 35 45  1  0  0  0
 35 68  1  0  0  0
 36 56  1  0  0  0
 36106  1  0  0  0
 37 39  1  0  0  0
 37 47  1  0  0  0
 37 66  1  0  0  0
 37107  1  0  0  0
 38 43  2  0  0  0
 38 46  1  0  0  0
 38 47  1  0  0  0
 39 64  1  0  0  0
 39 67  2  0  0  0
 40 52  1  0  0  0
 40 53  2  0  0  0
 40 58  1  0  0  0
 41108  1  0  0  0
 41109  1  0  0  0
 41110  1  0  0  0
 41 48  1  0  0  0
 42 43  1  0  0  0
 42 66  1  0  0  0
 42111  1  0  0  0
 42112  1  0  0  0
 43 44  1  0  0  0
 44113  1  0  0  0
 45 46  2  0  0  0
 45114  1  0  0  0
 46115  1  0  0  0
 47116  1  0  0  0
 47117  1  0  0  0
 48 56  1  0  0  0
 48 65  1  0  0  0
 48118  1  0  0  0
 49 50  1  0  0  0
 49 53  1  0  0  0
 49 64  1  0  0  0
 49119  1  0  0  0
 50 51  1  0  0  0
 50120  1  0  0  0
 50121  1  0  0  0
 51 52  1  0  0  0
 51122  1  0  0  0
 51123  1  0  0  0
 52124  1  0  0  0
 52125  1  0  0  0
 53 54  1  0  0  0
 54 55  2  0  0  0
 54126  1  0  0  0
 55 57  1  0  0  0
 55127  1  0  0  0
 56 69  2  0  0  0
 57 58  2  0  0  0
 57128  1  0  0  0
 58129  1  0  0  0
 59 60  1  0  0  0
 59 61  1  0  0  0
 59 62  1  0  0  0
 60130  1  0  0  0
 60131  1  0  0  0
 60132  1  0  0  0
 61133  1  0  0  0
 61134  1  0  0  0
 61135  1  0  0  0
 62136  1  0  0  0
 62137  1  0  0  0
 62138  1  0  0  0
 63 65  1  0  0  0
 63139  1  0  0  0
 63140  1  0  0  0
 63141  1  0  0  0
 64142  1  0  0  0
 65143  1  0  0  0
 68 81  1  0  0  0
 71 72  1  0  0  0
 71 73  2  0  0  0
 71144  1  0  0  0
 72 74  2  0  0  0
 72145  1  0  0  0
 73 84  1  0  0  0
 73 75  1  0  0  0
 74 83  1  0  0  0
 74 84  1  0  0  0
 75 76  1  0  0  0
 75 82  1  0  0  0
 75146  1  0  0  0
 76 77  1  0  0  0
 76 78  1  0  0  0
 76 82  1  0  0  0
 77147  1  0  0  0
 77148  1  0  0  0
 77149  1  0  0  0
 78150  1  0  0  0
 78151  1  0  0  0
 78152  1  0  0  0
 79153  1  0  0  0
 79154  1  0  0  0
 79155  1  0  0  0
 79 81  1  0  0  0
 80 81  1  0  0  0
 80 83  1  0  0  0
 80156  1  0  0  0
 80157  1  0  0  0
 81158  1  0  0  0
 83159  1  0  0  0
M  ISO  4   1 100  68 101  81 101  82 100
M  END
> <chiral flag>
0

> <version>
0

> <s_m_source_file>
/data/baiqing/PycharmProjects/Reinvent-master-3.2/result/LINK_invent/BTK/process_docking_weight1_custom_product_contain_oxygen_bond_distance_aromatic_linkinvent_7_9_3/rearranged_h_0150.sdf

> <i_m_source_file_index>
34

> <r_mmod_Potential_Energy-OPLS-2005>
284.977233886719

> <r_mmod_Stretch_Energy-OPLS-2005>
101.315887451172

> <r_mmod_Bend_Energy-OPLS-2005>
195.775588989258

> <r_mmod_Torsional_Energy-OPLS-2005>
329.230621337891

> <r_mmod_Improper_Torsional_Energy-OPLS-2005>
11.8637399673462

> <r_mmod_Van_der_Waal_Energy-OPLS-2005>
108.846343994141

> <r_mmod_Electrostatic_Energy-OPLS-2005>
-331.492401123047

> <r_mmod_Solvation_Energy-OPLS-2005>
-194.759231567383

> <b_mmod_Minimization_Converged-OPLS-2005>
0

> <r_mmod_RMS_Derivative-OPLS-2005>
1.26098620891571

$$$$
34
                    3D
 Structure written by MMmdl.
155164  0  0  1  0            999 V2000
  -30.5550  -14.8616   20.4271 C   0  0  0  0  0  0
  -30.4587  -12.5230   19.4827 C   0  0  0  0  0  0
  -29.5345  -12.5306   18.2429 C   0  0  0  0  0  0
  -28.0586  -12.3363   18.6502 C   0  0  0  0  0  0
  -27.6474  -13.2366   19.8466 C   0  0  2  0  0  0
  -28.6953  -13.1934   20.9836 C   0  0  0  0  0  0
  -25.2537  -13.8203   20.5672 C   0  0  0  0  0  0
  -24.1834  -13.0443   20.9212 C   0  0  0  0  0  0
  -24.6430  -11.6920   20.8710 C   0  0  0  0  0  0
  -23.9086  -10.4306   21.0407 C   0  0  0  0  0  0
  -24.3627   -9.4218   21.9187 C   0  0  0  0  0  0
  -23.6315   -8.2246   22.0745 C   0  0  0  0  0  0
  -22.4299   -8.0296   21.3534 C   0  0  0  0  0  0
  -21.9928   -9.0280   20.4649 C   0  0  0  0  0  0
  -22.7256  -10.2157   20.3065 C   0  0  0  0  0  0
  -21.6861   -6.0748   22.5276 C   0  0  0  0  0  0
  -21.4027   -6.5640   23.8219 C   0  0  0  0  0  0
  -21.3655   -5.6767   24.9167 C   0  0  0  0  0  0
  -21.6054   -4.3034   24.7220 C   0  0  0  0  0  0
  -21.8821   -3.8144   23.4337 C   0  0  0  0  0  0
  -21.9193   -4.6969   22.3396 C   0  0  0  0  0  0
  -22.7847  -13.5240   21.1850 C   0  0  0  0  0  0
  -22.1658   -4.2154   21.0974 F   0  0  0  0  0  0
  -21.5642   -3.4516   25.7733 F   0  0  0  0  0  0
  -29.9869  -13.5942   20.3984 N   0  0  0  0  0  0
  -26.2976  -12.9422   20.3234 N   0  0  0  0  0  0
  -25.9366  -11.6554   20.5699 N   0  0  0  0  0  0
  -22.0455  -12.8268   22.0407 N   0  0  0  0  0  0
  -25.4188  -15.1929   20.4050 N   0  0  0  0  0  0
  -31.7445  -14.9846   20.1167 O   0  0  0  0  0  0
  -21.6657   -6.8899   21.4238 O   0  0  0  0  0  0
  -22.3522  -14.5522   20.6638 O   0  0  0  0  0  0
  -24.6425  -31.8445   23.1881 C   0  0  0  0  0  0
  -25.9204  -32.4696   23.8287 C   0  0  1  0  0  0
  -27.2428  -27.1686   20.1287 C   0  0  0  0  0  0
  -25.5953  -33.8512   24.2186 N   0  0  0  0  0  0
  -23.4449  -30.4632   21.5312 C   0  0  2  0  0  0
  -24.8995  -28.8901   20.1095 C   0  0  0  0  0  0
  -22.7567  -29.4549   22.4842 C   0  0  0  0  0  0
  -18.0317  -28.1382   22.8457 C   0  0  0  0  0  0
  -24.1484  -36.7262   23.2638 C   0  0  0  0  0  0
  -26.0002  -30.7229   21.3922 C   0  0  0  0  0  0
  -26.0712  -29.3399   20.7263 C   0  0  0  0  0  0
  -27.2374  -28.4909   20.7267 C   0  0  0  0  0  0
  -26.0353  -26.8096   19.4835 C   0  0  0  0  0  0
  -24.8873  -27.6339   19.4830 C   0  0  0  0  0  0
  -23.6724  -29.7866   20.1522 C   0  0  0  0  0  0
  -25.4123  -36.3039   24.0303 C   0  0  1  0  0  0
  -20.5922  -28.3715   23.1209 C   0  0  2  0  0  0
  -20.6790  -26.9414   22.5383 C   0  0  0  0  0  0
  -19.5761  -26.6356   21.5195 C   0  0  0  0  0  0
  -18.1948  -26.7917   22.1608 C   0  0  0  0  0  0
  -19.1566  -28.8863   23.2824 C   0  0  0  0  0  0
  -18.9490  -30.1466   23.8833 C   0  0  0  0  0  0
  -17.6489  -30.6576   24.0541 C   0  0  0  0  0  0
  -25.9067  -34.9410   23.5047 C   0  0  0  0  0  0
  -16.5377  -29.9064   23.6344 C   0  0  0  0  0  0
  -16.7305  -28.6488   23.0355 C   0  0  0  0  0  0
  -26.4505  -31.6612   25.0764 C   0  0  0  0  0  0
  -25.3663  -31.3854   26.1460 C   0  0  0  0  0  0
  -27.0388  -30.2980   24.6452 C   0  0  0  0  0  0
  -27.6007  -32.4428   25.7569 C   0  0  0  0  0  0
  -27.5577  -37.1784   24.8437 C   0  0  0  0  0  0
  -21.4262  -29.3053   22.3594 N   0  0  0  0  0  0
  -26.4284  -37.3749   23.9390 N   0  0  0  0  0  0
  -24.7140  -31.0327   22.0905 N   0  0  0  0  0  0
  -23.4221  -28.8122   23.3001 O   0  0  0  0  0  0
  -28.3290  -26.2281   20.2320 O   0  0  0  0  0  0
  -26.5655  -34.8893   22.4630 O   0  0  0  0  0  0
  -23.5550  -32.1335   23.7089 O   0  0  0  0  0  0
  -30.7413  -19.7867   20.1716 C   0  0  0  0  0  0
  -30.8578  -18.3454   20.3270 C   0  0  0  0  0  0
  -28.5038  -18.2243   20.4036 C   0  0  0  0  0  0
  -29.5116  -20.5447   20.0733 C   0  0  0  0  0  0
  -29.7288  -17.4750   20.4442 C   0  0  0  0  0  0
  -28.3886  -19.6591   20.2117 C   0  0  0  0  0  0
  -28.8164  -23.4401   20.3341 C   0  0  0  0  0  0
  -29.3918  -22.2388   18.0597 C   0  0  0  0  0  0
  -30.6722  -22.5639   18.7613 C   0  0  0  0  0  0
  -29.4546  -22.1244   19.5817 C   0  0  0  0  0  0
  -28.3877  -24.8369   19.5568 C   0  0  0  0  0  0
  -27.1006  -20.1825   20.1002 N   0  0  0  0  0  0
  -29.7046  -15.9623   20.6261 N   0  0  0  0  0  0
  -28.6471  -23.3926   21.5565 O   0  0  0  0  0  0
  -31.4975  -12.6783   19.1813 H   0  0  0  0  0  0
  -30.4391  -11.5512   19.9789 H   0  0  0  0  0  0
  -29.8377  -11.7512   17.5419 H   0  0  0  0  0  0
  -29.6454  -13.4788   17.7128 H   0  0  0  0  0  0
  -27.9190  -11.2865   18.9097 H   0  0  0  0  0  0
  -27.4053  -12.5264   17.7971 H   0  0  0  0  0  0
  -27.6338  -14.2534   19.4520 H   0  0  0  0  0  0
  -28.7577  -12.1928   21.4164 H   0  0  0  0  0  0
  -28.4159  -13.8589   21.8006 H   0  0  0  0  0  0
  -25.2799   -9.5704   22.4719 H   0  0  0  0  0  0
  -24.0050   -7.4644   22.7456 H   0  0  0  0  0  0
  -21.0864   -8.8801   19.8959 H   0  0  0  0  0  0
  -22.3732  -10.9688   19.6154 H   0  0  0  0  0  0
  -21.2001   -7.6140   23.9725 H   0  0  0  0  0  0
  -21.1485   -6.0493   25.9067 H   0  0  0  0  0  0
  -22.0596   -2.7609   23.2821 H   0  0  0  0  0  0
  -22.4077  -12.0009   22.4916 H   0  0  0  0  0  0
  -21.1040  -13.1281   22.2496 H   0  0  0  0  0  0
  -24.6352  -15.8319   20.4942 H   0  0  0  0  0  0
  -26.2337  -15.6209   19.9814 H   0  0  0  0  0  0
  -26.7280  -32.5296   23.1016 H   0  0  0  0  0  0
  -25.0052  -33.9602   25.0296 H   0  0  0  0  0  0
  -22.7476  -31.2888   21.3728 H   0  0  0  0  0  0
  -23.3745  -35.9594   23.3294 H   0  0  0  0  0  0
  -24.3539  -36.8920   22.2047 H   0  0  0  0  0  0
  -23.7255  -37.6451   23.6706 H   0  0  0  0  0  0
  -26.1706  -31.4883   20.6329 H   0  0  0  0  0  0
  -26.8617  -30.7537   22.0494 H   0  0  0  0  0  0
  -28.1317  -28.8264   21.2328 H   0  0  0  0  0  0
  -25.9209  -25.8508   19.0059 H   0  0  0  0  0  0
  -23.9835  -27.2737   19.0124 H   0  0  0  0  0  0
  -23.8055  -30.5564   19.3912 H   0  0  0  0  0  0
  -22.7890  -29.2249   19.8449 H   0  0  0  0  0  0
  -25.1318  -36.1843   25.0799 H   0  0  0  0  0  0
  -21.0006  -28.3306   24.1332 H   0  0  0  0  0  0
  -20.5646  -26.2348   23.3610 H   0  0  0  0  0  0
  -21.6665  -26.7399   22.1216 H   0  0  0  0  0  0
  -19.6909  -25.6248   21.1270 H   0  0  0  0  0  0
  -19.6686  -27.3115   20.6681 H   0  0  0  0  0  0
  -17.4215  -26.6664   21.4016 H   0  0  0  0  0  0
  -18.0339  -26.0069   22.9014 H   0  0  0  0  0  0
  -19.7964  -30.7300   24.2173 H   0  0  0  0  0  0
  -17.5039  -31.6243   24.5172 H   0  0  0  0  0  0
  -15.5361  -30.2946   23.7691 H   0  0  0  0  0  0
  -15.8716  -28.0780   22.7109 H   0  0  0  0  0  0
  -24.5753  -30.7324   25.7757 H   0  0  0  0  0  0
  -24.8951  -32.3071   26.4884 H   0  0  0  0  0  0
  -25.7881  -30.8975   27.0243 H   0  0  0  0  0  0
  -26.3043  -29.6690   24.1403 H   0  0  0  0  0  0
  -27.3858  -29.7339   25.5112 H   0  0  0  0  0  0
  -27.9021  -30.4165   23.9897 H   0  0  0  0  0  0
  -27.2525  -33.3679   26.2176 H   0  0  0  0  0  0
  -28.3794  -32.7103   25.0415 H   0  0  0  0  0  0
  -28.0730  -31.8587   26.5460 H   0  0  0  0  0  0
  -28.2573  -38.0098   24.7505 H   0  0  0  0  0  0
  -28.1099  -36.2626   24.6247 H   0  0  0  0  0  0
  -27.2290  -37.1424   25.8836 H   0  0  0  0  0  0
  -20.9486  -29.8772   21.6764 H   0  0  0  0  0  0
  -26.0141  -38.2818   24.1398 H   0  0  0  0  0  0
  -31.6754  -20.3171   20.0714 H   0  0  0  0  0  0
  -31.8481  -17.9126   20.3442 H   0  0  0  0  0  0
  -27.5885  -17.6591   20.4899 H   0  0  0  0  0  0
  -29.3696  -21.3120   17.4887 H   0  0  0  0  0  0
  -28.8733  -23.0674   17.5875 H   0  0  0  0  0  0
  -30.9696  -23.6106   18.7757 H   0  0  0  0  0  0
  -31.4998  -21.8798   18.5888 H   0  0  0  0  0  0
  -27.4551  -24.6097   19.0490 H   0  0  0  0  0  0
  -29.1127  -24.9617   18.7536 H   0  0  0  0  0  0
  -26.3404  -19.5374   19.9038 H   0  0  0  0  0  0
  -26.9767  -21.0679   19.6243 H   0  0  0  0  0  0
  -28.7814  -15.6244   20.8568 H   0  0  0  0  0  0
  1 25  1  0  0  0
  1 30  2  0  0  0
  1 83  1  0  0  0
  2  3  1  0  0  0
  2 25  1  0  0  0
  2 85  1  0  0  0
  2 86  1  0  0  0
  3  4  1  0  0  0
  3 87  1  0  0  0
  3 88  1  0  0  0
  4  5  1  0  0  0
  4 89  1  0  0  0
  4 90  1  0  0  0
  5  6  1  0  0  0
  5 26  1  0  0  0
  5 91  1  0  0  0
  6 25  1  0  0  0
  6 92  1  0  0  0
  6 93  1  0  0  0
  7  8  2  0  0  0
  7 26  1  0  0  0
  7 29  1  0  0  0
  8  9  1  0  0  0
  8 22  1  0  0  0
  9 10  1  0  0  0
  9 27  2  0  0  0
 10 11  2  0  0  0
 10 15  1  0  0  0
 11 12  1  0  0  0
 11 94  1  0  0  0
 12 13  2  0  0  0
 12 95  1  0  0  0
 13 14  1  0  0  0
 13 31  1  0  0  0
 14 15  2  0  0  0
 14 96  1  0  0  0
 15 97  1  0  0  0
 16 17  2  0  0  0
 16 21  1  0  0  0
 16 31  1  0  0  0
 17 18  1  0  0  0
 17 98  1  0  0  0
 18 19  2  0  0  0
 18 99  1  0  0  0
 19 20  1  0  0  0
 19 24  1  0  0  0
 20 21  2  0  0  0
 20100  1  0  0  0
 21 23  1  0  0  0
 22 28  1  0  0  0
 22 32  2  0  0  0
 26 27  1  0  0  0
 28101  1  0  0  0
 28102  1  0  0  0
 29103  1  0  0  0
 29104  1  0  0  0
 33 34  1  0  0  0
 33 66  1  0  0  0
 33 70  2  0  0  0
 34 36  1  0  0  0
 34 59  1  0  0  0
 34105  1  0  0  0
 35 44  2  0  0  0
 35 45  1  0  0  0
 35 68  1  0  0  0
 36 56  1  0  0  0
 36106  1  0  0  0
 37 39  1  0  0  0
 37 47  1  0  0  0
 37 66  1  0  0  0
 37107  1  0  0  0
 38 43  2  0  0  0
 38 46  1  0  0  0
 38 47  1  0  0  0
 39 64  1  0  0  0
 39 67  2  0  0  0
 40 52  1  0  0  0
 40 53  2  0  0  0
 40 58  1  0  0  0
 41108  1  0  0  0
 41109  1  0  0  0
 41110  1  0  0  0
 41 48  1  0  0  0
 42 43  1  0  0  0
 42 66  1  0  0  0
 42111  1  0  0  0
 42112  1  0  0  0
 43 44  1  0  0  0
 44113  1  0  0  0
 45 46  2  0  0  0
 45114  1  0  0  0
 46115  1  0  0  0
 47116  1  0  0  0
 47117  1  0  0  0
 48 56  1  0  0  0
 48 65  1  0  0  0
 48118  1  0  0  0
 49 50  1  0  0  0
 49 53  1  0  0  0
 49 64  1  0  0  0
 49119  1  0  0  0
 50 51  1  0  0  0
 50120  1  0  0  0
 50121  1  0  0  0
 51 52  1  0  0  0
 51122  1  0  0  0
 51123  1  0  0  0
 52124  1  0  0  0
 52125  1  0  0  0
 53 54  1  0  0  0
 54 55  2  0  0  0
 54126  1  0  0  0
 55 57  1  0  0  0
 55127  1  0  0  0
 56 69  2  0  0  0
 57 58  2  0  0  0
 57128  1  0  0  0
 58129  1  0  0  0
 59 60  1  0  0  0
 59 61  1  0  0  0
 59 62  1  0  0  0
 60130  1  0  0  0
 60131  1  0  0  0
 60132  1  0  0  0
 61133  1  0  0  0
 61134  1  0  0  0
 61135  1  0  0  0
 62136  1  0  0  0
 62137  1  0  0  0
 62138  1  0  0  0
 63 65  1  0  0  0
 63139  1  0  0  0
 63140  1  0  0  0
 63141  1  0  0  0
 64142  1  0  0  0
 65143  1  0  0  0
 68 81  1  0  0  0
 71 72  2  0  0  0
 71 74  1  0  0  0
 71144  1  0  0  0
 72 75  1  0  0  0
 72145  1  0  0  0
 73 75  2  0  0  0
 73 76  1  0  0  0
 73146  1  0  0  0
 74 76  2  0  0  0
 74 80  1  0  0  0
 75 83  1  0  0  0
 76 82  1  0  0  0
 77 81  1  0  0  0
 77 84  2  0  0  0
 77 80  1  0  0  0
 78 79  1  0  0  0
 78 80  1  0  0  0
 78147  1  0  0  0
 78148  1  0  0  0
 79 80  1  0  0  0
 79149  1  0  0  0
 79150  1  0  0  0
 81151  1  0  0  0
 81152  1  0  0  0
 82153  1  0  0  0
 82154  1  0  0  0
 83155  1  0  0  0
M  ISO  4   1 100  68 101  81 101  83 100
M  END
> <chiral flag>
0

> <version>
0

> <s_m_source_file>
/data/baiqing/PycharmProjects/Reinvent-master-3.2/result/LINK_invent/BTK/process_docking_weight1_custom_product_contain_oxygen_bond_distance_aromatic_linkinvent_7_9_3/rearranged_h_0150.sdf

> <i_m_source_file_index>
35

> <r_mmod_Potential_Energy-OPLS-2005>
464.725494384766

> <r_mmod_Stretch_Energy-OPLS-2005>
222.266357421875

> <r_mmod_Bend_Energy-OPLS-2005>
249.554336547852

> <r_mmod_Torsional_Energy-OPLS-2005>
255.519546508789

> <r_mmod_Improper_Torsional_Energy-OPLS-2005>
10.0722894668579

> <r_mmod_Van_der_Waal_Energy-OPLS-2005>
131.659652709961

> <r_mmod_Electrostatic_Energy-OPLS-2005>
-303.071533203125

> <r_mmod_Solvation_Energy-OPLS-2005>
-248.631744384766

> <b_mmod_Minimization_Converged-OPLS-2005>
0

> <r_mmod_RMS_Derivative-OPLS-2005>
4.02564716339111

$$$$
35
                    3D
 Structure written by MMmdl.
155163  0  0  1  0            999 V2000
  -30.6419  -14.6012   20.5098 C   0  0  0  0  0  0
  -30.4369  -12.3779   19.4309 C   0  0  0  0  0  0
  -29.4981  -12.5001   18.2107 C   0  0  0  0  0  0
  -28.0224  -12.3401   18.6307 C   0  0  0  0  0  0
  -27.6519  -13.2114   19.8602 C   0  0  2  0  0  0
  -28.7007  -13.0571   20.9833 C   0  0  0  0  0  0
  -25.2560  -13.8155   20.5691 C   0  0  0  0  0  0
  -24.1812  -13.0428   20.9197 C   0  0  0  0  0  0
  -24.6374  -11.6906   20.8754 C   0  0  0  0  0  0
  -23.9047  -10.4294   21.0411 C   0  0  0  0  0  0
  -24.3608   -9.4207   21.9182 C   0  0  0  0  0  0
  -23.6291   -8.2240   22.0750 C   0  0  0  0  0  0
  -22.4271   -8.0277   21.3542 C   0  0  0  0  0  0
  -21.9905   -9.0247   20.4641 C   0  0  0  0  0  0
  -22.7230  -10.2131   20.3056 C   0  0  0  0  0  0
  -21.6854   -6.0731   22.5281 C   0  0  0  0  0  0
  -21.4009   -6.5635   23.8211 C   0  0  0  0  0  0
  -21.3656   -5.6790   24.9174 C   0  0  0  0  0  0
  -21.6049   -4.3053   24.7226 C   0  0  0  0  0  0
  -21.8819   -3.8144   23.4347 C   0  0  0  0  0  0
  -21.9189   -4.6960   22.3405 C   0  0  0  0  0  0
  -22.7838  -13.5226   21.1870 C   0  0  0  0  0  0
  -22.1662   -4.2142   21.0986 F   0  0  0  0  0  0
  -21.5630   -3.4544   25.7739 F   0  0  0  0  0  0
  -30.0139  -13.3913   20.4110 N   0  0  0  0  0  0
  -26.2984  -12.9328   20.3334 N   0  0  0  0  0  0
  -25.9302  -11.6491   20.5774 N   0  0  0  0  0  0
  -22.0489  -12.8211   22.0424 N   0  0  0  0  0  0
  -25.4284  -15.1882   20.4089 N   0  0  0  0  0  0
  -31.8207  -14.7573   20.1812 O   0  0  0  0  0  0
  -21.6641   -6.8873   21.4240 O   0  0  0  0  0  0
  -22.3532  -14.5537   20.6725 O   0  0  0  0  0  0
  -24.6212  -31.8604   23.2062 C   0  0  0  0  0  0
  -25.9071  -32.4783   23.8377 C   0  0  1  0  0  0
  -27.2364  -27.3591   20.1009 C   0  0  0  0  0  0
  -25.5907  -33.8584   24.2290 N   0  0  0  0  0  0
  -23.4151  -30.4830   21.5473 C   0  0  2  0  0  0
  -24.8615  -28.9393   20.1170 C   0  0  0  0  0  0
  -22.7441  -29.4617   22.4955 C   0  0  0  0  0  0
  -18.0285  -28.1384   22.8469 C   0  0  0  0  0  0
  -24.1484  -36.7293   23.2634 C   0  0  0  0  0  0
  -25.9517  -30.8006   21.3733 C   0  0  0  0  0  0
  -26.0263  -29.4285   20.7220 C   0  0  0  0  0  0
  -27.2136  -28.6447   20.7139 C   0  0  0  0  0  0
  -26.0513  -26.9144   19.4716 C   0  0  0  0  0  0
  -24.8720  -27.6836   19.4882 C   0  0  0  0  0  0
  -23.6270  -29.8128   20.1637 C   0  0  0  0  0  0
  -25.4110  -36.3086   24.0326 C   0  0  1  0  0  0
  -20.5873  -28.3675   23.1291 C   0  0  2  0  0  0
  -20.6761  -26.9400   22.5415 C   0  0  0  0  0  0
  -19.5738  -26.6383   21.5213 C   0  0  0  0  0  0
  -18.1916  -26.7924   22.1612 C   0  0  0  0  0  0
  -19.1530  -28.8846   23.2872 C   0  0  0  0  0  0
  -18.9454  -30.1453   23.8890 C   0  0  0  0  0  0
  -17.6455  -30.6581   24.0567 C   0  0  0  0  0  0
  -25.9047  -34.9454   23.5108 C   0  0  0  0  0  0
  -16.5349  -29.9084   23.6332 C   0  0  0  0  0  0
  -16.7275  -28.6506   23.0335 C   0  0  0  0  0  0
  -26.4468  -31.6588   25.0739 C   0  0  0  0  0  0
  -25.3718  -31.3707   26.1482 C   0  0  0  0  0  0
  -27.0306  -30.3013   24.6184 C   0  0  0  0  0  0
  -27.6056  -32.4303   25.7487 C   0  0  0  0  0  0
  -27.5576  -37.1787   24.8454 C   0  0  0  0  0  0
  -21.4159  -29.3041   22.3691 N   0  0  0  0  0  0
  -26.4284  -37.3786   23.9418 N   0  0  0  0  0  0
  -24.6814  -31.0647   22.0994 N   0  0  0  0  0  0
  -23.4179  -28.8152   23.3007 O   0  0  0  0  0  0
  -28.3817  -26.5592   20.0867 O   0  0  0  0  0  0
  -26.5622  -34.8911   22.4671 O   0  0  0  0  0  0
  -23.5379  -32.1387   23.7406 O   0  0  0  0  0  0
  -30.5746  -17.8196   18.7389 C   0  0  0  0  0  0
  -29.9324  -19.5589   20.3359 C   0  0  0  0  0  0
  -30.5329  -20.1674   18.0565 C   0  0  0  0  0  0
  -30.1864  -18.1703   20.0491 C   0  0  0  0  0  0
  -30.7613  -18.8080   17.7550 C   0  0  0  0  0  0
  -30.1020  -20.5768   19.3401 C   0  0  0  0  0  0
  -28.2617  -25.1652   20.2115 C   0  0  0  0  0  0
  -29.2500  -24.2558   19.9525 C   0  0  0  0  0  0
  -29.0391  -22.7846   20.1177 C   0  0  0  0  0  0
  -30.1721  -17.0732   21.1514 C   0  0  0  0  0  0
  -31.2121  -18.4351   16.4887 N   0  0  0  0  0  0
  -30.0049  -22.0127   19.5451 N   0  0  0  0  0  0
  -29.8389  -15.6565   20.8121 N   0  0  0  0  0  0
  -28.0813  -22.2822   20.7075 O   0  0  0  0  0  0
  -30.4523  -24.7059   19.5576 O   0  0  0  0  0  0
  -31.4753  -12.5125   19.1236 H   0  0  0  0  0  0
  -30.3788  -11.3807   19.8696 H   0  0  0  0  0  0
  -29.7548  -11.7509   17.4601 H   0  0  0  0  0  0
  -29.6370  -13.4720   17.7329 H   0  0  0  0  0  0
  -27.8562  -11.2867   18.8618 H   0  0  0  0  0  0
  -27.3632  -12.5731   17.7924 H   0  0  0  0  0  0
  -27.6711  -14.2470   19.5206 H   0  0  0  0  0  0
  -28.7102  -12.0337   21.3603 H   0  0  0  0  0  0
  -28.4588  -13.6888   21.8397 H   0  0  0  0  0  0
  -25.2750   -9.5686   22.4760 H   0  0  0  0  0  0
  -23.9998   -7.4628   22.7466 H   0  0  0  0  0  0
  -21.0837   -8.8760   19.8947 H   0  0  0  0  0  0
  -22.3680  -10.9665   19.6171 H   0  0  0  0  0  0
  -21.2002   -7.6144   23.9710 H   0  0  0  0  0  0
  -21.1478   -6.0524   25.9074 H   0  0  0  0  0  0
  -22.0601   -2.7607   23.2853 H   0  0  0  0  0  0
  -22.4103  -11.9857   22.4781 H   0  0  0  0  0  0
  -21.1106  -13.1223   22.2647 H   0  0  0  0  0  0
  -24.6629  -15.8450   20.5180 H   0  0  0  0  0  0
  -26.2752  -15.6241   20.0660 H   0  0  0  0  0  0
  -26.7138  -32.5445   23.1124 H   0  0  0  0  0  0
  -25.0075  -33.9759   25.0447 H   0  0  0  0  0  0
  -22.7100  -31.3043   21.4021 H   0  0  0  0  0  0
  -23.3746  -35.9621   23.3294 H   0  0  0  0  0  0
  -24.3585  -36.8927   22.2047 H   0  0  0  0  0  0
  -23.7231  -37.6492   23.6664 H   0  0  0  0  0  0
  -26.0807  -31.5615   20.6019 H   0  0  0  0  0  0
  -26.8330  -30.8506   21.9998 H   0  0  0  0  0  0
  -28.1098  -29.0153   21.1913 H   0  0  0  0  0  0
  -26.0305  -25.9606   18.9644 H   0  0  0  0  0  0
  -23.9795  -27.3066   19.0078 H   0  0  0  0  0  0
  -23.7398  -30.5864   19.4040 H   0  0  0  0  0  0
  -22.7508  -29.2353   19.8638 H   0  0  0  0  0  0
  -25.1280  -36.1938   25.0816 H   0  0  0  0  0  0
  -20.9969  -28.3235   24.1411 H   0  0  0  0  0  0
  -20.5640  -26.2279   23.3614 H   0  0  0  0  0  0
  -21.6620  -26.7420   22.1199 H   0  0  0  0  0  0
  -19.6900  -25.6299   21.1229 H   0  0  0  0  0  0
  -19.6688  -27.3197   20.6744 H   0  0  0  0  0  0
  -17.4187  -26.6670   21.4018 H   0  0  0  0  0  0
  -18.0326  -26.0083   22.9018 H   0  0  0  0  0  0
  -19.7939  -30.7264   24.2236 H   0  0  0  0  0  0
  -17.5021  -31.6260   24.5160 H   0  0  0  0  0  0
  -15.5346  -30.2977   23.7676 H   0  0  0  0  0  0
  -15.8669  -28.0839   22.7036 H   0  0  0  0  0  0
  -24.5966  -30.6957   25.7831 H   0  0  0  0  0  0
  -24.8817  -32.2860   26.4829 H   0  0  0  0  0  0
  -25.8066  -30.8985   27.0306 H   0  0  0  0  0  0
  -26.2882  -29.6774   24.1202 H   0  0  0  0  0  0
  -27.4002  -29.7255   25.4680 H   0  0  0  0  0  0
  -27.8749  -30.4298   23.9402 H   0  0  0  0  0  0
  -27.2722  -33.3650   26.2003 H   0  0  0  0  0  0
  -28.3887  -32.6774   25.0306 H   0  0  0  0  0  0
  -28.0696  -31.8454   26.5446 H   0  0  0  0  0  0
  -28.2552  -38.0119   24.7558 H   0  0  0  0  0  0
  -28.1102  -36.2660   24.6197 H   0  0  0  0  0  0
  -27.2309  -37.1332   25.8854 H   0  0  0  0  0  0
  -20.9335  -29.8781   21.6917 H   0  0  0  0  0  0
  -26.0152  -38.2837   24.1485 H   0  0  0  0  0  0
  -30.7834  -16.7856   18.5038 H   0  0  0  0  0  0
  -29.6577  -19.8506   21.3401 H   0  0  0  0  0  0
  -30.7048  -20.9116   17.2901 H   0  0  0  0  0  0
  -27.2813  -24.8573   20.5486 H   0  0  0  0  0  0
  -29.4535  -17.3848   21.9091 H   0  0  0  0  0  0
  -31.1441  -17.0883   21.6467 H   0  0  0  0  0  0
  -31.6391  -17.5194   16.3852 H   0  0  0  0  0  0
  -31.6671  -19.1373   15.9144 H   0  0  0  0  0  0
  -30.6509  -22.5505   18.9865 H   0  0  0  0  0  0
  -28.8747  -15.4082   20.9671 H   0  0  0  0  0  0
  -31.0870  -24.0261   19.7439 H   0  0  0  0  0  0
  1 25  1  0  0  0
  1 30  2  0  0  0
  1 83  1  0  0  0
  2  3  1  0  0  0
  2 25  1  0  0  0
  2 86  1  0  0  0
  2 87  1  0  0  0
  3  4  1  0  0  0
  3 88  1  0  0  0
  3 89  1  0  0  0
  4  5  1  0  0  0
  4 90  1  0  0  0
  4 91  1  0  0  0
  5  6  1  0  0  0
  5 26  1  0  0  0
  5 92  1  0  0  0
  6 25  1  0  0  0
  6 93  1  0  0  0
  6 94  1  0  0  0
  7  8  2  0  0  0
  7 26  1  0  0  0
  7 29  1  0  0  0
  8  9  1  0  0  0
  8 22  1  0  0  0
  9 10  1  0  0  0
  9 27  2  0  0  0
 10 11  2  0  0  0
 10 15  1  0  0  0
 11 12  1  0  0  0
 11 95  1  0  0  0
 12 13  2  0  0  0
 12 96  1  0  0  0
 13 14  1  0  0  0
 13 31  1  0  0  0
 14 15  2  0  0  0
 14 97  1  0  0  0
 15 98  1  0  0  0
 16 17  2  0  0  0
 16 21  1  0  0  0
 16 31  1  0  0  0
 17 18  1  0  0  0
 17 99  1  0  0  0
 18 19  2  0  0  0
 18100  1  0  0  0
 19 20  1  0  0  0
 19 24  1  0  0  0
 20 21  2  0  0  0
 20101  1  0  0  0
 21 23  1  0  0  0
 22 28  1  0  0  0
 22 32  2  0  0  0
 26 27  1  0  0  0
 28102  1  0  0  0
 28103  1  0  0  0
 29104  1  0  0  0
 29105  1  0  0  0
 33 34  1  0  0  0
 33 66  1  0  0  0
 33 70  2  0  0  0
 34 36  1  0  0  0
 34 59  1  0  0  0
 34106  1  0  0  0
 35 44  2  0  0  0
 35 45  1  0  0  0
 35 68  1  0  0  0
 36 56  1  0  0  0
 36107  1  0  0  0
 37 39  1  0  0  0
 37 47  1  0  0  0
 37 66  1  0  0  0
 37108  1  0  0  0
 38 43  2  0  0  0
 38 46  1  0  0  0
 38 47  1  0  0  0
 39 64  1  0  0  0
 39 67  2  0  0  0
 40 52  1  0  0  0
 40 53  2  0  0  0
 40 58  1  0  0  0
 41109  1  0  0  0
 41110  1  0  0  0
 41111  1  0  0  0
 41 48  1  0  0  0
 42 43  1  0  0  0
 42 66  1  0  0  0
 42112  1  0  0  0
 42113  1  0  0  0
 43 44  1  0  0  0
 44114  1  0  0  0
 45 46  2  0  0  0
 45115  1  0  0  0
 46116  1  0  0  0
 47117  1  0  0  0
 47118  1  0  0  0
 48 56  1  0  0  0
 48 65  1  0  0  0
 48119  1  0  0  0
 49 50  1  0  0  0
 49 53  1  0  0  0
 49 64  1  0  0  0
 49120  1  0  0  0
 50 51  1  0  0  0
 50121  1  0  0  0
 50122  1  0  0  0
 51 52  1  0  0  0
 51123  1  0  0  0
 51124  1  0  0  0
 52125  1  0  0  0
 52126  1  0  0  0
 53 54  1  0  0  0
 54 55  2  0  0  0
 54127  1  0  0  0
 55 57  1  0  0  0
 55128  1  0  0  0
 56 69  2  0  0  0
 57 58  2  0  0  0
 57129  1  0  0  0
 58130  1  0  0  0
 59 60  1  0  0  0
 59 61  1  0  0  0
 59 62  1  0  0  0
 60131  1  0  0  0
 60132  1  0  0  0
 60133  1  0  0  0
 61134  1  0  0  0
 61135  1  0  0  0
 61136  1  0  0  0
 62137  1  0  0  0
 62138  1  0  0  0
 62139  1  0  0  0
 63 65  1  0  0  0
 63140  1  0  0  0
 63141  1  0  0  0
 63142  1  0  0  0
 64143  1  0  0  0
 65144  1  0  0  0
 68 77  1  0  0  0
 71 74  2  0  0  0
 71 75  1  0  0  0
 71145  1  0  0  0
 72 74  1  0  0  0
 72 76  2  0  0  0
 72146  1  0  0  0
 73 75  2  0  0  0
 73 76  1  0  0  0
 73147  1  0  0  0
 74 80  1  0  0  0
 75 81  1  0  0  0
 76 82  1  0  0  0
 77 78  2  0  0  0
 77148  1  0  0  0
 78 79  1  0  0  0
 78 85  1  0  0  0
 79 82  1  0  0  0
 79 84  2  0  0  0
 80 83  1  0  0  0
 80149  1  0  0  0
 80150  1  0  0  0
 81151  1  0  0  0
 81152  1  0  0  0
 82153  1  0  0  0
 83154  1  0  0  0
 85155  1  0  0  0
M  ISO  4   1 100  68 101  77 101  83 100
M  END
> <chiral flag>
0

> <version>
0

> <s_m_source_file>
/data/baiqing/PycharmProjects/Reinvent-master-3.2/result/LINK_invent/BTK/process_docking_weight1_custom_product_contain_oxygen_bond_distance_aromatic_linkinvent_7_9_3/rearranged_h_0150.sdf

> <i_m_source_file_index>
36

> <r_mmod_Potential_Energy-OPLS-2005>
-96.0402603149414

> <r_mmod_Stretch_Energy-OPLS-2005>
62.8141021728516

> <r_mmod_Bend_Energy-OPLS-2005>
125.027297973633

> <r_mmod_Torsional_Energy-OPLS-2005>
225.686874389648

> <r_mmod_Improper_Torsional_Energy-OPLS-2005>
9.12115383148193

> <r_mmod_Van_der_Waal_Energy-OPLS-2005>
144.60774230957

> <r_mmod_Electrostatic_Energy-OPLS-2005>
-441.414886474609

> <r_mmod_Solvation_Energy-OPLS-2005>
-256.92822265625

> <b_mmod_Minimization_Converged-OPLS-2005>
0

> <r_mmod_RMS_Derivative-OPLS-2005>
2.49760460853577

$$$$
36
                    3D
 Structure written by MMmdl.
164172  0  0  1  0            999 V2000
  -30.7177  -14.4959   20.5617 C   0  0  0  0  0  0
  -30.4161  -12.3205   19.4320 C   0  0  0  0  0  0
  -29.4928  -12.5012   18.2102 C   0  0  0  0  0  0
  -28.0156  -12.3588   18.6241 C   0  0  0  0  0  0
  -27.6571  -13.2135   19.8698 C   0  0  2  0  0  0
  -28.7007  -13.0313   20.9958 C   0  0  0  0  0  0
  -25.2566  -13.8176   20.5684 C   0  0  0  0  0  0
  -24.1828  -13.0444   20.9187 C   0  0  0  0  0  0
  -24.6392  -11.6912   20.8742 C   0  0  0  0  0  0
  -23.9064  -10.4293   21.0408 C   0  0  0  0  0  0
  -24.3615   -9.4208   21.9186 C   0  0  0  0  0  0
  -23.6290   -8.2244   22.0756 C   0  0  0  0  0  0
  -22.4272   -8.0282   21.3546 C   0  0  0  0  0  0
  -21.9909   -9.0256   20.4647 C   0  0  0  0  0  0
  -22.7238  -10.2135   20.3057 C   0  0  0  0  0  0
  -21.6853   -6.0737   22.5279 C   0  0  0  0  0  0
  -21.4014   -6.5640   23.8212 C   0  0  0  0  0  0
  -21.3658   -5.6791   24.9174 C   0  0  0  0  0  0
  -21.6044   -4.3054   24.7223 C   0  0  0  0  0  0
  -21.8820   -3.8147   23.4343 C   0  0  0  0  0  0
  -21.9192   -4.6965   22.3401 C   0  0  0  0  0  0
  -22.7849  -13.5238   21.1847 C   0  0  0  0  0  0
  -22.1660   -4.2150   21.0979 F   0  0  0  0  0  0
  -21.5629   -3.4539   25.7736 F   0  0  0  0  0  0
  -30.0278  -13.3276   20.4345 N   0  0  0  0  0  0
  -26.3002  -12.9358   20.3353 N   0  0  0  0  0  0
  -25.9322  -11.6513   20.5775 N   0  0  0  0  0  0
  -22.0486  -12.8229   22.0398 N   0  0  0  0  0  0
  -25.4281  -15.1895   20.4074 N   0  0  0  0  0  0
  -31.8503  -14.6333   20.0928 O   0  0  0  0  0  0
  -21.6637   -6.8879   21.4240 O   0  0  0  0  0  0
  -22.3540  -14.5548   20.6696 O   0  0  0  0  0  0
  -24.6167  -31.8664   23.2087 C   0  0  0  0  0  0
  -25.9052  -32.4815   23.8389 C   0  0  1  0  0  0
  -27.2289  -27.4184   20.1015 C   0  0  0  0  0  0
  -25.5902  -33.8615   24.2324 N   0  0  0  0  0  0
  -23.4064  -30.4895   21.5490 C   0  0  2  0  0  0
  -24.8544  -28.9567   20.1098 C   0  0  0  0  0  0
  -22.7424  -29.4649   22.4977 C   0  0  0  0  0  0
  -18.0274  -28.1377   22.8489 C   0  0  0  0  0  0
  -24.1487  -36.7311   23.2639 C   0  0  0  0  0  0
  -25.9368  -30.8287   21.3636 C   0  0  0  0  0  0
  -26.0162  -29.4626   20.7087 C   0  0  0  0  0  0
  -27.2110  -28.7014   20.7008 C   0  0  0  0  0  0
  -26.0555  -26.9355   19.4869 C   0  0  0  0  0  0
  -24.8701  -27.6937   19.4931 C   0  0  0  0  0  0
  -23.6157  -29.8236   20.1628 C   0  0  0  0  0  0
  -25.4107  -36.3110   24.0338 C   0  0  1  0  0  0
  -20.5867  -28.3666   23.1312 C   0  0  2  0  0  0
  -20.6766  -26.9401   22.5415 C   0  0  0  0  0  0
  -19.5745  -26.6386   21.5212 C   0  0  0  0  0  0
  -18.1922  -26.7924   22.1620 C   0  0  0  0  0  0
  -19.1524  -28.8837   23.2898 C   0  0  0  0  0  0
  -18.9453  -30.1441   23.8910 C   0  0  0  0  0  0
  -17.6458  -30.6586   24.0563 C   0  0  0  0  0  0
  -25.9036  -34.9474   23.5129 C   0  0  0  0  0  0
  -16.5348  -29.9089   23.6329 C   0  0  0  0  0  0
  -16.7263  -28.6503   23.0351 C   0  0  0  0  0  0
  -26.4477  -31.6591   25.0717 C   0  0  0  0  0  0
  -25.3742  -31.3695   26.1464 C   0  0  0  0  0  0
  -27.0310  -30.3036   24.6088 C   0  0  0  0  0  0
  -27.6051  -32.4309   25.7484 C   0  0  0  0  0  0
  -27.5578  -37.1810   24.8466 C   0  0  0  0  0  0
  -21.4147  -29.3034   22.3719 N   0  0  0  0  0  0
  -26.4293  -37.3793   23.9408 N   0  0  0  0  0  0
  -24.6718  -31.0755   22.0992 N   0  0  0  0  0  0
  -23.4189  -28.8192   23.3025 O   0  0  0  0  0  0
  -28.3407  -26.6033   20.1391 O   0  0  0  0  0  0
  -26.5599  -34.8926   22.4692 O   0  0  0  0  0  0
  -23.5355  -32.1410   23.7475 O   0  0  0  0  0  0
  -29.5951  -17.9995   21.2157 C   0  0  0  0  0  0
  -31.3990  -19.5733   21.7038 C   0  0  0  0  0  0
  -31.8710  -17.1864   21.5281 C   0  0  0  0  0  0
  -30.0305  -19.3403   21.4476 C   0  0  0  0  0  0
  -30.5084  -16.9050   21.2536 C   0  0  0  0  0  0
  -32.3106  -18.5057   21.7399 C   0  0  0  0  0  0
  -29.0882  -20.4808   21.5530 C   0  0  0  0  0  0
  -28.9340  -24.2148   20.7504 C   0  0  0  0  0  0
  -30.8312  -23.6423   23.2251 C   0  0  0  0  0  0
  -28.8840  -22.4303   24.2810 C   0  0  0  0  0  0
  -28.1658  -25.5240   21.0856 C   0  0  0  0  0  0
  -28.7732  -23.0251   21.7592 C   0  0  2  0  0  0
  -29.3063  -23.4153   23.1768 C   0  0  0  0  0  0
  -30.0377  -15.5508   21.0752 N   0  0  0  0  0  0
  -29.4515  -21.7656   21.3084 N   0  0  0  0  0  0
  -27.8563  -20.2536   22.0092 N   0  3  0  0  0  0
  -29.6416  -24.1303   19.7408 O   0  0  0  0  0  0
  -33.6168  -18.7483   22.0062 F   0  0  0  0  0  0
  -31.4618  -12.4040   19.1305 H   0  0  0  0  0  0
  -30.3091  -11.3175   19.8481 H   0  0  0  0  0  0
  -29.7373  -11.7678   17.4408 H   0  0  0  0  0  0
  -29.6577  -13.4823   17.7620 H   0  0  0  0  0  0
  -27.8329  -11.3043   18.8336 H   0  0  0  0  0  0
  -27.3637  -12.6184   17.7891 H   0  0  0  0  0  0
  -27.6902  -14.2560   19.5525 H   0  0  0  0  0  0
  -28.6814  -12.0066   21.3703 H   0  0  0  0  0  0
  -28.4630  -13.6620   21.8536 H   0  0  0  0  0  0
  -25.2762   -9.5684   22.4758 H   0  0  0  0  0  0
  -23.9999   -7.4637   22.7476 H   0  0  0  0  0  0
  -21.0841   -8.8775   19.8952 H   0  0  0  0  0  0
  -22.3700  -10.9673   19.6162 H   0  0  0  0  0  0
  -21.2006   -7.6149   23.9717 H   0  0  0  0  0  0
  -21.1480   -6.0522   25.9077 H   0  0  0  0  0  0
  -22.0599   -2.7610   23.2844 H   0  0  0  0  0  0
  -22.4091  -11.9882   22.4780 H   0  0  0  0  0  0
  -21.1105  -13.1259   22.2602 H   0  0  0  0  0  0
  -24.6571  -15.8414   20.5035 H   0  0  0  0  0  0
  -26.2705  -15.6239   20.0531 H   0  0  0  0  0  0
  -26.7123  -32.5527   23.1152 H   0  0  0  0  0  0
  -25.0061  -33.9773   25.0476 H   0  0  0  0  0  0
  -22.6959  -31.3070   21.4097 H   0  0  0  0  0  0
  -23.3748  -35.9647   23.3315 H   0  0  0  0  0  0
  -24.3581  -36.8913   22.2052 H   0  0  0  0  0  0
  -23.7241  -37.6520   23.6644 H   0  0  0  0  0  0
  -26.0500  -31.5955   20.5960 H   0  0  0  0  0  0
  -26.8245  -30.8823   21.9819 H   0  0  0  0  0  0
  -28.1052  -29.0810   21.1752 H   0  0  0  0  0  0
  -26.0546  -25.9609   19.0191 H   0  0  0  0  0  0
  -23.9778  -27.2989   19.0271 H   0  0  0  0  0  0
  -23.7217  -30.5997   19.4038 H   0  0  0  0  0  0
  -22.7397  -29.2433   19.8675 H   0  0  0  0  0  0
  -25.1286  -36.1974   25.0831 H   0  0  0  0  0  0
  -20.9951  -28.3232   24.1435 H   0  0  0  0  0  0
  -20.5673  -26.2274   23.3604 H   0  0  0  0  0  0
  -21.6636  -26.7447   22.1203 H   0  0  0  0  0  0
  -19.6913  -25.6303   21.1227 H   0  0  0  0  0  0
  -19.6689  -27.3207   20.6752 H   0  0  0  0  0  0
  -17.4194  -26.6672   21.4020 H   0  0  0  0  0  0
  -18.0320  -26.0063   22.9012 H   0  0  0  0  0  0
  -19.7934  -30.7246   24.2287 H   0  0  0  0  0  0
  -17.5018  -31.6268   24.5161 H   0  0  0  0  0  0
  -15.5350  -30.2998   23.7648 H   0  0  0  0  0  0
  -15.8657  -28.0826   22.7067 H   0  0  0  0  0  0
  -24.5917  -30.7042   25.7800 H   0  0  0  0  0  0
  -24.8931  -32.2848   26.4919 H   0  0  0  0  0  0
  -25.8094  -30.8859   27.0217 H   0  0  0  0  0  0
  -26.2850  -29.6799   24.1147 H   0  0  0  0  0  0
  -27.4095  -29.7270   25.4538 H   0  0  0  0  0  0
  -27.8679  -30.4369   23.9229 H   0  0  0  0  0  0
  -27.2669  -33.3602   26.2083 H   0  0  0  0  0  0
  -28.3850  -32.6880   25.0303 H   0  0  0  0  0  0
  -28.0727  -31.8417   26.5382 H   0  0  0  0  0  0
  -28.2604  -38.0100   24.7506 H   0  0  0  0  0  0
  -28.1067  -36.2631   24.6302 H   0  0  0  0  0  0
  -27.2294  -37.1468   25.8870 H   0  0  0  0  0  0
  -20.9307  -29.8762   21.6947 H   0  0  0  0  0  0
  -26.0186  -38.2876   24.1404 H   0  0  0  0  0  0
  -28.5480  -17.8056   21.0286 H   0  0  0  0  0  0
  -31.7670  -20.5667   21.9148 H   0  0  0  0  0  0
  -32.6057  -16.4002   21.6033 H   0  0  0  0  0  0
  -31.1398  -23.9923   24.2110 H   0  0  0  0  0  0
  -31.1576  -24.3952   22.5075 H   0  0  0  0  0  0
  -31.3856  -22.7269   23.0206 H   0  0  0  0  0  0
  -29.1140  -22.8342   25.2676 H   0  0  0  0  0  0
  -29.4008  -21.4744   24.2029 H   0  0  0  0  0  0
  -27.8110  -22.2382   24.2565 H   0  0  0  0  0  0
  -28.4962  -25.8949   22.0546 H   0  0  0  0  0  0
  -27.1131  -25.2618   21.1978 H   0  0  0  0  0  0
  -27.7024  -22.8319   21.8356 H   0  0  0  0  0  0
  -28.8402  -24.3575   23.4636 H   0  0  0  0  0  0
  -29.0709  -15.3712   21.2969 H   0  0  0  0  0  0
  -30.2970  -21.9065   20.7692 H   0  0  0  0  0  0
  -27.5914  -19.3254   22.2960 H   0  0  0  0  0  0
  -27.1858  -20.9976   22.0897 H   0  0  0  0  0  0
  1 25  1  0  0  0
  1 30  2  0  0  0
  1 84  1  0  0  0
  2  3  1  0  0  0
  2 25  1  0  0  0
  2 89  1  0  0  0
  2 90  1  0  0  0
  3  4  1  0  0  0
  3 91  1  0  0  0
  3 92  1  0  0  0
  4  5  1  0  0  0
  4 93  1  0  0  0
  4 94  1  0  0  0
  5  6  1  0  0  0
  5 26  1  0  0  0
  5 95  1  0  0  0
  6 25  1  0  0  0
  6 96  1  0  0  0
  6 97  1  0  0  0
  7  8  2  0  0  0
  7 26  1  0  0  0
  7 29  1  0  0  0
  8  9  1  0  0  0
  8 22  1  0  0  0
  9 10  1  0  0  0
  9 27  2  0  0  0
 10 11  2  0  0  0
 10 15  1  0  0  0
 11 12  1  0  0  0
 11 98  1  0  0  0
 12 13  2  0  0  0
 12 99  1  0  0  0
 13 14  1  0  0  0
 13 31  1  0  0  0
 14 15  2  0  0  0
 14100  1  0  0  0
 15101  1  0  0  0
 16 17  2  0  0  0
 16 21  1  0  0  0
 16 31  1  0  0  0
 17 18  1  0  0  0
 17102  1  0  0  0
 18 19  2  0  0  0
 18103  1  0  0  0
 19 20  1  0  0  0
 19 24  1  0  0  0
 20 21  2  0  0  0
 20104  1  0  0  0
 21 23  1  0  0  0
 22 28  1  0  0  0
 22 32  2  0  0  0
 26 27  1  0  0  0
 28105  1  0  0  0
 28106  1  0  0  0
 29107  1  0  0  0
 29108  1  0  0  0
 33 34  1  0  0  0
 33 66  1  0  0  0
 33 70  2  0  0  0
 34 36  1  0  0  0
 34 59  1  0  0  0
 34109  1  0  0  0
 35 44  2  0  0  0
 35 45  1  0  0  0
 35 68  1  0  0  0
 36 56  1  0  0  0
 36110  1  0  0  0
 37 39  1  0  0  0
 37 47  1  0  0  0
 37 66  1  0  0  0
 37111  1  0  0  0
 38 43  2  0  0  0
 38 46  1  0  0  0
 38 47  1  0  0  0
 39 64  1  0  0  0
 39 67  2  0  0  0
 40 52  1  0  0  0
 40 53  2  0  0  0
 40 58  1  0  0  0
 41112  1  0  0  0
 41113  1  0  0  0
 41114  1  0  0  0
 41 48  1  0  0  0
 42 43  1  0  0  0
 42 66  1  0  0  0
 42115  1  0  0  0
 42116  1  0  0  0
 43 44  1  0  0  0
 44117  1  0  0  0
 45 46  2  0  0  0
 45118  1  0  0  0
 46119  1  0  0  0
 47120  1  0  0  0
 47121  1  0  0  0
 48 56  1  0  0  0
 48 65  1  0  0  0
 48122  1  0  0  0
 49 50  1  0  0  0
 49 53  1  0  0  0
 49 64  1  0  0  0
 49123  1  0  0  0
 50 51  1  0  0  0
 50124  1  0  0  0
 50125  1  0  0  0
 51 52  1  0  0  0
 51126  1  0  0  0
 51127  1  0  0  0
 52128  1  0  0  0
 52129  1  0  0  0
 53 54  1  0  0  0
 54 55  2  0  0  0
 54130  1  0  0  0
 55 57  1  0  0  0
 55131  1  0  0  0
 56 69  2  0  0  0
 57 58  2  0  0  0
 57132  1  0  0  0
 58133  1  0  0  0
 59 60  1  0  0  0
 59 61  1  0  0  0
 59 62  1  0  0  0
 60134  1  0  0  0
 60135  1  0  0  0
 60136  1  0  0  0
 61137  1  0  0  0
 61138  1  0  0  0
 61139  1  0  0  0
 62140  1  0  0  0
 62141  1  0  0  0
 62142  1  0  0  0
 63 65  1  0  0  0
 63143  1  0  0  0
 63144  1  0  0  0
 63145  1  0  0  0
 64146  1  0  0  0
 65147  1  0  0  0
 68 81  1  0  0  0
 71 74  2  0  0  0
 71 75  1  0  0  0
 71148  1  0  0  0
 72 74  1  0  0  0
 72 76  2  0  0  0
 72149  1  0  0  0
 73 75  2  0  0  0
 73 76  1  0  0  0
 73150  1  0  0  0
 74 77  1  0  0  0
 75 84  1  0  0  0
 76 88  1  0  0  0
 77 85  1  0  0  0
 77 86  2  0  0  0
 78 81  1  0  0  0
 78 82  1  0  0  0
 78 87  2  0  0  0
 79151  1  0  0  0
 79152  1  0  0  0
 79153  1  0  0  0
 79 83  1  0  0  0
 80 83  1  0  0  0
 80154  1  0  0  0
 80155  1  0  0  0
 80156  1  0  0  0
 81157  1  0  0  0
 81158  1  0  0  0
 82 83  1  0  0  0
 82 85  1  0  0  0
 82159  1  0  0  0
 83160  1  0  0  0
 84161  1  0  0  0
 85162  1  0  0  0
 86163  1  0  0  0
 86164  1  0  0  0
M  CHG  1  86   1
M  ISO  4   1 100  68 101  81 101  84 100
M  END
> <chiral flag>
0

> <version>
0

> <s_m_source_file>
/data/baiqing/PycharmProjects/Reinvent-master-3.2/result/LINK_invent/BTK/process_docking_weight1_custom_product_contain_oxygen_bond_distance_aromatic_linkinvent_7_9_3/rearranged_h_0150.sdf

> <i_m_source_file_index>
37

> <r_mmod_Potential_Energy-OPLS-2005>
-308.653533935547

> <r_mmod_Stretch_Energy-OPLS-2005>
48.8615226745605

> <r_mmod_Bend_Energy-OPLS-2005>
101.544311523438

> <r_mmod_Torsional_Energy-OPLS-2005>
250.755874633789

> <r_mmod_Improper_Torsional_Energy-OPLS-2005>
4.99943876266479

> <r_mmod_Van_der_Waal_Energy-OPLS-2005>
157.883773803711

> <r_mmod_Electrostatic_Energy-OPLS-2005>
-436.584411621094

> <r_mmod_Solvation_Energy-OPLS-2005>
-454.53271484375

> <b_mmod_Minimization_Converged-OPLS-2005>
0

> <r_mmod_RMS_Derivative-OPLS-2005>
0.582745969295502

$$$$
37
                    3D
 Structure written by MMmdl.
154163  0  0  1  0            999 V2000
  -30.6158  -14.8032   20.4220 C   0  0  0  0  0  0
  -30.4315  -12.4877   19.4894 C   0  0  0  0  0  0
  -29.5181  -12.5144   18.2452 C   0  0  0  0  0  0
  -28.0433  -12.3360   18.6536 C   0  0  0  0  0  0
  -27.6398  -13.2436   19.8464 C   0  0  2  0  0  0
  -28.6847  -13.2190   20.9837 C   0  0  0  0  0  0
  -25.2508  -13.8220   20.5701 C   0  0  0  0  0  0
  -24.1804  -13.0450   20.9203 C   0  0  0  0  0  0
  -24.6404  -11.6932   20.8734 C   0  0  0  0  0  0
  -23.9079  -10.4304   21.0399 C   0  0  0  0  0  0
  -24.3622   -9.4215   21.9178 C   0  0  0  0  0  0
  -23.6294   -8.2253   22.0754 C   0  0  0  0  0  0
  -22.4273   -8.0289   21.3545 C   0  0  0  0  0  0
  -21.9913   -9.0269   20.4651 C   0  0  0  0  0  0
  -22.7249  -10.2145   20.3056 C   0  0  0  0  0  0
  -21.6860   -6.0733   22.5274 C   0  0  0  0  0  0
  -21.4018   -6.5637   23.8206 C   0  0  0  0  0  0
  -21.3659   -5.6786   24.9163 C   0  0  0  0  0  0
  -21.6046   -4.3050   24.7214 C   0  0  0  0  0  0
  -21.8818   -3.8144   23.4338 C   0  0  0  0  0  0
  -21.9198   -4.6960   22.3396 C   0  0  0  0  0  0
  -22.7820  -13.5232   21.1847 C   0  0  0  0  0  0
  -22.1665   -4.2149   21.0974 F   0  0  0  0  0  0
  -21.5632   -3.4531   25.7728 F   0  0  0  0  0  0
  -29.9811  -13.5756   20.3950 N   0  0  0  0  0  0
  -26.2938  -12.9451   20.3263 N   0  0  0  0  0  0
  -25.9343  -11.6581   20.5732 N   0  0  0  0  0  0
  -22.0456  -12.8238   22.0400 N   0  0  0  0  0  0
  -25.4191  -15.1945   20.4115 N   0  0  0  0  0  0
  -31.8182  -14.8335   20.1476 O   0  0  0  0  0  0
  -21.6640   -6.8882   21.4242 O   0  0  0  0  0  0
  -22.3516  -14.5538   20.6686 O   0  0  0  0  0  0
  -24.6359  -31.8503   23.1937 C   0  0  0  0  0  0
  -25.9166  -32.4719   23.8310 C   0  0  1  0  0  0
  -27.2282  -27.2301   20.1214 C   0  0  0  0  0  0
  -25.5948  -33.8521   24.2240 N   0  0  0  0  0  0
  -23.4352  -30.4714   21.5352 C   0  0  2  0  0  0
  -24.8855  -28.9123   20.1049 C   0  0  0  0  0  0
  -22.7532  -29.4579   22.4864 C   0  0  0  0  0  0
  -18.0304  -28.1388   22.8475 C   0  0  0  0  0  0
  -24.1495  -36.7271   23.2639 C   0  0  0  0  0  0
  -25.9844  -30.7527   21.3791 C   0  0  0  0  0  0
  -26.0574  -29.3729   20.7181 C   0  0  0  0  0  0
  -27.2283  -28.5423   20.7167 C   0  0  0  0  0  0
  -26.0282  -26.8422   19.4841 C   0  0  0  0  0  0
  -24.8774  -27.6569   19.4775 C   0  0  0  0  0  0
  -23.6571  -29.8018   20.1522 C   0  0  0  0  0  0
  -25.4115  -36.3051   24.0327 C   0  0  1  0  0  0
  -20.5911  -28.3716   23.1247 C   0  0  2  0  0  0
  -20.6783  -26.9426   22.5400 C   0  0  0  0  0  0
  -19.5757  -26.6384   21.5199 C   0  0  0  0  0  0
  -18.1940  -26.7931   22.1613 C   0  0  0  0  0  0
  -19.1559  -28.8865   23.2859 C   0  0  0  0  0  0
  -18.9472  -30.1459   23.8892 C   0  0  0  0  0  0
  -17.6474  -30.6589   24.0552 C   0  0  0  0  0  0
  -25.9059  -34.9421   23.5090 C   0  0  0  0  0  0
  -16.5362  -29.9085   23.6327 C   0  0  0  0  0  0
  -16.7288  -28.6495   23.0353 C   0  0  0  0  0  0
  -26.4520  -31.6557   25.0716 C   0  0  0  0  0  0
  -25.3741  -31.3715   26.1437 C   0  0  0  0  0  0
  -27.0361  -30.2959   24.6234 C   0  0  0  0  0  0
  -27.6074  -32.4301   25.7493 C   0  0  0  0  0  0
  -27.5583  -37.1790   24.8464 C   0  0  0  0  0  0
  -21.4226  -29.3057   22.3630 N   0  0  0  0  0  0
  -26.4289  -37.3757   23.9411 N   0  0  0  0  0  0
  -24.7041  -31.0443   22.0919 N   0  0  0  0  0  0
  -23.4220  -28.8123   23.2976 O   0  0  0  0  0  0
  -28.3119  -26.3132   20.2204 O   0  0  0  0  0  0
  -26.5628  -34.8909   22.4655 O   0  0  0  0  0  0
  -23.5498  -32.1351   23.7198 O   0  0  0  0  0  0
  -31.5780  -18.9799   18.8877 C   0  0  0  0  0  0
  -30.8055  -20.0997   19.2480 C   0  0  0  0  0  0
  -31.2632  -17.6804   19.3313 C   0  0  0  0  0  0
  -29.3816  -18.6133   20.5431 C   0  0  0  0  0  0
  -29.6747  -19.9811   20.0832 C   0  0  0  0  0  0
  -30.1627  -17.4166   20.1817 C   0  0  0  0  0  0
  -28.6378  -23.7481   20.1814 C   0  0  0  0  0  0
  -28.2881  -24.9950   19.6493 C   0  0  0  0  0  0
  -29.0562  -23.4225   21.5964 C   0  0  0  0  0  0
  -28.6736  -22.3440   19.4716 C   0  0  0  0  0  0
  -29.4873  -21.9153   21.6221 C   0  0  0  0  0  0
  -28.9693  -21.2173   20.4366 N   0  0  0  0  0  0
  -29.8713  -15.9866   20.5791 N   0  0  0  0  0  0
  -31.4745  -12.6008   19.1885 H   0  0  0  0  0  0
  -30.3737  -11.5216   19.9922 H   0  0  0  0  0  0
  -29.8100  -11.7329   17.5420 H   0  0  0  0  0  0
  -29.6433  -13.4616   17.7183 H   0  0  0  0  0  0
  -27.9004  -11.2890   18.9207 H   0  0  0  0  0  0
  -27.3926  -12.5239   17.7991 H   0  0  0  0  0  0
  -27.6210  -14.2580   19.4482 H   0  0  0  0  0  0
  -28.7327  -12.2348   21.4511 H   0  0  0  0  0  0
  -28.4139  -13.9216   21.7738 H   0  0  0  0  0  0
  -25.2765   -9.5697   22.4753 H   0  0  0  0  0  0
  -24.0004   -7.4646   22.7478 H   0  0  0  0  0  0
  -21.0842   -8.8797   19.8963 H   0  0  0  0  0  0
  -22.3706  -10.9684   19.6165 H   0  0  0  0  0  0
  -21.2010   -7.6143   23.9709 H   0  0  0  0  0  0
  -21.1483   -6.0512   25.9067 H   0  0  0  0  0  0
  -22.0600   -2.7609   23.2829 H   0  0  0  0  0  0
  -22.4061  -11.9911   22.4816 H   0  0  0  0  0  0
  -21.1076  -13.1289   22.2585 H   0  0  0  0  0  0
  -24.6483  -15.8457   20.5151 H   0  0  0  0  0  0
  -26.2615  -15.6326   20.0614 H   0  0  0  0  0  0
  -26.7231  -32.5370   23.1047 H   0  0  0  0  0  0
  -25.0097  -33.9650   25.0388 H   0  0  0  0  0  0
  -22.7334  -31.2942   21.3832 H   0  0  0  0  0  0
  -23.3758  -35.9604   23.3284 H   0  0  0  0  0  0
  -24.3598  -36.8907   22.2060 H   0  0  0  0  0  0
  -23.7257  -37.6467   23.6672 H   0  0  0  0  0  0
  -26.1317  -31.5124   20.6102 H   0  0  0  0  0  0
  -26.8579  -30.7997   22.0177 H   0  0  0  0  0  0
  -28.1234  -28.8840   21.2171 H   0  0  0  0  0  0
  -25.9453  -25.8729   19.0158 H   0  0  0  0  0  0
  -23.9787  -27.2955   18.9979 H   0  0  0  0  0  0
  -23.7871  -30.5756   19.3948 H   0  0  0  0  0  0
  -22.7747  -29.2363   19.8469 H   0  0  0  0  0  0
  -25.1296  -36.1880   25.0821 H   0  0  0  0  0  0
  -21.0010  -28.3300   24.1362 H   0  0  0  0  0  0
  -20.5660  -26.2330   23.3611 H   0  0  0  0  0  0
  -21.6656  -26.7426   22.1212 H   0  0  0  0  0  0
  -19.6920  -25.6288   21.1242 H   0  0  0  0  0  0
  -19.6689  -27.3179   20.6713 H   0  0  0  0  0  0
  -17.4206  -26.6677   21.4016 H   0  0  0  0  0  0
  -18.0344  -26.0077   22.9015 H   0  0  0  0  0  0
  -19.7951  -30.7267   24.2276 H   0  0  0  0  0  0
  -17.5027  -31.6270   24.5151 H   0  0  0  0  0  0
  -15.5365  -30.2976   23.7649 H   0  0  0  0  0  0
  -15.8692  -28.0805   22.7077 H   0  0  0  0  0  0
  -24.5925  -30.7044   25.7780 H   0  0  0  0  0  0
  -24.8920  -32.2877   26.4850 H   0  0  0  0  0  0
  -25.8067  -30.8914   27.0224 H   0  0  0  0  0  0
  -26.2947  -29.6688   24.1263 H   0  0  0  0  0  0
  -27.4015  -29.7240   25.4773 H   0  0  0  0  0  0
  -27.8846  -30.4191   23.9502 H   0  0  0  0  0  0
  -27.2685  -33.3607   26.2053 H   0  0  0  0  0  0
  -28.3900  -32.6842   25.0334 H   0  0  0  0  0  0
  -28.0726  -31.8434   26.5423 H   0  0  0  0  0  0
  -28.2581  -38.0105   24.7515 H   0  0  0  0  0  0
  -28.1095  -36.2631   24.6269 H   0  0  0  0  0  0
  -27.2310  -37.1423   25.8871 H   0  0  0  0  0  0
  -20.9419  -29.8788   21.6838 H   0  0  0  0  0  0
  -26.0155  -38.2828   24.1395 H   0  0  0  0  0  0
  -32.4393  -19.1209   18.2500 H   0  0  0  0  0  0
  -31.1204  -21.0673   18.8840 H   0  0  0  0  0  0
  -31.9031  -16.8874   18.9777 H   0  0  0  0  0  0
  -28.5282  -18.4804   21.1923 H   0  0  0  0  0  0
  -28.0148  -25.0570   18.6046 H   0  0  0  0  0  0
  -28.1966  -23.5825   22.2482 H   0  0  0  0  0  0
  -29.8538  -24.0850   21.9333 H   0  0  0  0  0  0
  -29.4117  -22.3829   18.6703 H   0  0  0  0  0  0
  -27.7089  -22.1678   18.9936 H   0  0  0  0  0  0
  -29.1429  -21.4260   22.5336 H   0  0  0  0  0  0
  -30.5774  -21.8557   21.6243 H   0  0  0  0  0  0
  -28.9373  -15.8282   20.9253 H   0  0  0  0  0  0
  1 25  1  0  0  0
  1 30  2  0  0  0
  1 83  1  0  0  0
  2  3  1  0  0  0
  2 25  1  0  0  0
  2 84  1  0  0  0
  2 85  1  0  0  0
  3  4  1  0  0  0
  3 86  1  0  0  0
  3 87  1  0  0  0
  4  5  1  0  0  0
  4 88  1  0  0  0
  4 89  1  0  0  0
  5  6  1  0  0  0
  5 26  1  0  0  0
  5 90  1  0  0  0
  6 25  1  0  0  0
  6 91  1  0  0  0
  6 92  1  0  0  0
  7  8  2  0  0  0
  7 26  1  0  0  0
  7 29  1  0  0  0
  8  9  1  0  0  0
  8 22  1  0  0  0
  9 10  1  0  0  0
  9 27  2  0  0  0
 10 11  2  0  0  0
 10 15  1  0  0  0
 11 12  1  0  0  0
 11 93  1  0  0  0
 12 13  2  0  0  0
 12 94  1  0  0  0
 13 14  1  0  0  0
 13 31  1  0  0  0
 14 15  2  0  0  0
 14 95  1  0  0  0
 15 96  1  0  0  0
 16 17  2  0  0  0
 16 21  1  0  0  0
 16 31  1  0  0  0
 17 18  1  0  0  0
 17 97  1  0  0  0
 18 19  2  0  0  0
 18 98  1  0  0  0
 19 20  1  0  0  0
 19 24  1  0  0  0
 20 21  2  0  0  0
 20 99  1  0  0  0
 21 23  1  0  0  0
 22 28  1  0  0  0
 22 32  2  0  0  0
 26 27  1  0  0  0
 28100  1  0  0  0
 28101  1  0  0  0
 29102  1  0  0  0
 29103  1  0  0  0
 33 34  1  0  0  0
 33 66  1  0  0  0
 33 70  2  0  0  0
 34 36  1  0  0  0
 34 59  1  0  0  0
 34104  1  0  0  0
 35 44  2  0  0  0
 35 45  1  0  0  0
 35 68  1  0  0  0
 36 56  1  0  0  0
 36105  1  0  0  0
 37 39  1  0  0  0
 37 47  1  0  0  0
 37 66  1  0  0  0
 37106  1  0  0  0
 38 43  2  0  0  0
 38 46  1  0  0  0
 38 47  1  0  0  0
 39 64  1  0  0  0
 39 67  2  0  0  0
 40 52  1  0  0  0
 40 53  2  0  0  0
 40 58  1  0  0  0
 41107  1  0  0  0
 41108  1  0  0  0
 41109  1  0  0  0
 41 48  1  0  0  0
 42 43  1  0  0  0
 42 66  1  0  0  0
 42110  1  0  0  0
 42111  1  0  0  0
 43 44  1  0  0  0
 44112  1  0  0  0
 45 46  2  0  0  0
 45113  1  0  0  0
 46114  1  0  0  0
 47115  1  0  0  0
 47116  1  0  0  0
 48 56  1  0  0  0
 48 65  1  0  0  0
 48117  1  0  0  0
 49 50  1  0  0  0
 49 53  1  0  0  0
 49 64  1  0  0  0
 49118  1  0  0  0
 50 51  1  0  0  0
 50119  1  0  0  0
 50120  1  0  0  0
 51 52  1  0  0  0
 51121  1  0  0  0
 51122  1  0  0  0
 52123  1  0  0  0
 52124  1  0  0  0
 53 54  1  0  0  0
 54 55  2  0  0  0
 54125  1  0  0  0
 55 57  1  0  0  0
 55126  1  0  0  0
 56 69  2  0  0  0
 57 58  2  0  0  0
 57127  1  0  0  0
 58128  1  0  0  0
 59 60  1  0  0  0
 59 61  1  0  0  0
 59 62  1  0  0  0
 60129  1  0  0  0
 60130  1  0  0  0
 60131  1  0  0  0
 61132  1  0  0  0
 61133  1  0  0  0
 61134  1  0  0  0
 62135  1  0  0  0
 62136  1  0  0  0
 62137  1  0  0  0
 63 65  1  0  0  0
 63138  1  0  0  0
 63139  1  0  0  0
 63140  1  0  0  0
 64141  1  0  0  0
 65142  1  0  0  0
 68 78  1  0  0  0
 71 72  2  0  0  0
 71 73  1  0  0  0
 71143  1  0  0  0
 72 75  1  0  0  0
 72144  1  0  0  0
 73 76  2  0  0  0
 73145  1  0  0  0
 74 75  2  0  0  0
 74 76  1  0  0  0
 74146  1  0  0  0
 75 82  1  0  0  0
 76 83  1  0  0  0
 77 78  2  0  0  0
 77 79  1  0  0  0
 77 80  1  0  0  0
 78147  1  0  0  0
 79 81  1  0  0  0
 79148  1  0  0  0
 79149  1  0  0  0
 80 82  1  0  0  0
 80150  1  0  0  0
 80151  1  0  0  0
 81 82  1  0  0  0
 81152  1  0  0  0
 81153  1  0  0  0
 83154  1  0  0  0
M  ISO  4   1 100  68 101  78 101  83 100
M  END
> <chiral flag>
0

> <version>
0

> <s_m_source_file>
/data/baiqing/PycharmProjects/Reinvent-master-3.2/result/LINK_invent/BTK/process_docking_weight1_custom_product_contain_oxygen_bond_distance_aromatic_linkinvent_7_9_3/rearranged_h_0150.sdf

> <i_m_source_file_index>
38

> <r_mmod_Potential_Energy-OPLS-2005>
294.299713134766

> <r_mmod_Stretch_Energy-OPLS-2005>
142.829742431641

> <r_mmod_Bend_Energy-OPLS-2005>
197.183975219727

> <r_mmod_Torsional_Energy-OPLS-2005>
262.169097900391

> <r_mmod_Improper_Torsional_Energy-OPLS-2005>
9.37403297424316

> <r_mmod_Van_der_Waal_Energy-OPLS-2005>
139.660339355469

> <r_mmod_Electrostatic_Energy-OPLS-2005>
-343.243530273438

> <r_mmod_Solvation_Energy-OPLS-2005>
-225.120712280273

> <b_mmod_Minimization_Converged-OPLS-2005>
0

> <r_mmod_RMS_Derivative-OPLS-2005>
1.86178398132324

$$$$
38
                    3D
 Structure written by MMmdl.
147155  0  0  1  0            999 V2000
  -30.4935  -15.0307   20.4078 C   0  0  0  0  0  0
  -30.4495  -12.6408   19.5062 C   0  0  0  0  0  0
  -29.5296  -12.5433   18.2646 C   0  0  0  0  0  0
  -28.0646  -12.3127   18.6825 C   0  0  0  0  0  0
  -27.6289  -13.2508   19.8373 C   0  0  2  0  0  0
  -28.6708  -13.2995   20.9757 C   0  0  0  0  0  0
  -25.2459  -13.8214   20.5706 C   0  0  0  0  0  0
  -24.1783  -13.0437   20.9239 C   0  0  0  0  0  0
  -24.6401  -11.6924   20.8758 C   0  0  0  0  0  0
  -23.9083  -10.4293   21.0407 C   0  0  0  0  0  0
  -24.3628   -9.4207   21.9185 C   0  0  0  0  0  0
  -23.6299   -8.2245   22.0755 C   0  0  0  0  0  0
  -22.4281   -8.0282   21.3545 C   0  0  0  0  0  0
  -21.9920   -9.0258   20.4647 C   0  0  0  0  0  0
  -22.7253  -10.2136   20.3056 C   0  0  0  0  0  0
  -21.6855   -6.0736   22.5278 C   0  0  0  0  0  0
  -21.4015   -6.5639   23.8212 C   0  0  0  0  0  0
  -21.3661   -5.6791   24.9174 C   0  0  0  0  0  0
  -21.6044   -4.3054   24.7224 C   0  0  0  0  0  0
  -21.8818   -3.8146   23.4345 C   0  0  0  0  0  0
  -21.9194   -4.6963   22.3402 C   0  0  0  0  0  0
  -22.7802  -13.5209   21.1886 C   0  0  0  0  0  0
  -22.1661   -4.2149   21.0980 F   0  0  0  0  0  0
  -21.5630   -3.4537   25.7737 F   0  0  0  0  0  0
  -29.9387  -13.7427   20.3776 N   0  0  0  0  0  0
  -26.2884  -12.9448   20.3233 N   0  0  0  0  0  0
  -25.9334  -11.6578   20.5736 N   0  0  0  0  0  0
  -22.0446  -12.8201   22.0439 N   0  0  0  0  0  0
  -25.4106  -15.1944   20.4101 N   0  0  0  0  0  0
  -31.6990  -15.1085   20.1358 O   0  0  0  0  0  0
  -21.6643   -6.8880   21.4241 O   0  0  0  0  0  0
  -22.3490  -14.5513   20.6725 O   0  0  0  0  0  0
  -24.6497  -31.8387   23.1842 C   0  0  0  0  0  0
  -25.9241  -32.4667   23.8253 C   0  0  1  0  0  0
  -27.2156  -27.0736   20.1607 C   0  0  0  0  0  0
  -25.5962  -33.8476   24.2162 N   0  0  0  0  0  0
  -23.4570  -30.4572   21.5310 C   0  0  2  0  0  0
  -24.9082  -28.8758   20.1111 C   0  0  0  0  0  0
  -22.7603  -29.4521   22.4836 C   0  0  0  0  0  0
  -18.0313  -28.1403   22.8477 C   0  0  0  0  0  0
  -24.1493  -36.7243   23.2644 C   0  0  0  0  0  0
  -26.0185  -30.6922   21.3942 C   0  0  0  0  0  0
  -26.0890  -29.2978   20.7356 C   0  0  0  0  0  0
  -27.2432  -28.4150   20.7411 C   0  0  0  0  0  0
  -26.0105  -26.7782   19.4834 C   0  0  0  0  0  0
  -24.8859  -27.6312   19.4674 C   0  0  0  0  0  0
  -23.6877  -29.7851   20.1520 C   0  0  0  0  0  0
  -25.4128  -36.3016   24.0312 C   0  0  1  0  0  0
  -20.5931  -28.3737   23.1219 C   0  0  2  0  0  0
  -20.6797  -26.9433   22.5402 C   0  0  0  0  0  0
  -19.5768  -26.6383   21.5215 C   0  0  0  0  0  0
  -18.1951  -26.7940   22.1626 C   0  0  0  0  0  0
  -19.1572  -28.8888   23.2839 C   0  0  0  0  0  0
  -18.9485  -30.1481   23.8868 C   0  0  0  0  0  0
  -17.6480  -30.6596   24.0559 C   0  0  0  0  0  0
  -25.9083  -34.9392   23.5050 C   0  0  0  0  0  0
  -16.5371  -29.9087   23.6338 C   0  0  0  0  0  0
  -16.7296  -28.6506   23.0360 C   0  0  0  0  0  0
  -26.4537  -31.6557   25.0721 C   0  0  0  0  0  0
  -25.3699  -31.3767   26.1400 C   0  0  0  0  0  0
  -27.0412  -30.2942   24.6354 C   0  0  0  0  0  0
  -27.6052  -32.4336   25.7511 C   0  0  0  0  0  0
  -27.5574  -37.1781   24.8466 C   0  0  0  0  0  0
  -21.4287  -29.3051   22.3582 N   0  0  0  0  0  0
  -26.4288  -37.3733   23.9405 N   0  0  0  0  0  0
  -24.7286  -31.0186   22.0909 N   0  0  0  0  0  0
  -23.4215  -28.8072   23.3013 O   0  0  0  0  0  0
  -28.2361  -26.0302   20.2301 O   0  0  0  0  0  0
  -26.5676  -34.8899   22.4635 O   0  0  0  0  0  0
  -23.5599  -32.1291   23.7020 O   0  0  0  0  0  0
  -30.4622  -20.0032   20.1825 C   0  0  0  0  0  0
  -29.1554  -20.4751   20.3727 C   0  0  0  0  0  0
  -29.6784  -17.7355   20.4571 C   0  0  0  0  0  0
  -28.9326  -23.1853   20.2722 C   0  0  0  0  0  0
  -27.0761  -24.3635   21.6707 C   0  0  0  0  0  0
  -27.8578  -24.4892   20.3495 C   0  0  1  0  0  0
  -30.7295  -18.5641   20.2251 N   0  0  0  0  0  0
  -28.5429  -21.8042   20.3821 N   0  0  0  0  0  0
  -29.6458  -16.1804   20.5611 N   0  0  0  0  0  0
  -30.1256  -23.4491   20.1058 O   0  0  0  0  0  0
  -28.2477  -18.8976   20.6283 S   0  0  0  0  0  0
  -31.4780  -12.8202   19.1895 H   0  0  0  0  0  0
  -30.4680  -11.6957   20.0511 H   0  0  0  0  0  0
  -29.8635  -11.7390   17.6077 H   0  0  0  0  0  0
  -29.6027  -13.4638   17.6834 H   0  0  0  0  0  0
  -27.9744  -11.2736   19.0010 H   0  0  0  0  0  0
  -27.4008  -12.4275   17.8248 H   0  0  0  0  0  0
  -27.5837  -14.2474   19.3977 H   0  0  0  0  0  0
  -28.7775  -12.3250   21.4545 H   0  0  0  0  0  0
  -28.3542  -13.9921   21.7571 H   0  0  0  0  0  0
  -25.2770   -9.5683   22.4766 H   0  0  0  0  0  0
  -24.0005   -7.4637   22.7476 H   0  0  0  0  0  0
  -21.0850   -8.8779   19.8955 H   0  0  0  0  0  0
  -22.3708  -10.9677   19.6169 H   0  0  0  0  0  0
  -21.2006   -7.6147   23.9715 H   0  0  0  0  0  0
  -21.1485   -6.0522   25.9077 H   0  0  0  0  0  0
  -22.0596   -2.7608   23.2845 H   0  0  0  0  0  0
  -22.4062  -11.9869   22.4839 H   0  0  0  0  0  0
  -21.1059  -13.1224   22.2630 H   0  0  0  0  0  0
  -24.6310  -15.8361   20.5066 H   0  0  0  0  0  0
  -26.2297  -15.6301   20.0084 H   0  0  0  0  0  0
  -26.7309  -32.5253   23.0978 H   0  0  0  0  0  0
  -25.0066  -33.9579   25.0281 H   0  0  0  0  0  0
  -22.7629  -31.2852   21.3727 H   0  0  0  0  0  0
  -23.3760  -35.9570   23.3294 H   0  0  0  0  0  0
  -24.3573  -36.8890   22.2061 H   0  0  0  0  0  0
  -23.7245  -37.6433   23.6694 H   0  0  0  0  0  0
  -26.1833  -31.4433   20.6205 H   0  0  0  0  0  0
  -26.8852  -30.7429   22.0414 H   0  0  0  0  0  0
  -28.1388  -28.7328   21.2560 H   0  0  0  0  0  0
  -25.8970  -25.8360   18.9713 H   0  0  0  0  0  0
  -23.9889  -27.3053   18.9589 H   0  0  0  0  0  0
  -23.8295  -30.5588   19.3966 H   0  0  0  0  0  0
  -22.8011  -29.2310   19.8387 H   0  0  0  0  0  0
  -25.1320  -36.1837   25.0804 H   0  0  0  0  0  0
  -21.0023  -28.3334   24.1340 H   0  0  0  0  0  0
  -20.5693  -26.2352   23.3629 H   0  0  0  0  0  0
  -21.6661  -26.7432   22.1198 H   0  0  0  0  0  0
  -19.6929  -25.6286   21.1264 H   0  0  0  0  0  0
  -19.6704  -27.3176   20.6732 H   0  0  0  0  0  0
  -17.4219  -26.6683   21.4031 H   0  0  0  0  0  0
  -18.0349  -26.0091   22.9030 H   0  0  0  0  0  0
  -19.7959  -30.7307   24.2223 H   0  0  0  0  0  0
  -17.5032  -31.6273   24.5167 H   0  0  0  0  0  0
  -15.5370  -30.2979   23.7680 H   0  0  0  0  0  0
  -15.8697  -28.0814   22.7092 H   0  0  0  0  0  0
  -24.5888  -30.7108   25.7715 H   0  0  0  0  0  0
  -24.8879  -32.2955   26.4749 H   0  0  0  0  0  0
  -25.7961  -30.8986   27.0229 H   0  0  0  0  0  0
  -26.3048  -29.6650   24.1342 H   0  0  0  0  0  0
  -27.3976  -29.7263   25.4958 H   0  0  0  0  0  0
  -27.8977  -30.4158   23.9720 H   0  0  0  0  0  0
  -27.2637  -33.3663   26.2014 H   0  0  0  0  0  0
  -28.3904  -32.6855   25.0369 H   0  0  0  0  0  0
  -28.0678  -31.8513   26.5491 H   0  0  0  0  0  0
  -28.2586  -38.0081   24.7504 H   0  0  0  0  0  0
  -28.1075  -36.2608   24.6307 H   0  0  0  0  0  0
  -27.2288  -37.1442   25.8869 H   0  0  0  0  0  0
  -20.9513  -29.8753   21.6740 H   0  0  0  0  0  0
  -26.0150  -38.2801   24.1401 H   0  0  0  0  0  0
  -31.3136  -20.6424   19.9951 H   0  0  0  0  0  0
  -26.7620  -23.3386   21.8678 H   0  0  0  0  0  0
  -26.1724  -24.9716   21.6644 H   0  0  0  0  0  0
  -27.6876  -24.6882   22.5126 H   0  0  0  0  0  0
  -27.1754  -24.2653   19.5321 H   0  0  0  0  0  0
  -27.5415  -21.7502   20.5124 H   0  0  0  0  0  0
  -28.7115  -15.8637   20.7636 H   0  0  0  0  0  0
  1 25  1  0  0  0
  1 30  2  0  0  0
  1 79  1  0  0  0
  2  3  1  0  0  0
  2 25  1  0  0  0
  2 82  1  0  0  0
  2 83  1  0  0  0
  3  4  1  0  0  0
  3 84  1  0  0  0
  3 85  1  0  0  0
  4  5  1  0  0  0
  4 86  1  0  0  0
  4 87  1  0  0  0
  5  6  1  0  0  0
  5 26  1  0  0  0
  5 88  1  0  0  0
  6 25  1  0  0  0
  6 89  1  0  0  0
  6 90  1  0  0  0
  7  8  2  0  0  0
  7 26  1  0  0  0
  7 29  1  0  0  0
  8  9  1  0  0  0
  8 22  1  0  0  0
  9 10  1  0  0  0
  9 27  2  0  0  0
 10 11  2  0  0  0
 10 15  1  0  0  0
 11 12  1  0  0  0
 11 91  1  0  0  0
 12 13  2  0  0  0
 12 92  1  0  0  0
 13 14  1  0  0  0
 13 31  1  0  0  0
 14 15  2  0  0  0
 14 93  1  0  0  0
 15 94  1  0  0  0
 16 17  2  0  0  0
 16 21  1  0  0  0
 16 31  1  0  0  0
 17 18  1  0  0  0
 17 95  1  0  0  0
 18 19  2  0  0  0
 18 96  1  0  0  0
 19 20  1  0  0  0
 19 24  1  0  0  0
 20 21  2  0  0  0
 20 97  1  0  0  0
 21 23  1  0  0  0
 22 28  1  0  0  0
 22 32  2  0  0  0
 26 27  1  0  0  0
 28 98  1  0  0  0
 28 99  1  0  0  0
 29100  1  0  0  0
 29101  1  0  0  0
 33 34  1  0  0  0
 33 66  1  0  0  0
 33 70  2  0  0  0
 34 36  1  0  0  0
 34 59  1  0  0  0
 34102  1  0  0  0
 35 44  2  0  0  0
 35 45  1  0  0  0
 35 68  1  0  0  0
 36 56  1  0  0  0
 36103  1  0  0  0
 37 39  1  0  0  0
 37 47  1  0  0  0
 37 66  1  0  0  0
 37104  1  0  0  0
 38 43  2  0  0  0
 38 46  1  0  0  0
 38 47  1  0  0  0
 39 64  1  0  0  0
 39 67  2  0  0  0
 40 52  1  0  0  0
 40 53  2  0  0  0
 40 58  1  0  0  0
 41105  1  0  0  0
 41106  1  0  0  0
 41107  1  0  0  0
 41 48  1  0  0  0
 42 43  1  0  0  0
 42 66  1  0  0  0
 42108  1  0  0  0
 42109  1  0  0  0
 43 44  1  0  0  0
 44110  1  0  0  0
 45 46  2  0  0  0
 45111  1  0  0  0
 46112  1  0  0  0
 47113  1  0  0  0
 47114  1  0  0  0
 48 56  1  0  0  0
 48 65  1  0  0  0
 48115  1  0  0  0
 49 50  1  0  0  0
 49 53  1  0  0  0
 49 64  1  0  0  0
 49116  1  0  0  0
 50 51  1  0  0  0
 50117  1  0  0  0
 50118  1  0  0  0
 51 52  1  0  0  0
 51119  1  0  0  0
 51120  1  0  0  0
 52121  1  0  0  0
 52122  1  0  0  0
 53 54  1  0  0  0
 54 55  2  0  0  0
 54123  1  0  0  0
 55 57  1  0  0  0
 55124  1  0  0  0
 56 69  2  0  0  0
 57 58  2  0  0  0
 57125  1  0  0  0
 58126  1  0  0  0
 59 60  1  0  0  0
 59 61  1  0  0  0
 59 62  1  0  0  0
 60127  1  0  0  0
 60128  1  0  0  0
 60129  1  0  0  0
 61130  1  0  0  0
 61131  1  0  0  0
 61132  1  0  0  0
 62133  1  0  0  0
 62134  1  0  0  0
 62135  1  0  0  0
 63 65  1  0  0  0
 63136  1  0  0  0
 63137  1  0  0  0
 63138  1  0  0  0
 64139  1  0  0  0
 65140  1  0  0  0
 68 76  1  0  0  0
 71 72  2  0  0  0
 71 77  1  0  0  0
 71141  1  0  0  0
 72 78  1  0  0  0
 72 81  1  0  0  0
 73 77  2  0  0  0
 73 79  1  0  0  0
 73 81  1  0  0  0
 74 76  1  0  0  0
 74 78  1  0  0  0
 74 80  2  0  0  0
 75142  1  0  0  0
 75143  1  0  0  0
 75144  1  0  0  0
 75 76  1  0  0  0
 76145  1  0  0  0
 78146  1  0  0  0
 79147  1  0  0  0
M  ISO  4   1 100  68 101  76 101  79 100
M  END
> <chiral flag>
0

> <version>
0

> <s_m_source_file>
/data/baiqing/PycharmProjects/Reinvent-master-3.2/result/LINK_invent/BTK/process_docking_weight1_custom_product_contain_oxygen_bond_distance_aromatic_linkinvent_7_9_3/rearranged_h_0150.sdf

> <i_m_source_file_index>
39

> <r_mmod_Potential_Energy-OPLS-2005>
538.090270996094

> <r_mmod_Stretch_Energy-OPLS-2005>
294.519561767578

> <r_mmod_Bend_Energy-OPLS-2005>
303.102294921875

> <r_mmod_Torsional_Energy-OPLS-2005>
220.771697998047

> <r_mmod_Improper_Torsional_Energy-OPLS-2005>
4.18179941177368

> <r_mmod_Van_der_Waal_Energy-OPLS-2005>
109.026313781738

> <r_mmod_Electrostatic_Energy-OPLS-2005>
-386.11376953125

> <r_mmod_Solvation_Energy-OPLS-2005>
-264.02392578125

> <b_mmod_Minimization_Converged-OPLS-2005>
0

> <r_mmod_RMS_Derivative-OPLS-2005>
0.293512672185898

$$$$
39
                    3D
 Structure written by MMmdl.
163172  0  0  1  0            999 V2000
  -30.6411  -14.5862   20.4967 C   0  0  0  0  0  0
  -30.4313  -12.3563   19.4488 C   0  0  0  0  0  0
  -29.5060  -12.5034   18.2212 C   0  0  0  0  0  0
  -28.0263  -12.3551   18.6280 C   0  0  0  0  0  0
  -27.6566  -13.2145   19.8675 C   0  0  2  0  0  0
  -28.6987  -13.0465   20.9968 C   0  0  0  0  0  0
  -25.2577  -13.8169   20.5690 C   0  0  0  0  0  0
  -24.1838  -13.0441   20.9183 C   0  0  0  0  0  0
  -24.6398  -11.6910   20.8738 C   0  0  0  0  0  0
  -23.9065  -10.4297   21.0400 C   0  0  0  0  0  0
  -24.3619   -9.4214   21.9178 C   0  0  0  0  0  0
  -23.6295   -8.2248   22.0750 C   0  0  0  0  0  0
  -22.4280   -8.0278   21.3537 C   0  0  0  0  0  0
  -21.9910   -9.0251   20.4642 C   0  0  0  0  0  0
  -22.7233  -10.2134   20.3054 C   0  0  0  0  0  0
  -21.6860   -6.0731   22.5273 C   0  0  0  0  0  0
  -21.4015   -6.5636   23.8205 C   0  0  0  0  0  0
  -21.3660   -5.6791   24.9168 C   0  0  0  0  0  0
  -21.6043   -4.3052   24.7222 C   0  0  0  0  0  0
  -21.8823   -3.8139   23.4344 C   0  0  0  0  0  0
  -21.9199   -4.6955   22.3400 C   0  0  0  0  0  0
  -22.7859  -13.5230   21.1834 C   0  0  0  0  0  0
  -22.1671   -4.2138   21.0978 F   0  0  0  0  0  0
  -21.5629   -3.4541   25.7737 F   0  0  0  0  0  0
  -30.0203  -13.3699   20.4385 N   0  0  0  0  0  0
  -26.3007  -12.9348   20.3336 N   0  0  0  0  0  0
  -25.9329  -11.6507   20.5765 N   0  0  0  0  0  0
  -22.0504  -12.8231   22.0393 N   0  0  0  0  0  0
  -25.4312  -15.1889   20.4111 N   0  0  0  0  0  0
  -31.8019  -14.7347   20.1002 O   0  0  0  0  0  0
  -21.6643   -6.8873   21.4236 O   0  0  0  0  0  0
  -22.3539  -14.5533   20.6674 O   0  0  0  0  0  0
  -24.6215  -31.8617   23.2042 C   0  0  0  0  0  0
  -25.9079  -32.4790   23.8366 C   0  0  1  0  0  0
  -27.2330  -27.3637   20.1069 C   0  0  0  0  0  0
  -25.5909  -33.8589   24.2299 N   0  0  0  0  0  0
  -23.4127  -30.4830   21.5455 C   0  0  2  0  0  0
  -24.8588  -28.9367   20.1117 C   0  0  0  0  0  0
  -22.7449  -29.4624   22.4962 C   0  0  0  0  0  0
  -18.0282  -28.1368   22.8488 C   0  0  0  0  0  0
  -24.1483  -36.7301   23.2640 C   0  0  0  0  0  0
  -25.9464  -30.8062   21.3658 C   0  0  0  0  0  0
  -26.0209  -29.4346   20.7119 C   0  0  0  0  0  0
  -27.2079  -28.6565   20.7015 C   0  0  0  0  0  0
  -26.0482  -26.8945   19.4989 C   0  0  0  0  0  0
  -24.8708  -27.6706   19.5000 C   0  0  0  0  0  0
  -23.6242  -29.8123   20.1612 C   0  0  0  0  0  0
  -25.4105  -36.3092   24.0338 C   0  0  1  0  0  0
  -20.5877  -28.3667   23.1300 C   0  0  2  0  0  0
  -20.6767  -26.9396   22.5417 C   0  0  0  0  0  0
  -19.5750  -26.6376   21.5209 C   0  0  0  0  0  0
  -18.1927  -26.7916   22.1619 C   0  0  0  0  0  0
  -19.1532  -28.8836   23.2892 C   0  0  0  0  0  0
  -18.9457  -30.1439   23.8912 C   0  0  0  0  0  0
  -17.6458  -30.6578   24.0558 C   0  0  0  0  0  0
  -25.9039  -34.9458   23.5118 C   0  0  0  0  0  0
  -16.5350  -29.9078   23.6319 C   0  0  0  0  0  0
  -16.7270  -28.6488   23.0353 C   0  0  0  0  0  0
  -26.4484  -31.6594   25.0725 C   0  0  0  0  0  0
  -25.3738  -31.3726   26.1473 C   0  0  0  0  0  0
  -27.0325  -30.3027   24.6150 C   0  0  0  0  0  0
  -27.6050  -32.4331   25.7490 C   0  0  0  0  0  0
  -27.5578  -37.1804   24.8466 C   0  0  0  0  0  0
  -21.4170  -29.3028   22.3705 N   0  0  0  0  0  0
  -26.4290  -37.3780   23.9411 N   0  0  0  0  0  0
  -24.6788  -31.0667   22.0965 N   0  0  0  0  0  0
  -23.4192  -28.8177   23.3038 O   0  0  0  0  0  0
  -28.4016  -26.6090   20.1534 O   0  0  0  0  0  0
  -26.5608  -34.8920   22.4682 O   0  0  0  0  0  0
  -23.5393  -32.1398   23.7399 O   0  0  0  0  0  0
  -30.3523  -18.9095   19.4182 C   0  0  0  0  0  0
  -30.6804  -17.5153   19.4837 C   0  0  0  0  0  0
  -29.4365  -19.1363   20.4078 C   0  0  0  0  0  0
  -29.9391  -16.9752   20.5083 C   0  0  0  0  0  0
  -27.7456  -22.0357   22.0893 C   0  0  0  0  0  0
  -28.0896  -20.5382   21.9903 C   0  0  0  0  0  0
  -28.8918  -21.6480   19.9932 C   0  0  2  0  0  0
  -28.5885  -22.7995   21.0365 C   0  0  1  0  0  0
  -27.8937  -21.6166   18.8257 C   0  0  0  0  0  0
  -30.7129  -22.4325   22.2507 C   0  0  0  0  0  0
  -27.8086  -24.1232   20.6156 C   0  0  0  0  0  0
  -28.4746  -25.2175   19.7056 C   0  0  0  0  0  0
  -28.8271  -20.3752   20.7522 N   0  0  0  0  0  0
  -29.8634  -15.6432   20.8746 N   0  0  0  0  0  0
  -29.1634  -17.9644   21.0924 O   0  0  0  0  0  0
  -29.7983  -23.3194   21.6104 O   0  0  0  0  0  0
  -31.4748  -12.4663   19.1485 H   0  0  0  0  0  0
  -30.3494  -11.3556   19.8763 H   0  0  0  0  0  0
  -29.7621  -11.7606   17.4647 H   0  0  0  0  0  0
  -29.6628  -13.4783   17.7564 H   0  0  0  0  0  0
  -27.8479  -11.3016   18.8441 H   0  0  0  0  0  0
  -27.3778  -12.6056   17.7874 H   0  0  0  0  0  0
  -27.6834  -14.2541   19.5403 H   0  0  0  0  0  0
  -28.6946  -12.0216   21.3715 H   0  0  0  0  0  0
  -28.4536  -13.6756   21.8536 H   0  0  0  0  0  0
  -25.2768   -9.5692   22.4742 H   0  0  0  0  0  0
  -24.0004   -7.4646   22.7476 H   0  0  0  0  0  0
  -21.0836   -8.8762   19.8956 H   0  0  0  0  0  0
  -22.3683  -10.9665   19.6162 H   0  0  0  0  0  0
  -21.2004   -7.6143   23.9703 H   0  0  0  0  0  0
  -21.1480   -6.0523   25.9070 H   0  0  0  0  0  0
  -22.0602   -2.7600   23.2847 H   0  0  0  0  0  0
  -22.4142  -11.9912   22.4800 H   0  0  0  0  0  0
  -21.1114  -13.1239   22.2582 H   0  0  0  0  0  0
  -24.6671  -15.8462   20.5219 H   0  0  0  0  0  0
  -26.2840  -15.6268   20.0869 H   0  0  0  0  0  0
  -26.7146  -32.5472   23.1121 H   0  0  0  0  0  0
  -25.0062  -33.9732   25.0450 H   0  0  0  0  0  0
  -22.7049  -31.3022   21.4021 H   0  0  0  0  0  0
  -23.3746  -35.9634   23.3311 H   0  0  0  0  0  0
  -24.3578  -36.8912   22.2054 H   0  0  0  0  0  0
  -23.7237  -37.6508   23.6651 H   0  0  0  0  0  0
  -26.0689  -31.5703   20.5967 H   0  0  0  0  0  0
  -26.8304  -30.8583   21.9903 H   0  0  0  0  0  0
  -28.1048  -29.0374   21.1696 H   0  0  0  0  0  0
  -26.0129  -25.9240   19.0271 H   0  0  0  0  0  0
  -23.9767  -27.2830   19.0319 H   0  0  0  0  0  0
  -23.7372  -30.5855   19.4004 H   0  0  0  0  0  0
  -22.7463  -29.2356   19.8648 H   0  0  0  0  0  0
  -25.1281  -36.1951   25.0833 H   0  0  0  0  0  0
  -20.9968  -28.3232   24.1421 H   0  0  0  0  0  0
  -20.5650  -26.2280   23.3611 H   0  0  0  0  0  0
  -21.6636  -26.7418   22.1223 H   0  0  0  0  0  0
  -19.6912  -25.6288   21.1234 H   0  0  0  0  0  0
  -19.6688  -27.3190   20.6741 H   0  0  0  0  0  0
  -17.4197  -26.6675   21.4019 H   0  0  0  0  0  0
  -18.0324  -26.0048   22.9003 H   0  0  0  0  0  0
  -19.7933  -30.7245   24.2299 H   0  0  0  0  0  0
  -17.5011  -31.6259   24.5154 H   0  0  0  0  0  0
  -15.5350  -30.2984   23.7627 H   0  0  0  0  0  0
  -15.8670  -28.0804   22.7072 H   0  0  0  0  0  0
  -24.5899  -30.7084   25.7818 H   0  0  0  0  0  0
  -24.8945  -32.2890   26.4922 H   0  0  0  0  0  0
  -25.8082  -30.8895   27.0234 H   0  0  0  0  0  0
  -26.2888  -29.6783   24.1184 H   0  0  0  0  0  0
  -27.4057  -29.7274   25.4634 H   0  0  0  0  0  0
  -27.8737  -30.4340   23.9340 H   0  0  0  0  0  0
  -27.2659  -33.3621   26.2086 H   0  0  0  0  0  0
  -28.3845  -32.6914   25.0310 H   0  0  0  0  0  0
  -28.0735  -31.8451   26.5394 H   0  0  0  0  0  0
  -28.2601  -38.0095   24.7501 H   0  0  0  0  0  0
  -28.1068  -36.2627   24.6299 H   0  0  0  0  0  0
  -27.2300  -37.1465   25.8872 H   0  0  0  0  0  0
  -20.9347  -29.8757   21.6922 H   0  0  0  0  0  0
  -26.0180  -38.2861   24.1404 H   0  0  0  0  0  0
  -30.7438  -19.6446   18.7300 H   0  0  0  0  0  0
  -31.3635  -16.9832   18.8373 H   0  0  0  0  0  0
  -27.8702  -22.4291   23.0990 H   0  0  0  0  0  0
  -26.6869  -22.1417   21.8481 H   0  0  0  0  0  0
  -27.1889  -19.9220   21.9921 H   0  0  0  0  0  0
  -28.7093  -20.2218   22.8304 H   0  0  0  0  0  0
  -29.8911  -21.7842   19.5771 H   0  0  0  0  0  0
  -26.8671  -21.5058   19.1760 H   0  0  0  0  0  0
  -28.1052  -20.7897   18.1473 H   0  0  0  0  0  0
  -27.9478  -22.5329   18.2380 H   0  0  0  0  0  0
  -31.5650  -23.0058   22.6156 H   0  0  0  0  0  0
  -31.1047  -21.6765   21.5711 H   0  0  0  0  0  0
  -30.2708  -21.9377   23.1144 H   0  0  0  0  0  0
  -27.5441  -24.6300   21.5444 H   0  0  0  0  0  0
  -26.8467  -23.8556   20.1779 H   0  0  0  0  0  0
  -28.1108  -25.1320   18.6812 H   0  0  0  0  0  0
  -29.5384  -24.9929   19.6342 H   0  0  0  0  0  0
  -29.0146  -15.3805   21.3500 H   0  0  0  0  0  0
  1 25  1  0  0  0
  1 30  2  0  0  0
  1 84  1  0  0  0
  2  3  1  0  0  0
  2 25  1  0  0  0
  2 87  1  0  0  0
  2 88  1  0  0  0
  3  4  1  0  0  0
  3 89  1  0  0  0
  3 90  1  0  0  0
  4  5  1  0  0  0
  4 91  1  0  0  0
  4 92  1  0  0  0
  5  6  1  0  0  0
  5 26  1  0  0  0
  5 93  1  0  0  0
  6 25  1  0  0  0
  6 94  1  0  0  0
  6 95  1  0  0  0
  7  8  2  0  0  0
  7 26  1  0  0  0
  7 29  1  0  0  0
  8  9  1  0  0  0
  8 22  1  0  0  0
  9 10  1  0  0  0
  9 27  2  0  0  0
 10 11  2  0  0  0
 10 15  1  0  0  0
 11 12  1  0  0  0
 11 96  1  0  0  0
 12 13  2  0  0  0
 12 97  1  0  0  0
 13 14  1  0  0  0
 13 31  1  0  0  0
 14 15  2  0  0  0
 14 98  1  0  0  0
 15 99  1  0  0  0
 16 17  2  0  0  0
 16 21  1  0  0  0
 16 31  1  0  0  0
 17 18  1  0  0  0
 17100  1  0  0  0
 18 19  2  0  0  0
 18101  1  0  0  0
 19 20  1  0  0  0
 19 24  1  0  0  0
 20 21  2  0  0  0
 20102  1  0  0  0
 21 23  1  0  0  0
 22 28  1  0  0  0
 22 32  2  0  0  0
 26 27  1  0  0  0
 28103  1  0  0  0
 28104  1  0  0  0
 29105  1  0  0  0
 29106  1  0  0  0
 33 34  1  0  0  0
 33 66  1  0  0  0
 33 70  2  0  0  0
 34 36  1  0  0  0
 34 59  1  0  0  0
 34107  1  0  0  0
 35 44  2  0  0  0
 35 45  1  0  0  0
 35 68  1  0  0  0
 36 56  1  0  0  0
 36108  1  0  0  0
 37 39  1  0  0  0
 37 47  1  0  0  0
 37 66  1  0  0  0
 37109  1  0  0  0
 38 43  2  0  0  0
 38 46  1  0  0  0
 38 47  1  0  0  0
 39 64  1  0  0  0
 39 67  2  0  0  0
 40 52  1  0  0  0
 40 53  2  0  0  0
 40 58  1  0  0  0
 41110  1  0  0  0
 41111  1  0  0  0
 41112  1  0  0  0
 41 48  1  0  0  0
 42 43  1  0  0  0
 42 66  1  0  0  0
 42113  1  0  0  0
 42114  1  0  0  0
 43 44  1  0  0  0
 44115  1  0  0  0
 45 46  2  0  0  0
 45116  1  0  0  0
 46117  1  0  0  0
 47118  1  0  0  0
 47119  1  0  0  0
 48 56  1  0  0  0
 48 65  1  0  0  0
 48120  1  0  0  0
 49 50  1  0  0  0
 49 53  1  0  0  0
 49 64  1  0  0  0
 49121  1  0  0  0
 50 51  1  0  0  0
 50122  1  0  0  0
 50123  1  0  0  0
 51 52  1  0  0  0
 51124  1  0  0  0
 51125  1  0  0  0
 52126  1  0  0  0
 52127  1  0  0  0
 53 54  1  0  0  0
 54 55  2  0  0  0
 54128  1  0  0  0
 55 57  1  0  0  0
 55129  1  0  0  0
 56 69  2  0  0  0
 57 58  2  0  0  0
 57130  1  0  0  0
 58131  1  0  0  0
 59 60  1  0  0  0
 59 61  1  0  0  0
 59 62  1  0  0  0
 60132  1  0  0  0
 60133  1  0  0  0
 60134  1  0  0  0
 61135  1  0  0  0
 61136  1  0  0  0
 61137  1  0  0  0
 62138  1  0  0  0
 62139  1  0  0  0
 62140  1  0  0  0
 63 65  1  0  0  0
 63141  1  0  0  0
 63142  1  0  0  0
 63143  1  0  0  0
 64144  1  0  0  0
 65145  1  0  0  0
 68 82  1  0  0  0
 71 72  1  0  0  0
 71 73  2  0  0  0
 71146  1  0  0  0
 72 74  2  0  0  0
 72147  1  0  0  0
 73 83  1  0  0  0
 73 85  1  0  0  0
 74 84  1  0  0  0
 74 85  1  0  0  0
 75 76  1  0  0  0
 75 78  1  0  0  0
 75148  1  0  0  0
 75149  1  0  0  0
 76 83  1  0  0  0
 76150  1  0  0  0
 76151  1  0  0  0
 77 78  1  0  0  0
 77 79  1  0  0  0
 77 83  1  0  0  0
 77152  1  0  0  0
 78 81  1  0  0  0
 78 86  1  0  0  0
 79153  1  0  0  0
 79154  1  0  0  0
 79155  1  0  0  0
 80 86  1  0  0  0
 80156  1  0  0  0
 80157  1  0  0  0
 80158  1  0  0  0
 81 82  1  0  0  0
 81159  1  0  0  0
 81160  1  0  0  0
 82161  1  0  0  0
 82162  1  0  0  0
 84163  1  0  0  0
M  ISO  4   1 100  68 101  82 101  84 100
M  END
> <chiral flag>
0

> <version>
0

> <s_m_source_file>
/data/baiqing/PycharmProjects/Reinvent-master-3.2/result/LINK_invent/BTK/process_docking_weight1_custom_product_contain_oxygen_bond_distance_aromatic_linkinvent_7_9_3/rearranged_h_0150.sdf

> <i_m_source_file_index>
40

> <r_mmod_Potential_Energy-OPLS-2005>
75.8671951293945

> <r_mmod_Stretch_Energy-OPLS-2005>
60.6660423278809

> <r_mmod_Bend_Energy-OPLS-2005>
188.775360107422

> <r_mmod_Torsional_Energy-OPLS-2005>
308.181945800781

> <r_mmod_Improper_Torsional_Energy-OPLS-2005>
4.05197906494141

> <r_mmod_Van_der_Waal_Energy-OPLS-2005>
123.064018249512

> <r_mmod_Electrostatic_Energy-OPLS-2005>
-423.972259521484

> <r_mmod_Solvation_Energy-OPLS-2005>
-215.576293945312

> <b_mmod_Minimization_Converged-OPLS-2005>
0

> <r_mmod_RMS_Derivative-OPLS-2005>
0.952034652233124

$$$$
40
                    3D
 Structure written by MMmdl.
161170  0  0  1  0            999 V2000
  -30.5711  -14.8010   20.4685 C   0  0  0  0  0  0
  -30.4339  -12.4897   19.4839 C   0  0  0  0  0  0
  -29.5114  -12.5217   18.2452 C   0  0  0  0  0  0
  -28.0365  -12.3445   18.6520 C   0  0  0  0  0  0
  -27.6367  -13.2447   19.8501 C   0  0  2  0  0  0
  -28.6755  -13.1835   20.9895 C   0  0  0  0  0  0
  -25.2463  -13.8236   20.5752 C   0  0  0  0  0  0
  -24.1796  -13.0454   20.9253 C   0  0  0  0  0  0
  -24.6389  -11.6928   20.8771 C   0  0  0  0  0  0
  -23.9100  -10.4289   21.0405 C   0  0  0  0  0  0
  -24.3623   -9.4192   21.9194 C   0  0  0  0  0  0
  -23.6299   -8.2226   22.0734 C   0  0  0  0  0  0
  -22.4284   -8.0289   21.3517 C   0  0  0  0  0  0
  -21.9921   -9.0275   20.4629 C   0  0  0  0  0  0
  -22.7267  -10.2143   20.3055 C   0  0  0  0  0  0
  -21.6835   -6.0752   22.5281 C   0  0  0  0  0  0
  -21.4031   -6.5656   23.8221 C   0  0  0  0  0  0
  -21.3676   -5.6798   24.9178 C   0  0  0  0  0  0
  -21.6035   -4.3058   24.7213 C   0  0  0  0  0  0
  -21.8839   -3.8167   23.4337 C   0  0  0  0  0  0
  -21.9203   -4.6989   22.3399 C   0  0  0  0  0  0
  -22.7797  -13.5192   21.1900 C   0  0  0  0  0  0
  -22.1655   -4.2185   21.0963 F   0  0  0  0  0  0
  -21.5618   -3.4530   25.7717 F   0  0  0  0  0  0
  -29.9756  -13.5525   20.4163 N   0  0  0  0  0  0
  -26.2896  -12.9462   20.3266 N   0  0  0  0  0  0
  -25.9303  -11.6585   20.5717 N   0  0  0  0  0  0
  -22.0442  -12.8183   22.0444 N   0  0  0  0  0  0
  -25.4138  -15.1979   20.4246 N   0  0  0  0  0  0
  -31.7501  -14.9193   20.1254 O   0  0  0  0  0  0
  -21.6629   -6.8895   21.4232 O   0  0  0  0  0  0
  -22.3460  -14.5482   20.6732 O   0  0  0  0  0  0
  -24.6319  -31.8519   23.1975 C   0  0  0  0  0  0
  -25.9127  -32.4740   23.8330 C   0  0  1  0  0  0
  -27.2267  -27.2403   20.1583 C   0  0  0  0  0  0
  -25.5915  -33.8553   24.2239 N   0  0  0  0  0  0
  -23.4294  -30.4741   21.5401 C   0  0  2  0  0  0
  -24.8778  -28.9025   20.1279 C   0  0  0  0  0  0
  -22.7504  -29.4604   22.4924 C   0  0  0  0  0  0
  -18.0282  -28.1392   22.8460 C   0  0  0  0  0  0
  -24.1483  -36.7282   23.2636 C   0  0  0  0  0  0
  -25.9728  -30.7607   21.3778 C   0  0  0  0  0  0
  -26.0488  -29.3752   20.7349 C   0  0  0  0  0  0
  -27.2303  -28.5612   20.7294 C   0  0  0  0  0  0
  -26.0327  -26.8293   19.5354 C   0  0  0  0  0  0
  -24.8757  -27.6371   19.5177 C   0  0  0  0  0  0
  -23.6518  -29.7965   20.1621 C   0  0  0  0  0  0
  -25.4115  -36.3066   24.0318 C   0  0  1  0  0  0
  -20.5878  -28.3713   23.1260 C   0  0  2  0  0  0
  -20.6768  -26.9434   22.5404 C   0  0  0  0  0  0
  -19.5750  -26.6386   21.5203 C   0  0  0  0  0  0
  -18.1931  -26.7926   22.1611 C   0  0  0  0  0  0
  -19.1530  -28.8874   23.2842 C   0  0  0  0  0  0
  -18.9452  -30.1463   23.8885 C   0  0  0  0  0  0
  -17.6450  -30.6589   24.0563 C   0  0  0  0  0  0
  -25.9061  -34.9442   23.5089 C   0  0  0  0  0  0
  -16.5345  -29.9091   23.6320 C   0  0  0  0  0  0
  -16.7265  -28.6504   23.0344 C   0  0  0  0  0  0
  -26.4488  -31.6574   25.0722 C   0  0  0  0  0  0
  -25.3717  -31.3732   26.1454 C   0  0  0  0  0  0
  -27.0332  -30.2998   24.6199 C   0  0  0  0  0  0
  -27.6034  -32.4330   25.7492 C   0  0  0  0  0  0
  -27.5580  -37.1797   24.8468 C   0  0  0  0  0  0
  -21.4210  -29.3054   22.3664 N   0  0  0  0  0  0
  -26.4292  -37.3768   23.9406 N   0  0  0  0  0  0
  -24.6965  -31.0490   22.0939 N   0  0  0  0  0  0
  -23.4198  -28.8170   23.3046 O   0  0  0  0  0  0
  -28.3570  -26.4059   20.0105 O   0  0  0  0  0  0
  -26.5649  -34.8924   22.4668 O   0  0  0  0  0  0
  -23.5472  -32.1354   23.7265 O   0  0  0  0  0  0
  -28.0069  -18.9791   23.6373 C   0  0  0  0  0  0
  -28.8448  -19.8776   21.5875 C   0  0  0  0  0  0
  -28.1291  -20.0747   22.8466 C   0  0  0  0  0  0
  -29.2128  -18.4735   21.4764 C   0  0  0  0  0  0
  -28.3516  -22.9420   19.2135 C   0  0  0  0  0  0
  -28.3895  -21.3770   19.4552 C   0  0  0  0  0  0
  -29.2491  -22.5243   21.2667 C   0  0  0  0  0  0
  -28.2557  -23.6016   20.6068 C   0  0  2  0  0  0
  -26.8057  -23.4615   21.1267 C   0  0  0  0  0  0
  -29.9618  -17.4540   20.5142 C   0  0  0  0  0  0
  -28.6759  -25.1791   20.8205 C   0  0  0  0  0  0
  -29.0118  -21.1166   20.7644 N   0  0  0  0  0  0
  -27.5784  -21.2899   23.2727 N   0  0  0  0  0  0
  -29.7641  -15.9180   20.7097 N   0  0  0  0  0  0
  -28.7741  -17.6159   22.9467 S   0  0  0  0  0  0
  -31.4725  -12.6295   19.1779 H   0  0  0  0  0  0
  -30.3947  -11.5134   19.9676 H   0  0  0  0  0  0
  -29.7995  -11.7471   17.5364 H   0  0  0  0  0  0
  -29.6301  -13.4751   17.7276 H   0  0  0  0  0  0
  -27.8840  -11.2940   18.9075 H   0  0  0  0  0  0
  -27.3868  -12.5432   17.7985 H   0  0  0  0  0  0
  -27.6264  -14.2680   19.4657 H   0  0  0  0  0  0
  -28.7133  -12.1894   21.4301 H   0  0  0  0  0  0
  -28.3955  -13.8586   21.7998 H   0  0  0  0  0  0
  -25.2753   -9.5652   22.4784 H   0  0  0  0  0  0
  -24.0022   -7.4594   22.7433 H   0  0  0  0  0  0
  -21.0856   -8.8828   19.8900 H   0  0  0  0  0  0
  -22.3763  -10.9703   19.6180 H   0  0  0  0  0  0
  -21.2024   -7.6158   23.9743 H   0  0  0  0  0  0
  -21.1458   -6.0506   25.9082 H   0  0  0  0  0  0
  -22.0590   -2.7629   23.2814 H   0  0  0  0  0  0
  -22.4097  -11.9875   22.4877 H   0  0  0  0  0  0
  -21.1027  -13.1172   22.2588 H   0  0  0  0  0  0
  -24.6566  -15.8532   20.5915 H   0  0  0  0  0  0
  -26.2626  -15.6441   20.1007 H   0  0  0  0  0  0
  -26.7184  -32.5404   23.1076 H   0  0  0  0  0  0
  -25.0048  -33.9677   25.0375 H   0  0  0  0  0  0
  -22.7252  -31.2950   21.3872 H   0  0  0  0  0  0
  -23.3747  -35.9612   23.3302 H   0  0  0  0  0  0
  -24.3566  -36.8914   22.2048 H   0  0  0  0  0  0
  -23.7228  -37.6481   23.6669 H   0  0  0  0  0  0
  -26.1077  -31.5103   20.5960 H   0  0  0  0  0  0
  -26.8514  -30.8201   22.0077 H   0  0  0  0  0  0
  -28.1430  -28.9417   21.1677 H   0  0  0  0  0  0
  -26.0032  -25.8681   19.0410 H   0  0  0  0  0  0
  -23.9828  -27.2729   19.0283 H   0  0  0  0  0  0
  -23.7876  -30.5636   19.3996 H   0  0  0  0  0  0
  -22.7663  -29.2344   19.8567 H   0  0  0  0  0  0
  -25.1292  -36.1909   25.0806 H   0  0  0  0  0  0
  -20.9937  -28.3297   24.1398 H   0  0  0  0  0  0
  -20.5652  -26.2353   23.3616 H   0  0  0  0  0  0
  -21.6644  -26.7456   22.1217 H   0  0  0  0  0  0
  -19.6923  -25.6298   21.1244 H   0  0  0  0  0  0
  -19.6673  -27.3194   20.6731 H   0  0  0  0  0  0
  -17.4191  -26.6647   21.4020 H   0  0  0  0  0  0
  -18.0341  -26.0083   22.9028 H   0  0  0  0  0  0
  -19.7936  -30.7259   24.2276 H   0  0  0  0  0  0
  -17.5018  -31.6272   24.5164 H   0  0  0  0  0  0
  -15.5350  -30.2991   23.7659 H   0  0  0  0  0  0
  -15.8659  -28.0822   22.7073 H   0  0  0  0  0  0
  -24.5897  -30.7062   25.7811 H   0  0  0  0  0  0
  -24.8905  -32.2908   26.4861 H   0  0  0  0  0  0
  -25.8046  -30.8943   27.0254 H   0  0  0  0  0  0
  -26.2920  -29.6762   24.1191 H   0  0  0  0  0  0
  -27.3986  -29.7234   25.4707 H   0  0  0  0  0  0
  -27.8817  -30.4282   23.9470 H   0  0  0  0  0  0
  -27.2624  -33.3639   26.2058 H   0  0  0  0  0  0
  -28.3859  -32.6892   25.0325 H   0  0  0  0  0  0
  -28.0714  -31.8480   26.5430 H   0  0  0  0  0  0
  -28.2594  -38.0097   24.7515 H   0  0  0  0  0  0
  -28.1075  -36.2629   24.6291 H   0  0  0  0  0  0
  -27.2312  -37.1454   25.8876 H   0  0  0  0  0  0
  -20.9444  -29.8750   21.6811 H   0  0  0  0  0  0
  -26.0169  -38.2846   24.1400 H   0  0  0  0  0  0
  -27.5263  -18.8901   24.6037 H   0  0  0  0  0  0
  -27.5355  -23.2455   18.5531 H   0  0  0  0  0  0
  -29.2785  -23.2673   18.7334 H   0  0  0  0  0  0
  -28.9357  -20.8725   18.6559 H   0  0  0  0  0  0
  -27.3720  -20.9817   19.4456 H   0  0  0  0  0  0
  -29.3251  -22.6189   22.3477 H   0  0  0  0  0  0
  -30.2590  -22.7667   20.9298 H   0  0  0  0  0  0
  -26.4369  -22.4383   21.0736 H   0  0  0  0  0  0
  -26.1223  -24.0657   20.5318 H   0  0  0  0  0  0
  -26.7056  -23.7994   22.1610 H   0  0  0  0  0  0
  -29.6953  -17.6945   19.4855 H   0  0  0  0  0  0
  -31.0298  -17.6572   20.5829 H   0  0  0  0  0  0
  -29.7678  -25.1726   20.7890 H   0  0  0  0  0  0
  -28.4533  -25.4442   21.8552 H   0  0  0  0  0  0
  -26.7503  -21.2853   23.8576 H   0  0  0  0  0  0
  -27.5776  -22.0286   22.5795 H   0  0  0  0  0  0
  -28.8291  -15.6597   20.9848 H   0  0  0  0  0  0
  1 25  1  0  0  0
  1 30  2  0  0  0
  1 84  1  0  0  0
  2  3  1  0  0  0
  2 25  1  0  0  0
  2 86  1  0  0  0
  2 87  1  0  0  0
  3  4  1  0  0  0
  3 88  1  0  0  0
  3 89  1  0  0  0
  4  5  1  0  0  0
  4 90  1  0  0  0
  4 91  1  0  0  0
  5  6  1  0  0  0
  5 26  1  0  0  0
  5 92  1  0  0  0
  6 25  1  0  0  0
  6 93  1  0  0  0
  6 94  1  0  0  0
  7  8  2  0  0  0
  7 26  1  0  0  0
  7 29  1  0  0  0
  8  9  1  0  0  0
  8 22  1  0  0  0
  9 10  1  0  0  0
  9 27  2  0  0  0
 10 11  2  0  0  0
 10 15  1  0  0  0
 11 12  1  0  0  0
 11 95  1  0  0  0
 12 13  2  0  0  0
 12 96  1  0  0  0
 13 14  1  0  0  0
 13 31  1  0  0  0
 14 15  2  0  0  0
 14 97  1  0  0  0
 15 98  1  0  0  0
 16 17  2  0  0  0
 16 21  1  0  0  0
 16 31  1  0  0  0
 17 18  1  0  0  0
 17 99  1  0  0  0
 18 19  2  0  0  0
 18100  1  0  0  0
 19 20  1  0  0  0
 19 24  1  0  0  0
 20 21  2  0  0  0
 20101  1  0  0  0
 21 23  1  0  0  0
 22 28  1  0  0  0
 22 32  2  0  0  0
 26 27  1  0  0  0
 28102  1  0  0  0
 28103  1  0  0  0
 29104  1  0  0  0
 29105  1  0  0  0
 33 34  1  0  0  0
 33 66  1  0  0  0
 33 70  2  0  0  0
 34 36  1  0  0  0
 34 59  1  0  0  0
 34106  1  0  0  0
 35 44  2  0  0  0
 35 45  1  0  0  0
 35 68  1  0  0  0
 36 56  1  0  0  0
 36107  1  0  0  0
 37 39  1  0  0  0
 37 47  1  0  0  0
 37 66  1  0  0  0
 37108  1  0  0  0
 38 43  2  0  0  0
 38 46  1  0  0  0
 38 47  1  0  0  0
 39 64  1  0  0  0
 39 67  2  0  0  0
 40 52  1  0  0  0
 40 53  2  0  0  0
 40 58  1  0  0  0
 41109  1  0  0  0
 41110  1  0  0  0
 41111  1  0  0  0
 41 48  1  0  0  0
 42 43  1  0  0  0
 42 66  1  0  0  0
 42112  1  0  0  0
 42113  1  0  0  0
 43 44  1  0  0  0
 44114  1  0  0  0
 45 46  2  0  0  0
 45115  1  0  0  0
 46116  1  0  0  0
 47117  1  0  0  0
 47118  1  0  0  0
 48 56  1  0  0  0
 48 65  1  0  0  0
 48119  1  0  0  0
 49 50  1  0  0  0
 49 53  1  0  0  0
 49 64  1  0  0  0
 49120  1  0  0  0
 50 51  1  0  0  0
 50121  1  0  0  0
 50122  1  0  0  0
 51 52  1  0  0  0
 51123  1  0  0  0
 51124  1  0  0  0
 52125  1  0  0  0
 52126  1  0  0  0
 53 54  1  0  0  0
 54 55  2  0  0  0
 54127  1  0  0  0
 55 57  1  0  0  0
 55128  1  0  0  0
 56 69  2  0  0  0
 57 58  2  0  0  0
 57129  1  0  0  0
 58130  1  0  0  0
 59 60  1  0  0  0
 59 61  1  0  0  0
 59 62  1  0  0  0
 60131  1  0  0  0
 60132  1  0  0  0
 60133  1  0  0  0
 61134  1  0  0  0
 61135  1  0  0  0
 61136  1  0  0  0
 62137  1  0  0  0
 62138  1  0  0  0
 62139  1  0  0  0
 63 65  1  0  0  0
 63140  1  0  0  0
 63141  1  0  0  0
 63142  1  0  0  0
 64143  1  0  0  0
 65144  1  0  0  0
 68 81  1  0  0  0
 71 73  2  0  0  0
 71 85  1  0  0  0
 71145  1  0  0  0
 72 73  1  0  0  0
 72 74  2  0  0  0
 72 82  1  0  0  0
 73 83  1  0  0  0
 74 80  1  0  0  0
 74 85  1  0  0  0
 75 76  1  0  0  0
 75 78  1  0  0  0
 75146  1  0  0  0
 75147  1  0  0  0
 76 82  1  0  0  0
 76148  1  0  0  0
 76149  1  0  0  0
 77 78  1  0  0  0
 77 82  1  0  0  0
 77150  1  0  0  0
 77151  1  0  0  0
 78 79  1  0  0  0
 78 81  1  0  0  0
 79152  1  0  0  0
 79153  1  0  0  0
 79154  1  0  0  0
 80 84  1  0  0  0
 80155  1  0  0  0
 80156  1  0  0  0
 81157  1  0  0  0
 81158  1  0  0  0
 83159  1  0  0  0
 83160  1  0  0  0
 84161  1  0  0  0
M  ISO  4   1 100  68 101  81 101  84 100
M  END
> <chiral flag>
0

> <version>
0

> <s_m_source_file>
/data/baiqing/PycharmProjects/Reinvent-master-3.2/result/LINK_invent/BTK/process_docking_weight1_custom_product_contain_oxygen_bond_distance_aromatic_linkinvent_7_9_3/rearranged_h_0150.sdf

> <i_m_source_file_index>
41

> <r_mmod_Potential_Energy-OPLS-2005>
324.351165771484

> <r_mmod_Stretch_Energy-OPLS-2005>
165.413848876953

> <r_mmod_Bend_Energy-OPLS-2005>
300.530853271484

> <r_mmod_Torsional_Energy-OPLS-2005>
319.651489257812

> <r_mmod_Improper_Torsional_Energy-OPLS-2005>
11.0217695236206

> <r_mmod_Van_der_Waal_Energy-OPLS-2005>
121.966194152832

> <r_mmod_Electrostatic_Energy-OPLS-2005>
-460.833648681641

> <r_mmod_Solvation_Energy-OPLS-2005>
-229.564346313477

> <b_mmod_Minimization_Converged-OPLS-2005>
0

> <r_mmod_RMS_Derivative-OPLS-2005>
4.93518209457397

$$$$
41
                    3D
 Structure written by MMmdl.
153161  0  0  1  0            999 V2000
  -30.5988  -14.7109   20.4754 C   0  0  0  0  0  0
  -30.4399  -12.4343   19.4682 C   0  0  0  0  0  0
  -29.5137  -12.5214   18.2337 C   0  0  0  0  0  0
  -28.0363  -12.3487   18.6405 C   0  0  0  0  0  0
  -27.6498  -13.2241   19.8616 C   0  0  2  0  0  0
  -28.6940  -13.1099   20.9948 C   0  0  0  0  0  0
  -25.2541  -13.8177   20.5693 C   0  0  0  0  0  0
  -24.1822  -13.0433   20.9201 C   0  0  0  0  0  0
  -24.6393  -11.6908   20.8735 C   0  0  0  0  0  0
  -23.9060  -10.4293   21.0404 C   0  0  0  0  0  0
  -24.3619   -9.4211   21.9182 C   0  0  0  0  0  0
  -23.6301   -8.2242   22.0753 C   0  0  0  0  0  0
  -22.4283   -8.0279   21.3542 C   0  0  0  0  0  0
  -21.9916   -9.0247   20.4637 C   0  0  0  0  0  0
  -22.7238  -10.2129   20.3047 C   0  0  0  0  0  0
  -21.6854   -6.0735   22.5282 C   0  0  0  0  0  0
  -21.4010   -6.5643   23.8212 C   0  0  0  0  0  0
  -21.3660   -5.6797   24.9173 C   0  0  0  0  0  0
  -21.6053   -4.3061   24.7223 C   0  0  0  0  0  0
  -21.8821   -3.8151   23.4343 C   0  0  0  0  0  0
  -21.9188   -4.6965   22.3402 C   0  0  0  0  0  0
  -22.7844  -13.5221   21.1870 C   0  0  0  0  0  0
  -22.1665   -4.2153   21.0982 F   0  0  0  0  0  0
  -21.5625   -3.4545   25.7736 F   0  0  0  0  0  0
  -30.0037  -13.4704   20.4307 N   0  0  0  0  0  0
  -26.2969  -12.9370   20.3310 N   0  0  0  0  0  0
  -25.9322  -11.6514   20.5751 N   0  0  0  0  0  0
  -22.0480  -12.8197   22.0404 N   0  0  0  0  0  0
  -25.4232  -15.1905   20.4104 N   0  0  0  0  0  0
  -31.7649  -14.8501   20.0898 O   0  0  0  0  0  0
  -21.6645   -6.8878   21.4245 O   0  0  0  0  0  0
  -22.3525  -14.5527   20.6725 O   0  0  0  0  0  0
  -24.6310  -31.8576   23.1992 C   0  0  0  0  0  0
  -25.9146  -32.4761   23.8338 C   0  0  1  0  0  0
  -27.2212  -27.2794   20.1090 C   0  0  0  0  0  0
  -25.5968  -33.8564   24.2264 N   0  0  0  0  0  0
  -23.4245  -30.4809   21.5435 C   0  0  2  0  0  0
  -24.8679  -28.9291   20.1083 C   0  0  0  0  0  0
  -22.7494  -29.4621   22.4925 C   0  0  0  0  0  0
  -18.0294  -28.1378   22.8474 C   0  0  0  0  0  0
  -24.1490  -36.7270   23.2633 C   0  0  0  0  0  0
  -25.9695  -30.7725   21.3772 C   0  0  0  0  0  0
  -26.0389  -29.3983   20.7150 C   0  0  0  0  0  0
  -27.2138  -28.5844   20.7060 C   0  0  0  0  0  0
  -26.0173  -26.8649   19.4940 C   0  0  0  0  0  0
  -24.8614  -27.6690   19.4919 C   0  0  0  0  0  0
  -23.6380  -29.8144   20.1590 C   0  0  0  0  0  0
  -25.4122  -36.3076   24.0321 C   0  0  1  0  0  0
  -20.5896  -28.3692   23.1267 C   0  0  2  0  0  0
  -20.6783  -26.9419   22.5384 C   0  0  0  0  0  0
  -19.5758  -26.6389   21.5185 C   0  0  0  0  0  0
  -18.1942  -26.7924   22.1607 C   0  0  0  0  0  0
  -19.1548  -28.8850   23.2862 C   0  0  0  0  0  0
  -18.9471  -30.1449   23.8886 C   0  0  0  0  0  0
  -17.6476  -30.6582   24.0561 C   0  0  0  0  0  0
  -25.9068  -34.9441   23.5086 C   0  0  0  0  0  0
  -16.5363  -29.9075   23.6343 C   0  0  0  0  0  0
  -16.7285  -28.6497   23.0354 C   0  0  0  0  0  0
  -26.4501  -31.6594   25.0740 C   0  0  0  0  0  0
  -25.3701  -31.3764   26.1455 C   0  0  0  0  0  0
  -27.0345  -30.3010   24.6230 C   0  0  0  0  0  0
  -27.6065  -32.4320   25.7512 C   0  0  0  0  0  0
  -27.5576  -37.1797   24.8473 C   0  0  0  0  0  0
  -21.4201  -29.3051   22.3673 N   0  0  0  0  0  0
  -26.4297  -37.3774   23.9410 N   0  0  0  0  0  0
  -24.6939  -31.0549   22.0958 N   0  0  0  0  0  0
  -23.4210  -28.8159   23.3010 O   0  0  0  0  0  0
  -28.3474  -26.4315   20.1820 O   0  0  0  0  0  0
  -26.5620  -34.8910   22.4644 O   0  0  0  0  0  0
  -23.5471  -32.1389   23.7313 O   0  0  0  0  0  0
  -30.4252  -19.2500   19.5701 C   0  0  0  0  0  0
  -29.4978  -19.8113   20.4395 C   0  0  0  0  0  0
  -29.8640  -17.2326   20.5960 C   0  0  0  0  0  0
  -28.6521  -23.7892   20.3980 C   0  0  0  0  0  0
  -30.5576  -22.5680   19.2207 C   0  0  0  0  0  0
  -28.1757  -22.0789   18.5670 C   0  0  0  0  0  0
  -28.4258  -25.0978   19.5024 C   0  0  0  0  0  0
  -29.1168  -22.3807   19.7498 C   0  0  0  0  0  0
  -30.6241  -17.8392   19.6685 N   0  0  0  0  0  0
  -29.0695  -21.1840   20.6815 N   0  0  0  0  0  0
  -29.8032  -15.7773   20.8451 N   0  0  0  0  0  0
  -28.4558  -23.8446   21.6164 O   0  0  0  0  0  0
  -28.8342  -18.4656   21.4096 S   0  0  0  0  0  0
  -31.4805  -12.5639   19.1658 H   0  0  0  0  0  0
  -30.3846  -11.4456   19.9262 H   0  0  0  0  0  0
  -29.7919  -11.7636   17.4999 H   0  0  0  0  0  0
  -29.6468  -13.4853   17.7399 H   0  0  0  0  0  0
  -27.8769  -11.2957   18.8769 H   0  0  0  0  0  0
  -27.3847  -12.5718   17.7948 H   0  0  0  0  0  0
  -27.6575  -14.2564   19.5101 H   0  0  0  0  0  0
  -28.7204  -12.0934   21.3911 H   0  0  0  0  0  0
  -28.4282  -13.7511   21.8360 H   0  0  0  0  0  0
  -25.2761   -9.5699   22.4755 H   0  0  0  0  0  0
  -24.0019   -7.4633   22.7474 H   0  0  0  0  0  0
  -21.0845   -8.8758   19.8940 H   0  0  0  0  0  0
  -22.3696  -10.9664   19.6161 H   0  0  0  0  0  0
  -21.2006   -7.6151   23.9718 H   0  0  0  0  0  0
  -21.1484   -6.0525   25.9079 H   0  0  0  0  0  0
  -22.0597   -2.7612   23.2844 H   0  0  0  0  0  0
  -22.4103  -11.9861   22.4803 H   0  0  0  0  0  0
  -21.1086  -13.1209   22.2589 H   0  0  0  0  0  0
  -24.6525  -15.8406   20.5149 H   0  0  0  0  0  0
  -26.2574  -15.6251   20.0378 H   0  0  0  0  0  0
  -26.7222  -32.5404   23.1084 H   0  0  0  0  0  0
  -25.0207  -33.9711   25.0474 H   0  0  0  0  0  0
  -22.7201  -31.3024   21.3989 H   0  0  0  0  0  0
  -23.3766  -35.9589   23.3316 H   0  0  0  0  0  0
  -24.3585  -36.8870   22.2044 H   0  0  0  0  0  0
  -23.7210  -37.6460   23.6641 H   0  0  0  0  0  0
  -26.1120  -31.5362   20.6118 H   0  0  0  0  0  0
  -26.8458  -30.8145   22.0129 H   0  0  0  0  0  0
  -28.1109  -28.9410   21.1918 H   0  0  0  0  0  0
  -25.9105  -25.8953   19.0363 H   0  0  0  0  0  0
  -23.9600  -27.2970   19.0240 H   0  0  0  0  0  0
  -23.7539  -30.5897   19.4016 H   0  0  0  0  0  0
  -22.7563  -29.2442   19.8604 H   0  0  0  0  0  0
  -25.1294  -36.1929   25.0810 H   0  0  0  0  0  0
  -20.9976  -28.3252   24.1391 H   0  0  0  0  0  0
  -20.5672  -26.2299   23.3575 H   0  0  0  0  0  0
  -21.6653  -26.7439   22.1177 H   0  0  0  0  0  0
  -19.6926  -25.6297   21.1215 H   0  0  0  0  0  0
  -19.6697  -27.3195   20.6713 H   0  0  0  0  0  0
  -17.4203  -26.6667   21.4020 H   0  0  0  0  0  0
  -18.0362  -26.0053   22.8993 H   0  0  0  0  0  0
  -19.7953  -30.7263   24.2243 H   0  0  0  0  0  0
  -17.5039  -31.6261   24.5166 H   0  0  0  0  0  0
  -15.5368  -30.2979   23.7676 H   0  0  0  0  0  0
  -15.8679  -28.0816   22.7082 H   0  0  0  0  0  0
  -24.5916  -30.7061   25.7798 H   0  0  0  0  0  0
  -24.8844  -32.2932   26.4803 H   0  0  0  0  0  0
  -25.8008  -30.9018   27.0282 H   0  0  0  0  0  0
  -26.2950  -29.6792   24.1177 H   0  0  0  0  0  0
  -27.3940  -29.7249   25.4765 H   0  0  0  0  0  0
  -27.8858  -30.4294   23.9543 H   0  0  0  0  0  0
  -27.2705  -33.3650   26.2053 H   0  0  0  0  0  0
  -28.3903  -32.6828   25.0350 H   0  0  0  0  0  0
  -28.0695  -31.8453   26.5461 H   0  0  0  0  0  0
  -28.2605  -38.0085   24.7527 H   0  0  0  0  0  0
  -28.1062  -36.2618   24.6302 H   0  0  0  0  0  0
  -27.2299  -37.1447   25.8877 H   0  0  0  0  0  0
  -20.9382  -29.8806   21.6904 H   0  0  0  0  0  0
  -26.0185  -38.2852   24.1409 H   0  0  0  0  0  0
  -31.0303  -19.7718   18.8449 H   0  0  0  0  0  0
  -30.7911  -21.8766   18.4122 H   0  0  0  0  0  0
  -31.2993  -22.4271   20.0070 H   0  0  0  0  0  0
  -30.7284  -23.5607   18.8045 H   0  0  0  0  0  0
  -28.4168  -21.1268   18.0939 H   0  0  0  0  0  0
  -28.2385  -22.8384   17.7866 H   0  0  0  0  0  0
  -27.1338  -22.0243   18.8872 H   0  0  0  0  0  0
  -29.2714  -25.1677   18.8208 H   0  0  0  0  0  0
  -27.5827  -24.9057   18.8474 H   0  0  0  0  0  0
  -28.4286  -21.3378   21.4570 H   0  0  0  0  0  0
  -28.9503  -15.4864   21.2945 H   0  0  0  0  0  0
  1 25  1  0  0  0
  1 30  2  0  0  0
  1 81  1  0  0  0
  2  3  1  0  0  0
  2 25  1  0  0  0
  2 84  1  0  0  0
  2 85  1  0  0  0
  3  4  1  0  0  0
  3 86  1  0  0  0
  3 87  1  0  0  0
  4  5  1  0  0  0
  4 88  1  0  0  0
  4 89  1  0  0  0
  5  6  1  0  0  0
  5 26  1  0  0  0
  5 90  1  0  0  0
  6 25  1  0  0  0
  6 91  1  0  0  0
  6 92  1  0  0  0
  7  8  2  0  0  0
  7 26  1  0  0  0
  7 29  1  0  0  0
  8  9  1  0  0  0
  8 22  1  0  0  0
  9 10  1  0  0  0
  9 27  2  0  0  0
 10 11  2  0  0  0
 10 15  1  0  0  0
 11 12  1  0  0  0
 11 93  1  0  0  0
 12 13  2  0  0  0
 12 94  1  0  0  0
 13 14  1  0  0  0
 13 31  1  0  0  0
 14 15  2  0  0  0
 14 95  1  0  0  0
 15 96  1  0  0  0
 16 17  2  0  0  0
 16 21  1  0  0  0
 16 31  1  0  0  0
 17 18  1  0  0  0
 17 97  1  0  0  0
 18 19  2  0  0  0
 18 98  1  0  0  0
 19 20  1  0  0  0
 19 24  1  0  0  0
 20 21  2  0  0  0
 20 99  1  0  0  0
 21 23  1  0  0  0
 22 28  1  0  0  0
 22 32  2  0  0  0
 26 27  1  0  0  0
 28100  1  0  0  0
 28101  1  0  0  0
 29102  1  0  0  0
 29103  1  0  0  0
 33 34  1  0  0  0
 33 66  1  0  0  0
 33 70  2  0  0  0
 34 36  1  0  0  0
 34 59  1  0  0  0
 34104  1  0  0  0
 35 44  2  0  0  0
 35 45  1  0  0  0
 35 68  1  0  0  0
 36 56  1  0  0  0
 36105  1  0  0  0
 37 39  1  0  0  0
 37 47  1  0  0  0
 37 66  1  0  0  0
 37106  1  0  0  0
 38 43  2  0  0  0
 38 46  1  0  0  0
 38 47  1  0  0  0
 39 64  1  0  0  0
 39 67  2  0  0  0
 40 52  1  0  0  0
 40 53  2  0  0  0
 40 58  1  0  0  0
 41107  1  0  0  0
 41108  1  0  0  0
 41109  1  0  0  0
 41 48  1  0  0  0
 42 43  1  0  0  0
 42 66  1  0  0  0
 42110  1  0  0  0
 42111  1  0  0  0
 43 44  1  0  0  0
 44112  1  0  0  0
 45 46  2  0  0  0
 45113  1  0  0  0
 46114  1  0  0  0
 47115  1  0  0  0
 47116  1  0  0  0
 48 56  1  0  0  0
 48 65  1  0  0  0
 48117  1  0  0  0
 49 50  1  0  0  0
 49 53  1  0  0  0
 49 64  1  0  0  0
 49118  1  0  0  0
 50 51  1  0  0  0
 50119  1  0  0  0
 50120  1  0  0  0
 51 52  1  0  0  0
 51121  1  0  0  0
 51122  1  0  0  0
 52123  1  0  0  0
 52124  1  0  0  0
 53 54  1  0  0  0
 54 55  2  0  0  0
 54125  1  0  0  0
 55 57  1  0  0  0
 55126  1  0  0  0
 56 69  2  0  0  0
 57 58  2  0  0  0
 57127  1  0  0  0
 58128  1  0  0  0
 59 60  1  0  0  0
 59 61  1  0  0  0
 59 62  1  0  0  0
 60129  1  0  0  0
 60130  1  0  0  0
 60131  1  0  0  0
 61132  1  0  0  0
 61133  1  0  0  0
 61134  1  0  0  0
 62135  1  0  0  0
 62136  1  0  0  0
 62137  1  0  0  0
 63 65  1  0  0  0
 63138  1  0  0  0
 63139  1  0  0  0
 63140  1  0  0  0
 64141  1  0  0  0
 65142  1  0  0  0
 68 77  1  0  0  0
 71 72  2  0  0  0
 71 79  1  0  0  0
 71143  1  0  0  0
 72 80  1  0  0  0
 72 83  1  0  0  0
 73 79  2  0  0  0
 73 81  1  0  0  0
 73 83  1  0  0  0
 74 77  1  0  0  0
 74 78  1  0  0  0
 74 82  2  0  0  0
 75144  1  0  0  0
 75145  1  0  0  0
 75146  1  0  0  0
 75 78  1  0  0  0
 76 78  1  0  0  0
 76147  1  0  0  0
 76148  1  0  0  0
 76149  1  0  0  0
 77150  1  0  0  0
 77151  1  0  0  0
 78 80  1  0  0  0
 80152  1  0  0  0
 81153  1  0  0  0
M  ISO  4   1 100  68 101  77 101  81 100
M  END
> <chiral flag>
0

> <version>
0

> <s_m_source_file>
/data/baiqing/PycharmProjects/Reinvent-master-3.2/result/LINK_invent/BTK/process_docking_weight1_custom_product_contain_oxygen_bond_distance_aromatic_linkinvent_7_9_3/rearranged_h_0150.sdf

> <i_m_source_file_index>
42

> <r_mmod_Potential_Energy-OPLS-2005>
151.8212890625

> <r_mmod_Stretch_Energy-OPLS-2005>
109.117050170898

> <r_mmod_Bend_Energy-OPLS-2005>
175.00764465332

> <r_mmod_Torsional_Energy-OPLS-2005>
213.568344116211

> <r_mmod_Improper_Torsional_Energy-OPLS-2005>
4.41867017745972

> <r_mmod_Van_der_Waal_Energy-OPLS-2005>
122.345405578613

> <r_mmod_Electrostatic_Energy-OPLS-2005>
-287.828002929688

> <r_mmod_Solvation_Energy-OPLS-2005>
-253.925491333008

> <b_mmod_Minimization_Converged-OPLS-2005>
0

> <r_mmod_RMS_Derivative-OPLS-2005>
1.78671514987946

$$$$
42
                    3D
 Structure written by MMmdl.
159168  0  0  1  0            999 V2000
  -30.5407  -14.7780   20.4957 C   0  0  0  0  0  0
  -30.4611  -12.4802   19.4681 C   0  0  0  0  0  0
  -29.5198  -12.5244   18.2392 C   0  0  0  0  0  0
  -28.0461  -12.3347   18.6531 C   0  0  0  0  0  0
  -27.6536  -13.2183   19.8648 C   0  0  2  0  0  0
  -28.7018  -13.0990   20.9947 C   0  0  0  0  0  0
  -25.2561  -13.8144   20.5666 C   0  0  0  0  0  0
  -24.1835  -13.0419   20.9204 C   0  0  0  0  0  0
  -24.6410  -11.6896   20.8762 C   0  0  0  0  0  0
  -23.9072  -10.4285   21.0415 C   0  0  0  0  0  0
  -24.3616   -9.4194   21.9189 C   0  0  0  0  0  0
  -23.6285   -8.2234   22.0758 C   0  0  0  0  0  0
  -22.4272   -8.0279   21.3545 C   0  0  0  0  0  0
  -21.9911   -9.0259   20.4654 C   0  0  0  0  0  0
  -22.7245  -10.2135   20.3065 C   0  0  0  0  0  0
  -21.6846   -6.0732   22.5280 C   0  0  0  0  0  0
  -21.4012   -6.5641   23.8212 C   0  0  0  0  0  0
  -21.3656   -5.6796   24.9175 C   0  0  0  0  0  0
  -21.6043   -4.3059   24.7232 C   0  0  0  0  0  0
  -21.8816   -3.8145   23.4355 C   0  0  0  0  0  0
  -21.9189   -4.6959   22.3407 C   0  0  0  0  0  0
  -22.7859  -13.5225   21.1862 C   0  0  0  0  0  0
  -22.1658   -4.2140   21.0987 F   0  0  0  0  0  0
  -21.5627   -3.4548   25.7744 F   0  0  0  0  0  0
  -30.0041  -13.5050   20.4349 N   0  0  0  0  0  0
  -26.3000  -12.9333   20.3336 N   0  0  0  0  0  0
  -25.9344  -11.6492   20.5793 N   0  0  0  0  0  0
  -22.0496  -12.8223   22.0418 N   0  0  0  0  0  0
  -25.4250  -15.1850   20.3981 N   0  0  0  0  0  0
  -31.6883  -14.9940   20.0898 O   0  0  0  0  0  0
  -21.6635   -6.8876   21.4241 O   0  0  0  0  0  0
  -22.3548  -14.5530   20.6704 O   0  0  0  0  0  0
  -24.6331  -31.8528   23.1964 C   0  0  0  0  0  0
  -25.9142  -32.4747   23.8320 C   0  0  1  0  0  0
  -27.2305  -27.2450   20.1392 C   0  0  0  0  0  0
  -25.5925  -33.8550   24.2240 N   0  0  0  0  0  0
  -23.4333  -30.4727   21.5401 C   0  0  2  0  0  0
  -24.8837  -28.9138   20.1145 C   0  0  0  0  0  0
  -22.7530  -29.4582   22.4913 C   0  0  0  0  0  0
  -18.0294  -28.1396   22.8483 C   0  0  0  0  0  0
  -24.1490  -36.7282   23.2636 C   0  0  0  0  0  0
  -25.9799  -30.7613   21.3791 C   0  0  0  0  0  0
  -26.0558  -29.3809   20.7235 C   0  0  0  0  0  0
  -27.2329  -28.5609   20.7207 C   0  0  0  0  0  0
  -26.0364  -26.8518   19.4960 C   0  0  0  0  0  0
  -24.8798  -27.6576   19.4886 C   0  0  0  0  0  0
  -23.6548  -29.8029   20.1583 C   0  0  0  0  0  0
  -25.4118  -36.3063   24.0319 C   0  0  1  0  0  0
  -20.5902  -28.3704   23.1273 C   0  0  2  0  0  0
  -20.6783  -26.9418   22.5416 C   0  0  0  0  0  0
  -19.5756  -26.6387   21.5222 C   0  0  0  0  0  0
  -18.1935  -26.7934   22.1633 C   0  0  0  0  0  0
  -19.1549  -28.8869   23.2869 C   0  0  0  0  0  0
  -18.9467  -30.1472   23.8885 C   0  0  0  0  0  0
  -17.6464  -30.6595   24.0564 C   0  0  0  0  0  0
  -25.9057  -34.9434   23.5084 C   0  0  0  0  0  0
  -16.5356  -29.9092   23.6336 C   0  0  0  0  0  0
  -16.7278  -28.6515   23.0348 C   0  0  0  0  0  0
  -26.4494  -31.6586   25.0723 C   0  0  0  0  0  0
  -25.3706  -31.3764   26.1441 C   0  0  0  0  0  0
  -27.0336  -30.2992   24.6241 C   0  0  0  0  0  0
  -27.6043  -32.4328   25.7499 C   0  0  0  0  0  0
  -27.5577  -37.1796   24.8460 C   0  0  0  0  0  0
  -21.4231  -29.3041   22.3657 N   0  0  0  0  0  0
  -26.4288  -37.3766   23.9403 N   0  0  0  0  0  0
  -24.7013  -31.0474   22.0950 N   0  0  0  0  0  0
  -23.4214  -28.8126   23.3025 O   0  0  0  0  0  0
  -28.3232  -26.3389   20.1570 O   0  0  0  0  0  0
  -26.5640  -34.8912   22.4659 O   0  0  0  0  0  0
  -23.5474  -32.1350   23.7248 O   0  0  0  0  0  0
  -29.8937  -18.4050   20.5191 C   0  0  0  0  0  0
  -29.0359  -19.6060   20.8072 C   0  0  0  0  0  0
  -27.9047  -19.1807   21.4719 C   0  0  0  0  0  0
  -29.3829  -17.1420   20.9341 C   0  0  0  0  0  0
  -26.7974  -19.9147   22.0380 C   0  0  0  0  0  0
  -30.2798  -23.2675   20.4548 C   0  0  0  0  0  0
  -30.5219  -21.7282   20.2592 C   0  0  0  0  0  0
  -28.2271  -22.1478   20.5415 C   0  0  0  0  0  0
  -28.8131  -23.5563   20.0725 C   0  0  1  0  0  0
  -28.0906  -24.9196   20.6320 C   0  0  0  0  0  0
  -29.2468  -21.0407   20.4672 N   0  0  0  0  0  0
  -25.5838  -19.8323   21.4818 N   0  0  0  0  0  0
  -29.6631  -15.7535   20.9460 N   0  0  0  0  0  0
  -26.9567  -20.6291   23.1587 N   0  3  0  0  0  0
  -27.8385  -17.4523   21.6779 S   0  0  0  0  0  0
  -31.4934  -12.6511   19.1587 H   0  0  0  0  0  0
  -30.4470  -11.4917   19.9303 H   0  0  0  0  0  0
  -29.8062  -11.7565   17.5192 H   0  0  0  0  0  0
  -29.6318  -13.4809   17.7265 H   0  0  0  0  0  0
  -27.9087  -11.2835   18.9070 H   0  0  0  0  0  0
  -27.3833  -12.5298   17.8090 H   0  0  0  0  0  0
  -27.6602  -14.2488   19.5083 H   0  0  0  0  0  0
  -28.7519  -12.0734   21.3645 H   0  0  0  0  0  0
  -28.4184  -13.7026   21.8574 H   0  0  0  0  0  0
  -25.2756   -9.5666   22.4773 H   0  0  0  0  0  0
  -23.9984   -7.4629   22.7484 H   0  0  0  0  0  0
  -21.0840   -8.8788   19.8971 H   0  0  0  0  0  0
  -22.3698  -10.9682   19.6188 H   0  0  0  0  0  0
  -21.2004   -7.6148   23.9711 H   0  0  0  0  0  0
  -21.1482   -6.0530   25.9077 H   0  0  0  0  0  0
  -22.0595   -2.7606   23.2858 H   0  0  0  0  0  0
  -22.4093  -11.9871   22.4796 H   0  0  0  0  0  0
  -21.1128  -13.1272   22.2638 H   0  0  0  0  0  0
  -24.6482  -15.8312   20.4836 H   0  0  0  0  0  0
  -26.2575  -15.6120   20.0154 H   0  0  0  0  0  0
  -26.7213  -32.5390   23.1064 H   0  0  0  0  0  0
  -25.0046  -33.9683   25.0368 H   0  0  0  0  0  0
  -22.7306  -31.2949   21.3903 H   0  0  0  0  0  0
  -23.3746  -35.9619   23.3301 H   0  0  0  0  0  0
  -24.3571  -36.8905   22.2048 H   0  0  0  0  0  0
  -23.7253  -37.6487   23.6661 H   0  0  0  0  0  0
  -26.1188  -31.5217   20.6093 H   0  0  0  0  0  0
  -26.8563  -30.8127   22.0134 H   0  0  0  0  0  0
  -28.1315  -28.9160   21.2052 H   0  0  0  0  0  0
  -25.9863  -25.8927   19.0004 H   0  0  0  0  0  0
  -23.9846  -27.2973   19.0007 H   0  0  0  0  0  0
  -23.7830  -30.5773   19.4012 H   0  0  0  0  0  0
  -22.7733  -29.2373   19.8512 H   0  0  0  0  0  0
  -25.1305  -36.1901   25.0812 H   0  0  0  0  0  0
  -20.9988  -28.3277   24.1396 H   0  0  0  0  0  0
  -20.5699  -26.2308   23.3623 H   0  0  0  0  0  0
  -21.6647  -26.7448   22.1195 H   0  0  0  0  0  0
  -19.6917  -25.6298   21.1252 H   0  0  0  0  0  0
  -19.6698  -27.3203   20.6756 H   0  0  0  0  0  0
  -17.4208  -26.6682   21.4031 H   0  0  0  0  0  0
  -18.0329  -26.0086   22.9041 H   0  0  0  0  0  0
  -19.7941  -30.7291   24.2253 H   0  0  0  0  0  0
  -17.5017  -31.6273   24.5169 H   0  0  0  0  0  0
  -15.5356  -30.2988   23.7675 H   0  0  0  0  0  0
  -15.8678  -28.0839   22.7058 H   0  0  0  0  0  0
  -24.5880  -30.7111   25.7779 H   0  0  0  0  0  0
  -24.8896  -32.2945   26.4826 H   0  0  0  0  0  0
  -25.8006  -30.8973   27.0246 H   0  0  0  0  0  0
  -26.2933  -29.6747   24.1230 H   0  0  0  0  0  0
  -27.3954  -29.7256   25.4785 H   0  0  0  0  0  0
  -27.8837  -30.4249   23.9532 H   0  0  0  0  0  0
  -27.2646  -33.3630   26.2070 H   0  0  0  0  0  0
  -28.3860  -32.6890   25.0333 H   0  0  0  0  0  0
  -28.0705  -31.8458   26.5425 H   0  0  0  0  0  0
  -28.2595  -38.0093   24.7496 H   0  0  0  0  0  0
  -28.1071  -36.2620   24.6296 H   0  0  0  0  0  0
  -27.2288  -37.1456   25.8862 H   0  0  0  0  0  0
  -20.9433  -29.8754   21.6844 H   0  0  0  0  0  0
  -26.0161  -38.2834   24.1416 H   0  0  0  0  0  0
  -30.8377  -18.5171   20.0074 H   0  0  0  0  0  0
  -30.9832  -23.8673   19.8747 H   0  0  0  0  0  0
  -30.4348  -23.5257   21.5033 H   0  0  0  0  0  0
  -31.2886  -21.3601   20.9431 H   0  0  0  0  0  0
  -30.8691  -21.5251   19.2451 H   0  0  0  0  0  0
  -27.3388  -21.8910   19.9619 H   0  0  0  0  0  0
  -27.9126  -22.2616   21.5761 H   0  0  0  0  0  0
  -28.7524  -23.5805   18.9837 H   0  0  0  0  0  0
  -28.2788  -24.9500   21.7058 H   0  0  0  0  0  0
  -27.0228  -24.7130   20.5742 H   0  0  0  0  0  0
  -25.4561  -19.2765   20.6494 H   0  0  0  0  0  0
  -24.7687  -20.2989   21.8464 H   0  0  0  0  0  0
  -28.8754  -15.2550   21.3324 H   0  0  0  0  0  0
  -27.8601  -20.6490   23.6093 H   0  0  0  0  0  0
  -26.2016  -21.1130   23.6176 H   0  0  0  0  0  0
  1 25  1  0  0  0
  1 30  2  0  0  0
  1 83  1  0  0  0
  2  3  1  0  0  0
  2 25  1  0  0  0
  2 86  1  0  0  0
  2 87  1  0  0  0
  3  4  1  0  0  0
  3 88  1  0  0  0
  3 89  1  0  0  0
  4  5  1  0  0  0
  4 90  1  0  0  0
  4 91  1  0  0  0
  5  6  1  0  0  0
  5 26  1  0  0  0
  5 92  1  0  0  0
  6 25  1  0  0  0
  6 93  1  0  0  0
  6 94  1  0  0  0
  7  8  2  0  0  0
  7 26  1  0  0  0
  7 29  1  0  0  0
  8  9  1  0  0  0
  8 22  1  0  0  0
  9 10  1  0  0  0
  9 27  2  0  0  0
 10 11  2  0  0  0
 10 15  1  0  0  0
 11 12  1  0  0  0
 11 95  1  0  0  0
 12 13  2  0  0  0
 12 96  1  0  0  0
 13 14  1  0  0  0
 13 31  1  0  0  0
 14 15  2  0  0  0
 14 97  1  0  0  0
 15 98  1  0  0  0
 16 17  2  0  0  0
 16 21  1  0  0  0
 16 31  1  0  0  0
 17 18  1  0  0  0
 17 99  1  0  0  0
 18 19  2  0  0  0
 18100  1  0  0  0
 19 20  1  0  0  0
 19 24  1  0  0  0
 20 21  2  0  0  0
 20101  1  0  0  0
 21 23  1  0  0  0
 22 28  1  0  0  0
 22 32  2  0  0  0
 26 27  1  0  0  0
 28102  1  0  0  0
 28103  1  0  0  0
 29104  1  0  0  0
 29105  1  0  0  0
 33 34  1  0  0  0
 33 66  1  0  0  0
 33 70  2  0  0  0
 34 36  1  0  0  0
 34 59  1  0  0  0
 34106  1  0  0  0
 35 44  2  0  0  0
 35 45  1  0  0  0
 35 68  1  0  0  0
 36 56  1  0  0  0
 36107  1  0  0  0
 37 39  1  0  0  0
 37 47  1  0  0  0
 37 66  1  0  0  0
 37108  1  0  0  0
 38 43  2  0  0  0
 38 46  1  0  0  0
 38 47  1  0  0  0
 39 64  1  0  0  0
 39 67  2  0  0  0
 40 52  1  0  0  0
 40 53  2  0  0  0
 40 58  1  0  0  0
 41109  1  0  0  0
 41110  1  0  0  0
 41111  1  0  0  0
 41 48  1  0  0  0
 42 43  1  0  0  0
 42 66  1  0  0  0
 42112  1  0  0  0
 42113  1  0  0  0
 43 44  1  0  0  0
 44114  1  0  0  0
 45 46  2  0  0  0
 45115  1  0  0  0
 46116  1  0  0  0
 47117  1  0  0  0
 47118  1  0  0  0
 48 56  1  0  0  0
 48 65  1  0  0  0
 48119  1  0  0  0
 49 50  1  0  0  0
 49 53  1  0  0  0
 49 64  1  0  0  0
 49120  1  0  0  0
 50 51  1  0  0  0
 50121  1  0  0  0
 50122  1  0  0  0
 51 52  1  0  0  0
 51123  1  0  0  0
 51124  1  0  0  0
 52125  1  0  0  0
 52126  1  0  0  0
 53 54  1  0  0  0
 54 55  2  0  0  0
 54127  1  0  0  0
 55 57  1  0  0  0
 55128  1  0  0  0
 56 69  2  0  0  0
 57 58  2  0  0  0
 57129  1  0  0  0
 58130  1  0  0  0
 59 60  1  0  0  0
 59 61  1  0  0  0
 59 62  1  0  0  0
 60131  1  0  0  0
 60132  1  0  0  0
 60133  1  0  0  0
 61134  1  0  0  0
 61135  1  0  0  0
 61136  1  0  0  0
 62137  1  0  0  0
 62138  1  0  0  0
 62139  1  0  0  0
 63 65  1  0  0  0
 63140  1  0  0  0
 63141  1  0  0  0
 63142  1  0  0  0
 64143  1  0  0  0
 65144  1  0  0  0
 68 80  1  0  0  0
 71 72  1  0  0  0
 71 74  2  0  0  0
 71145  1  0  0  0
 72 73  2  0  0  0
 72 81  1  0  0  0
 73 75  1  0  0  0
 73 85  1  0  0  0
 74 83  1  0  0  0
 74 85  1  0  0  0
 75 82  1  0  0  0
 75 84  2  0  0  0
 76 77  1  0  0  0
 76 79  1  0  0  0
 76146  1  0  0  0
 76147  1  0  0  0
 77 81  1  0  0  0
 77148  1  0  0  0
 77149  1  0  0  0
 78 79  1  0  0  0
 78 81  1  0  0  0
 78150  1  0  0  0
 78151  1  0  0  0
 79 80  1  0  0  0
 79152  1  0  0  0
 80153  1  0  0  0
 80154  1  0  0  0
 82155  1  0  0  0
 82156  1  0  0  0
 83157  1  0  0  0
 84158  1  0  0  0
 84159  1  0  0  0
M  CHG  1  84   1
M  ISO  4   1 100  68 101  80 101  83 100
M  END
> <chiral flag>
0

> <version>
0

> <s_m_source_file>
/data/baiqing/PycharmProjects/Reinvent-master-3.2/result/LINK_invent/BTK/process_docking_weight1_custom_product_contain_oxygen_bond_distance_aromatic_linkinvent_7_9_3/rearranged_h_0150.sdf

> <i_m_source_file_index>
43

> <r_mmod_Potential_Energy-OPLS-2005>
212.32209777832

> <r_mmod_Stretch_Energy-OPLS-2005>
134.638320922852

> <r_mmod_Bend_Energy-OPLS-2005>
283.238037109375

> <r_mmod_Torsional_Energy-OPLS-2005>
311.388122558594

> <r_mmod_Improper_Torsional_Energy-OPLS-2005>
4.00770330429077

> <r_mmod_Van_der_Waal_Energy-OPLS-2005>
106.059394836426

> <r_mmod_Electrostatic_Energy-OPLS-2005>
-216.42887878418

> <r_mmod_Solvation_Energy-OPLS-2005>
-508.889709472656

> <b_mmod_Minimization_Converged-OPLS-2005>
0

> <r_mmod_RMS_Derivative-OPLS-2005>
1.35096096992493

$$$$
43
                    3D
 Structure written by MMmdl.
174183  0  0  1  0            999 V2000
  -30.6794  -14.4952   20.5638 C   0  0  0  0  0  0
  -30.4265  -12.3064   19.4504 C   0  0  0  0  0  0
  -29.5129  -12.5131   18.2250 C   0  0  0  0  0  0
  -28.0262  -12.3617   18.6181 C   0  0  0  0  0  0
  -27.6624  -13.1900   19.8826 C   0  0  2  0  0  0
  -28.7021  -12.9808   21.0038 C   0  0  0  0  0  0
  -25.2675  -13.8159   20.5808 C   0  0  0  0  0  0
  -24.1850  -13.0445   20.9057 C   0  0  0  0  0  0
  -24.6347  -11.6891   20.8581 C   0  0  0  0  0  0
  -23.8964  -10.4320   21.0275 C   0  0  0  0  0  0
  -24.3589   -9.4301   21.9086 C   0  0  0  0  0  0
  -23.6261   -8.2351   22.0733 C   0  0  0  0  0  0
  -22.4255   -8.0324   21.3532 C   0  0  0  0  0  0
  -21.9800   -9.0264   20.4642 C   0  0  0  0  0  0
  -22.7101  -10.2137   20.2978 C   0  0  0  0  0  0
  -21.6883   -6.0723   22.5263 C   0  0  0  0  0  0
  -21.4063   -6.5630   23.8203 C   0  0  0  0  0  0
  -21.3670   -5.6778   24.9154 C   0  0  0  0  0  0
  -21.6047   -4.3049   24.7223 C   0  0  0  0  0  0
  -21.8844   -3.8134   23.4351 C   0  0  0  0  0  0
  -21.9215   -4.6951   22.3394 C   0  0  0  0  0  0
  -22.7895  -13.5286   21.1708 C   0  0  0  0  0  0
  -22.1628   -4.2134   21.0954 F   0  0  0  0  0  0
  -21.5626   -3.4512   25.7739 F   0  0  0  0  0  0
  -30.0342  -13.2968   20.4630 N   0  0  0  0  0  0
  -26.3036  -12.9235   20.3394 N   0  0  0  0  0  0
  -25.9280  -11.6394   20.5674 N   0  0  0  0  0  0
  -22.0443  -12.8240   22.0161 N   0  0  0  0  0  0
  -25.4565  -15.1885   20.4659 N   0  0  0  0  0  0
  -31.8039  -14.6907   20.0934 O   0  0  0  0  0  0
  -21.6662   -6.8861   21.4221 O   0  0  0  0  0  0
  -22.3637  -14.5625   20.6606 O   0  0  0  0  0  0
  -24.6086  -31.8694   23.2107 C   0  0  0  0  0  0
  -25.9006  -32.4827   23.8392 C   0  0  1  0  0  0
  -27.2536  -27.4587   20.1017 C   0  0  0  0  0  0
  -25.5887  -33.8640   24.2347 N   0  0  0  0  0  0
  -23.3963  -30.4829   21.5544 C   0  0  2  0  0  0
  -24.8532  -28.9509   20.1202 C   0  0  0  0  0  0
  -22.7380  -29.4618   22.5092 C   0  0  0  0  0  0
  -18.0231  -28.1359   22.8516 C   0  0  0  0  0  0
  -24.1468  -36.7315   23.2644 C   0  0  0  0  0  0
  -25.9195  -30.8429   21.3611 C   0  0  0  0  0  0
  -26.0067  -29.4753   20.7176 C   0  0  0  0  0  0
  -27.2104  -28.7354   20.7109 C   0  0  0  0  0  0
  -26.0907  -26.9470   19.4936 C   0  0  0  0  0  0
  -24.8889  -27.6842   19.5079 C   0  0  0  0  0  0
  -23.6016  -29.8009   20.1744 C   0  0  0  0  0  0
  -25.4115  -36.3142   24.0336 C   0  0  1  0  0  0
  -20.5824  -28.3601   23.1378 C   0  0  2  0  0  0
  -20.6732  -26.9350   22.5443 C   0  0  0  0  0  0
  -19.5696  -26.6343   21.5257 C   0  0  0  0  0  0
  -18.1860  -26.7924   22.1626 C   0  0  0  0  0  0
  -19.1493  -28.8806   23.2926 C   0  0  0  0  0  0
  -18.9427  -30.1454   23.8883 C   0  0  0  0  0  0
  -17.6430  -30.6585   24.0539 C   0  0  0  0  0  0
  -25.9031  -34.9496   23.5144 C   0  0  0  0  0  0
  -16.5312  -29.9069   23.6359 C   0  0  0  0  0  0
  -16.7230  -28.6481   23.0391 C   0  0  0  0  0  0
  -26.4457  -31.6582   25.0710 C   0  0  0  0  0  0
  -25.3712  -31.3636   26.1424 C   0  0  0  0  0  0
  -27.0300  -30.3032   24.6081 C   0  0  0  0  0  0
  -27.6014  -32.4297   25.7529 C   0  0  0  0  0  0
  -27.5596  -37.1797   24.8480 C   0  0  0  0  0  0
  -21.4103  -29.2997   22.3814 N   0  0  0  0  0  0
  -26.4310  -37.3823   23.9422 N   0  0  0  0  0  0
  -24.6592  -31.0783   22.1005 N   0  0  0  0  0  0
  -23.4142  -28.8188   23.3144 O   0  0  0  0  0  0
  -28.3951  -26.6912   20.0844 O   0  0  0  0  0  0
  -26.5602  -34.8935   22.4734 O   0  0  0  0  0  0
  -23.5296  -32.1464   23.7507 O   0  0  0  0  0  0
  -29.3231  -19.3245   19.3695 C   0  0  0  0  0  0
  -28.9391  -16.9301   19.4494 C   0  0  0  0  0  0
  -30.4265  -17.9709   21.0830 C   0  0  0  0  0  0
  -28.6989  -18.1786   18.8579 C   0  0  0  0  0  0
  -30.1562  -19.2468   20.5055 C   0  0  0  0  0  0
  -29.8156  -16.7975   20.5477 C   0  0  0  0  0  0
  -29.4899  -25.0682   21.4808 C   0  0  0  0  0  0
  -28.8300  -26.2308   21.3003 C   0  0  0  0  0  0
  -30.0197  -21.5952   21.2171 C   0  0  0  0  0  0
  -29.9524  -24.5738   22.8270 C   0  0  0  0  0  0
  -29.8994  -24.0680   20.4137 C   0  0  0  0  0  0
  -31.0612  -23.5617   22.5125 C   0  0  0  0  0  0
  -30.7409  -22.9643   21.1280 C   0  0  1  0  0  0
  -25.3024  -17.9029   17.6615 C   0  0  0  0  0  0
  -26.1814  -19.6812   19.1542 C   0  0  0  0  0  0
  -26.2473  -20.0113   16.6839 C   0  0  0  0  0  0
  -27.8104  -18.2847   17.6290 C   0  0  0  0  0  0
  -26.4115  -18.9656   17.8023 C   0  0  0  0  0  0
  -30.7294  -20.4682   20.9762 N   0  0  0  0  0  0
  -29.9651  -15.4936   21.1221 N   0  0  0  0  0  0
  -28.8244  -21.5628   21.5228 O   0  0  0  0  0  0
  -31.4805  -12.3877   19.1816 H   0  0  0  0  0  0
  -30.2995  -11.2980   19.8450 H   0  0  0  0  0  0
  -29.7757  -11.8049   17.4384 H   0  0  0  0  0  0
  -29.6923  -13.5043   17.8114 H   0  0  0  0  0  0
  -27.8310  -11.3018   18.7971 H   0  0  0  0  0  0
  -27.3867  -12.6587   17.7879 H   0  0  0  0  0  0
  -27.6927  -14.2297   19.5828 H   0  0  0  0  0  0
  -28.6838  -11.9409   21.3320 H   0  0  0  0  0  0
  -28.4582  -13.5705   21.8869 H   0  0  0  0  0  0
  -25.2743   -9.5851   22.4598 H   0  0  0  0  0  0
  -23.9991   -7.4794   22.7499 H   0  0  0  0  0  0
  -21.0676   -8.8741   19.9045 H   0  0  0  0  0  0
  -22.3474  -10.9631   19.6083 H   0  0  0  0  0  0
  -21.2092   -7.6144   23.9703 H   0  0  0  0  0  0
  -21.1407   -6.0500   25.9034 H   0  0  0  0  0  0
  -22.0621   -2.7601   23.2868 H   0  0  0  0  0  0
  -22.3817  -11.9717   22.4355 H   0  0  0  0  0  0
  -21.1113  -13.1381   22.2333 H   0  0  0  0  0  0
  -24.7269  -15.8455   20.7178 H   0  0  0  0  0  0
  -26.3548  -15.6344   20.3298 H   0  0  0  0  0  0
  -26.7088  -32.5568   23.1173 H   0  0  0  0  0  0
  -25.0059  -33.9827   25.0492 H   0  0  0  0  0  0
  -22.6815  -31.2956   21.4100 H   0  0  0  0  0  0
  -23.3778  -35.9590   23.3258 H   0  0  0  0  0  0
  -24.3546  -36.8989   22.2062 H   0  0  0  0  0  0
  -23.7123  -37.6468   23.6689 H   0  0  0  0  0  0
  -26.0241  -31.6066   20.5886 H   0  0  0  0  0  0
  -26.8071  -30.9031   21.9773 H   0  0  0  0  0  0
  -28.1008  -29.1434   21.1704 H   0  0  0  0  0  0
  -26.1172  -25.9756   19.0217 H   0  0  0  0  0  0
  -24.0015  -27.2755   19.0441 H   0  0  0  0  0  0
  -23.6744  -30.5654   19.4015 H   0  0  0  0  0  0
  -22.7359  -29.1937   19.9012 H   0  0  0  0  0  0
  -25.1307  -36.2025   25.0822 H   0  0  0  0  0  0
  -20.9880  -28.3135   24.1515 H   0  0  0  0  0  0
  -20.5687  -26.2200   23.3619 H   0  0  0  0  0  0
  -21.6579  -26.7429   22.1175 H   0  0  0  0  0  0
  -19.6824  -25.6244   21.1300 H   0  0  0  0  0  0
  -19.6685  -27.3149   20.6784 H   0  0  0  0  0  0
  -17.4179  -26.6773   21.3968 H   0  0  0  0  0  0
  -18.0158  -26.0035   22.8958 H   0  0  0  0  0  0
  -19.7896  -30.7304   24.2205 H   0  0  0  0  0  0
  -17.4970  -31.6308   24.5066 H   0  0  0  0  0  0
  -15.5305  -30.2963   23.7730 H   0  0  0  0  0  0
  -15.8627  -28.0815   22.7138 H   0  0  0  0  0  0
  -24.5989  -30.6877   25.7732 H   0  0  0  0  0  0
  -24.8765  -32.2740   26.4816 H   0  0  0  0  0  0
  -25.8053  -30.8877   27.0220 H   0  0  0  0  0  0
  -26.2837  -29.6789   24.1153 H   0  0  0  0  0  0
  -27.4080  -29.7281   25.4543 H   0  0  0  0  0  0
  -27.8650  -30.4357   23.9200 H   0  0  0  0  0  0
  -27.2628  -33.3600   26.2116 H   0  0  0  0  0  0
  -28.3866  -32.6855   25.0397 H   0  0  0  0  0  0
  -28.0625  -31.8398   26.5466 H   0  0  0  0  0  0
  -28.2613  -38.0097   24.7609 H   0  0  0  0  0  0
  -28.1112  -36.2651   24.6263 H   0  0  0  0  0  0
  -27.2303  -37.1365   25.8872 H   0  0  0  0  0  0
  -20.9260  -29.8742   21.7062 H   0  0  0  0  0  0
  -26.0226  -38.2908   24.1453 H   0  0  0  0  0  0
  -29.1401  -20.2760   18.8923 H   0  0  0  0  0  0
  -28.4553  -16.0696   19.0221 H   0  0  0  0  0  0
  -31.0804  -17.8993   21.9403 H   0  0  0  0  0  0
  -28.5745  -26.8865   22.1235 H   0  0  0  0  0  0
  -29.1069  -24.0880   23.3204 H   0  0  0  0  0  0
  -30.2934  -25.3910   23.4691 H   0  0  0  0  0  0
  -30.4936  -24.5848   19.6590 H   0  0  0  0  0  0
  -29.0167  -23.6734   19.9086 H   0  0  0  0  0  0
  -31.1684  -22.8052   23.2904 H   0  0  0  0  0  0
  -32.0147  -24.0860   22.4448 H   0  0  0  0  0  0
  -31.6681  -22.8149   20.5712 H   0  0  0  0  0  0
  -24.3132  -18.3620   17.6203 H   0  0  0  0  0  0
  -25.3013  -17.2175   18.5102 H   0  0  0  0  0  0
  -25.4138  -17.3047   16.7578 H   0  0  0  0  0  0
  -25.1270  -19.9358   19.2839 H   0  0  0  0  0  0
  -26.7381  -20.6175   19.2254 H   0  0  0  0  0  0
  -26.4557  -19.0631   20.0093 H   0  0  0  0  0  0
  -25.2483  -20.4506   16.6899 H   0  0  0  0  0  0
  -26.4204  -19.5737   15.6995 H   0  0  0  0  0  0
  -26.9600  -20.8305   16.8056 H   0  0  0  0  0  0
  -27.7043  -17.2929   17.1882 H   0  0  0  0  0  0
  -28.4006  -18.8327   16.8922 H   0  0  0  0  0  0
  -31.7382  -20.5454   20.9165 H   0  0  0  0  0  0
  -29.1142  -15.1405   21.5311 H   0  0  0  0  0  0
  1 25  1  0  0  0
  1 30  2  0  0  0
  1 90  1  0  0  0
  2  3  1  0  0  0
  2 25  1  0  0  0
  2 92  1  0  0  0
  2 93  1  0  0  0
  3  4  1  0  0  0
  3 94  1  0  0  0
  3 95  1  0  0  0
  4  5  1  0  0  0
  4 96  1  0  0  0
  4 97  1  0  0  0
  5  6  1  0  0  0
  5 26  1  0  0  0
  5 98  1  0  0  0
  6 25  1  0  0  0
  6 99  1  0  0  0
  6100  1  0  0  0
  7  8  2  0  0  0
  7 26  1  0  0  0
  7 29  1  0  0  0
  8  9  1  0  0  0
  8 22  1  0  0  0
  9 10  1  0  0  0
  9 27  2  0  0  0
 10 11  2  0  0  0
 10 15  1  0  0  0
 11 12  1  0  0  0
 11101  1  0  0  0
 12 13  2  0  0  0
 12102  1  0  0  0
 13 14  1  0  0  0
 13 31  1  0  0  0
 14 15  2  0  0  0
 14103  1  0  0  0
 15104  1  0  0  0
 16 17  2  0  0  0
 16 21  1  0  0  0
 16 31  1  0  0  0
 17 18  1  0  0  0
 17105  1  0  0  0
 18 19  2  0  0  0
 18106  1  0  0  0
 19 20  1  0  0  0
 19 24  1  0  0  0
 20 21  2  0  0  0
 20107  1  0  0  0
 21 23  1  0  0  0
 22 28  1  0  0  0
 22 32  2  0  0  0
 26 27  1  0  0  0
 28108  1  0  0  0
 28109  1  0  0  0
 29110  1  0  0  0
 29111  1  0  0  0
 33 34  1  0  0  0
 33 66  1  0  0  0
 33 70  2  0  0  0
 34 36  1  0  0  0
 34 59  1  0  0  0
 34112  1  0  0  0
 35 44  2  0  0  0
 35 45  1  0  0  0
 35 68  1  0  0  0
 36 56  1  0  0  0
 36113  1  0  0  0
 37 39  1  0  0  0
 37 47  1  0  0  0
 37 66  1  0  0  0
 37114  1  0  0  0
 38 43  2  0  0  0
 38 46  1  0  0  0
 38 47  1  0  0  0
 39 64  1  0  0  0
 39 67  2  0  0  0
 40 52  1  0  0  0
 40 53  2  0  0  0
 40 58  1  0  0  0
 41115  1  0  0  0
 41116  1  0  0  0
 41117  1  0  0  0
 41 48  1  0  0  0
 42 43  1  0  0  0
 42 66  1  0  0  0
 42118  1  0  0  0
 42119  1  0  0  0
 43 44  1  0  0  0
 44120  1  0  0  0
 45 46  2  0  0  0
 45121  1  0  0  0
 46122  1  0  0  0
 47123  1  0  0  0
 47124  1  0  0  0
 48 56  1  0  0  0
 48 65  1  0  0  0
 48125  1  0  0  0
 49 50  1  0  0  0
 49 53  1  0  0  0
 49 64  1  0  0  0
 49126  1  0  0  0
 50 51  1  0  0  0
 50127  1  0  0  0
 50128  1  0  0  0
 51 52  1  0  0  0
 51129  1  0  0  0
 51130  1  0  0  0
 52131  1  0  0  0
 52132  1  0  0  0
 53 54  1  0  0  0
 54 55  2  0  0  0
 54133  1  0  0  0
 55 57  1  0  0  0
 55134  1  0  0  0
 56 69  2  0  0  0
 57 58  2  0  0  0
 57135  1  0  0  0
 58136  1  0  0  0
 59 60  1  0  0  0
 59 61  1  0  0  0
 59 62  1  0  0  0
 60137  1  0  0  0
 60138  1  0  0  0
 60139  1  0  0  0
 61140  1  0  0  0
 61141  1  0  0  0
 61142  1  0  0  0
 62143  1  0  0  0
 62144  1  0  0  0
 62145  1  0  0  0
 63 65  1  0  0  0
 63146  1  0  0  0
 63147  1  0  0  0
 63148  1  0  0  0
 64149  1  0  0  0
 65150  1  0  0  0
 68 78  1  0  0  0
 71 74  2  0  0  0
 71 75  1  0  0  0
 71151  1  0  0  0
 72 74  1  0  0  0
 72 76  2  0  0  0
 72152  1  0  0  0
 73 75  2  0  0  0
 73 76  1  0  0  0
 73153  1  0  0  0
 74 87  1  0  0  0
 75 89  1  0  0  0
 76 90  1  0  0  0
 77 78  2  0  0  0
 77 80  1  0  0  0
 77 81  1  0  0  0
 78154  1  0  0  0
 79 89  1  0  0  0
 79 91  2  0  0  0
 79 83  1  0  0  0
 80 82  1  0  0  0
 80155  1  0  0  0
 80156  1  0  0  0
 81 83  1  0  0  0
 81157  1  0  0  0
 81158  1  0  0  0
 82 83  1  0  0  0
 82159  1  0  0  0
 82160  1  0  0  0
 83161  1  0  0  0
 84162  1  0  0  0
 84163  1  0  0  0
 84164  1  0  0  0
 84 88  1  0  0  0
 85 88  1  0  0  0
 85165  1  0  0  0
 85166  1  0  0  0
 85167  1  0  0  0
 86 88  1  0  0  0
 86168  1  0  0  0
 86169  1  0  0  0
 86170  1  0  0  0
 87 88  1  0  0  0
 87171  1  0  0  0
 87172  1  0  0  0
 89173  1  0  0  0
 90174  1  0  0  0
M  ISO  4   1 100  68 101  78 101  90 100
M  END
> <chiral flag>
0

> <version>
0

> <s_m_source_file>
/data/baiqing/PycharmProjects/Reinvent-master-3.2/result/LINK_invent/BTK/process_docking_weight1_custom_product_contain_oxygen_bond_distance_aromatic_linkinvent_7_9_3/rearranged_h_0150.sdf

> <i_m_source_file_index>
44

> <r_mmod_Potential_Energy-OPLS-2005>
85.6524276733398

> <r_mmod_Stretch_Energy-OPLS-2005>
42.0745887756348

> <r_mmod_Bend_Energy-OPLS-2005>
130.800033569336

> <r_mmod_Torsional_Energy-OPLS-2005>
338.274475097656

> <r_mmod_Improper_Torsional_Energy-OPLS-2005>
7.30067110061646

> <r_mmod_Van_der_Waal_Energy-OPLS-2005>
144.226776123047

> <r_mmod_Electrostatic_Energy-OPLS-2005>
-374.625885009766

> <r_mmod_Solvation_Energy-OPLS-2005>
-215.367416381836

> <b_mmod_Minimization_Converged-OPLS-2005>
0

> <r_mmod_RMS_Derivative-OPLS-2005>
5.38169479370117

$$$$
44
                    3D
 Structure written by MMmdl.
159167  0  0  1  0            999 V2000
  -30.7423  -14.4498   20.5288 C   0  0  0  0  0  0
  -30.4047  -12.2819   19.4276 C   0  0  0  0  0  0
  -29.4849  -12.4797   18.2062 C   0  0  0  0  0  0
  -28.0068  -12.3577   18.6210 C   0  0  0  0  0  0
  -27.6569  -13.2131   19.8694 C   0  0  2  0  0  0
  -28.7026  -13.0311   20.9936 C   0  0  0  0  0  0
  -25.2566  -13.8195   20.5680 C   0  0  0  0  0  0
  -24.1820  -13.0456   20.9173 C   0  0  0  0  0  0
  -24.6386  -11.6930   20.8741 C   0  0  0  0  0  0
  -23.9065  -10.4305   21.0405 C   0  0  0  0  0  0
  -24.3613   -9.4218   21.9183 C   0  0  0  0  0  0
  -23.6290   -8.2254   22.0762 C   0  0  0  0  0  0
  -22.4277   -8.0278   21.3540 C   0  0  0  0  0  0
  -21.9909   -9.0249   20.4649 C   0  0  0  0  0  0
  -22.7240  -10.2131   20.3054 C   0  0  0  0  0  0
  -21.6853   -6.0722   22.5270 C   0  0  0  0  0  0
  -21.4014   -6.5633   23.8200 C   0  0  0  0  0  0
  -21.3655   -5.6792   24.9167 C   0  0  0  0  0  0
  -21.6050   -4.3052   24.7225 C   0  0  0  0  0  0
  -21.8820   -3.8136   23.4354 C   0  0  0  0  0  0
  -21.9194   -4.6951   22.3400 C   0  0  0  0  0  0
  -22.7840  -13.5237   21.1831 C   0  0  0  0  0  0
  -22.1658   -4.2139   21.0979 F   0  0  0  0  0  0
  -21.5631   -3.4536   25.7744 F   0  0  0  0  0  0
  -30.0312  -13.2972   20.4248 N   0  0  0  0  0  0
  -26.3009  -12.9367   20.3362 N   0  0  0  0  0  0
  -25.9321  -11.6528   20.5785 N   0  0  0  0  0  0
  -22.0497  -12.8213   22.0386 N   0  0  0  0  0  0
  -25.4276  -15.1910   20.4093 N   0  0  0  0  0  0
  -31.8944  -14.5547   20.0992 O   0  0  0  0  0  0
  -21.6633   -6.8873   21.4240 O   0  0  0  0  0  0
  -22.3531  -14.5548   20.6698 O   0  0  0  0  0  0
  -24.6164  -31.8723   23.2142 C   0  0  0  0  0  0
  -25.9081  -32.4838   23.8408 C   0  0  1  0  0  0
  -27.1850  -27.4054   20.0939 C   0  0  0  0  0  0
  -25.5960  -33.8638   24.2345 N   0  0  0  0  0  0
  -23.4018  -30.4983   21.5587 C   0  0  2  0  0  0
  -24.8411  -28.9768   20.1058 C   0  0  0  0  0  0
  -22.7418  -29.4684   22.5038 C   0  0  0  0  0  0
  -18.0270  -28.1374   22.8509 C   0  0  0  0  0  0
  -24.1483  -36.7292   23.2634 C   0  0  0  0  0  0
  -25.9350  -30.8250   21.3761 C   0  0  0  0  0  0
  -26.0066  -29.4589   20.7196 C   0  0  0  0  0  0
  -27.1865  -28.6732   20.7246 C   0  0  0  0  0  0
  -26.0315  -26.9877   19.4109 C   0  0  0  0  0  0
  -24.8498  -27.7403   19.4461 C   0  0  0  0  0  0
  -23.6046  -29.8430   20.1695 C   0  0  0  0  0  0
  -25.4115  -36.3119   24.0327 C   0  0  1  0  0  0
  -20.5863  -28.3675   23.1333 C   0  0  2  0  0  0
  -20.6769  -26.9420   22.5431 C   0  0  0  0  0  0
  -19.5749  -26.6389   21.5222 C   0  0  0  0  0  0
  -18.1903  -26.7940   22.1622 C   0  0  0  0  0  0
  -19.1518  -28.8839   23.2913 C   0  0  0  0  0  0
  -18.9449  -30.1449   23.8923 C   0  0  0  0  0  0
  -17.6446  -30.6597   24.0568 C   0  0  0  0  0  0
  -25.9054  -34.9486   23.5128 C   0  0  0  0  0  0
  -16.5342  -29.9088   23.6334 C   0  0  0  0  0  0
  -16.7263  -28.6504   23.0366 C   0  0  0  0  0  0
  -26.4495  -31.6626   25.0742 C   0  0  0  0  0  0
  -25.3716  -31.3728   26.1454 C   0  0  0  0  0  0
  -27.0368  -30.3077   24.6145 C   0  0  0  0  0  0
  -27.6062  -32.4353   25.7504 C   0  0  0  0  0  0
  -27.5587  -37.1786   24.8457 C   0  0  0  0  0  0
  -21.4154  -29.3037   22.3755 N   0  0  0  0  0  0
  -26.4302  -37.3797   23.9409 N   0  0  0  0  0  0
  -24.6695  -31.0784   22.1062 N   0  0  0  0  0  0
  -23.4186  -28.8215   23.3080 O   0  0  0  0  0  0
  -28.2588  -26.5476   20.1466 O   0  0  0  0  0  0
  -26.5586  -34.8938   22.4666 O   0  0  0  0  0  0
  -23.5366  -32.1515   23.7511 O   0  0  0  0  0  0
  -29.1440  -20.0106   22.2230 C   0  0  0  0  0  0
  -29.7679  -18.7279   22.3057 C   0  0  0  0  0  0
  -29.8867  -18.0989   21.0930 C   0  0  0  0  0  0
  -28.8202  -20.3960   20.9412 C   0  0  0  0  0  0
  -28.2548  -22.7797   21.0893 C   0  0  0  0  0  0
  -26.1243  -23.6804   20.2902 C   0  0  0  0  0  0
  -28.1911  -23.9744   18.8306 C   0  0  0  0  0  0
  -30.6936  -16.8792   20.7344 C   0  0  0  0  0  0
  -28.0263  -25.3633   20.9665 C   0  0  0  0  0  0
  -27.6534  -23.9770   20.2835 C   0  0  0  0  0  0
  -30.2614  -18.2541   23.5275 N   0  0  0  0  0  0
  -28.3217  -21.5770   20.4728 N   0  0  0  0  0  0
  -30.0821  -15.5526   20.9261 N   0  0  0  0  0  0
  -28.5778  -22.9339   22.2710 O   0  0  0  0  0  0
  -29.1546  -19.0768   19.8384 S   0  0  0  0  0  0
  -31.4520  -12.3444   19.1250 H   0  0  0  0  0  0
  -30.2775  -11.2821   19.8456 H   0  0  0  0  0  0
  -29.7166  -11.7423   17.4368 H   0  0  0  0  0  0
  -29.6631  -13.4583   17.7576 H   0  0  0  0  0  0
  -27.8086  -11.3037   18.8225 H   0  0  0  0  0  0
  -27.3609  -12.6289   17.7859 H   0  0  0  0  0  0
  -27.6936  -14.2544   19.5503 H   0  0  0  0  0  0
  -28.6682  -12.0139   21.3860 H   0  0  0  0  0  0
  -28.4848  -13.6859   21.8377 H   0  0  0  0  0  0
  -25.2761   -9.5683   22.4752 H   0  0  0  0  0  0
  -23.9989   -7.4653   22.7486 H   0  0  0  0  0  0
  -21.0842   -8.8777   19.8948 H   0  0  0  0  0  0
  -22.3711  -10.9667   19.6154 H   0  0  0  0  0  0
  -21.2009   -7.6141   23.9705 H   0  0  0  0  0  0
  -21.1474   -6.0519   25.9071 H   0  0  0  0  0  0
  -22.0605   -2.7603   23.2857 H   0  0  0  0  0  0
  -22.4119  -11.9861   22.4732 H   0  0  0  0  0  0
  -21.1126  -13.1228   22.2635 H   0  0  0  0  0  0
  -24.6622  -15.8466   20.5197 H   0  0  0  0  0  0
  -26.2838  -15.6326   20.0994 H   0  0  0  0  0  0
  -26.7152  -32.5556   23.1172 H   0  0  0  0  0  0
  -25.0156  -33.9797   25.0520 H   0  0  0  0  0  0
  -22.6942  -31.3183   21.4278 H   0  0  0  0  0  0
  -23.3770  -35.9595   23.3305 H   0  0  0  0  0  0
  -24.3583  -36.8910   22.2049 H   0  0  0  0  0  0
  -23.7199  -37.6477   23.6658 H   0  0  0  0  0  0
  -26.0526  -31.5943   20.6113 H   0  0  0  0  0  0
  -26.8192  -30.8741   21.9993 H   0  0  0  0  0  0
  -28.0770  -29.0153   21.2340 H   0  0  0  0  0  0
  -26.0466  -26.0843   18.8282 H   0  0  0  0  0  0
  -23.9661  -27.3822   18.9354 H   0  0  0  0  0  0
  -23.7047  -30.6258   19.4155 H   0  0  0  0  0  0
  -22.7259  -29.2644   19.8797 H   0  0  0  0  0  0
  -25.1281  -36.1984   25.0817 H   0  0  0  0  0  0
  -20.9928  -28.3249   24.1464 H   0  0  0  0  0  0
  -20.5752  -26.2260   23.3605 H   0  0  0  0  0  0
  -21.6628  -26.7513   22.1168 H   0  0  0  0  0  0
  -19.6917  -25.6294   21.1262 H   0  0  0  0  0  0
  -19.6698  -27.3211   20.6756 H   0  0  0  0  0  0
  -17.4195  -26.6723   21.4007 H   0  0  0  0  0  0
  -18.0267  -26.0069   22.8995 H   0  0  0  0  0  0
  -19.7924  -30.7239   24.2335 H   0  0  0  0  0  0
  -17.5008  -31.6295   24.5147 H   0  0  0  0  0  0
  -15.5345  -30.2985   23.7671 H   0  0  0  0  0  0
  -15.8659  -28.0838   22.7072 H   0  0  0  0  0  0
  -24.5940  -30.7041   25.7751 H   0  0  0  0  0  0
  -24.8830  -32.2870   26.4843 H   0  0  0  0  0  0
  -25.8004  -30.8945   27.0265 H   0  0  0  0  0  0
  -26.2950  -29.6802   24.1195 H   0  0  0  0  0  0
  -27.4148  -29.7363   25.4632 H   0  0  0  0  0  0
  -27.8769  -30.4418   23.9311 H   0  0  0  0  0  0
  -27.2723  -33.3684   26.2050 H   0  0  0  0  0  0
  -28.3881  -32.6870   25.0328 H   0  0  0  0  0  0
  -28.0721  -31.8502   26.5443 H   0  0  0  0  0  0
  -28.2571  -38.0118   24.7590 H   0  0  0  0  0  0
  -28.1115  -36.2656   24.6199 H   0  0  0  0  0  0
  -27.2308  -37.1340   25.8856 H   0  0  0  0  0  0
  -20.9320  -29.8767   21.6995 H   0  0  0  0  0  0
  -26.0205  -38.2871   24.1442 H   0  0  0  0  0  0
  -29.0081  -20.6263   23.1001 H   0  0  0  0  0  0
  -25.9011  -22.7340   19.7931 H   0  0  0  0  0  0
  -25.5082  -24.4132   19.7870 H   0  0  0  0  0  0
  -25.7323  -23.6012   21.3052 H   0  0  0  0  0  0
  -28.1418  -22.9982   18.3495 H   0  0  0  0  0  0
  -29.2283  -24.3075   18.8005 H   0  0  0  0  0  0
  -27.6144  -24.6497   18.1991 H   0  0  0  0  0  0
  -31.6289  -16.9164   21.2969 H   0  0  0  0  0  0
  -30.9864  -16.9686   19.6865 H   0  0  0  0  0  0
  -28.9691  -25.2560   21.5055 H   0  0  0  0  0  0
  -27.2903  -25.5848   21.7448 H   0  0  0  0  0  0
  -29.9222  -18.6633   24.3932 H   0  0  0  0  0  0
  -30.5378  -17.2815   23.6155 H   0  0  0  0  0  0
  -28.0091  -21.5722   19.5113 H   0  0  0  0  0  0
  -29.1202  -15.4793   21.2193 H   0  0  0  0  0  0
  1 25  1  0  0  0
  1 30  2  0  0  0
  1 83  1  0  0  0
  2  3  1  0  0  0
  2 25  1  0  0  0
  2 86  1  0  0  0
  2 87  1  0  0  0
  3  4  1  0  0  0
  3 88  1  0  0  0
  3 89  1  0  0  0
  4  5  1  0  0  0
  4 90  1  0  0  0
  4 91  1  0  0  0
  5  6  1  0  0  0
  5 26  1  0  0  0
  5 92  1  0  0  0
  6 25  1  0  0  0
  6 93  1  0  0  0
  6 94  1  0  0  0
  7  8  2  0  0  0
  7 26  1  0  0  0
  7 29  1  0  0  0
  8  9  1  0  0  0
  8 22  1  0  0  0
  9 10  1  0  0  0
  9 27  2  0  0  0
 10 11  2  0  0  0
 10 15  1  0  0  0
 11 12  1  0  0  0
 11 95  1  0  0  0
 12 13  2  0  0  0
 12 96  1  0  0  0
 13 14  1  0  0  0
 13 31  1  0  0  0
 14 15  2  0  0  0
 14 97  1  0  0  0
 15 98  1  0  0  0
 16 17  2  0  0  0
 16 21  1  0  0  0
 16 31  1  0  0  0
 17 18  1  0  0  0
 17 99  1  0  0  0
 18 19  2  0  0  0
 18100  1  0  0  0
 19 20  1  0  0  0
 19 24  1  0  0  0
 20 21  2  0  0  0
 20101  1  0  0  0
 21 23  1  0  0  0
 22 28  1  0  0  0
 22 32  2  0  0  0
 26 27  1  0  0  0
 28102  1  0  0  0
 28103  1  0  0  0
 29104  1  0  0  0
 29105  1  0  0  0
 33 34  1  0  0  0
 33 66  1  0  0  0
 33 70  2  0  0  0
 34 36  1  0  0  0
 34 59  1  0  0  0
 34106  1  0  0  0
 35 44  2  0  0  0
 35 45  1  0  0  0
 35 68  1  0  0  0
 36 56  1  0  0  0
 36107  1  0  0  0
 37 39  1  0  0  0
 37 47  1  0  0  0
 37 66  1  0  0  0
 37108  1  0  0  0
 38 43  2  0  0  0
 38 46  1  0  0  0
 38 47  1  0  0  0
 39 64  1  0  0  0
 39 67  2  0  0  0
 40 52  1  0  0  0
 40 53  2  0  0  0
 40 58  1  0  0  0
 41109  1  0  0  0
 41110  1  0  0  0
 41111  1  0  0  0
 41 48  1  0  0  0
 42 43  1  0  0  0
 42 66  1  0  0  0
 42112  1  0  0  0
 42113  1  0  0  0
 43 44  1  0  0  0
 44114  1  0  0  0
 45 46  2  0  0  0
 45115  1  0  0  0
 46116  1  0  0  0
 47117  1  0  0  0
 47118  1  0  0  0
 48 56  1  0  0  0
 48 65  1  0  0  0
 48119  1  0  0  0
 49 50  1  0  0  0
 49 53  1  0  0  0
 49 64  1  0  0  0
 49120  1  0  0  0
 50 51  1  0  0  0
 50121  1  0  0  0
 50122  1  0  0  0
 51 52  1  0  0  0
 51123  1  0  0  0
 51124  1  0  0  0
 52125  1  0  0  0
 52126  1  0  0  0
 53 54  1  0  0  0
 54 55  2  0  0  0
 54127  1  0  0  0
 55 57  1  0  0  0
 55128  1  0  0  0
 56 69  2  0  0  0
 57 58  2  0  0  0
 57129  1  0  0  0
 58130  1  0  0  0
 59 60  1  0  0  0
 59 61  1  0  0  0
 59 62  1  0  0  0
 60131  1  0  0  0
 60132  1  0  0  0
 60133  1  0  0  0
 61134  1  0  0  0
 61135  1  0  0  0
 61136  1  0  0  0
 62137  1  0  0  0
 62138  1  0  0  0
 62139  1  0  0  0
 63 65  1  0  0  0
 63140  1  0  0  0
 63141  1  0  0  0
 63142  1  0  0  0
 64143  1  0  0  0
 65144  1  0  0  0
 68 79  1  0  0  0
 71 72  1  0  0  0
 71 74  2  0  0  0
 71145  1  0  0  0
 72 73  2  0  0  0
 72 81  1  0  0  0
 73 78  1  0  0  0
 73 85  1  0  0  0
 74 82  1  0  0  0
 74 85  1  0  0  0
 75 80  1  0  0  0
 75 82  1  0  0  0
 75 84  2  0  0  0
 76146  1  0  0  0
 76147  1  0  0  0
 76148  1  0  0  0
 76 80  1  0  0  0
 77 80  1  0  0  0
 77149  1  0  0  0
 77150  1  0  0  0
 77151  1  0  0  0
 78 83  1  0  0  0
 78152  1  0  0  0
 78153  1  0  0  0
 79 80  1  0  0  0
 79154  1  0  0  0
 79155  1  0  0  0
 81156  1  0  0  0
 81157  1  0  0  0
 82158  1  0  0  0
 83159  1  0  0  0
M  ISO  4   1 100  68 101  79 101  83 100
M  END
> <chiral flag>
0

> <version>
0

> <s_m_source_file>
/data/baiqing/PycharmProjects/Reinvent-master-3.2/result/LINK_invent/BTK/process_docking_weight1_custom_product_contain_oxygen_bond_distance_aromatic_linkinvent_7_9_3/rearranged_h_0150.sdf

> <i_m_source_file_index>
45

> <r_mmod_Potential_Energy-OPLS-2005>
-38.7414131164551

> <r_mmod_Stretch_Energy-OPLS-2005>
42.8586082458496

> <r_mmod_Bend_Energy-OPLS-2005>
122.081115722656

> <r_mmod_Torsional_Energy-OPLS-2005>
269.547760009766

> <r_mmod_Improper_Torsional_Energy-OPLS-2005>
8.52483654022217

> <r_mmod_Van_der_Waal_Energy-OPLS-2005>
147.3837890625

> <r_mmod_Electrostatic_Energy-OPLS-2005>
-427.873413085938

> <r_mmod_Solvation_Energy-OPLS-2005>
-227.299453735352

> <b_mmod_Minimization_Converged-OPLS-2005>
0

> <r_mmod_RMS_Derivative-OPLS-2005>
3.31549882888794

$$$$
45
                    3D
 Structure written by MMmdl.
155164  0  0  1  0            999 V2000
  -30.5914  -14.7381   20.4690 C   0  0  0  0  0  0
  -30.4400  -12.4484   19.4764 C   0  0  0  0  0  0
  -29.5149  -12.5137   18.2396 C   0  0  0  0  0  0
  -28.0395  -12.3376   18.6494 C   0  0  0  0  0  0
  -27.6476  -13.2274   19.8590 C   0  0  2  0  0  0
  -28.6906  -13.1341   20.9952 C   0  0  0  0  0  0
  -25.2535  -13.8191   20.5695 C   0  0  0  0  0  0
  -24.1815  -13.0441   20.9199 C   0  0  0  0  0  0
  -24.6398  -11.6916   20.8741 C   0  0  0  0  0  0
  -23.9072  -10.4294   21.0404 C   0  0  0  0  0  0
  -24.3621   -9.4209   21.9183 C   0  0  0  0  0  0
  -23.6294   -8.2245   22.0754 C   0  0  0  0  0  0
  -22.4276   -8.0283   21.3544 C   0  0  0  0  0  0
  -21.9913   -9.0257   20.4646 C   0  0  0  0  0  0
  -22.7243  -10.2135   20.3054 C   0  0  0  0  0  0
  -21.6854   -6.0736   22.5279 C   0  0  0  0  0  0
  -21.4015   -6.5640   23.8212 C   0  0  0  0  0  0
  -21.3660   -5.6792   24.9174 C   0  0  0  0  0  0
  -21.6044   -4.3055   24.7225 C   0  0  0  0  0  0
  -21.8819   -3.8147   23.4346 C   0  0  0  0  0  0
  -21.9193   -4.6964   22.3402 C   0  0  0  0  0  0
  -22.7836  -13.5225   21.1859 C   0  0  0  0  0  0
  -22.1661   -4.2149   21.0980 F   0  0  0  0  0  0
  -21.5628   -3.4539   25.7737 F   0  0  0  0  0  0
  -29.9972  -13.4955   20.4266 N   0  0  0  0  0  0
  -26.2964  -12.9388   20.3304 N   0  0  0  0  0  0
  -25.9330  -11.6534   20.5755 N   0  0  0  0  0  0
  -22.0481  -12.8216   22.0415 N   0  0  0  0  0  0
  -25.4238  -15.1915   20.4119 N   0  0  0  0  0  0
  -31.7603  -14.8749   20.0928 O   0  0  0  0  0  0
  -21.6640   -6.8880   21.4241 O   0  0  0  0  0  0
  -22.3520  -14.5531   20.6708 O   0  0  0  0  0  0
  -24.6318  -31.8546   23.1985 C   0  0  0  0  0  0
  -25.9143  -32.4748   23.8329 C   0  0  1  0  0  0
  -27.2193  -27.2512   20.1210 C   0  0  0  0  0  0
  -25.5937  -33.8551   24.2250 N   0  0  0  0  0  0
  -23.4284  -30.4781   21.5422 C   0  0  2  0  0  0
  -24.8743  -28.9257   20.1086 C   0  0  0  0  0  0
  -22.7504  -29.4600   22.4909 C   0  0  0  0  0  0
  -18.0292  -28.1388   22.8485 C   0  0  0  0  0  0
  -24.1490  -36.7279   23.2640 C   0  0  0  0  0  0
  -25.9757  -30.7620   21.3823 C   0  0  0  0  0  0
  -26.0452  -29.3844   20.7230 C   0  0  0  0  0  0
  -27.2151  -28.5577   20.7226 C   0  0  0  0  0  0
  -26.0245  -26.8714   19.4649 C   0  0  0  0  0  0
  -24.8702  -27.6778   19.4705 C   0  0  0  0  0  0
  -23.6463  -29.8139   20.1575 C   0  0  0  0  0  0
  -25.4118  -36.3065   24.0324 C   0  0  1  0  0  0
  -20.5897  -28.3699   23.1267 C   0  0  2  0  0  0
  -20.6780  -26.9416   22.5408 C   0  0  0  0  0  0
  -19.5754  -26.6384   21.5212 C   0  0  0  0  0  0
  -18.1935  -26.7930   22.1624 C   0  0  0  0  0  0
  -19.1546  -28.8861   23.2871 C   0  0  0  0  0  0
  -18.9467  -30.1461   23.8890 C   0  0  0  0  0  0
  -17.6466  -30.6589   24.0563 C   0  0  0  0  0  0
  -25.9060  -34.9436   23.5090 C   0  0  0  0  0  0
  -16.5357  -29.9086   23.6332 C   0  0  0  0  0  0
  -16.7278  -28.6503   23.0354 C   0  0  0  0  0  0
  -26.4506  -31.6580   25.0726 C   0  0  0  0  0  0
  -25.3721  -31.3738   26.1441 C   0  0  0  0  0  0
  -27.0359  -30.2992   24.6233 C   0  0  0  0  0  0
  -27.6053  -32.4329   25.7502 C   0  0  0  0  0  0
  -27.5579  -37.1797   24.8466 C   0  0  0  0  0  0
  -21.4210  -29.3045   22.3654 N   0  0  0  0  0  0
  -26.4291  -37.3766   23.9407 N   0  0  0  0  0  0
  -24.6977  -31.0502   22.0968 N   0  0  0  0  0  0
  -23.4201  -28.8140   23.3011 O   0  0  0  0  0  0
  -28.3309  -26.3739   20.2091 O   0  0  0  0  0  0
  -26.5634  -34.8914   22.4661 O   0  0  0  0  0  0
  -23.5467  -32.1379   23.7274 O   0  0  0  0  0  0
  -30.5217  -19.3631   19.6791 C   0  0  0  0  0  0
  -30.7474  -17.9261   19.7413 C   0  0  0  0  0  0
  -29.4968  -19.8689   20.4600 C   0  0  0  0  0  0
  -29.8966  -17.2067   20.5586 C   0  0  0  0  0  0
  -29.3884  -22.3635   19.9705 C   0  0  0  0  0  0
  -27.8498  -23.0865   21.6039 C   0  0  0  0  0  0
  -28.2023  -21.5815   21.7654 C   0  0  0  0  0  0
  -28.8978  -23.7123   20.6620 C   0  0  1  0  0  0
  -30.0928  -24.2666   21.4641 C   0  0  0  0  0  0
  -28.3176  -24.9318   19.7499 C   0  0  0  0  0  0
  -29.0673  -21.2038   20.6474 N   0  0  0  0  0  0
  -29.7927  -15.8230   20.8016 N   0  0  0  0  0  0
  -30.0286  -22.3902   18.9161 O   0  0  0  0  0  0
  -28.7970  -18.4294   21.2752 S   0  0  0  0  0  0
  -31.4805  -12.5796   19.1748 H   0  0  0  0  0  0
  -30.3887  -11.4646   19.9455 H   0  0  0  0  0  0
  -29.7964  -11.7470   17.5164 H   0  0  0  0  0  0
  -29.6434  -13.4725   17.7346 H   0  0  0  0  0  0
  -27.8922  -11.2870   18.9024 H   0  0  0  0  0  0
  -27.3839  -12.5403   17.8017 H   0  0  0  0  0  0
  -27.6503  -14.2542   19.4924 H   0  0  0  0  0  0
  -28.7221  -12.1251   21.4091 H   0  0  0  0  0  0
  -28.4215  -13.7904   21.8241 H   0  0  0  0  0  0
  -25.2766   -9.5685   22.4757 H   0  0  0  0  0  0
  -24.0003   -7.4636   22.7474 H   0  0  0  0  0  0
  -21.0844   -8.8776   19.8952 H   0  0  0  0  0  0
  -22.3702  -10.9673   19.6163 H   0  0  0  0  0  0
  -21.2008   -7.6148   23.9716 H   0  0  0  0  0  0
  -21.1482   -6.0523   25.9077 H   0  0  0  0  0  0
  -22.0598   -2.7609   23.2846 H   0  0  0  0  0  0
  -22.4098  -11.9876   22.4801 H   0  0  0  0  0  0
  -21.1098  -13.1240   22.2620 H   0  0  0  0  0  0
  -24.6548  -15.8442   20.5194 H   0  0  0  0  0  0
  -26.2694  -15.6312   20.0713 H   0  0  0  0  0  0
  -26.7206  -32.5390   23.1065 H   0  0  0  0  0  0
  -25.0076  -33.9687   25.0390 H   0  0  0  0  0  0
  -22.7254  -31.3010   21.3971 H   0  0  0  0  0  0
  -23.3753  -35.9611   23.3301 H   0  0  0  0  0  0
  -24.3578  -36.8905   22.2055 H   0  0  0  0  0  0
  -23.7244  -37.6480   23.6667 H   0  0  0  0  0  0
  -26.1196  -31.5226   20.6136 H   0  0  0  0  0  0
  -26.8518  -30.8078   22.0177 H   0  0  0  0  0  0
  -28.1088  -28.9024   21.2237 H   0  0  0  0  0  0
  -25.9273  -25.9364   18.9404 H   0  0  0  0  0  0
  -23.9755  -27.3250   18.9758 H   0  0  0  0  0  0
  -23.7720  -30.5911   19.4027 H   0  0  0  0  0  0
  -22.7640  -29.2490   19.8514 H   0  0  0  0  0  0
  -25.1302  -36.1909   25.0817 H   0  0  0  0  0  0
  -20.9992  -28.3277   24.1387 H   0  0  0  0  0  0
  -20.5680  -26.2310   23.3613 H   0  0  0  0  0  0
  -21.6648  -26.7438   22.1202 H   0  0  0  0  0  0
  -19.6915  -25.6293   21.1244 H   0  0  0  0  0  0
  -19.6689  -27.3193   20.6741 H   0  0  0  0  0  0
  -17.4205  -26.6678   21.4026 H   0  0  0  0  0  0
  -18.0334  -26.0074   22.9022 H   0  0  0  0  0  0
  -19.7944  -30.7280   24.2255 H   0  0  0  0  0  0
  -17.5020  -31.6267   24.5167 H   0  0  0  0  0  0
  -15.5358  -30.2986   23.7661 H   0  0  0  0  0  0
  -15.8678  -28.0819   22.7073 H   0  0  0  0  0  0
  -24.5904  -30.7077   25.7772 H   0  0  0  0  0  0
  -24.8902  -32.2910   26.4838 H   0  0  0  0  0  0
  -25.8032  -30.8938   27.0235 H   0  0  0  0  0  0
  -26.2953  -29.6732   24.1241 H   0  0  0  0  0  0
  -27.4014  -29.7263   25.4765 H   0  0  0  0  0  0
  -27.8841  -30.4258   23.9501 H   0  0  0  0  0  0
  -27.2654  -33.3636   26.2056 H   0  0  0  0  0  0
  -28.3876  -32.6877   25.0340 H   0  0  0  0  0  0
  -28.0707  -31.8470   26.5438 H   0  0  0  0  0  0
  -28.2596  -38.0095   24.7509 H   0  0  0  0  0  0
  -28.1075  -36.2625   24.6296 H   0  0  0  0  0  0
  -27.2295  -37.1451   25.8869 H   0  0  0  0  0  0
  -20.9397  -29.8767   21.6857 H   0  0  0  0  0  0
  -26.0166  -38.2839   24.1405 H   0  0  0  0  0  0
  -31.1518  -19.9809   19.0552 H   0  0  0  0  0  0
  -31.5350  -17.4743   19.1544 H   0  0  0  0  0  0
  -27.7993  -23.5931   22.5685 H   0  0  0  0  0  0
  -26.8565  -23.1690   21.1603 H   0  0  0  0  0  0
  -27.2995  -20.9698   21.7952 H   0  0  0  0  0  0
  -28.7442  -21.4168   22.6981 H   0  0  0  0  0  0
  -30.5767  -23.4973   22.0677 H   0  0  0  0  0  0
  -29.7759  -25.0593   22.1423 H   0  0  0  0  0  0
  -30.8483  -24.6874   20.7997 H   0  0  0  0  0  0
  -27.3332  -24.6079   19.4327 H   0  0  0  0  0  0
  -28.8959  -24.9409   18.8257 H   0  0  0  0  0  0
  -28.9150  -15.5413   21.2124 H   0  0  0  0  0  0
  1 25  1  0  0  0
  1 30  2  0  0  0
  1 82  1  0  0  0
  2  3  1  0  0  0
  2 25  1  0  0  0
  2 85  1  0  0  0
  2 86  1  0  0  0
  3  4  1  0  0  0
  3 87  1  0  0  0
  3 88  1  0  0  0
  4  5  1  0  0  0
  4 89  1  0  0  0
  4 90  1  0  0  0
  5  6  1  0  0  0
  5 26  1  0  0  0
  5 91  1  0  0  0
  6 25  1  0  0  0
  6 92  1  0  0  0
  6 93  1  0  0  0
  7  8  2  0  0  0
  7 26  1  0  0  0
  7 29  1  0  0  0
  8  9  1  0  0  0
  8 22  1  0  0  0
  9 10  1  0  0  0
  9 27  2  0  0  0
 10 11  2  0  0  0
 10 15  1  0  0  0
 11 12  1  0  0  0
 11 94  1  0  0  0
 12 13  2  0  0  0
 12 95  1  0  0  0
 13 14  1  0  0  0
 13 31  1  0  0  0
 14 15  2  0  0  0
 14 96  1  0  0  0
 15 97  1  0  0  0
 16 17  2  0  0  0
 16 21  1  0  0  0
 16 31  1  0  0  0
 17 18  1  0  0  0
 17 98  1  0  0  0
 18 19  2  0  0  0
 18 99  1  0  0  0
 19 20  1  0  0  0
 19 24  1  0  0  0
 20 21  2  0  0  0
 20100  1  0  0  0
 21 23  1  0  0  0
 22 28  1  0  0  0
 22 32  2  0  0  0
 26 27  1  0  0  0
 28101  1  0  0  0
 28102  1  0  0  0
 29103  1  0  0  0
 29104  1  0  0  0
 33 34  1  0  0  0
 33 66  1  0  0  0
 33 70  2  0  0  0
 34 36  1  0  0  0
 34 59  1  0  0  0
 34105  1  0  0  0
 35 44  2  0  0  0
 35 45  1  0  0  0
 35 68  1  0  0  0
 36 56  1  0  0  0
 36106  1  0  0  0
 37 39  1  0  0  0
 37 47  1  0  0  0
 37 66  1  0  0  0
 37107  1  0  0  0
 38 43  2  0  0  0
 38 46  1  0  0  0
 38 47  1  0  0  0
 39 64  1  0  0  0
 39 67  2  0  0  0
 40 52  1  0  0  0
 40 53  2  0  0  0
 40 58  1  0  0  0
 41108  1  0  0  0
 41109  1  0  0  0
 41110  1  0  0  0
 41 48  1  0  0  0
 42 43  1  0  0  0
 42 66  1  0  0  0
 42111  1  0  0  0
 42112  1  0  0  0
 43 44  1  0  0  0
 44113  1  0  0  0
 45 46  2  0  0  0
 45114  1  0  0  0
 46115  1  0  0  0
 47116  1  0  0  0
 47117  1  0  0  0
 48 56  1  0  0  0
 48 65  1  0  0  0
 48118  1  0  0  0
 49 50  1  0  0  0
 49 53  1  0  0  0
 49 64  1  0  0  0
 49119  1  0  0  0
 50 51  1  0  0  0
 50120  1  0  0  0
 50121  1  0  0  0
 51 52  1  0  0  0
 51122  1  0  0  0
 51123  1  0  0  0
 52124  1  0  0  0
 52125  1  0  0  0
 53 54  1  0  0  0
 54 55  2  0  0  0
 54126  1  0  0  0
 55 57  1  0  0  0
 55127  1  0  0  0
 56 69  2  0  0  0
 57 58  2  0  0  0
 57128  1  0  0  0
 58129  1  0  0  0
 59 60  1  0  0  0
 59 61  1  0  0  0
 59 62  1  0  0  0
 60130  1  0  0  0
 60131  1  0  0  0
 60132  1  0  0  0
 61133  1  0  0  0
 61134  1  0  0  0
 61135  1  0  0  0
 62136  1  0  0  0
 62137  1  0  0  0
 62138  1  0  0  0
 63 65  1  0  0  0
 63139  1  0  0  0
 63140  1  0  0  0
 63141  1  0  0  0
 64142  1  0  0  0
 65143  1  0  0  0
 68 80  1  0  0  0
 71 72  1  0  0  0
 71 73  2  0  0  0
 71144  1  0  0  0
 72 74  2  0  0  0
 72145  1  0  0  0
 73 81  1  0  0  0
 73 84  1  0  0  0
 74 82  1  0  0  0
 74 84  1  0  0  0
 75 78  1  0  0  0
 75 81  1  0  0  0
 75 83  2  0  0  0
 76 77  1  0  0  0
 76 78  1  0  0  0
 76146  1  0  0  0
 76147  1  0  0  0
 77 81  1  0  0  0
 77148  1  0  0  0
 77149  1  0  0  0
 78 79  1  0  0  0
 78 80  1  0  0  0
 79150  1  0  0  0
 79151  1  0  0  0
 79152  1  0  0  0
 80153  1  0  0  0
 80154  1  0  0  0
 82155  1  0  0  0
M  ISO  4   1 100  68 101  80 101  82 100
M  END
> <chiral flag>
0

> <version>
0

> <s_m_source_file>
/data/baiqing/PycharmProjects/Reinvent-master-3.2/result/LINK_invent/BTK/process_docking_weight1_custom_product_contain_oxygen_bond_distance_aromatic_linkinvent_7_9_3/rearranged_h_0150.sdf

> <i_m_source_file_index>
46

> <r_mmod_Potential_Energy-OPLS-2005>
221.551116943359

> <r_mmod_Stretch_Energy-OPLS-2005>
113.849098205566

> <r_mmod_Bend_Energy-OPLS-2005>
204.73274230957

> <r_mmod_Torsional_Energy-OPLS-2005>
263.261047363281

> <r_mmod_Improper_Torsional_Energy-OPLS-2005>
3.67237758636475

> <r_mmod_Van_der_Waal_Energy-OPLS-2005>
118.560516357422

> <r_mmod_Electrostatic_Energy-OPLS-2005>
-352.821105957031

> <r_mmod_Solvation_Energy-OPLS-2005>
-213.992706298828

> <b_mmod_Minimization_Converged-OPLS-2005>
0

> <r_mmod_RMS_Derivative-OPLS-2005>
0.165462702512741

$$$$
46
                    3D
 Structure written by MMmdl.
156165  0  0  1  0            999 V2000
  -30.5827  -14.7791   20.4638 C   0  0  0  0  0  0
  -30.4365  -12.4804   19.4728 C   0  0  0  0  0  0
  -29.5087  -12.5229   18.2365 C   0  0  0  0  0  0
  -28.0355  -12.3368   18.6479 C   0  0  0  0  0  0
  -27.6402  -13.2313   19.8525 C   0  0  2  0  0  0
  -28.6855  -13.1661   20.9880 C   0  0  0  0  0  0
  -25.2502  -13.8201   20.5692 C   0  0  0  0  0  0
  -24.1795  -13.0446   20.9200 C   0  0  0  0  0  0
  -24.6387  -11.6920   20.8748 C   0  0  0  0  0  0
  -23.9067  -10.4296   21.0402 C   0  0  0  0  0  0
  -24.3618   -9.4217   21.9184 C   0  0  0  0  0  0
  -23.6297   -8.2252   22.0761 C   0  0  0  0  0  0
  -22.4282   -8.0286   21.3545 C   0  0  0  0  0  0
  -21.9908   -9.0255   20.4647 C   0  0  0  0  0  0
  -22.7233  -10.2136   20.3058 C   0  0  0  0  0  0
  -21.6860   -6.0735   22.5278 C   0  0  0  0  0  0
  -21.4015   -6.5641   23.8208 C   0  0  0  0  0  0
  -21.3661   -5.6792   24.9169 C   0  0  0  0  0  0
  -21.6046   -4.3053   24.7224 C   0  0  0  0  0  0
  -21.8818   -3.8148   23.4342 C   0  0  0  0  0  0
  -21.9192   -4.6962   22.3395 C   0  0  0  0  0  0
  -22.7817  -13.5229   21.1854 C   0  0  0  0  0  0
  -22.1665   -4.2148   21.0971 F   0  0  0  0  0  0
  -21.5623   -3.4541   25.7741 F   0  0  0  0  0  0
  -29.9827  -13.5376   20.4082 N   0  0  0  0  0  0
  -26.2923  -12.9398   20.3288 N   0  0  0  0  0  0
  -25.9321  -11.6539   20.5759 N   0  0  0  0  0  0
  -22.0466  -12.8219   22.0405 N   0  0  0  0  0  0
  -25.4174  -15.1928   20.4092 N   0  0  0  0  0  0
  -31.7704  -14.8916   20.1407 O   0  0  0  0  0  0
  -21.6646   -6.8884   21.4242 O   0  0  0  0  0  0
  -22.3509  -14.5535   20.6703 O   0  0  0  0  0  0
  -24.6358  -31.8508   23.1959 C   0  0  0  0  0  0
  -25.9169  -32.4731   23.8313 C   0  0  1  0  0  0
  -27.2092  -27.2134   20.1368 C   0  0  0  0  0  0
  -25.5963  -33.8534   24.2236 N   0  0  0  0  0  0
  -23.4357  -30.4730   21.5389 C   0  0  2  0  0  0
  -24.8844  -28.9222   20.1031 C   0  0  0  0  0  0
  -22.7552  -29.4557   22.4887 C   0  0  0  0  0  0
  -18.0317  -28.1392   22.8469 C   0  0  0  0  0  0
  -24.1501  -36.7262   23.2633 C   0  0  0  0  0  0
  -25.9863  -30.7473   21.3874 C   0  0  0  0  0  0
  -26.0568  -29.3672   20.7276 C   0  0  0  0  0  0
  -27.2193  -28.5231   20.7384 C   0  0  0  0  0  0
  -26.0193  -26.8648   19.4557 C   0  0  0  0  0  0
  -24.8751  -27.6823   19.4513 C   0  0  0  0  0  0
  -23.6582  -29.8138   20.1528 C   0  0  0  0  0  0
  -25.4130  -36.3042   24.0324 C   0  0  1  0  0  0
  -20.5917  -28.3693   23.1266 C   0  0  2  0  0  0
  -20.6802  -26.9411   22.5405 C   0  0  0  0  0  0
  -19.5777  -26.6381   21.5207 C   0  0  0  0  0  0
  -18.1952  -26.7936   22.1603 C   0  0  0  0  0  0
  -19.1566  -28.8866   23.2857 C   0  0  0  0  0  0
  -18.9478  -30.1463   23.8883 C   0  0  0  0  0  0
  -17.6475  -30.6582   24.0557 C   0  0  0  0  0  0
  -25.9070  -34.9417   23.5076 C   0  0  0  0  0  0
  -16.5370  -29.9072   23.6331 C   0  0  0  0  0  0
  -16.7302  -28.6497   23.0344 C   0  0  0  0  0  0
  -26.4541  -31.6569   25.0711 C   0  0  0  0  0  0
  -25.3753  -31.3691   26.1417 C   0  0  0  0  0  0
  -27.0414  -30.2992   24.6210 C   0  0  0  0  0  0
  -27.6083  -32.4333   25.7487 C   0  0  0  0  0  0
  -27.5590  -37.1784   24.8471 C   0  0  0  0  0  0
  -21.4253  -29.3025   22.3651 N   0  0  0  0  0  0
  -26.4302  -37.3745   23.9417 N   0  0  0  0  0  0
  -24.7047  -31.0437   22.0957 N   0  0  0  0  0  0
  -23.4237  -28.8102   23.2997 O   0  0  0  0  0  0
  -28.2693  -26.2639   20.2319 O   0  0  0  0  0  0
  -26.5628  -34.8901   22.4638 O   0  0  0  0  0  0
  -23.5498  -32.1369   23.7212 O   0  0  0  0  0  0
  -31.1266  -17.9918   20.2764 C   0  0  0  0  0  0
  -31.0052  -19.4393   20.2407 C   0  0  0  0  0  0
  -29.7641  -20.0029   20.5240 C   0  0  0  0  0  0
  -29.9803  -17.2872   20.5845 C   0  0  0  0  0  0
  -32.2161  -20.2071   19.9460 C   0  0  0  0  0  0
  -29.8718  -22.6233   19.9665 C   0  0  0  0  0  0
  -28.0518  -22.0674   20.7557 C   0  0  0  0  0  0
  -28.7435  -23.4981   20.6372 C   0  0  0  0  0  0
  -27.9867  -24.7868   19.9792 C   0  0  0  0  0  0
  -29.3903  -21.4504   20.7335 N   0  0  0  0  0  0
  -33.3042  -20.0642   20.7106 N   0  0  0  0  0  0
  -29.7710  -15.8916   20.6951 N   0  0  0  0  0  0
  -32.2730  -21.0121   18.8816 N   0  3  0  0  0  0
  -28.7196  -18.5662   20.8428 S   0  0  0  0  0  0
  -31.4746  -12.6196   19.1671 H   0  0  0  0  0  0
  -30.3963  -11.5029   19.9553 H   0  0  0  0  0  0
  -29.7971  -11.7552   17.5173 H   0  0  0  0  0  0
  -29.6233  -13.4795   17.7249 H   0  0  0  0  0  0
  -27.8895  -11.2861   18.9004 H   0  0  0  0  0  0
  -27.3797  -12.5375   17.8007 H   0  0  0  0  0  0
  -27.6318  -14.2528   19.4732 H   0  0  0  0  0  0
  -28.7306  -12.1646   21.4176 H   0  0  0  0  0  0
  -28.4137  -13.8346   21.8064 H   0  0  0  0  0  0
  -25.2754   -9.5698   22.4761 H   0  0  0  0  0  0
  -24.0004   -7.4649   22.7487 H   0  0  0  0  0  0
  -21.0838   -8.8768   19.8958 H   0  0  0  0  0  0
  -22.3683  -10.9674   19.6176 H   0  0  0  0  0  0
  -21.2015   -7.6154   23.9711 H   0  0  0  0  0  0
  -21.1484   -6.0525   25.9071 H   0  0  0  0  0  0
  -22.0598   -2.7613   23.2843 H   0  0  0  0  0  0
  -22.4085  -11.9875   22.4772 H   0  0  0  0  0  0
  -21.1092  -13.1258   22.2644 H   0  0  0  0  0  0
  -24.6388  -15.8361   20.5008 H   0  0  0  0  0  0
  -26.2507  -15.6331   20.0411 H   0  0  0  0  0  0
  -26.7228  -32.5369   23.1039 H   0  0  0  0  0  0
  -25.0174  -33.9668   25.0425 H   0  0  0  0  0  0
  -22.7324  -31.2940   21.3900 H   0  0  0  0  0  0
  -23.3770  -35.9584   23.3284 H   0  0  0  0  0  0
  -24.3591  -36.8902   22.2049 H   0  0  0  0  0  0
  -23.7254  -37.6456   23.6686 H   0  0  0  0  0  0
  -26.1326  -31.5048   20.6158 H   0  0  0  0  0  0
  -26.8604  -30.7953   22.0248 H   0  0  0  0  0  0
  -28.1072  -28.8438   21.2643 H   0  0  0  0  0  0
  -25.9314  -25.9256   18.9320 H   0  0  0  0  0  0
  -23.9850  -27.3436   18.9378 H   0  0  0  0  0  0
  -23.7883  -30.5927   19.3997 H   0  0  0  0  0  0
  -22.7762  -29.2504   19.8424 H   0  0  0  0  0  0
  -25.1307  -36.1873   25.0814 H   0  0  0  0  0  0
  -20.9996  -28.3261   24.1394 H   0  0  0  0  0  0
  -20.5711  -26.2291   23.3609 H   0  0  0  0  0  0
  -21.6664  -26.7435   22.1197 H   0  0  0  0  0  0
  -19.6941  -25.6291   21.1246 H   0  0  0  0  0  0
  -19.6734  -27.3185   20.6737 H   0  0  0  0  0  0
  -17.4232  -26.6720   21.3987 H   0  0  0  0  0  0
  -18.0308  -26.0075   22.8985 H   0  0  0  0  0  0
  -19.7950  -30.7282   24.2255 H   0  0  0  0  0  0
  -17.5019  -31.6258   24.5156 H   0  0  0  0  0  0
  -15.5364  -30.2953   23.7672 H   0  0  0  0  0  0
  -15.8707  -28.0810   22.7056 H   0  0  0  0  0  0
  -24.6011  -30.6943   25.7748 H   0  0  0  0  0  0
  -24.8838  -32.2825   26.4768 H   0  0  0  0  0  0
  -25.8063  -30.8957   27.0243 H   0  0  0  0  0  0
  -26.3000  -29.6706   24.1257 H   0  0  0  0  0  0
  -27.4144  -29.7284   25.4726 H   0  0  0  0  0  0
  -27.8860  -30.4293   23.9436 H   0  0  0  0  0  0
  -27.2705  -33.3664   26.2013 H   0  0  0  0  0  0
  -28.3916  -32.6844   25.0317 H   0  0  0  0  0  0
  -28.0745  -31.8496   26.5443 H   0  0  0  0  0  0
  -28.2574  -38.0102   24.7518 H   0  0  0  0  0  0
  -28.1116  -36.2629   24.6298 H   0  0  0  0  0  0
  -27.2312  -37.1431   25.8872 H   0  0  0  0  0  0
  -20.9463  -29.8756   21.6852 H   0  0  0  0  0  0
  -26.0172  -38.2813   24.1422 H   0  0  0  0  0  0
  -32.0795  -17.5282   20.0704 H   0  0  0  0  0  0
  -30.8836  -22.9416   20.2207 H   0  0  0  0  0  0
  -29.7367  -22.5088   18.8888 H   0  0  0  0  0  0
  -27.4557  -21.7959   19.8818 H   0  0  0  0  0  0
  -27.4942  -21.9167   21.6810 H   0  0  0  0  0  0
  -29.0750  -23.7751   21.6399 H   0  0  0  0  0  0
  -26.9501  -24.6302   20.2762 H   0  0  0  0  0  0
  -27.9918  -24.6608   18.8964 H   0  0  0  0  0  0
  -33.2637  -19.4741   21.5278 H   0  0  0  0  0  0
  -34.1703  -20.5491   20.5406 H   0  0  0  0  0  0
  -28.8234  -15.6329   20.9278 H   0  0  0  0  0  0
  -31.4833  -21.0440   18.2558 H   0  0  0  0  0  0
  -33.0951  -21.5354   18.6277 H   0  0  0  0  0  0
  1 25  1  0  0  0
  1 30  2  0  0  0
  1 82  1  0  0  0
  2  3  1  0  0  0
  2 25  1  0  0  0
  2 85  1  0  0  0
  2 86  1  0  0  0
  3  4  1  0  0  0
  3 87  1  0  0  0
  3 88  1  0  0  0
  4  5  1  0  0  0
  4 89  1  0  0  0
  4 90  1  0  0  0
  5  6  1  0  0  0
  5 26  1  0  0  0
  5 91  1  0  0  0
  6 25  1  0  0  0
  6 92  1  0  0  0
  6 93  1  0  0  0
  7  8  2  0  0  0
  7 26  1  0  0  0
  7 29  1  0  0  0
  8  9  1  0  0  0
  8 22  1  0  0  0
  9 10  1  0  0  0
  9 27  2  0  0  0
 10 11  2  0  0  0
 10 15  1  0  0  0
 11 12  1  0  0  0
 11 94  1  0  0  0
 12 13  2  0  0  0
 12 95  1  0  0  0
 13 14  1  0  0  0
 13 31  1  0  0  0
 14 15  2  0  0  0
 14 96  1  0  0  0
 15 97  1  0  0  0
 16 17  2  0  0  0
 16 21  1  0  0  0
 16 31  1  0  0  0
 17 18  1  0  0  0
 17 98  1  0  0  0
 18 19  2  0  0  0
 18 99  1  0  0  0
 19 20  1  0  0  0
 19 24  1  0  0  0
 20 21  2  0  0  0
 20100  1  0  0  0
 21 23  1  0  0  0
 22 28  1  0  0  0
 22 32  2  0  0  0
 26 27  1  0  0  0
 28101  1  0  0  0
 28102  1  0  0  0
 29103  1  0  0  0
 29104  1  0  0  0
 33 34  1  0  0  0
 33 66  1  0  0  0
 33 70  2  0  0  0
 34 36  1  0  0  0
 34 59  1  0  0  0
 34105  1  0  0  0
 35 44  2  0  0  0
 35 45  1  0  0  0
 35 68  1  0  0  0
 36 56  1  0  0  0
 36106  1  0  0  0
 37 39  1  0  0  0
 37 47  1  0  0  0
 37 66  1  0  0  0
 37107  1  0  0  0
 38 43  2  0  0  0
 38 46  1  0  0  0
 38 47  1  0  0  0
 39 64  1  0  0  0
 39 67  2  0  0  0
 40 52  1  0  0  0
 40 53  2  0  0  0
 40 58  1  0  0  0
 41108  1  0  0  0
 41109  1  0  0  0
 41110  1  0  0  0
 41 48  1  0  0  0
 42 43  1  0  0  0
 42 66  1  0  0  0
 42111  1  0  0  0
 42112  1  0  0  0
 43 44  1  0  0  0
 44113  1  0  0  0
 45 46  2  0  0  0
 45114  1  0  0  0
 46115  1  0  0  0
 47116  1  0  0  0
 47117  1  0  0  0
 48 56  1  0  0  0
 48 65  1  0  0  0
 48118  1  0  0  0
 49 50  1  0  0  0
 49 53  1  0  0  0
 49 64  1  0  0  0
 49119  1  0  0  0
 50 51  1  0  0  0
 50120  1  0  0  0
 50121  1  0  0  0
 51 52  1  0  0  0
 51122  1  0  0  0
 51123  1  0  0  0
 52124  1  0  0  0
 52125  1  0  0  0
 53 54  1  0  0  0
 54 55  2  0  0  0
 54126  1  0  0  0
 55 57  1  0  0  0
 55127  1  0  0  0
 56 69  2  0  0  0
 57 58  2  0  0  0
 57128  1  0  0  0
 58129  1  0  0  0
 59 60  1  0  0  0
 59 61  1  0  0  0
 59 62  1  0  0  0
 60130  1  0  0  0
 60131  1  0  0  0
 60132  1  0  0  0
 61133  1  0  0  0
 61134  1  0  0  0
 61135  1  0  0  0
 62136  1  0  0  0
 62137  1  0  0  0
 62138  1  0  0  0
 63 65  1  0  0  0
 63139  1  0  0  0
 63140  1  0  0  0
 63141  1  0  0  0
 64142  1  0  0  0
 65143  1  0  0  0
 68 79  1  0  0  0
 71 72  1  0  0  0
 71 74  2  0  0  0
 71144  1  0  0  0
 72 73  2  0  0  0
 72 75  1  0  0  0
 73 80  1  0  0  0
 73 84  1  0  0  0
 74 82  1  0  0  0
 74 84  1  0  0  0
 75 81  1  0  0  0
 75 83  2  0  0  0
 76 78  1  0  0  0
 76 80  1  0  0  0
 76145  1  0  0  0
 76146  1  0  0  0
 77 78  1  0  0  0
 77 80  1  0  0  0
 77147  1  0  0  0
 77148  1  0  0  0
 78 79  1  0  0  0
 78149  1  0  0  0
 79150  1  0  0  0
 79151  1  0  0  0
 81152  1  0  0  0
 81153  1  0  0  0
 82154  1  0  0  0
 83155  1  0  0  0
 83156  1  0  0  0
M  CHG  1  83   1
M  ISO  4   1 100  68 101  79 101  82 100
M  END
> <chiral flag>
0

> <version>
0

> <s_m_source_file>
/data/baiqing/PycharmProjects/Reinvent-master-3.2/result/LINK_invent/BTK/process_docking_weight1_custom_product_contain_oxygen_bond_distance_aromatic_linkinvent_7_9_3/rearranged_h_0150.sdf

> <i_m_source_file_index>
47

> <r_mmod_Potential_Energy-OPLS-2005>
102.354164123535

> <r_mmod_Stretch_Energy-OPLS-2005>
135.827239990234

> <r_mmod_Bend_Energy-OPLS-2005>
248.8466796875

> <r_mmod_Torsional_Energy-OPLS-2005>
244.673980712891

> <r_mmod_Improper_Torsional_Energy-OPLS-2005>
11.1872301101685

> <r_mmod_Van_der_Waal_Energy-OPLS-2005>
121.505088806152

> <r_mmod_Electrostatic_Energy-OPLS-2005>
-274.28271484375

> <r_mmod_Solvation_Energy-OPLS-2005>
-497.574890136719

> <b_mmod_Minimization_Converged-OPLS-2005>
0

> <r_mmod_RMS_Derivative-OPLS-2005>
2.19365406036377

$$$$
47
                    3D
 Structure written by MMmdl.
166175  0  0  1  0            999 V2000
  -30.7436  -14.4929   20.5588 C   0  0  0  0  0  0
  -30.4080  -12.3156   19.4436 C   0  0  0  0  0  0
  -29.4928  -12.4996   18.2173 C   0  0  0  0  0  0
  -28.0159  -12.3612   18.6291 C   0  0  0  0  0  0
  -27.6575  -13.2197   19.8723 C   0  0  2  0  0  0
  -28.7008  -13.0529   21.0024 C   0  0  0  0  0  0
  -25.2563  -13.8192   20.5699 C   0  0  0  0  0  0
  -24.1828  -13.0450   20.9190 C   0  0  0  0  0  0
  -24.6400  -11.6922   20.8745 C   0  0  0  0  0  0
  -23.9071  -10.4299   21.0405 C   0  0  0  0  0  0
  -24.3620   -9.4212   21.9182 C   0  0  0  0  0  0
  -23.6295   -8.2247   22.0753 C   0  0  0  0  0  0
  -22.4277   -8.0285   21.3544 C   0  0  0  0  0  0
  -21.9914   -9.0259   20.4646 C   0  0  0  0  0  0
  -22.7243  -10.2138   20.3054 C   0  0  0  0  0  0
  -21.6854   -6.0738   22.5278 C   0  0  0  0  0  0
  -21.4015   -6.5641   23.8212 C   0  0  0  0  0  0
  -21.3659   -5.6793   24.9173 C   0  0  0  0  0  0
  -21.6044   -4.3055   24.7224 C   0  0  0  0  0  0
  -21.8819   -3.8148   23.4344 C   0  0  0  0  0  0
  -21.9193   -4.6965   22.3401 C   0  0  0  0  0  0
  -22.7847  -13.5236   21.1847 C   0  0  0  0  0  0
  -22.1661   -4.2151   21.0978 F   0  0  0  0  0  0
  -21.5628   -3.4539   25.7736 F   0  0  0  0  0  0
  -30.0311  -13.3350   20.4416 N   0  0  0  0  0  0
  -26.3010  -12.9388   20.3377 N   0  0  0  0  0  0
  -25.9335  -11.6535   20.5788 N   0  0  0  0  0  0
  -22.0490  -12.8225   22.0402 N   0  0  0  0  0  0
  -25.4274  -15.1912   20.4101 N   0  0  0  0  0  0
  -31.8615  -14.5980   20.0527 O   0  0  0  0  0  0
  -21.6641   -6.8882   21.4240 O   0  0  0  0  0  0
  -22.3532  -14.5543   20.6697 O   0  0  0  0  0  0
  -24.6181  -31.8672   23.2111 C   0  0  0  0  0  0
  -25.9064  -32.4819   23.8407 C   0  0  1  0  0  0
  -27.2177  -27.4037   20.1011 C   0  0  0  0  0  0
  -25.5913  -33.8619   24.2333 N   0  0  0  0  0  0
  -23.4077  -30.4943   21.5515 C   0  0  2  0  0  0
  -24.8548  -28.9714   20.1032 C   0  0  0  0  0  0
  -22.7437  -29.4656   22.4962 C   0  0  0  0  0  0
  -18.0279  -28.1379   22.8491 C   0  0  0  0  0  0
  -24.1488  -36.7311   23.2637 C   0  0  0  0  0  0
  -25.9425  -30.8235   21.3730 C   0  0  0  0  0  0
  -26.0189  -29.4605   20.7114 C   0  0  0  0  0  0
  -27.2067  -28.6839   20.7110 C   0  0  0  0  0  0
  -26.0476  -26.9677   19.4381 C   0  0  0  0  0  0
  -24.8669  -27.7263   19.4583 C   0  0  0  0  0  0
  -23.6173  -29.8379   20.1622 C   0  0  0  0  0  0
  -25.4109  -36.3109   24.0337 C   0  0  1  0  0  0
  -20.5875  -28.3673   23.1302 C   0  0  2  0  0  0
  -20.6771  -26.9404   22.5412 C   0  0  0  0  0  0
  -19.5748  -26.6384   21.5212 C   0  0  0  0  0  0
  -18.1926  -26.7925   22.1624 C   0  0  0  0  0  0
  -19.1531  -28.8841   23.2895 C   0  0  0  0  0  0
  -18.9457  -30.1446   23.8908 C   0  0  0  0  0  0
  -17.6458  -30.6585   24.0564 C   0  0  0  0  0  0
  -25.9038  -34.9474   23.5130 C   0  0  0  0  0  0
  -16.5349  -29.9086   23.6328 C   0  0  0  0  0  0
  -16.7268  -28.6502   23.0351 C   0  0  0  0  0  0
  -26.4480  -31.6598   25.0738 C   0  0  0  0  0  0
  -25.3739  -31.3709   26.1481 C   0  0  0  0  0  0
  -27.0312  -30.3034   24.6132 C   0  0  0  0  0  0
  -27.6054  -32.4319   25.7501 C   0  0  0  0  0  0
  -27.5581  -37.1812   24.8466 C   0  0  0  0  0  0
  -21.4159  -29.3039   22.3705 N   0  0  0  0  0  0
  -26.4295  -37.3793   23.9407 N   0  0  0  0  0  0
  -24.6743  -31.0755   22.1029 N   0  0  0  0  0  0
  -23.4200  -28.8183   23.3000 O   0  0  0  0  0  0
  -28.3003  -26.5417   20.2011 O   0  0  0  0  0  0
  -26.5596  -34.8923   22.4689 O   0  0  0  0  0  0
  -23.5364  -32.1435   23.7485 O   0  0  0  0  0  0
  -32.4297  -18.5839   21.2581 C   0  0  0  0  0  0
  -31.5120  -19.6263   21.4687 C   0  0  0  0  0  0
  -31.9870  -17.2529   21.1554 C   0  0  0  0  0  0
  -29.6901  -17.9954   21.4423 C   0  0  0  0  0  0
  -30.1346  -19.3470   21.5712 C   0  0  0  0  0  0
  -30.6062  -16.9245   21.2252 C   0  0  0  0  0  0
  -29.2138  -20.4368   21.9682 C   0  0  0  0  0  0
  -29.2945  -23.4023   19.6879 C   0  0  0  0  0  0
  -29.8448  -22.0308   20.1319 C   0  0  0  0  0  0
  -28.8929  -24.0836   20.9981 C   0  0  2  0  0  0
  -28.3147  -22.8616   21.8158 C   0  0  0  0  0  0
  -26.8338  -22.5706   21.4577 C   0  0  0  0  0  0
  -28.4273  -23.1464   23.3362 C   0  0  0  0  0  0
  -27.9184  -25.3075   20.8795 C   0  0  0  0  0  0
  -29.1549  -21.6870   21.3989 N   0  0  0  0  0  0
  -30.1245  -15.5601   21.1262 N   0  0  0  0  0  0
  -28.4123  -20.1578   22.9927 N   0  3  0  0  0  0
  -30.0216  -24.4983   21.5835 F   0  0  0  0  0  0
  -31.4557  -12.3767   19.1440 H   0  0  0  0  0  0
  -30.2847  -11.3170   19.8659 H   0  0  0  0  0  0
  -29.7368  -11.7634   17.4502 H   0  0  0  0  0  0
  -29.6632  -13.4795   17.7686 H   0  0  0  0  0  0
  -27.8315  -11.3073   18.8410 H   0  0  0  0  0  0
  -27.3652  -12.6196   17.7928 H   0  0  0  0  0  0
  -27.6877  -14.2606   19.5493 H   0  0  0  0  0  0
  -28.6773  -12.0357   21.3961 H   0  0  0  0  0  0
  -28.4640  -13.7020   21.8464 H   0  0  0  0  0  0
  -25.2766   -9.5687   22.4756 H   0  0  0  0  0  0
  -24.0004   -7.4639   22.7472 H   0  0  0  0  0  0
  -21.0846   -8.8778   19.8951 H   0  0  0  0  0  0
  -22.3702  -10.9676   19.6162 H   0  0  0  0  0  0
  -21.2007   -7.6149   23.9716 H   0  0  0  0  0  0
  -21.1481   -6.0522   25.9076 H   0  0  0  0  0  0
  -22.0599   -2.7611   23.2843 H   0  0  0  0  0  0
  -22.4104  -11.9882   22.4783 H   0  0  0  0  0  0
  -21.1106  -13.1247   22.2607 H   0  0  0  0  0  0
  -24.6589  -15.8454   20.5114 H   0  0  0  0  0  0
  -26.2763  -15.6278   20.0737 H   0  0  0  0  0  0
  -26.7134  -32.5523   23.1168 H   0  0  0  0  0  0
  -25.0076  -33.9782   25.0487 H   0  0  0  0  0  0
  -22.6975  -31.3127   21.4165 H   0  0  0  0  0  0
  -23.3748  -35.9647   23.3312 H   0  0  0  0  0  0
  -24.3582  -36.8912   22.2049 H   0  0  0  0  0  0
  -23.7243  -37.6521   23.6642 H   0  0  0  0  0  0
  -26.0646  -31.5929   20.6093 H   0  0  0  0  0  0
  -26.8268  -30.8697   21.9968 H   0  0  0  0  0  0
  -28.0940  -29.0422   21.2141 H   0  0  0  0  0  0
  -26.0275  -26.0215   18.9166 H   0  0  0  0  0  0
  -23.9787  -27.3521   18.9679 H   0  0  0  0  0  0
  -23.7251  -30.6189   19.4086 H   0  0  0  0  0  0
  -22.7405  -29.2608   19.8628 H   0  0  0  0  0  0
  -25.1286  -36.1977   25.0831 H   0  0  0  0  0  0
  -20.9970  -28.3240   24.1421 H   0  0  0  0  0  0
  -20.5677  -26.2280   23.3603 H   0  0  0  0  0  0
  -21.6640  -26.7446   22.1201 H   0  0  0  0  0  0
  -19.6909  -25.6299   21.1233 H   0  0  0  0  0  0
  -19.6686  -27.3202   20.6749 H   0  0  0  0  0  0
  -17.4196  -26.6676   21.4025 H   0  0  0  0  0  0
  -18.0327  -26.0063   22.9017 H   0  0  0  0  0  0
  -19.7933  -30.7259   24.2282 H   0  0  0  0  0  0
  -17.5014  -31.6267   24.5163 H   0  0  0  0  0  0
  -15.5350  -30.2993   23.7648 H   0  0  0  0  0  0
  -15.8666  -28.0826   22.7062 H   0  0  0  0  0  0
  -24.5914  -30.7055   25.7816 H   0  0  0  0  0  0
  -24.8928  -32.2866   26.4929 H   0  0  0  0  0  0
  -25.8087  -30.8877   27.0239 H   0  0  0  0  0  0
  -26.2865  -29.6800   24.1168 H   0  0  0  0  0  0
  -27.4054  -29.7267   25.4601 H   0  0  0  0  0  0
  -27.8717  -30.4346   23.9313 H   0  0  0  0  0  0
  -27.2673  -33.3610   26.2101 H   0  0  0  0  0  0
  -28.3853  -32.6892   25.0321 H   0  0  0  0  0  0
  -28.0734  -31.8429   26.5399 H   0  0  0  0  0  0
  -28.2607  -38.0101   24.7507 H   0  0  0  0  0  0
  -28.1069  -36.2633   24.6302 H   0  0  0  0  0  0
  -27.2297  -37.1474   25.8869 H   0  0  0  0  0  0
  -20.9316  -29.8779   21.6944 H   0  0  0  0  0  0
  -26.0186  -38.2874   24.1401 H   0  0  0  0  0  0
  -33.4878  -18.7993   21.2077 H   0  0  0  0  0  0
  -31.8822  -20.6320   21.6114 H   0  0  0  0  0  0
  -32.7532  -16.5029   21.0422 H   0  0  0  0  0  0
  -28.6342  -17.7814   21.5352 H   0  0  0  0  0  0
  -28.4389  -23.2702   19.0255 H   0  0  0  0  0  0
  -30.0393  -23.9855   19.1461 H   0  0  0  0  0  0
  -30.9177  -22.1130   20.3057 H   0  0  0  0  0  0
  -29.6875  -21.2745   19.3609 H   0  0  0  0  0  0
  -26.1690  -23.3446   21.8422 H   0  0  0  0  0  0
  -26.4800  -21.6333   21.8842 H   0  0  0  0  0  0
  -26.6758  -22.5026   20.3817 H   0  0  0  0  0  0
  -28.2627  -24.1989   23.5643 H   0  0  0  0  0  0
  -29.4175  -22.8973   23.7191 H   0  0  0  0  0  0
  -27.6937  -22.5916   23.9203 H   0  0  0  0  0  0
  -27.6118  -25.5949   21.8859 H   0  0  0  0  0  0
  -27.0254  -24.9053   20.4117 H   0  0  0  0  0  0
  -29.1794  -15.3903   21.4333 H   0  0  0  0  0  0
  -28.5011  -19.2660   23.4552 H   0  0  0  0  0  0
  -27.7918  -20.8460   23.3794 H   0  0  0  0  0  0
  1 25  1  0  0  0
  1 30  2  0  0  0
  1 86  1  0  0  0
  2  3  1  0  0  0
  2 25  1  0  0  0
  2 89  1  0  0  0
  2 90  1  0  0  0
  3  4  1  0  0  0
  3 91  1  0  0  0
  3 92  1  0  0  0
  4  5  1  0  0  0
  4 93  1  0  0  0
  4 94  1  0  0  0
  5  6  1  0  0  0
  5 26  1  0  0  0
  5 95  1  0  0  0
  6 25  1  0  0  0
  6 96  1  0  0  0
  6 97  1  0  0  0
  7  8  2  0  0  0
  7 26  1  0  0  0
  7 29  1  0  0  0
  8  9  1  0  0  0
  8 22  1  0  0  0
  9 10  1  0  0  0
  9 27  2  0  0  0
 10 11  2  0  0  0
 10 15  1  0  0  0
 11 12  1  0  0  0
 11 98  1  0  0  0
 12 13  2  0  0  0
 12 99  1  0  0  0
 13 14  1  0  0  0
 13 31  1  0  0  0
 14 15  2  0  0  0
 14100  1  0  0  0
 15101  1  0  0  0
 16 17  2  0  0  0
 16 21  1  0  0  0
 16 31  1  0  0  0
 17 18  1  0  0  0
 17102  1  0  0  0
 18 19  2  0  0  0
 18103  1  0  0  0
 19 20  1  0  0  0
 19 24  1  0  0  0
 20 21  2  0  0  0
 20104  1  0  0  0
 21 23  1  0  0  0
 22 28  1  0  0  0
 22 32  2  0  0  0
 26 27  1  0  0  0
 28105  1  0  0  0
 28106  1  0  0  0
 29107  1  0  0  0
 29108  1  0  0  0
 33 34  1  0  0  0
 33 66  1  0  0  0
 33 70  2  0  0  0
 34 36  1  0  0  0
 34 59  1  0  0  0
 34109  1  0  0  0
 35 44  2  0  0  0
 35 45  1  0  0  0
 35 68  1  0  0  0
 36 56  1  0  0  0
 36110  1  0  0  0
 37 39  1  0  0  0
 37 47  1  0  0  0
 37 66  1  0  0  0
 37111  1  0  0  0
 38 43  2  0  0  0
 38 46  1  0  0  0
 38 47  1  0  0  0
 39 64  1  0  0  0
 39 67  2  0  0  0
 40 52  1  0  0  0
 40 53  2  0  0  0
 40 58  1  0  0  0
 41112  1  0  0  0
 41113  1  0  0  0
 41114  1  0  0  0
 41 48  1  0  0  0
 42 43  1  0  0  0
 42 66  1  0  0  0
 42115  1  0  0  0
 42116  1  0  0  0
 43 44  1  0  0  0
 44117  1  0  0  0
 45 46  2  0  0  0
 45118  1  0  0  0
 46119  1  0  0  0
 47120  1  0  0  0
 47121  1  0  0  0
 48 56  1  0  0  0
 48 65  1  0  0  0
 48122  1  0  0  0
 49 50  1  0  0  0
 49 53  1  0  0  0
 49 64  1  0  0  0
 49123  1  0  0  0
 50 51  1  0  0  0
 50124  1  0  0  0
 50125  1  0  0  0
 51 52  1  0  0  0
 51126  1  0  0  0
 51127  1  0  0  0
 52128  1  0  0  0
 52129  1  0  0  0
 53 54  1  0  0  0
 54 55  2  0  0  0
 54130  1  0  0  0
 55 57  1  0  0  0
 55131  1  0  0  0
 56 69  2  0  0  0
 57 58  2  0  0  0
 57132  1  0  0  0
 58133  1  0  0  0
 59 60  1  0  0  0
 59 61  1  0  0  0
 59 62  1  0  0  0
 60134  1  0  0  0
 60135  1  0  0  0
 60136  1  0  0  0
 61137  1  0  0  0
 61138  1  0  0  0
 61139  1  0  0  0
 62140  1  0  0  0
 62141  1  0  0  0
 62142  1  0  0  0
 63 65  1  0  0  0
 63143  1  0  0  0
 63144  1  0  0  0
 63145  1  0  0  0
 64146  1  0  0  0
 65147  1  0  0  0
 68 84  1  0  0  0
 71 72  2  0  0  0
 71 73  1  0  0  0
 71148  1  0  0  0
 72 75  1  0  0  0
 72149  1  0  0  0
 73 76  2  0  0  0
 73150  1  0  0  0
 74 75  2  0  0  0
 74 76  1  0  0  0
 74151  1  0  0  0
 75 77  1  0  0  0
 76 86  1  0  0  0
 77 85  1  0  0  0
 77 87  2  0  0  0
 78 79  1  0  0  0
 78 80  1  0  0  0
 78152  1  0  0  0
 78153  1  0  0  0
 79 85  1  0  0  0
 79154  1  0  0  0
 79155  1  0  0  0
 80 81  1  0  0  0
 80 84  1  0  0  0
 80 88  1  0  0  0
 81 82  1  0  0  0
 81 83  1  0  0  0
 81 85  1  0  0  0
 82156  1  0  0  0
 82157  1  0  0  0
 82158  1  0  0  0
 83159  1  0  0  0
 83160  1  0  0  0
 83161  1  0  0  0
 84162  1  0  0  0
 84163  1  0  0  0
 86164  1  0  0  0
 87165  1  0  0  0
 87166  1  0  0  0
M  CHG  1  87   1
M  ISO  4   1 100  68 101  84 101  86 100
M  END
> <chiral flag>
0

> <version>
0

> <s_m_source_file>
/data/baiqing/PycharmProjects/Reinvent-master-3.2/result/LINK_invent/BTK/process_docking_weight1_custom_product_contain_oxygen_bond_distance_aromatic_linkinvent_7_9_3/rearranged_h_0150.sdf

> <i_m_source_file_index>
48

> <r_mmod_Potential_Energy-OPLS-2005>
-39.4395446777344

> <r_mmod_Stretch_Energy-OPLS-2005>
55.893310546875

> <r_mmod_Bend_Energy-OPLS-2005>
148.876602172852

> <r_mmod_Torsional_Energy-OPLS-2005>
325.119720458984

> <r_mmod_Improper_Torsional_Energy-OPLS-2005>
4.26995706558228

> <r_mmod_Van_der_Waal_Energy-OPLS-2005>
179.423568725586

> <r_mmod_Electrostatic_Energy-OPLS-2005>
-390.89404296875

> <r_mmod_Solvation_Energy-OPLS-2005>
-387.837585449219

> <b_mmod_Minimization_Converged-OPLS-2005>
0

> <r_mmod_RMS_Derivative-OPLS-2005>
0.158901378512383

$$$$
48
                    3D
 Structure written by MMmdl.
156165  0  0  1  0            999 V2000
  -30.5382  -14.7684   20.4834 C   0  0  0  0  0  0
  -30.4600  -12.4726   19.4626 C   0  0  0  0  0  0
  -29.5194  -12.5203   18.2345 C   0  0  0  0  0  0
  -28.0450  -12.3327   18.6489 C   0  0  0  0  0  0
  -27.6518  -13.2161   19.8611 C   0  0  2  0  0  0
  -28.6991  -13.0972   20.9913 C   0  0  0  0  0  0
  -25.2568  -13.8157   20.5696 C   0  0  0  0  0  0
  -24.1826  -13.0432   20.9188 C   0  0  0  0  0  0
  -24.6385  -11.6899   20.8728 C   0  0  0  0  0  0
  -23.9046  -10.4291   21.0404 C   0  0  0  0  0  0
  -24.3601   -9.4210   21.9185 C   0  0  0  0  0  0
  -23.6279   -8.2244   22.0758 C   0  0  0  0  0  0
  -22.4262   -8.0280   21.3546 C   0  0  0  0  0  0
  -21.9890   -9.0251   20.4650 C   0  0  0  0  0  0
  -22.7214  -10.2131   20.3057 C   0  0  0  0  0  0
  -21.6852   -6.0726   22.5273 C   0  0  0  0  0  0
  -21.4017   -6.5632   23.8204 C   0  0  0  0  0  0
  -21.3660   -5.6789   24.9168 C   0  0  0  0  0  0
  -21.6046   -4.3051   24.7220 C   0  0  0  0  0  0
  -21.8821   -3.8139   23.4343 C   0  0  0  0  0  0
  -21.9193   -4.6954   22.3397 C   0  0  0  0  0  0
  -22.7850  -13.5237   21.1848 C   0  0  0  0  0  0
  -22.1664   -4.2140   21.0974 F   0  0  0  0  0  0
  -21.5624   -3.4536   25.7735 F   0  0  0  0  0  0
  -30.0015  -13.4977   20.4275 N   0  0  0  0  0  0
  -26.2984  -12.9327   20.3307 N   0  0  0  0  0  0
  -25.9315  -11.6486   20.5743 N   0  0  0  0  0  0
  -22.0482  -12.8246   22.0406 N   0  0  0  0  0  0
  -25.4304  -15.1881   20.4137 N   0  0  0  0  0  0
  -31.6954  -14.9793   20.1026 O   0  0  0  0  0  0
  -21.6636   -6.8870   21.4236 O   0  0  0  0  0  0
  -22.3549  -14.5546   20.6692 O   0  0  0  0  0  0
  -24.6332  -31.8531   23.1972 C   0  0  0  0  0  0
  -25.9147  -32.4747   23.8325 C   0  0  1  0  0  0
  -27.2263  -27.2450   20.1358 C   0  0  0  0  0  0
  -25.5931  -33.8548   24.2244 N   0  0  0  0  0  0
  -23.4323  -30.4751   21.5400 C   0  0  2  0  0  0
  -24.8827  -28.9172   20.1135 C   0  0  0  0  0  0
  -22.7514  -29.4592   22.4897 C   0  0  0  0  0  0
  -18.0294  -28.1390   22.8480 C   0  0  0  0  0  0
  -24.1488  -36.7282   23.2638 C   0  0  0  0  0  0
  -25.9801  -30.7611   21.3809 C   0  0  0  0  0  0
  -26.0554  -29.3810   20.7246 C   0  0  0  0  0  0
  -27.2320  -28.5589   20.7218 C   0  0  0  0  0  0
  -26.0325  -26.8571   19.4897 C   0  0  0  0  0  0
  -24.8771  -27.6631   19.4847 C   0  0  0  0  0  0
  -23.6546  -29.8079   20.1572 C   0  0  0  0  0  0
  -25.4114  -36.3065   24.0324 C   0  0  1  0  0  0
  -20.5899  -28.3704   23.1258 C   0  0  2  0  0  0
  -20.6780  -26.9418   22.5403 C   0  0  0  0  0  0
  -19.5754  -26.6380   21.5209 C   0  0  0  0  0  0
  -18.1935  -26.7930   22.1624 C   0  0  0  0  0  0
  -19.1548  -28.8865   23.2865 C   0  0  0  0  0  0
  -18.9470  -30.1461   23.8891 C   0  0  0  0  0  0
  -17.6470  -30.6591   24.0561 C   0  0  0  0  0  0
  -25.9055  -34.9435   23.5088 C   0  0  0  0  0  0
  -16.5361  -29.9088   23.6330 C   0  0  0  0  0  0
  -16.7281  -28.6503   23.0355 C   0  0  0  0  0  0
  -26.4504  -31.6587   25.0731 C   0  0  0  0  0  0
  -25.3717  -31.3768   26.1452 C   0  0  0  0  0  0
  -27.0346  -30.2991   24.6250 C   0  0  0  0  0  0
  -27.6055  -32.4330   25.7504 C   0  0  0  0  0  0
  -27.5575  -37.1796   24.8465 C   0  0  0  0  0  0
  -21.4217  -29.3049   22.3643 N   0  0  0  0  0  0
  -26.4288  -37.3765   23.9406 N   0  0  0  0  0  0
  -24.7008  -31.0480   22.0958 N   0  0  0  0  0  0
  -23.4204  -28.8128   23.3001 O   0  0  0  0  0  0
  -28.3103  -26.3301   20.1530 O   0  0  0  0  0  0
  -26.5628  -34.8917   22.4658 O   0  0  0  0  0  0
  -23.5473  -32.1357   23.7255 O   0  0  0  0  0  0
  -29.9596  -18.3604   20.3611 C   0  0  0  0  0  0
  -28.1692  -19.2934   21.5204 C   0  0  0  0  0  0
  -29.2191  -19.6173   20.7066 C   0  0  0  0  0  0
  -29.4448  -17.1524   20.9024 C   0  0  0  0  0  0
  -29.7167  -23.7451   19.0727 C   0  0  0  0  0  0
  -28.9171  -23.6573   20.1520 C   0  0  0  0  0  0
  -30.5059  -22.5914   18.5906 C   0  0  0  0  0  0
  -30.6289  -21.3182   19.4580 C   0  0  0  0  0  0
  -28.8015  -22.2526   20.9109 C   0  0  2  0  0  0
  -29.3198  -22.4186   22.3509 C   0  0  0  0  0  0
  -28.0415  -24.9164   20.6244 C   0  0  0  0  0  0
  -29.4607  -21.0202   20.2923 N   0  0  0  0  0  0
  -29.6407  -15.7543   20.8635 N   0  0  0  0  0  0
  -31.0919  -22.6225   17.5060 O   0  0  0  0  0  0
  -28.0486  -17.5887   21.8606 S   0  0  0  0  0  0
  -31.4927  -12.6422   19.1531 H   0  0  0  0  0  0
  -30.4441  -11.4839   19.9237 H   0  0  0  0  0  0
  -29.8028  -11.7542   17.5113 H   0  0  0  0  0  0
  -29.6355  -13.4770   17.7236 H   0  0  0  0  0  0
  -27.9042  -11.2807   18.9007 H   0  0  0  0  0  0
  -27.3864  -12.5328   17.8030 H   0  0  0  0  0  0
  -27.6577  -14.2451   19.5009 H   0  0  0  0  0  0
  -28.7447  -12.0725   21.3644 H   0  0  0  0  0  0
  -28.4202  -13.7091   21.8504 H   0  0  0  0  0  0
  -25.2741   -9.5689   22.4761 H   0  0  0  0  0  0
  -23.9983   -7.4640   22.7482 H   0  0  0  0  0  0
  -21.0815   -8.8766   19.8963 H   0  0  0  0  0  0
  -22.3663  -10.9670   19.6173 H   0  0  0  0  0  0
  -21.2016   -7.6142   23.9702 H   0  0  0  0  0  0
  -21.1481   -6.0522   25.9070 H   0  0  0  0  0  0
  -22.0601   -2.7600   23.2845 H   0  0  0  0  0  0
  -22.4075  -11.9905   22.4805 H   0  0  0  0  0  0
  -21.1111  -13.1310   22.2613 H   0  0  0  0  0  0
  -24.6673  -15.8449   20.5341 H   0  0  0  0  0  0
  -26.2797  -15.6278   20.0836 H   0  0  0  0  0  0
  -26.7218  -32.5402   23.1071 H   0  0  0  0  0  0
  -25.0066  -33.9671   25.0383 H   0  0  0  0  0  0
  -22.7305  -31.2985   21.3916 H   0  0  0  0  0  0
  -23.3748  -35.9616   23.3299 H   0  0  0  0  0  0
  -24.3579  -36.8904   22.2053 H   0  0  0  0  0  0
  -23.7244  -37.6485   23.6664 H   0  0  0  0  0  0
  -26.1212  -31.5208   20.6109 H   0  0  0  0  0  0
  -26.8553  -30.8116   22.0169 H   0  0  0  0  0  0
  -28.1306  -28.9099   21.2097 H   0  0  0  0  0  0
  -25.9784  -25.9030   18.9859 H   0  0  0  0  0  0
  -23.9822  -27.3045   18.9945 H   0  0  0  0  0  0
  -23.7865  -30.5848   19.4030 H   0  0  0  0  0  0
  -22.7717  -29.2459   19.8471 H   0  0  0  0  0  0
  -25.1296  -36.1906   25.0816 H   0  0  0  0  0  0
  -20.9993  -28.3285   24.1380 H   0  0  0  0  0  0
  -20.5669  -26.2318   23.3611 H   0  0  0  0  0  0
  -21.6650  -26.7428   22.1206 H   0  0  0  0  0  0
  -19.6913  -25.6284   21.1253 H   0  0  0  0  0  0
  -19.6690  -27.3178   20.6728 H   0  0  0  0  0  0
  -17.4198  -26.6663   21.4036 H   0  0  0  0  0  0
  -18.0346  -26.0079   22.9029 H   0  0  0  0  0  0
  -19.7949  -30.7272   24.2265 H   0  0  0  0  0  0
  -17.5028  -31.6274   24.5154 H   0  0  0  0  0  0
  -15.5362  -30.2990   23.7655 H   0  0  0  0  0  0
  -15.8681  -28.0817   22.7083 H   0  0  0  0  0  0
  -24.5871  -30.7140   25.7785 H   0  0  0  0  0  0
  -24.8944  -32.2959   26.4863 H   0  0  0  0  0  0
  -25.8021  -30.8948   27.0240 H   0  0  0  0  0  0
  -26.2940  -29.6742   24.1251 H   0  0  0  0  0  0
  -27.3973  -29.7260   25.4792 H   0  0  0  0  0  0
  -27.8843  -30.4240   23.9535 H   0  0  0  0  0  0
  -27.2659  -33.3633   26.2070 H   0  0  0  0  0  0
  -28.3876  -32.6885   25.0343 H   0  0  0  0  0  0
  -28.0715  -31.8468   26.5434 H   0  0  0  0  0  0
  -28.2600  -38.0086   24.7503 H   0  0  0  0  0  0
  -28.1064  -36.2619   24.6301 H   0  0  0  0  0  0
  -27.2298  -37.1460   25.8870 H   0  0  0  0  0  0
  -20.9400  -29.8790   21.6865 H   0  0  0  0  0  0
  -26.0166  -38.2837   24.1411 H   0  0  0  0  0  0
  -30.8225  -18.3846   19.7118 H   0  0  0  0  0  0
  -27.4294  -19.9530   21.9525 H   0  0  0  0  0  0
  -29.7891  -24.6698   18.5211 H   0  0  0  0  0  0
  -31.5058  -21.4248   20.0971 H   0  0  0  0  0  0
  -30.8253  -20.4786   18.7911 H   0  0  0  0  0  0
  -27.7314  -22.0434   20.9555 H   0  0  0  0  0  0
  -30.3769  -22.6857   22.3628 H   0  0  0  0  0  0
  -29.2094  -21.5049   22.9341 H   0  0  0  0  0  0
  -28.7793  -23.1939   22.8925 H   0  0  0  0  0  0
  -28.1261  -24.9710   21.7082 H   0  0  0  0  0  0
  -27.0058  -24.6332   20.4441 H   0  0  0  0  0  0
  -28.8231  -15.2793   21.2154 H   0  0  0  0  0  0
  1 25  1  0  0  0
  1 30  2  0  0  0
  1 83  1  0  0  0
  2  3  1  0  0  0
  2 25  1  0  0  0
  2 86  1  0  0  0
  2 87  1  0  0  0
  3  4  1  0  0  0
  3 88  1  0  0  0
  3 89  1  0  0  0
  4  5  1  0  0  0
  4 90  1  0  0  0
  4 91  1  0  0  0
  5  6  1  0  0  0
  5 26  1  0  0  0
  5 92  1  0  0  0
  6 25  1  0  0  0
  6 93  1  0  0  0
  6 94  1  0  0  0
  7  8  2  0  0  0
  7 26  1  0  0  0
  7 29  1  0  0  0
  8  9  1  0  0  0
  8 22  1  0  0  0
  9 10  1  0  0  0
  9 27  2  0  0  0
 10 11  2  0  0  0
 10 15  1  0  0  0
 11 12  1  0  0  0
 11 95  1  0  0  0
 12 13  2  0  0  0
 12 96  1  0  0  0
 13 14  1  0  0  0
 13 31  1  0  0  0
 14 15  2  0  0  0
 14 97  1  0  0  0
 15 98  1  0  0  0
 16 17  2  0  0  0
 16 21  1  0  0  0
 16 31  1  0  0  0
 17 18  1  0  0  0
 17 99  1  0  0  0
 18 19  2  0  0  0
 18100  1  0  0  0
 19 20  1  0  0  0
 19 24  1  0  0  0
 20 21  2  0  0  0
 20101  1  0  0  0
 21 23  1  0  0  0
 22 28  1  0  0  0
 22 32  2  0  0  0
 26 27  1  0  0  0
 28102  1  0  0  0
 28103  1  0  0  0
 29104  1  0  0  0
 29105  1  0  0  0
 33 34  1  0  0  0
 33 66  1  0  0  0
 33 70  2  0  0  0
 34 36  1  0  0  0
 34 59  1  0  0  0
 34106  1  0  0  0
 35 44  2  0  0  0
 35 45  1  0  0  0
 35 68  1  0  0  0
 36 56  1  0  0  0
 36107  1  0  0  0
 37 39  1  0  0  0
 37 47  1  0  0  0
 37 66  1  0  0  0
 37108  1  0  0  0
 38 43  2  0  0  0
 38 46  1  0  0  0
 38 47  1  0  0  0
 39 64  1  0  0  0
 39 67  2  0  0  0
 40 52  1  0  0  0
 40 53  2  0  0  0
 40 58  1  0  0  0
 41109  1  0  0  0
 41110  1  0  0  0
 41111  1  0  0  0
 41 48  1  0  0  0
 42 43  1  0  0  0
 42 66  1  0  0  0
 42112  1  0  0  0
 42113  1  0  0  0
 43 44  1  0  0  0
 44114  1  0  0  0
 45 46  2  0  0  0
 45115  1  0  0  0
 46116  1  0  0  0
 47117  1  0  0  0
 47118  1  0  0  0
 48 56  1  0  0  0
 48 65  1  0  0  0
 48119  1  0  0  0
 49 50  1  0  0  0
 49 53  1  0  0  0
 49 64  1  0  0  0
 49120  1  0  0  0
 50 51  1  0  0  0
 50121  1  0  0  0
 50122  1  0  0  0
 51 52  1  0  0  0
 51123  1  0  0  0
 51124  1  0  0  0
 52125  1  0  0  0
 52126  1  0  0  0
 53 54  1  0  0  0
 54 55  2  0  0  0
 54127  1  0  0  0
 55 57  1  0  0  0
 55128  1  0  0  0
 56 69  2  0  0  0
 57 58  2  0  0  0
 57129  1  0  0  0
 58130  1  0  0  0
 59 60  1  0  0  0
 59 61  1  0  0  0
 59 62  1  0  0  0
 60131  1  0  0  0
 60132  1  0  0  0
 60133  1  0  0  0
 61134  1  0  0  0
 61135  1  0  0  0
 61136  1  0  0  0
 62137  1  0  0  0
 62138  1  0  0  0
 62139  1  0  0  0
 63 65  1  0  0  0
 63140  1  0  0  0
 63141  1  0  0  0
 63142  1  0  0  0
 64143  1  0  0  0
 65144  1  0  0  0
 68 81  1  0  0  0
 71 73  1  0  0  0
 71 74  2  0  0  0
 71145  1  0  0  0
 72 73  2  0  0  0
 72 85  1  0  0  0
 72146  1  0  0  0
 73 82  1  0  0  0
 74 83  1  0  0  0
 74 85  1  0  0  0
 75 76  2  0  0  0
 75 77  1  0  0  0
 75147  1  0  0  0
 76 79  1  0  0  0
 76 81  1  0  0  0
 77 78  1  0  0  0
 77 84  2  0  0  0
 78 82  1  0  0  0
 78148  1  0  0  0
 78149  1  0  0  0
 79 80  1  0  0  0
 79 82  1  0  0  0
 79150  1  0  0  0
 80151  1  0  0  0
 80152  1  0  0  0
 80153  1  0  0  0
 81154  1  0  0  0
 81155  1  0  0  0
 83156  1  0  0  0
M  ISO  4   1 100  68 101  81 101  83 100
M  END
> <chiral flag>
0

> <version>
0

> <s_m_source_file>
/data/baiqing/PycharmProjects/Reinvent-master-3.2/result/LINK_invent/BTK/process_docking_weight1_custom_product_contain_oxygen_bond_distance_aromatic_linkinvent_7_9_3/rearranged_h_0150.sdf

> <i_m_source_file_index>
49

> <r_mmod_Potential_Energy-OPLS-2005>
194.0849609375

> <r_mmod_Stretch_Energy-OPLS-2005>
135.993011474609

> <r_mmod_Bend_Energy-OPLS-2005>
224.910247802734

> <r_mmod_Torsional_Energy-OPLS-2005>
233.334945678711

> <r_mmod_Improper_Torsional_Energy-OPLS-2005>
3.8745129108429

> <r_mmod_Van_der_Waal_Energy-OPLS-2005>
121.082962036133

> <r_mmod_Electrostatic_Energy-OPLS-2005>
-386.79931640625

> <r_mmod_Solvation_Energy-OPLS-2005>
-235.301208496094

> <b_mmod_Minimization_Converged-OPLS-2005>
0

> <r_mmod_RMS_Derivative-OPLS-2005>
0.850142359733582

$$$$
49
                    3D
 Structure written by MMmdl.
158167  0  0  1  0            999 V2000
  -30.6766  -14.7223   20.5421 C   0  0  0  0  0  0
  -30.4256  -12.4598   19.4835 C   0  0  0  0  0  0
  -29.5107  -12.5252   18.2414 C   0  0  0  0  0  0
  -28.0354  -12.3452   18.6428 C   0  0  0  0  0  0
  -27.6428  -13.2322   19.8533 C   0  0  2  0  0  0
  -28.6813  -13.1338   20.9866 C   0  0  0  0  0  0
  -25.2518  -13.8210   20.5715 C   0  0  0  0  0  0
  -24.1799  -13.0447   20.9198 C   0  0  0  0  0  0
  -24.6395  -11.6924   20.8728 C   0  0  0  0  0  0
  -23.9071  -10.4300   21.0395 C   0  0  0  0  0  0
  -24.3631   -9.4212   21.9163 C   0  0  0  0  0  0
  -23.6306   -8.2247   22.0742 C   0  0  0  0  0  0
  -22.4285   -8.0283   21.3539 C   0  0  0  0  0  0
  -21.9919   -9.0263   20.4650 C   0  0  0  0  0  0
  -22.7247  -10.2138   20.3049 C   0  0  0  0  0  0
  -21.6854   -6.0731   22.5276 C   0  0  0  0  0  0
  -21.4021   -6.5637   23.8210 C   0  0  0  0  0  0
  -21.3663   -5.6795   24.9175 C   0  0  0  0  0  0
  -21.6045   -4.3057   24.7231 C   0  0  0  0  0  0
  -21.8820   -3.8141   23.4352 C   0  0  0  0  0  0
  -21.9200   -4.6957   22.3403 C   0  0  0  0  0  0
  -22.7821  -13.5221   21.1881 C   0  0  0  0  0  0
  -22.1658   -4.2140   21.0979 F   0  0  0  0  0  0
  -21.5635   -3.4536   25.7742 F   0  0  0  0  0  0
  -29.9885  -13.5214   20.4297 N   0  0  0  0  0  0
  -26.2933  -12.9411   20.3269 N   0  0  0  0  0  0
  -25.9324  -11.6551   20.5719 N   0  0  0  0  0  0
  -22.0488  -12.8208   22.0455 N   0  0  0  0  0  0
  -25.4248  -15.1938   20.4189 N   0  0  0  0  0  0
  -31.8211  -14.7743   20.0804 O   0  0  0  0  0  0
  -21.6648   -6.8878   21.4237 O   0  0  0  0  0  0
  -22.3491  -14.5518   20.6729 O   0  0  0  0  0  0
  -24.6343  -31.8576   23.2009 C   0  0  0  0  0  0
  -25.9164  -32.4762   23.8348 C   0  0  1  0  0  0
  -27.2040  -27.2525   20.1019 C   0  0  0  0  0  0
  -25.5962  -33.8563   24.2266 N   0  0  0  0  0  0
  -23.4289  -30.4853   21.5476 C   0  0  2  0  0  0
  -24.8706  -28.9401   20.1096 C   0  0  0  0  0  0
  -22.7508  -29.4621   22.4909 C   0  0  0  0  0  0
  -18.0292  -28.1388   22.8477 C   0  0  0  0  0  0
  -24.1493  -36.7288   23.2625 C   0  0  0  0  0  0
  -25.9801  -30.7625   21.3871 C   0  0  0  0  0  0
  -26.0481  -29.3882   20.7206 C   0  0  0  0  0  0
  -27.2199  -28.5578   20.7066 C   0  0  0  0  0  0
  -25.9938  -26.8863   19.4634 C   0  0  0  0  0  0
  -24.8490  -27.6965   19.4722 C   0  0  0  0  0  0
  -23.6463  -29.8314   20.1607 C   0  0  0  0  0  0
  -25.4113  -36.3073   24.0320 C   0  0  1  0  0  0
  -20.5898  -28.3712   23.1253 C   0  0  2  0  0  0
  -20.6777  -26.9424   22.5398 C   0  0  0  0  0  0
  -19.5751  -26.6378   21.5202 C   0  0  0  0  0  0
  -18.1938  -26.7925   22.1626 C   0  0  0  0  0  0
  -19.1550  -28.8867   23.2861 C   0  0  0  0  0  0
  -18.9467  -30.1459   23.8886 C   0  0  0  0  0  0
  -17.6470  -30.6590   24.0558 C   0  0  0  0  0  0
  -25.9071  -34.9443   23.5100 C   0  0  0  0  0  0
  -16.5357  -29.9087   23.6325 C   0  0  0  0  0  0
  -16.7281  -28.6503   23.0351 C   0  0  0  0  0  0
  -26.4506  -31.6583   25.0740 C   0  0  0  0  0  0
  -25.3728  -31.3754   26.1466 C   0  0  0  0  0  0
  -27.0340  -30.2984   24.6246 C   0  0  0  0  0  0
  -27.6057  -32.4324   25.7520 C   0  0  0  0  0  0
  -27.5593  -37.1781   24.8441 C   0  0  0  0  0  0
  -21.4217  -29.3063   22.3653 N   0  0  0  0  0  0
  -26.4280  -37.3783   23.9422 N   0  0  0  0  0  0
  -24.7005  -31.0521   22.1010 N   0  0  0  0  0  0
  -23.4203  -28.8149   23.3003 O   0  0  0  0  0  0
  -28.2759  -26.3202   20.1406 O   0  0  0  0  0  0
  -26.5632  -34.8920   22.4656 O   0  0  0  0  0  0
  -23.5488  -32.1410   23.7284 O   0  0  0  0  0  0
  -29.6686  -20.5844   18.9909 C   0  0  0  0  0  0
  -30.1109  -19.2025   19.0796 C   0  0  0  0  0  0
  -29.9868  -18.6227   20.3302 C   0  0  0  0  0  0
  -29.1399  -21.1438   20.1349 C   0  0  0  0  0  0
  -28.9817  -23.6918   20.0644 C   0  0  0  0  0  0
  -30.1340  -17.0657   23.1363 C   0  0  0  0  0  0
  -31.2654  -17.5448   22.2432 C   0  0  0  0  0  0
  -29.5076  -15.9035   22.3554 C   0  0  0  0  0  0
  -30.7069  -17.2985   20.8425 C   0  0  1  0  0  0
  -30.7217  -18.5043   17.9023 C   0  0  0  0  0  0
  -27.9062  -24.8682   19.9479 C   0  0  0  0  0  0
  -30.0587  -15.9070   20.9846 N   0  0  0  0  0  0
  -28.5387  -22.3998   20.2970 N   0  0  0  0  0  0
  -30.1815  -23.9483   19.9288 O   0  0  0  0  0  0
  -29.1465  -19.8370   21.3527 S   0  0  0  0  0  0
  -31.4685  -12.5632   19.1800 H   0  0  0  0  0  0
  -30.3632  -11.4782   19.9572 H   0  0  0  0  0  0
  -29.7994  -11.7617   17.5179 H   0  0  0  0  0  0
  -29.6409  -13.4868   17.7423 H   0  0  0  0  0  0
  -27.8868  -11.2934   18.8899 H   0  0  0  0  0  0
  -27.3833  -12.5533   17.7935 H   0  0  0  0  0  0
  -27.6480  -14.2616   19.4944 H   0  0  0  0  0  0
  -28.7238  -12.1175   21.3823 H   0  0  0  0  0  0
  -28.3573  -13.7429   21.8223 H   0  0  0  0  0  0
  -25.2778   -9.5681   22.4737 H   0  0  0  0  0  0
  -24.0019   -7.4631   22.7451 H   0  0  0  0  0  0
  -21.0846   -8.8788   19.8957 H   0  0  0  0  0  0
  -22.3702  -10.9682   19.6164 H   0  0  0  0  0  0
  -21.2010   -7.6143   23.9717 H   0  0  0  0  0  0
  -21.1486   -6.0517   25.9080 H   0  0  0  0  0  0
  -22.0600   -2.7602   23.2855 H   0  0  0  0  0  0
  -22.4135  -11.9880   22.4846 H   0  0  0  0  0  0
  -21.1104  -13.1221   22.2692 H   0  0  0  0  0  0
  -24.6689  -15.8555   20.5561 H   0  0  0  0  0  0
  -26.2908  -15.6357   20.1347 H   0  0  0  0  0  0
  -26.7226  -32.5398   23.1081 H   0  0  0  0  0  0
  -25.0111  -33.9702   25.0416 H   0  0  0  0  0  0
  -22.7253  -31.3086   21.4061 H   0  0  0  0  0  0
  -23.3762  -35.9615   23.3271 H   0  0  0  0  0  0
  -24.3589  -36.8926   22.2043 H   0  0  0  0  0  0
  -23.7237  -37.6479   23.6662 H   0  0  0  0  0  0
  -26.1265  -31.5252   20.6209 H   0  0  0  0  0  0
  -26.8551  -30.8019   22.0245 H   0  0  0  0  0  0
  -28.1214  -28.8942   21.1993 H   0  0  0  0  0  0
  -25.8713  -25.9477   18.9490 H   0  0  0  0  0  0
  -23.9494  -27.3507   18.9827 H   0  0  0  0  0  0
  -23.7796  -30.6144   19.4134 H   0  0  0  0  0  0
  -22.7607  -29.2763   19.8466 H   0  0  0  0  0  0
  -25.1280  -36.1910   25.0811 H   0  0  0  0  0  0
  -20.9979  -28.3296   24.1380 H   0  0  0  0  0  0
  -20.5666  -26.2325   23.3612 H   0  0  0  0  0  0
  -21.6650  -26.7445   22.1199 H   0  0  0  0  0  0
  -19.6920  -25.6282   21.1252 H   0  0  0  0  0  0
  -19.6682  -27.3173   20.6719 H   0  0  0  0  0  0
  -17.4192  -26.6640   21.4048 H   0  0  0  0  0  0
  -18.0374  -26.0073   22.9038 H   0  0  0  0  0  0
  -19.7945  -30.7271   24.2258 H   0  0  0  0  0  0
  -17.5023  -31.6272   24.5157 H   0  0  0  0  0  0
  -15.5360  -30.2987   23.7653 H   0  0  0  0  0  0
  -15.8678  -28.0818   22.7075 H   0  0  0  0  0  0
  -24.5872  -30.7138   25.7792 H   0  0  0  0  0  0
  -24.8971  -32.2948   26.4901 H   0  0  0  0  0  0
  -25.8045  -30.8913   27.0239 H   0  0  0  0  0  0
  -26.2940  -29.6746   24.1223 H   0  0  0  0  0  0
  -27.3935  -29.7224   25.4780 H   0  0  0  0  0  0
  -27.8857  -30.4210   23.9552 H   0  0  0  0  0  0
  -27.2622  -33.3551   26.2206 H   0  0  0  0  0  0
  -28.3818  -32.7018   25.0345 H   0  0  0  0  0  0
  -28.0797  -31.8409   26.5359 H   0  0  0  0  0  0
  -28.2547  -38.0147   24.7599 H   0  0  0  0  0  0
  -28.1169  -36.2689   24.6129 H   0  0  0  0  0  0
  -27.2341  -37.1247   25.8848 H   0  0  0  0  0  0
  -20.9401  -29.8808   21.6879 H   0  0  0  0  0  0
  -26.0157  -38.2840   24.1508 H   0  0  0  0  0  0
  -29.7470  -21.1209   18.0548 H   0  0  0  0  0  0
  -29.3964  -17.8544   23.2786 H   0  0  0  0  0  0
  -30.4831  -16.7800   24.1293 H   0  0  0  0  0  0
  -32.1427  -16.9159   22.4062 H   0  0  0  0  0  0
  -31.5723  -18.5754   22.4260 H   0  0  0  0  0  0
  -28.4195  -15.9912   22.3306 H   0  0  0  0  0  0
  -29.7590  -14.9853   22.8909 H   0  0  0  0  0  0
  -31.5783  -17.1902   20.1955 H   0  0  0  0  0  0
  -30.2666  -18.8316   16.9668 H   0  0  0  0  0  0
  -30.5883  -17.4245   17.9577 H   0  0  0  0  0  0
  -31.7902  -18.7070   17.8371 H   0  0  0  0  0  0
  -27.0752  -24.6196   20.6093 H   0  0  0  0  0  0
  -27.5523  -24.7487   18.9240 H   0  0  0  0  0  0
  -27.5615  -22.3550   20.5540 H   0  0  0  0  0  0
  1 25  1  0  0  0
  1 30  2  0  0  0
  1 82  1  0  0  0
  2  3  1  0  0  0
  2 25  1  0  0  0
  2 86  1  0  0  0
  2 87  1  0  0  0
  3  4  1  0  0  0
  3 88  1  0  0  0
  3 89  1  0  0  0
  4  5  1  0  0  0
  4 90  1  0  0  0
  4 91  1  0  0  0
  5  6  1  0  0  0
  5 26  1  0  0  0
  5 92  1  0  0  0
  6 25  1  0  0  0
  6 93  1  0  0  0
  6 94  1  0  0  0
  7  8  2  0  0  0
  7 26  1  0  0  0
  7 29  1  0  0  0
  8  9  1  0  0  0
  8 22  1  0  0  0
  9 10  1  0  0  0
  9 27  2  0  0  0
 10 11  2  0  0  0
 10 15  1  0  0  0
 11 12  1  0  0  0
 11 95  1  0  0  0
 12 13  2  0  0  0
 12 96  1  0  0  0
 13 14  1  0  0  0
 13 31  1  0  0  0
 14 15  2  0  0  0
 14 97  1  0  0  0
 15 98  1  0  0  0
 16 17  2  0  0  0
 16 21  1  0  0  0
 16 31  1  0  0  0
 17 18  1  0  0  0
 17 99  1  0  0  0
 18 19  2  0  0  0
 18100  1  0  0  0
 19 20  1  0  0  0
 19 24  1  0  0  0
 20 21  2  0  0  0
 20101  1  0  0  0
 21 23  1  0  0  0
 22 28  1  0  0  0
 22 32  2  0  0  0
 26 27  1  0  0  0
 28102  1  0  0  0
 28103  1  0  0  0
 29104  1  0  0  0
 29105  1  0  0  0
 33 34  1  0  0  0
 33 66  1  0  0  0
 33 70  2  0  0  0
 34 36  1  0  0  0
 34 59  1  0  0  0
 34106  1  0  0  0
 35 44  2  0  0  0
 35 45  1  0  0  0
 35 68  1  0  0  0
 36 56  1  0  0  0
 36107  1  0  0  0
 37 39  1  0  0  0
 37 47  1  0  0  0
 37 66  1  0  0  0
 37108  1  0  0  0
 38 43  2  0  0  0
 38 46  1  0  0  0
 38 47  1  0  0  0
 39 64  1  0  0  0
 39 67  2  0  0  0
 40 52  1  0  0  0
 40 53  2  0  0  0
 40 58  1  0  0  0
 41109  1  0  0  0
 41110  1  0  0  0
 41111  1  0  0  0
 41 48  1  0  0  0
 42 43  1  0  0  0
 42 66  1  0  0  0
 42112  1  0  0  0
 42113  1  0  0  0
 43 44  1  0  0  0
 44114  1  0  0  0
 45 46  2  0  0  0
 45115  1  0  0  0
 46116  1  0  0  0
 47117  1  0  0  0
 47118  1  0  0  0
 48 56  1  0  0  0
 48 65  1  0  0  0
 48119  1  0  0  0
 49 50  1  0  0  0
 49 53  1  0  0  0
 49 64  1  0  0  0
 49120  1  0  0  0
 50 51  1  0  0  0
 50121  1  0  0  0
 50122  1  0  0  0
 51 52  1  0  0  0
 51123  1  0  0  0
 51124  1  0  0  0
 52125  1  0  0  0
 52126  1  0  0  0
 53 54  1  0  0  0
 54 55  2  0  0  0
 54127  1  0  0  0
 55 57  1  0  0  0
 55128  1  0  0  0
 56 69  2  0  0  0
 57 58  2  0  0  0
 57129  1  0  0  0
 58130  1  0  0  0
 59 60  1  0  0  0
 59 61  1  0  0  0
 59 62  1  0  0  0
 60131  1  0  0  0
 60132  1  0  0  0
 60133  1  0  0  0
 61134  1  0  0  0
 61135  1  0  0  0
 61136  1  0  0  0
 62137  1  0  0  0
 62138  1  0  0  0
 62139  1  0  0  0
 63 65  1  0  0  0
 63140  1  0  0  0
 63141  1  0  0  0
 63142  1  0  0  0
 64143  1  0  0  0
 65144  1  0  0  0
 68 81  1  0  0  0
 71 72  1  0  0  0
 71 74  2  0  0  0
 71145  1  0  0  0
 72 73  2  0  0  0
 72 80  1  0  0  0
 73 85  1  0  0  0
 73 79  1  0  0  0
 74 83  1  0  0  0
 74 85  1  0  0  0
 75 81  1  0  0  0
 75 83  1  0  0  0
 75 84  2  0  0  0
 76 77  1  0  0  0
 76 78  1  0  0  0
 76146  1  0  0  0
 76147  1  0  0  0
 77 79  1  0  0  0
 77148  1  0  0  0
 77149  1  0  0  0
 78 82  1  0  0  0
 78150  1  0  0  0
 78151  1  0  0  0
 79 82  1  0  0  0
 79152  1  0  0  0
 80153  1  0  0  0
 80154  1  0  0  0
 80155  1  0  0  0
 81156  1  0  0  0
 81157  1  0  0  0
 83158  1  0  0  0
M  ISO  4   1 100  68 101  81 101  82 100
M  END
> <chiral flag>
0

> <version>
0

> <s_m_source_file>
/data/baiqing/PycharmProjects/Reinvent-master-3.2/result/LINK_invent/BTK/process_docking_weight1_custom_product_contain_oxygen_bond_distance_aromatic_linkinvent_7_9_3/rearranged_h_0150.sdf

> <i_m_source_file_index>
50

> <r_mmod_Potential_Energy-OPLS-2005>
405.983612060547

> <r_mmod_Stretch_Energy-OPLS-2005>
124.767936706543

> <r_mmod_Bend_Energy-OPLS-2005>
230.931335449219

> <r_mmod_Torsional_Energy-OPLS-2005>
338.854095458984

> <r_mmod_Improper_Torsional_Energy-OPLS-2005>
11.2131948471069

> <r_mmod_Van_der_Waal_Energy-OPLS-2005>
133.14762878418

> <r_mmod_Electrostatic_Energy-OPLS-2005>
-288.763244628906

> <r_mmod_Solvation_Energy-OPLS-2005>
-225.509918212891

> <b_mmod_Minimization_Converged-OPLS-2005>
0

> <r_mmod_RMS_Derivative-OPLS-2005>
2.29565024375916

$$$$
50
                    3D
 Structure written by MMmdl.
154163  0  0  1  0            999 V2000
  -30.5921  -14.7733   20.4315 C   0  0  0  0  0  0
  -30.4430  -12.4758   19.4420 C   0  0  0  0  0  0
  -29.4977  -12.4802   18.2198 C   0  0  0  0  0  0
  -28.0337  -12.2862   18.6632 C   0  0  0  0  0  0
  -27.6378  -13.2182   19.8381 C   0  0  2  0  0  0
  -28.6952  -13.1840   20.9632 C   0  0  0  0  0  0
  -25.2525  -13.8167   20.5695 C   0  0  0  0  0  0
  -24.1804  -13.0422   20.9256 C   0  0  0  0  0  0
  -24.6374  -11.6900   20.8787 C   0  0  0  0  0  0
  -23.9054  -10.4279   21.0436 C   0  0  0  0  0  0
  -24.3598   -9.4180   21.9193 C   0  0  0  0  0  0
  -23.6270   -8.2214   22.0758 C   0  0  0  0  0  0
  -22.4257   -8.0254   21.3541 C   0  0  0  0  0  0
  -21.9890   -9.0239   20.4647 C   0  0  0  0  0  0
  -22.7234  -10.2116   20.3073 C   0  0  0  0  0  0
  -21.6845   -6.0705   22.5273 C   0  0  0  0  0  0
  -21.4004   -6.5623   23.8203 C   0  0  0  0  0  0
  -21.3660   -5.6786   24.9172 C   0  0  0  0  0  0
  -21.6058   -4.3057   24.7236 C   0  0  0  0  0  0
  -21.8819   -3.8132   23.4365 C   0  0  0  0  0  0
  -21.9189   -4.6931   22.3408 C   0  0  0  0  0  0
  -22.7827  -13.5208   21.1887 C   0  0  0  0  0  0
  -22.1658   -4.2110   21.0988 F   0  0  0  0  0  0
  -21.5638   -3.4548   25.7757 F   0  0  0  0  0  0
  -29.9827  -13.5428   20.3541 N   0  0  0  0  0  0
  -26.2927  -12.9333   20.3286 N   0  0  0  0  0  0
  -25.9303  -11.6502   20.5800 N   0  0  0  0  0  0
  -22.0465  -12.8190   22.0432 N   0  0  0  0  0  0
  -25.4221  -15.1867   20.4026 N   0  0  0  0  0  0
  -31.8085  -14.8739   20.2483 O   0  0  0  0  0  0
  -21.6640   -6.8834   21.4224 O   0  0  0  0  0  0
  -22.3535  -14.5505   20.6724 O   0  0  0  0  0  0
  -24.6340  -31.8532   23.2041 C   0  0  0  0  0  0
  -25.9155  -32.4755   23.8377 C   0  0  1  0  0  0
  -27.2100  -27.2270   20.1024 C   0  0  0  0  0  0
  -25.5925  -33.8558   24.2280 N   0  0  0  0  0  0
  -23.4312  -30.4804   21.5463 C   0  0  2  0  0  0
  -24.8777  -28.9279   20.1183 C   0  0  0  0  0  0
  -22.7482  -29.4591   22.4867 C   0  0  0  0  0  0
  -18.0281  -28.1369   22.8470 C   0  0  0  0  0  0
  -24.1471  -36.7269   23.2632 C   0  0  0  0  0  0
  -25.9831  -30.7529   21.3901 C   0  0  0  0  0  0
  -26.0569  -29.3725   20.7289 C   0  0  0  0  0  0
  -27.2287  -28.5358   20.7134 C   0  0  0  0  0  0
  -25.9962  -26.8696   19.4631 C   0  0  0  0  0  0
  -24.8529  -27.6823   19.4846 C   0  0  0  0  0  0
  -23.6558  -29.8249   20.1619 C   0  0  0  0  0  0
  -25.4118  -36.3048   24.0283 C   0  0  1  0  0  0
  -20.5879  -28.3693   23.1227 C   0  0  2  0  0  0
  -20.6761  -26.9418   22.5377 C   0  0  0  0  0  0
  -19.5747  -26.6379   21.5168 C   0  0  0  0  0  0
  -18.1941  -26.7918   22.1596 C   0  0  0  0  0  0
  -19.1535  -28.8854   23.2849 C   0  0  0  0  0  0
  -18.9493  -30.1458   23.8881 C   0  0  0  0  0  0
  -17.6503  -30.6594   24.0542 C   0  0  0  0  0  0
  -25.9061  -34.9406   23.5083 C   0  0  0  0  0  0
  -16.5387  -29.9096   23.6296 C   0  0  0  0  0  0
  -16.7272  -28.6497   23.0344 C   0  0  0  0  0  0
  -26.4534  -31.6613   25.0768 C   0  0  0  0  0  0
  -25.3736  -31.3768   26.1466 C   0  0  0  0  0  0
  -27.0401  -30.3030   24.6301 C   0  0  0  0  0  0
  -27.6088  -32.4382   25.7533 C   0  0  0  0  0  0
  -27.5567  -37.1788   24.8456 C   0  0  0  0  0  0
  -21.4187  -29.3047   22.3605 N   0  0  0  0  0  0
  -26.4272  -37.3777   23.9415 N   0  0  0  0  0  0
  -24.7038  -31.0442   22.1044 N   0  0  0  0  0  0
  -23.4153  -28.8095   23.2970 O   0  0  0  0  0  0
  -28.2905  -26.2994   20.1193 O   0  0  0  0  0  0
  -26.5624  -34.8850   22.4651 O   0  0  0  0  0  0
  -23.5470  -32.1401   23.7271 O   0  0  0  0  0  0
  -29.6633  -18.5262   19.9539 C   0  0  0  0  0  0
  -30.0797  -17.6287   22.0796 C   0  0  0  0  0  0
  -29.8965  -17.3050   20.7599 C   0  0  0  0  0  0
  -29.7283  -19.7513   20.6547 C   0  0  0  0  0  0
  -30.2550  -23.5021   20.8376 C   0  0  0  0  0  0
  -30.7953  -22.0433   20.7249 C   0  0  0  0  0  0
  -28.5262  -22.0558   20.1694 C   0  0  0  0  0  0
  -29.0203  -23.5653   19.9349 C   0  0  1  0  0  0
  -27.9743  -24.8124   20.0921 C   0  0  0  0  0  0
  -29.7250  -21.1534   20.2331 N   0  0  0  0  0  0
  -29.7599  -15.8853   20.3422 N   0  0  0  0  0  0
  -29.4334  -23.5407   18.5792 O   0  0  0  0  0  0
  -29.9990  -19.3662   22.3535 S   0  0  0  0  0  0
  -31.4751  -12.6310   19.1249 H   0  0  0  0  0  0
  -30.4201  -11.5113   19.9478 H   0  0  0  0  0  0
  -29.7830  -11.6872   17.5249 H   0  0  0  0  0  0
  -29.5940  -13.4215   17.6741 H   0  0  0  0  0  0
  -27.9271  -11.2442   18.9711 H   0  0  0  0  0  0
  -27.3549  -12.4252   17.8212 H   0  0  0  0  0  0
  -27.6190  -14.2257   19.4250 H   0  0  0  0  0  0
  -28.7540  -12.1994   21.4290 H   0  0  0  0  0  0
  -28.4344  -13.8848   21.7589 H   0  0  0  0  0  0
  -25.2729   -9.5655   22.4781 H   0  0  0  0  0  0
  -23.9975   -7.4613   22.7482 H   0  0  0  0  0  0
  -21.0817   -8.8764   19.8956 H   0  0  0  0  0  0
  -22.3687  -10.9653   19.6194 H   0  0  0  0  0  0
  -21.1987   -7.6132   23.9677 H   0  0  0  0  0  0
  -21.1488   -6.0536   25.9067 H   0  0  0  0  0  0
  -22.0596   -2.7586   23.2895 H   0  0  0  0  0  0
  -22.4095  -11.9847   22.4799 H   0  0  0  0  0  0
  -21.1080  -13.1211   22.2634 H   0  0  0  0  0  0
  -24.6515  -15.8366   20.5098 H   0  0  0  0  0  0
  -26.2499  -15.6187   20.0139 H   0  0  0  0  0  0
  -26.7181  -32.5417   23.1076 H   0  0  0  0  0  0
  -24.9976  -33.9733   25.0351 H   0  0  0  0  0  0
  -22.7334  -31.3095   21.4059 H   0  0  0  0  0  0
  -23.3713  -35.9615   23.3272 H   0  0  0  0  0  0
  -24.3562  -36.8968   22.2068 H   0  0  0  0  0  0
  -23.7228  -37.6446   23.6715 H   0  0  0  0  0  0
  -26.1227  -31.5142   20.6220 H   0  0  0  0  0  0
  -26.8555  -30.8094   22.0276 H   0  0  0  0  0  0
  -28.1364  -28.8626   21.2049 H   0  0  0  0  0  0
  -25.8644  -25.9473   18.9242 H   0  0  0  0  0  0
  -23.9493  -27.3310   19.0071 H   0  0  0  0  0  0
  -23.8045  -30.6080   19.4164 H   0  0  0  0  0  0
  -22.7690  -29.2760   19.8357 H   0  0  0  0  0  0
  -25.1303  -36.1870   25.0774 H   0  0  0  0  0  0
  -21.0006  -28.3270   24.1317 H   0  0  0  0  0  0
  -20.5655  -26.2312   23.3583 H   0  0  0  0  0  0
  -21.6647  -26.7436   22.1233 H   0  0  0  0  0  0
  -19.6910  -25.6273   21.1245 H   0  0  0  0  0  0
  -19.6686  -27.3123   20.6644 H   0  0  0  0  0  0
  -17.4211  -26.6591   21.4008 H   0  0  0  0  0  0
  -18.0406  -26.0073   22.9012 H   0  0  0  0  0  0
  -19.7995  -30.7237   24.2277 H   0  0  0  0  0  0
  -17.5082  -31.6289   24.5134 H   0  0  0  0  0  0
  -15.5386  -30.3013   23.7689 H   0  0  0  0  0  0
  -15.8651  -28.0840   22.7070 H   0  0  0  0  0  0
  -24.5920  -30.7110   25.7791 H   0  0  0  0  0  0
  -24.8898  -32.2938   26.4865 H   0  0  0  0  0  0
  -25.8026  -30.8991   27.0286 H   0  0  0  0  0  0
  -26.3011  -29.6739   24.1336 H   0  0  0  0  0  0
  -27.4068  -29.7357   25.4870 H   0  0  0  0  0  0
  -27.8895  -30.4318   23.9574 H   0  0  0  0  0  0
  -27.2753  -33.3762   26.1987 H   0  0  0  0  0  0
  -28.3955  -32.6830   25.0372 H   0  0  0  0  0  0
  -28.0661  -31.8577   26.5563 H   0  0  0  0  0  0
  -28.2566  -38.0120   24.7569 H   0  0  0  0  0  0
  -28.1083  -36.2640   24.6201 H   0  0  0  0  0  0
  -27.2272  -37.1347   25.8859 H   0  0  0  0  0  0
  -20.9329  -29.8836   21.6905 H   0  0  0  0  0  0
  -26.0075  -38.2794   24.1547 H   0  0  0  0  0  0
  -29.4820  -18.4725   18.8881 H   0  0  0  0  0  0
  -30.2139  -16.9628   22.9258 H   0  0  0  0  0  0
  -31.0165  -24.2422   20.5891 H   0  0  0  0  0  0
  -29.9544  -23.6973   21.8675 H   0  0  0  0  0  0
  -31.2186  -21.7224   21.6782 H   0  0  0  0  0  0
  -31.6130  -22.0213   19.9999 H   0  0  0  0  0  0
  -27.8191  -21.7297   19.4003 H   0  0  0  0  0  0
  -28.0053  -21.9927   21.1273 H   0  0  0  0  0  0
  -27.3950  -24.6258   20.9969 H   0  0  0  0  0  0
  -27.2846  -24.6185   19.2777 H   0  0  0  0  0  0
  -28.8213  -15.6356   20.0735 H   0  0  0  0  0  0
  -29.7585  -22.6537   18.4408 H   0  0  0  0  0  0
  1 25  1  0  0  0
  1 30  2  0  0  0
  1 81  1  0  0  0
  2  3  1  0  0  0
  2 25  1  0  0  0
  2 84  1  0  0  0
  2 85  1  0  0  0
  3  4  1  0  0  0
  3 86  1  0  0  0
  3 87  1  0  0  0
  4  5  1  0  0  0
  4 88  1  0  0  0
  4 89  1  0  0  0
  5  6  1  0  0  0
  5 26  1  0  0  0
  5 90  1  0  0  0
  6 25  1  0  0  0
  6 91  1  0  0  0
  6 92  1  0  0  0
  7  8  2  0  0  0
  7 26  1  0  0  0
  7 29  1  0  0  0
  8  9  1  0  0  0
  8 22  1  0  0  0
  9 10  1  0  0  0
  9 27  2  0  0  0
 10 11  2  0  0  0
 10 15  1  0  0  0
 11 12  1  0  0  0
 11 93  1  0  0  0
 12 13  2  0  0  0
 12 94  1  0  0  0
 13 14  1  0  0  0
 13 31  1  0  0  0
 14 15  2  0  0  0
 14 95  1  0  0  0
 15 96  1  0  0  0
 16 17  2  0  0  0
 16 21  1  0  0  0
 16 31  1  0  0  0
 17 18  1  0  0  0
 17 97  1  0  0  0
 18 19  2  0  0  0
 18 98  1  0  0  0
 19 20  1  0  0  0
 19 24  1  0  0  0
 20 21  2  0  0  0
 20 99  1  0  0  0
 21 23  1  0  0  0
 22 28  1  0  0  0
 22 32  2  0  0  0
 26 27  1  0  0  0
 28100  1  0  0  0
 28101  1  0  0  0
 29102  1  0  0  0
 29103  1  0  0  0
 33 34  1  0  0  0
 33 66  1  0  0  0
 33 70  2  0  0  0
 34 36  1  0  0  0
 34 59  1  0  0  0
 34104  1  0  0  0
 35 44  2  0  0  0
 35 45  1  0  0  0
 35 68  1  0  0  0
 36 56  1  0  0  0
 36105  1  0  0  0
 37 39  1  0  0  0
 37 47  1  0  0  0
 37 66  1  0  0  0
 37106  1  0  0  0
 38 43  2  0  0  0
 38 46  1  0  0  0
 38 47  1  0  0  0
 39 64  1  0  0  0
 39 67  2  0  0  0
 40 52  1  0  0  0
 40 53  2  0  0  0
 40 58  1  0  0  0
 41107  1  0  0  0
 41108  1  0  0  0
 41109  1  0  0  0
 41 48  1  0  0  0
 42 43  1  0  0  0
 42 66  1  0  0  0
 42110  1  0  0  0
 42111  1  0  0  0
 43 44  1  0  0  0
 44112  1  0  0  0
 45 46  2  0  0  0
 45113  1  0  0  0
 46114  1  0  0  0
 47115  1  0  0  0
 47116  1  0  0  0
 48 56  1  0  0  0
 48 65  1  0  0  0
 48117  1  0  0  0
 49 50  1  0  0  0
 49 53  1  0  0  0
 49 64  1  0  0  0
 49118  1  0  0  0
 50 51  1  0  0  0
 50119  1  0  0  0
 50120  1  0  0  0
 51 52  1  0  0  0
 51121  1  0  0  0
 51122  1  0  0  0
 52123  1  0  0  0
 52124  1  0  0  0
 53 54  1  0  0  0
 54 55  2  0  0  0
 54125  1  0  0  0
 55 57  1  0  0  0
 55126  1  0  0  0
 56 69  2  0  0  0
 57 58  2  0  0  0
 57127  1  0  0  0
 58128  1  0  0  0
 59 60  1  0  0  0
 59 61  1  0  0  0
 59 62  1  0  0  0
 60129  1  0  0  0
 60130  1  0  0  0
 60131  1  0  0  0
 61132  1  0  0  0
 61133  1  0  0  0
 61134  1  0  0  0
 62135  1  0  0  0
 62136  1  0  0  0
 62137  1  0  0  0
 63 65  1  0  0  0
 63138  1  0  0  0
 63139  1  0  0  0
 63140  1  0  0  0
 64141  1  0  0  0
 65142  1  0  0  0
 68 79  1  0  0  0
 71 73  1  0  0  0
 71 74  2  0  0  0
 71143  1  0  0  0
 72 73  2  0  0  0
 72 83  1  0  0  0
 72144  1  0  0  0
 73 81  1  0  0  0
 74 80  1  0  0  0
 74 83  1  0  0  0
 75 76  1  0  0  0
 75 78  1  0  0  0
 75145  1  0  0  0
 75146  1  0  0  0
 76 80  1  0  0  0
 76147  1  0  0  0
 76148  1  0  0  0
 77 78  1  0  0  0
 77 80  1  0  0  0
 77149  1  0  0  0
 77150  1  0  0  0
 78 79  1  0  0  0
 78 82  1  0  0  0
 79151  1  0  0  0
 79152  1  0  0  0
 81153  1  0  0  0
 82154  1  0  0  0
M  ISO  4   1 100  68 101  79 101  81 100
M  END
> <chiral flag>
0

> <version>
0

> <s_m_source_file>
/data/baiqing/PycharmProjects/Reinvent-master-3.2/result/LINK_invent/BTK/process_docking_weight1_custom_product_contain_oxygen_bond_distance_aromatic_linkinvent_7_9_3/rearranged_h_0150.sdf

> <i_m_source_file_index>
51

> <r_mmod_Potential_Energy-OPLS-2005>
342.256408691406

> <r_mmod_Stretch_Energy-OPLS-2005>
127.264015197754

> <r_mmod_Bend_Energy-OPLS-2005>
210.85173034668

> <r_mmod_Torsional_Energy-OPLS-2005>
356.079925537109

> <r_mmod_Improper_Torsional_Energy-OPLS-2005>
15.5493602752686

> <r_mmod_Van_der_Waal_Energy-OPLS-2005>
122.443450927734

> <r_mmod_Electrostatic_Energy-OPLS-2005>
-352.177764892578

> <r_mmod_Solvation_Energy-OPLS-2005>
-246.284973144531

> <b_mmod_Minimization_Converged-OPLS-2005>
0

> <r_mmod_RMS_Derivative-OPLS-2005>
4.60582542419434

$$$$
51
                    3D
 Structure written by MMmdl.
156165  0  0  1  0            999 V2000
  -30.5375  -14.9954   20.3888 C   0  0  0  0  0  0
  -30.4353  -12.6103   19.5277 C   0  0  0  0  0  0
  -29.5265  -12.5374   18.2764 C   0  0  0  0  0  0
  -28.0609  -12.3098   18.6875 C   0  0  0  0  0  0
  -27.6252  -13.2535   19.8373 C   0  0  2  0  0  0
  -28.6600  -13.2955   20.9792 C   0  0  0  0  0  0
  -25.2446  -13.8231   20.5738 C   0  0  0  0  0  0
  -24.1750  -13.0440   20.9204 C   0  0  0  0  0  0
  -24.6376  -11.6928   20.8727 C   0  0  0  0  0  0
  -23.9068  -10.4292   21.0390 C   0  0  0  0  0  0
  -24.3616   -9.4214   21.9177 C   0  0  0  0  0  0
  -23.6292   -8.2246   22.0747 C   0  0  0  0  0  0
  -22.4278   -8.0277   21.3537 C   0  0  0  0  0  0
  -21.9914   -9.0245   20.4636 C   0  0  0  0  0  0
  -22.7238  -10.2128   20.3043 C   0  0  0  0  0  0
  -21.6853   -6.0735   22.5279 C   0  0  0  0  0  0
  -21.4018   -6.5639   23.8212 C   0  0  0  0  0  0
  -21.3659   -5.6791   24.9171 C   0  0  0  0  0  0
  -21.6043   -4.3053   24.7227 C   0  0  0  0  0  0
  -21.8818   -3.8146   23.4347 C   0  0  0  0  0  0
  -21.9193   -4.6963   22.3402 C   0  0  0  0  0  0
  -22.7777  -13.5206   21.1887 C   0  0  0  0  0  0
  -22.1659   -4.2145   21.0979 F   0  0  0  0  0  0
  -21.5630   -3.4534   25.7741 F   0  0  0  0  0  0
  -29.9413  -13.7239   20.3989 N   0  0  0  0  0  0
  -26.2860  -12.9463   20.3242 N   0  0  0  0  0  0
  -25.9309  -11.6589   20.5715 N   0  0  0  0  0  0
  -22.0435  -12.8166   22.0441 N   0  0  0  0  0  0
  -25.4175  -15.1958   20.4282 N   0  0  0  0  0  0
  -31.7379  -15.0156   20.0848 O   0  0  0  0  0  0
  -21.6638   -6.8875   21.4242 O   0  0  0  0  0  0
  -22.3441  -14.5508   20.6746 O   0  0  0  0  0  0
  -24.6469  -31.8403   23.1875 C   0  0  0  0  0  0
  -25.9232  -32.4671   23.8260 C   0  0  1  0  0  0
  -27.2097  -27.0924   20.1538 C   0  0  0  0  0  0
  -25.5978  -33.8476   24.2181 N   0  0  0  0  0  0
  -23.4518  -30.4589   21.5338 C   0  0  2  0  0  0
  -24.9000  -28.8822   20.1074 C   0  0  0  0  0  0
  -22.7587  -29.4515   22.4854 C   0  0  0  0  0  0
  -18.0300  -28.1390   22.8459 C   0  0  0  0  0  0
  -24.1502  -36.7253   23.2639 C   0  0  0  0  0  0
  -26.0099  -30.6963   21.3946 C   0  0  0  0  0  0
  -26.0761  -29.3042   20.7380 C   0  0  0  0  0  0
  -27.2258  -28.4224   20.7507 C   0  0  0  0  0  0
  -26.0146  -26.7969   19.4572 C   0  0  0  0  0  0
  -24.8849  -27.6436   19.4515 C   0  0  0  0  0  0
  -23.6805  -29.7902   20.1520 C   0  0  0  0  0  0
  -25.4133  -36.3023   24.0317 C   0  0  1  0  0  0
  -20.5911  -28.3714   23.1232 C   0  0  2  0  0  0
  -20.6787  -26.9415   22.5394 C   0  0  0  0  0  0
  -19.5768  -26.6386   21.5190 C   0  0  0  0  0  0
  -18.1946  -26.7928   22.1600 C   0  0  0  0  0  0
  -19.1557  -28.8866   23.2829 C   0  0  0  0  0  0
  -18.9480  -30.1455   23.8861 C   0  0  0  0  0  0
  -17.6482  -30.6582   24.0548 C   0  0  0  0  0  0
  -25.9093  -34.9394   23.5063 C   0  0  0  0  0  0
  -16.5366  -29.9080   23.6334 C   0  0  0  0  0  0
  -16.7283  -28.6499   23.0353 C   0  0  0  0  0  0
  -26.4539  -31.6547   25.0707 C   0  0  0  0  0  0
  -25.3715  -31.3738   26.1391 C   0  0  0  0  0  0
  -27.0411  -30.2948   24.6287 C   0  0  0  0  0  0
  -27.6082  -32.4313   25.7481 C   0  0  0  0  0  0
  -27.5582  -37.1769   24.8458 C   0  0  0  0  0  0
  -21.4273  -29.3044   22.3617 N   0  0  0  0  0  0
  -26.4288  -37.3745   23.9415 N   0  0  0  0  0  0
  -24.7232  -31.0217   22.0932 N   0  0  0  0  0  0
  -23.4211  -28.8053   23.3013 O   0  0  0  0  0  0
  -28.2515  -26.0859   20.2708 O   0  0  0  0  0  0
  -26.5671  -34.8901   22.4636 O   0  0  0  0  0  0
  -23.5586  -32.1299   23.7086 O   0  0  0  0  0  0
  -30.6803  -18.8664   17.6338 C   0  0  0  0  0  0
  -29.9428  -17.7798   19.7702 C   0  0  0  0  0  0
  -29.7061  -19.2522   19.6957 C   0  0  0  0  0  0
  -29.7152  -16.4646   20.6408 C   0  0  0  0  0  0
  -30.0724  -22.8047   20.8215 C   0  0  0  0  0  0
  -30.2228  -21.2635   21.1519 C   0  0  0  0  0  0
  -28.3466  -21.6212   19.9085 C   0  0  0  0  0  0
  -28.5796  -23.1104   20.5973 C   0  0  2  0  0  0
  -27.8441  -23.1334   21.9514 C   0  0  0  0  0  0
  -28.1464  -24.5763   19.8251 C   0  0  0  0  0  0
  -30.1668  -19.7536   18.4694 N   0  0  0  0  0  0
  -28.8599  -16.5151   21.5741 N   0  0  0  0  0  0
  -29.1923  -20.4493   20.4745 N   0  0  0  0  0  0
  -30.6396  -17.2487   18.2342 S   0  0  0  0  0  0
  -31.4725  -12.7518   19.2200 H   0  0  0  0  0  0
  -30.4223  -11.6636   20.0707 H   0  0  0  0  0  0
  -29.8583  -11.7389   17.6118 H   0  0  0  0  0  0
  -29.6080  -13.4655   17.7090 H   0  0  0  0  0  0
  -27.9712  -11.2729   19.0136 H   0  0  0  0  0  0
  -27.3979  -12.4149   17.8286 H   0  0  0  0  0  0
  -27.5843  -14.2514   19.3999 H   0  0  0  0  0  0
  -28.7517  -12.3188   21.4559 H   0  0  0  0  0  0
  -28.3382  -13.9777   21.7650 H   0  0  0  0  0  0
  -25.2758   -9.5693   22.4753 H   0  0  0  0  0  0
  -24.0000   -7.4638   22.7466 H   0  0  0  0  0  0
  -21.0847   -8.8763   19.8936 H   0  0  0  0  0  0
  -22.3696  -10.9662   19.6144 H   0  0  0  0  0  0
  -21.2010   -7.6144   23.9716 H   0  0  0  0  0  0
  -21.1484   -6.0517   25.9074 H   0  0  0  0  0  0
  -22.0599   -2.7607   23.2848 H   0  0  0  0  0  0
  -22.4064  -11.9819   22.4800 H   0  0  0  0  0  0
  -21.1051  -13.1173   22.2667 H   0  0  0  0  0  0
  -24.6727  -15.8636   20.5947 H   0  0  0  0  0  0
  -26.3111  -15.6354   20.2438 H   0  0  0  0  0  0
  -26.7282  -32.5244   23.0970 H   0  0  0  0  0  0
  -25.0127  -33.9568   25.0332 H   0  0  0  0  0  0
  -22.7546  -31.2850   21.3797 H   0  0  0  0  0  0
  -23.3774  -35.9573   23.3282 H   0  0  0  0  0  0
  -24.3605  -36.8906   22.2057 H   0  0  0  0  0  0
  -23.7239  -37.6438   23.6691 H   0  0  0  0  0  0
  -26.1678  -31.4441   20.6170 H   0  0  0  0  0  0
  -26.8802  -30.7477   22.0370 H   0  0  0  0  0  0
  -28.1160  -28.7339   21.2790 H   0  0  0  0  0  0
  -25.8971  -25.8710   18.9191 H   0  0  0  0  0  0
  -23.9937  -27.3214   18.9301 H   0  0  0  0  0  0
  -23.8227  -30.5654   19.3977 H   0  0  0  0  0  0
  -22.7922  -29.2376   19.8401 H   0  0  0  0  0  0
  -25.1312  -36.1857   25.0807 H   0  0  0  0  0  0
  -20.9969  -28.3295   24.1367 H   0  0  0  0  0  0
  -20.5690  -26.2308   23.3603 H   0  0  0  0  0  0
  -21.6654  -26.7449   22.1177 H   0  0  0  0  0  0
  -19.6953  -25.6304   21.1214 H   0  0  0  0  0  0
  -19.6717  -27.3192   20.6713 H   0  0  0  0  0  0
  -17.4220  -26.6656   21.3999 H   0  0  0  0  0  0
  -18.0365  -26.0065   22.8992 H   0  0  0  0  0  0
  -19.7960  -30.7268   24.2222 H   0  0  0  0  0  0
  -17.5045  -31.6258   24.5162 H   0  0  0  0  0  0
  -15.5370  -30.2971   23.7699 H   0  0  0  0  0  0
  -15.8675  -28.0816   22.7093 H   0  0  0  0  0  0
  -24.5937  -30.7030   25.7719 H   0  0  0  0  0  0
  -24.8832  -32.2901   26.4715 H   0  0  0  0  0  0
  -25.7985  -30.8992   27.0235 H   0  0  0  0  0  0
  -26.3025  -29.6652   24.1304 H   0  0  0  0  0  0
  -27.4054  -29.7258   25.4849 H   0  0  0  0  0  0
  -27.8925  -30.4201   23.9593 H   0  0  0  0  0  0
  -27.2713  -33.3672   26.1954 H   0  0  0  0  0  0
  -28.3936  -32.6771   25.0318 H   0  0  0  0  0  0
  -28.0694  -31.8487   26.5461 H   0  0  0  0  0  0
  -28.2564  -38.0101   24.7555 H   0  0  0  0  0  0
  -28.1115  -36.2631   24.6238 H   0  0  0  0  0  0
  -27.2299  -37.1353   25.8857 H   0  0  0  0  0  0
  -20.9514  -29.8758   21.6778 H   0  0  0  0  0  0
  -26.0159  -38.2812   24.1445 H   0  0  0  0  0  0
  -31.0656  -19.1578   16.6663 H   0  0  0  0  0  0
  -30.6218  -23.0273   19.9057 H   0  0  0  0  0  0
  -30.5090  -23.4301   21.6010 H   0  0  0  0  0  0
  -30.1112  -21.1084   22.2257 H   0  0  0  0  0  0
  -31.2265  -20.9194   20.8952 H   0  0  0  0  0  0
  -28.5405  -21.7081   18.8392 H   0  0  0  0  0  0
  -27.2908  -21.3533   19.9830 H   0  0  0  0  0  0
  -26.7724  -23.2805   21.8136 H   0  0  0  0  0  0
  -28.2089  -23.9453   22.5808 H   0  0  0  0  0  0
  -27.9718  -22.2058   22.5091 H   0  0  0  0  0  0
  -28.6544  -24.5590   18.8611 H   0  0  0  0  0  0
  -27.1087  -24.3914   19.5706 H   0  0  0  0  0  0
  -28.4352  -17.4317   21.6444 H   0  0  0  0  0  0
  1 25  1  0  0  0
  1 30  2  0  0  0
  1 74  1  0  0  0
  2  3  1  0  0  0
  2 25  1  0  0  0
  2 85  1  0  0  0
  2 86  1  0  0  0
  3  4  1  0  0  0
  3 87  1  0  0  0
  3 88  1  0  0  0
  4  5  1  0  0  0
  4 89  1  0  0  0
  4 90  1  0  0  0
  5  6  1  0  0  0
  5 26  1  0  0  0
  5 91  1  0  0  0
  6 25  1  0  0  0
  6 92  1  0  0  0
  6 93  1  0  0  0
  7  8  2  0  0  0
  7 26  1  0  0  0
  7 29  1  0  0  0
  8  9  1  0  0  0
  8 22  1  0  0  0
  9 10  1  0  0  0
  9 27  2  0  0  0
 10 11  2  0  0  0
 10 15  1  0  0  0
 11 12  1  0  0  0
 11 94  1  0  0  0
 12 13  2  0  0  0
 12 95  1  0  0  0
 13 14  1  0  0  0
 13 31  1  0  0  0
 14 15  2  0  0  0
 14 96  1  0  0  0
 15 97  1  0  0  0
 16 17  2  0  0  0
 16 21  1  0  0  0
 16 31  1  0  0  0
 17 18  1  0  0  0
 17 98  1  0  0  0
 18 19  2  0  0  0
 18 99  1  0  0  0
 19 20  1  0  0  0
 19 24  1  0  0  0
 20 21  2  0  0  0
 20100  1  0  0  0
 21 23  1  0  0  0
 22 28  1  0  0  0
 22 32  2  0  0  0
 26 27  1  0  0  0
 28101  1  0  0  0
 28102  1  0  0  0
 29103  1  0  0  0
 29104  1  0  0  0
 33 34  1  0  0  0
 33 66  1  0  0  0
 33 70  2  0  0  0
 34 36  1  0  0  0
 34 59  1  0  0  0
 34105  1  0  0  0
 35 44  2  0  0  0
 35 45  1  0  0  0
 35 68  1  0  0  0
 36 56  1  0  0  0
 36106  1  0  0  0
 37 39  1  0  0  0
 37 47  1  0  0  0
 37 66  1  0  0  0
 37107  1  0  0  0
 38 43  2  0  0  0
 38 46  1  0  0  0
 38 47  1  0  0  0
 39 64  1  0  0  0
 39 67  2  0  0  0
 40 52  1  0  0  0
 40 53  2  0  0  0
 40 58  1  0  0  0
 41108  1  0  0  0
 41109  1  0  0  0
 41110  1  0  0  0
 41 48  1  0  0  0
 42 43  1  0  0  0
 42 66  1  0  0  0
 42111  1  0  0  0
 42112  1  0  0  0
 43 44  1  0  0  0
 44113  1  0  0  0
 45 46  2  0  0  0
 45114  1  0  0  0
 46115  1  0  0  0
 47116  1  0  0  0
 47117  1  0  0  0
 48 56  1  0  0  0
 48 65  1  0  0  0
 48118  1  0  0  0
 49 50  1  0  0  0
 49 53  1  0  0  0
 49 64  1  0  0  0
 49119  1  0  0  0
 50 51  1  0  0  0
 50120  1  0  0  0
 50121  1  0  0  0
 51 52  1  0  0  0
 51122  1  0  0  0
 51123  1  0  0  0
 52124  1  0  0  0
 52125  1  0  0  0
 53 54  1  0  0  0
 54 55  2  0  0  0
 54126  1  0  0  0
 55 57  1  0  0  0
 55127  1  0  0  0
 56 69  2  0  0  0
 57 58  2  0  0  0
 57128  1  0  0  0
 58129  1  0  0  0
 59 60  1  0  0  0
 59 61  1  0  0  0
 59 62  1  0  0  0
 60130  1  0  0  0
 60131  1  0  0  0
 60132  1  0  0  0
 61133  1  0  0  0
 61134  1  0  0  0
 61135  1  0  0  0
 62136  1  0  0  0
 62137  1  0  0  0
 62138  1  0  0  0
 63 65  1  0  0  0
 63139  1  0  0  0
 63140  1  0  0  0
 63141  1  0  0  0
 64142  1  0  0  0
 65143  1  0  0  0
 68 80  1  0  0  0
 71 81  2  0  0  0
 71 84  1  0  0  0
 71144  1  0  0  0
 72 73  2  0  0  0
 72 74  1  0  0  0
 72 84  1  0  0  0
 73 81  1  0  0  0
 73 83  1  0  0  0
 74 82  2  0  0  0
 75 76  1  0  0  0
 75 78  1  0  0  0
 75145  1  0  0  0
 75146  1  0  0  0
 76 83  1  0  0  0
 76147  1  0  0  0
 76148  1  0  0  0
 77 78  1  0  0  0
 77 83  1  0  0  0
 77149  1  0  0  0
 77150  1  0  0  0
 78 79  1  0  0  0
 78 80  1  0  0  0
 79151  1  0  0  0
 79152  1  0  0  0
 79153  1  0  0  0
 80154  1  0  0  0
 80155  1  0  0  0
 82156  1  0  0  0
M  ISO  4   1 100  68 101  74 100  80 101
M  END
> <chiral flag>
0

> <version>
0

> <s_m_source_file>
/data/baiqing/PycharmProjects/Reinvent-master-3.2/result/LINK_invent/BTK/process_docking_weight1_custom_product_contain_oxygen_bond_distance_aromatic_linkinvent_7_9_3/rearranged_h_0150.sdf

> <i_m_source_file_index>
52

> <r_mmod_Potential_Energy-OPLS-2005>
852.489013671875

> <r_mmod_Stretch_Energy-OPLS-2005>
329.821716308594

> <r_mmod_Bend_Energy-OPLS-2005>
378.628356933594

> <r_mmod_Torsional_Energy-OPLS-2005>
283.051300048828

> <r_mmod_Improper_Torsional_Energy-OPLS-2005>
8.63528442382812

> <r_mmod_Van_der_Waal_Energy-OPLS-2005>
119.818222045898

> <r_mmod_Electrostatic_Energy-OPLS-2005>
-275.070861816406

> <r_mmod_Solvation_Energy-OPLS-2005>
-220.55876159668

> <b_mmod_Minimization_Converged-OPLS-2005>
0

> <r_mmod_RMS_Derivative-OPLS-2005>
1.811976313591

$$$$
52
                    3D
 Structure written by MMmdl.
149157  0  0  1  0            999 V2000
  -30.4312  -15.2204   20.3828 C   0  0  0  0  0  0
  -30.4479  -12.7726   19.5351 C   0  0  0  0  0  0
  -29.5413  -12.5822   18.2917 C   0  0  0  0  0  0
  -28.0870  -12.3084   18.7111 C   0  0  0  0  0  0
  -27.6200  -13.2707   19.8308 C   0  0  2  0  0  0
  -28.6519  -13.4052   20.9724 C   0  0  0  0  0  0
  -25.2420  -13.8225   20.5723 C   0  0  0  0  0  0
  -24.1773  -13.0436   20.9279 C   0  0  0  0  0  0
  -24.6411  -11.6931   20.8766 C   0  0  0  0  0  0
  -23.9095  -10.4298   21.0402 C   0  0  0  0  0  0
  -24.3644   -9.4212   21.9178 C   0  0  0  0  0  0
  -23.6313   -8.2251   22.0756 C   0  0  0  0  0  0
  -22.4292   -8.0287   21.3548 C   0  0  0  0  0  0
  -21.9927   -9.0260   20.4656 C   0  0  0  0  0  0
  -22.7258  -10.2140   20.3056 C   0  0  0  0  0  0
  -21.6858   -6.0742   22.5279 C   0  0  0  0  0  0
  -21.4020   -6.5644   23.8212 C   0  0  0  0  0  0
  -21.3657   -5.6797   24.9172 C   0  0  0  0  0  0
  -21.6038   -4.3060   24.7224 C   0  0  0  0  0  0
  -21.8820   -3.8152   23.4345 C   0  0  0  0  0  0
  -21.9199   -4.6970   22.3401 C   0  0  0  0  0  0
  -22.7794  -13.5210   21.1893 C   0  0  0  0  0  0
  -22.1665   -4.2159   21.0978 F   0  0  0  0  0  0
  -21.5621   -3.4540   25.7732 F   0  0  0  0  0  0
  -29.9000  -13.9025   20.3696 N   0  0  0  0  0  0
  -26.2847  -12.9499   20.3199 N   0  0  0  0  0  0
  -25.9348  -11.6611   20.5715 N   0  0  0  0  0  0
  -22.0432  -12.8206   22.0436 N   0  0  0  0  0  0
  -25.4014  -15.1941   20.4061 N   0  0  0  0  0  0
  -31.6338  -15.2719   20.0893 O   0  0  0  0  0  0
  -21.6647   -6.8887   21.4241 O   0  0  0  0  0  0
  -22.3498  -14.5515   20.6721 O   0  0  0  0  0  0
  -24.6599  -31.8267   23.1738 C   0  0  0  0  0  0
  -25.9289  -32.4604   23.8199 C   0  0  1  0  0  0
  -27.2219  -26.9508   20.1784 C   0  0  0  0  0  0
  -25.5971  -33.8419   24.2109 N   0  0  0  0  0  0
  -23.4745  -30.4395   21.5202 C   0  0  2  0  0  0
  -24.9310  -28.8336   20.1091 C   0  0  0  0  0  0
  -22.7651  -29.4458   22.4772 C   0  0  0  0  0  0
  -18.0326  -28.1402   22.8462 C   0  0  0  0  0  0
  -24.1501  -36.7222   23.2647 C   0  0  0  0  0  0
  -26.0421  -30.6380   21.4046 C   0  0  0  0  0  0
  -26.1104  -29.2293   20.7521 C   0  0  0  0  0  0
  -27.2468  -28.3054   20.7735 C   0  0  0  0  0  0
  -26.0209  -26.7164   19.4682 C   0  0  0  0  0  0
  -24.9100  -27.5964   19.4483 C   0  0  0  0  0  0
  -23.7154  -29.7575   20.1453 C   0  0  0  0  0  0
  -25.4134  -36.2978   24.0307 C   0  0  1  0  0  0
  -20.5946  -28.3756   23.1182 C   0  0  2  0  0  0
  -20.6797  -26.9439   22.5395 C   0  0  0  0  0  0
  -19.5775  -26.6375   21.5205 C   0  0  0  0  0  0
  -18.1958  -26.7935   22.1615 C   0  0  0  0  0  0
  -19.1585  -28.8899   23.2813 C   0  0  0  0  0  0
  -18.9493  -30.1484   23.8859 C   0  0  0  0  0  0
  -17.6486  -30.6593   24.0553 C   0  0  0  0  0  0
  -25.9094  -34.9358   23.5028 C   0  0  0  0  0  0
  -16.5377  -29.9082   23.6332 C   0  0  0  0  0  0
  -16.7308  -28.6498   23.0358 C   0  0  0  0  0  0
  -26.4551  -31.6533   25.0713 C   0  0  0  0  0  0
  -25.3686  -31.3775   26.1378 C   0  0  0  0  0  0
  -27.0446  -30.2901   24.6430 C   0  0  0  0  0  0
  -27.6058  -32.4329   25.7505 C   0  0  0  0  0  0
  -27.5575  -37.1769   24.8463 C   0  0  0  0  0  0
  -21.4326  -29.3051   22.3529 N   0  0  0  0  0  0
  -26.4284  -37.3706   23.9405 N   0  0  0  0  0  0
  -24.7463  -30.9943   22.0868 N   0  0  0  0  0  0
  -23.4210  -28.8019   23.3000 O   0  0  0  0  0  0
  -28.2205  -25.8475   20.2631 O   0  0  0  0  0  0
  -26.5692  -34.8885   22.4619 O   0  0  0  0  0  0
  -23.5668  -32.1233   23.6832 O   0  0  0  0  0  0
  -28.5322  -20.0078   19.2576 C   0  0  0  0  0  0
  -28.7579  -18.5241   19.2897 C   0  0  0  0  0  0
  -29.0501  -20.8236   20.2665 C   0  0  0  0  0  0
  -29.5134  -17.8921   20.2980 C   0  0  0  0  0  0
  -28.1102  -17.7158   18.2402 C   0  0  0  0  0  0
  -28.8256  -17.6283   16.9125 C   0  0  0  0  0  0
  -27.0119  -17.1189   18.4265 N   0  0  0  0  0  0
  -29.6149  -16.4256   20.6181 N   0  0  0  0  0  0
  -29.0091  -22.3718   20.5140 N   0  0  0  0  0  0
  -27.8719  -23.8434   18.5140 O   0  0  0  0  0  0
  -26.6472  -23.7178   20.7038 O   0  0  0  0  0  0
  -29.9008  -19.4624   21.2651 S   0  0  0  0  0  0
  -27.9048  -23.9919   19.9826 S   0  0  0  0  0  0
  -31.4692  -12.9734   19.2088 H   0  0  0  0  0  0
  -30.5053  -11.8525   20.1197 H   0  0  0  0  0  0
  -29.9144  -11.7680   17.6695 H   0  0  0  0  0  0
  -29.5781  -13.4827   17.6761 H   0  0  0  0  0  0
  -28.0364  -11.2796   19.0693 H   0  0  0  0  0  0
  -27.4210  -12.3659   17.8496 H   0  0  0  0  0  0
  -27.5491  -14.2482   19.3524 H   0  0  0  0  0  0
  -28.8009  -12.4556   21.4881 H   0  0  0  0  0  0
  -28.2958  -14.1116   21.7239 H   0  0  0  0  0  0
  -25.2787   -9.5695   22.4758 H   0  0  0  0  0  0
  -24.0020   -7.4650   22.7490 H   0  0  0  0  0  0
  -21.0849   -8.8783   19.8978 H   0  0  0  0  0  0
  -22.3704  -10.9680   19.6177 H   0  0  0  0  0  0
  -21.2010   -7.6154   23.9721 H   0  0  0  0  0  0
  -21.1475   -6.0523   25.9077 H   0  0  0  0  0  0
  -22.0602   -2.7617   23.2839 H   0  0  0  0  0  0
  -22.4059  -11.9877   22.4830 H   0  0  0  0  0  0
  -21.1056  -13.1236   22.2639 H   0  0  0  0  0  0
  -24.5666  -15.7703   20.4131 H   0  0  0  0  0  0
  -26.0976  -15.5371   19.7520 H   0  0  0  0  0  0
  -26.7363  -32.5154   23.0920 H   0  0  0  0  0  0
  -25.0082  -33.9508   25.0234 H   0  0  0  0  0  0
  -22.7866  -31.2704   21.3497 H   0  0  0  0  0  0
  -23.3764  -35.9550   23.3275 H   0  0  0  0  0  0
  -24.3586  -36.8896   22.2067 H   0  0  0  0  0  0
  -23.7258  -37.6408   23.6714 H   0  0  0  0  0  0
  -26.2181  -31.3781   20.6225 H   0  0  0  0  0  0
  -26.9035  -30.6965   22.0576 H   0  0  0  0  0  0
  -28.1353  -28.6023   21.3134 H   0  0  0  0  0  0
  -25.8961  -25.7769   18.9502 H   0  0  0  0  0  0
  -24.0168  -27.2913   18.9205 H   0  0  0  0  0  0
  -23.8711  -30.5276   19.3889 H   0  0  0  0  0  0
  -22.8257  -29.2117   19.8261 H   0  0  0  0  0  0
  -25.1330  -36.1783   25.0797 H   0  0  0  0  0  0
  -21.0041  -28.3363   24.1301 H   0  0  0  0  0  0
  -20.5662  -26.2382   23.3636 H   0  0  0  0  0  0
  -21.6664  -26.7405   22.1214 H   0  0  0  0  0  0
  -19.6939  -25.6271   21.1273 H   0  0  0  0  0  0
  -19.6716  -27.3150   20.6705 H   0  0  0  0  0  0
  -17.4224  -26.6672   21.4022 H   0  0  0  0  0  0
  -18.0370  -26.0088   22.9026 H   0  0  0  0  0  0
  -19.7970  -30.7306   24.2217 H   0  0  0  0  0  0
  -17.5038  -31.6268   24.5163 H   0  0  0  0  0  0
  -15.5374  -30.2971   23.7676 H   0  0  0  0  0  0
  -15.8709  -28.0802   22.7096 H   0  0  0  0  0  0
  -24.5885  -30.7103   25.7693 H   0  0  0  0  0  0
  -24.8853  -32.2970   26.4688 H   0  0  0  0  0  0
  -25.7926  -30.9024   27.0234 H   0  0  0  0  0  0
  -26.3111  -29.6570   24.1424 H   0  0  0  0  0  0
  -27.3974  -29.7269   25.5081 H   0  0  0  0  0  0
  -27.9057  -30.4093   23.9851 H   0  0  0  0  0  0
  -27.2648  -33.3677   26.1966 H   0  0  0  0  0  0
  -28.3925  -32.6806   25.0367 H   0  0  0  0  0  0
  -28.0660  -31.8526   26.5512 H   0  0  0  0  0  0
  -28.2568  -38.0085   24.7499 H   0  0  0  0  0  0
  -28.1094  -36.2608   24.6297 H   0  0  0  0  0  0
  -27.2292  -37.1420   25.8867 H   0  0  0  0  0  0
  -20.9567  -29.8764   21.6688 H   0  0  0  0  0  0
  -26.0137  -38.2771   24.1388 H   0  0  0  0  0  0
  -27.9483  -20.4227   18.4488 H   0  0  0  0  0  0
  -29.8961  -17.7897   17.0414 H   0  0  0  0  0  0
  -28.4430  -18.3866   16.2296 H   0  0  0  0  0  0
  -28.6802  -16.6479   16.4578 H   0  0  0  0  0  0
  -26.6565  -17.3121   19.3566 H   0  0  0  0  0  0
  -28.7151  -16.0890   20.9285 H   0  0  0  0  0  0
  -29.6474  -22.6618   21.2442 H   0  0  0  0  0  0
  1 25  1  0  0  0
  1 30  2  0  0  0
  1 78  1  0  0  0
  2  3  1  0  0  0
  2 25  1  0  0  0
  2 84  1  0  0  0
  2 85  1  0  0  0
  3  4  1  0  0  0
  3 86  1  0  0  0
  3 87  1  0  0  0
  4  5  1  0  0  0
  4 88  1  0  0  0
  4 89  1  0  0  0
  5  6  1  0  0  0
  5 26  1  0  0  0
  5 90  1  0  0  0
  6 25  1  0  0  0
  6 91  1  0  0  0
  6 92  1  0  0  0
  7  8  2  0  0  0
  7 26  1  0  0  0
  7 29  1  0  0  0
  8  9  1  0  0  0
  8 22  1  0  0  0
  9 10  1  0  0  0
  9 27  2  0  0  0
 10 11  2  0  0  0
 10 15  1  0  0  0
 11 12  1  0  0  0
 11 93  1  0  0  0
 12 13  2  0  0  0
 12 94  1  0  0  0
 13 14  1  0  0  0
 13 31  1  0  0  0
 14 15  2  0  0  0
 14 95  1  0  0  0
 15 96  1  0  0  0
 16 17  2  0  0  0
 16 21  1  0  0  0
 16 31  1  0  0  0
 17 18  1  0  0  0
 17 97  1  0  0  0
 18 19  2  0  0  0
 18 98  1  0  0  0
 19 20  1  0  0  0
 19 24  1  0  0  0
 20 21  2  0  0  0
 20 99  1  0  0  0
 21 23  1  0  0  0
 22 28  1  0  0  0
 22 32  2  0  0  0
 26 27  1  0  0  0
 28100  1  0  0  0
 28101  1  0  0  0
 29102  1  0  0  0
 29103  1  0  0  0
 33 34  1  0  0  0
 33 66  1  0  0  0
 33 70  2  0  0  0
 34 36  1  0  0  0
 34 59  1  0  0  0
 34104  1  0  0  0
 35 44  2  0  0  0
 35 45  1  0  0  0
 35 68  1  0  0  0
 36 56  1  0  0  0
 36105  1  0  0  0
 37 39  1  0  0  0
 37 47  1  0  0  0
 37 66  1  0  0  0
 37106  1  0  0  0
 38 43  2  0  0  0
 38 46  1  0  0  0
 38 47  1  0  0  0
 39 64  1  0  0  0
 39 67  2  0  0  0
 40 52  1  0  0  0
 40 53  2  0  0  0
 40 58  1  0  0  0
 41107  1  0  0  0
 41108  1  0  0  0
 41109  1  0  0  0
 41 48  1  0  0  0
 42 43  1  0  0  0
 42 66  1  0  0  0
 42110  1  0  0  0
 42111  1  0  0  0
 43 44  1  0  0  0
 44112  1  0  0  0
 45 46  2  0  0  0
 45113  1  0  0  0
 46114  1  0  0  0
 47115  1  0  0  0
 47116  1  0  0  0
 48 56  1  0  0  0
 48 65  1  0  0  0
 48117  1  0  0  0
 49 50  1  0  0  0
 49 53  1  0  0  0
 49 64  1  0  0  0
 49118  1  0  0  0
 50 51  1  0  0  0
 50119  1  0  0  0
 50120  1  0  0  0
 51 52  1  0  0  0
 51121  1  0  0  0
 51122  1  0  0  0
 52123  1  0  0  0
 52124  1  0  0  0
 53 54  1  0  0  0
 54 55  2  0  0  0
 54125  1  0  0  0
 55 57  1  0  0  0
 55126  1  0  0  0
 56 69  2  0  0  0
 57 58  2  0  0  0
 57127  1  0  0  0
 58128  1  0  0  0
 59 60  1  0  0  0
 59 61  1  0  0  0
 59 62  1  0  0  0
 60129  1  0  0  0
 60130  1  0  0  0
 60131  1  0  0  0
 61132  1  0  0  0
 61133  1  0  0  0
 61134  1  0  0  0
 62135  1  0  0  0
 62136  1  0  0  0
 62137  1  0  0  0
 63 65  1  0  0  0
 63138  1  0  0  0
 63139  1  0  0  0
 63140  1  0  0  0
 64141  1  0  0  0
 65142  1  0  0  0
 68 83  1  0  0  0
 71 72  1  0  0  0
 71 73  2  0  0  0
 71143  1  0  0  0
 72 74  2  0  0  0
 72 75  1  0  0  0
 73 79  1  0  0  0
 73 82  1  0  0  0
 74 78  1  0  0  0
 74 82  1  0  0  0
 75 76  1  0  0  0
 75 77  2  0  0  0
 76144  1  0  0  0
 76145  1  0  0  0
 76146  1  0  0  0
 77147  1  0  0  0
 78148  1  0  0  0
 79149  1  0  0  0
 79 83  1  0  0  0
 80 83  2  0  0  0
 81 83  2  0  0  0
M  ISO  4   1 100  68 101  78 100  83 101
M  END
> <chiral flag>
0

> <version>
0

> <s_m_source_file>
/data/baiqing/PycharmProjects/Reinvent-master-3.2/result/LINK_invent/BTK/process_docking_weight1_custom_product_contain_oxygen_bond_distance_aromatic_linkinvent_7_9_3/rearranged_h_0150.sdf

> <i_m_source_file_index>
53

> <r_mmod_Potential_Energy-OPLS-2005>
949.736022949219

> <r_mmod_Stretch_Energy-OPLS-2005>
468.322906494141

> <r_mmod_Bend_Energy-OPLS-2005>
408.221862792969

> <r_mmod_Torsional_Energy-OPLS-2005>
268.1826171875

> <r_mmod_Improper_Torsional_Energy-OPLS-2005>
8.81288528442383

> <r_mmod_Van_der_Waal_Energy-OPLS-2005>
95.5940704345703

> <r_mmod_Electrostatic_Energy-OPLS-2005>
-460.232421875

> <r_mmod_Solvation_Energy-OPLS-2005>
-259.453979492188

> <b_mmod_Minimization_Converged-OPLS-2005>
0

> <r_mmod_RMS_Derivative-OPLS-2005>
1.14073860645294

$$$$
53
                    3D
 Structure written by MMmdl.
152160  0  0  1  0            999 V2000
  -30.6276  -14.7337   20.4793 C   0  0  0  0  0  0
  -30.4342  -12.4588   19.4503 C   0  0  0  0  0  0
  -29.5018  -12.4981   18.2208 C   0  0  0  0  0  0
  -28.0295  -12.3266   18.6416 C   0  0  0  0  0  0
  -27.6414  -13.2291   19.8427 C   0  0  2  0  0  0
  -28.6913  -13.1634   20.9717 C   0  0  0  0  0  0
  -25.2529  -13.8199   20.5701 C   0  0  0  0  0  0
  -24.1816  -13.0441   20.9193 C   0  0  0  0  0  0
  -24.6394  -11.6914   20.8717 C   0  0  0  0  0  0
  -23.9073  -10.4285   21.0391 C   0  0  0  0  0  0
  -24.3615   -9.4201   21.9172 C   0  0  0  0  0  0
  -23.6282   -8.2242   22.0746 C   0  0  0  0  0  0
  -22.4266   -8.0272   21.3538 C   0  0  0  0  0  0
  -21.9912   -9.0245   20.4640 C   0  0  0  0  0  0
  -22.7246  -10.2122   20.3046 C   0  0  0  0  0  0
  -21.6861   -6.0714   22.5273 C   0  0  0  0  0  0
  -21.4019   -6.5625   23.8192 C   0  0  0  0  0  0
  -21.3654   -5.6788   24.9159 C   0  0  0  0  0  0
  -21.6043   -4.3046   24.7228 C   0  0  0  0  0  0
  -21.8830   -3.8133   23.4351 C   0  0  0  0  0  0
  -21.9194   -4.6945   22.3403 C   0  0  0  0  0  0
  -22.7838  -13.5208   21.1861 C   0  0  0  0  0  0
  -22.1667   -4.2124   21.0982 F   0  0  0  0  0  0
  -21.5627   -3.4538   25.7741 F   0  0  0  0  0  0
  -29.9868  -13.5193   20.3814 N   0  0  0  0  0  0
  -26.2940  -12.9400   20.3251 N   0  0  0  0  0  0
  -25.9322  -11.6541   20.5743 N   0  0  0  0  0  0
  -22.0502  -12.8166   22.0415 N   0  0  0  0  0  0
  -25.4262  -15.1927   20.4164 N   0  0  0  0  0  0
  -31.8246  -14.8181   20.1903 O   0  0  0  0  0  0
  -21.6641   -6.8861   21.4229 O   0  0  0  0  0  0
  -22.3501  -14.5497   20.6692 O   0  0  0  0  0  0
  -24.6315  -31.8528   23.1955 C   0  0  0  0  0  0
  -25.9123  -32.4747   23.8283 C   0  0  1  0  0  0
  -27.2165  -27.2579   20.1325 C   0  0  0  0  0  0
  -25.5897  -33.8547   24.2194 N   0  0  0  0  0  0
  -23.4298  -30.4760   21.5386 C   0  0  2  0  0  0
  -24.8778  -28.9243   20.1075 C   0  0  0  0  0  0
  -22.7511  -29.4577   22.4869 C   0  0  0  0  0  0
  -18.0273  -28.1433   22.8483 C   0  0  0  0  0  0
  -24.1458  -36.7248   23.2654 C   0  0  0  0  0  0
  -25.9776  -30.7642   21.3799 C   0  0  0  0  0  0
  -26.0485  -29.3875   20.7216 C   0  0  0  0  0  0
  -27.2226  -28.5658   20.7229 C   0  0  0  0  0  0
  -26.0284  -26.8688   19.4771 C   0  0  0  0  0  0
  -24.8724  -27.6724   19.4739 C   0  0  0  0  0  0
  -23.6495  -29.8128   20.1537 C   0  0  0  0  0  0
  -25.4104  -36.3065   24.0339 C   0  0  1  0  0  0
  -20.5889  -28.3698   23.1261 C   0  0  2  0  0  0
  -20.6755  -26.9421   22.5417 C   0  0  0  0  0  0
  -19.5728  -26.6393   21.5227 C   0  0  0  0  0  0
  -18.1897  -26.7961   22.1634 C   0  0  0  0  0  0
  -19.1542  -28.8885   23.2851 C   0  0  0  0  0  0
  -18.9492  -30.1479   23.8876 C   0  0  0  0  0  0
  -17.6509  -30.6630   24.0562 C   0  0  0  0  0  0
  -25.9062  -34.9446   23.5079 C   0  0  0  0  0  0
  -16.5381  -29.9150   23.6354 C   0  0  0  0  0  0
  -16.7269  -28.6572   23.0359 C   0  0  0  0  0  0
  -26.4481  -31.6626   25.0704 C   0  0  0  0  0  0
  -25.3668  -31.3837   26.1401 C   0  0  0  0  0  0
  -27.0353  -30.3046   24.6220 C   0  0  0  0  0  0
  -27.5995  -32.4414   25.7494 C   0  0  0  0  0  0
  -27.5563  -37.1778   24.8485 C   0  0  0  0  0  0
  -21.4212  -29.3032   22.3636 N   0  0  0  0  0  0
  -26.4260  -37.3789   23.9454 N   0  0  0  0  0  0
  -24.6986  -31.0477   22.0950 N   0  0  0  0  0  0
  -23.4206  -28.8076   23.2948 O   0  0  0  0  0  0
  -28.3027  -26.3504   20.1743 O   0  0  0  0  0  0
  -26.5650  -34.8943   22.4656 O   0  0  0  0  0  0
  -23.5458  -32.1361   23.7240 O   0  0  0  0  0  0
  -29.5345  -19.8518   21.1505 C   0  0  0  0  0  0
  -29.0064  -20.5701   19.0160 C   0  0  0  0  0  0
  -29.1307  -20.9943   20.3149 C   0  0  0  0  0  0
  -29.7295  -18.6148   20.5069 C   0  0  0  0  0  0
  -27.9273  -24.9637   22.1269 C   0  0  0  0  0  0
  -30.3709  -17.2804   21.0566 C   0  0  0  0  0  0
  -29.0183  -23.7048   20.1392 C   0  0  0  0  0  0
  -28.0401  -24.9236   20.5944 C   0  0  2  0  0  0
  -28.8756  -22.3488   20.8136 N   0  0  0  0  0  0
  -29.8775  -15.8735   20.7245 N   0  0  0  0  0  0
  -29.3567  -18.8474   18.8140 S   0  0  0  0  0  0
  -31.4687  -12.5981   19.1315 H   0  0  0  0  0  0
  -30.3967  -11.4828   19.9366 H   0  0  0  0  0  0
  -29.7808  -11.7178   17.5107 H   0  0  0  0  0  0
  -29.6227  -13.4464   17.6942 H   0  0  0  0  0  0
  -27.8787  -11.2783   18.9025 H   0  0  0  0  0  0
  -27.3701  -12.5237   17.7951 H   0  0  0  0  0  0
  -27.6365  -14.2487   19.4563 H   0  0  0  0  0  0
  -28.7325  -12.1658   21.4106 H   0  0  0  0  0  0
  -28.4289  -13.8464   21.7802 H   0  0  0  0  0  0
  -25.2774   -9.5660   22.4729 H   0  0  0  0  0  0
  -23.9980   -7.4640   22.7474 H   0  0  0  0  0  0
  -21.0845   -8.8766   19.8950 H   0  0  0  0  0  0
  -22.3720  -10.9637   19.6130 H   0  0  0  0  0  0
  -21.2020   -7.6135   23.9688 H   0  0  0  0  0  0
  -21.1464   -6.0519   25.9056 H   0  0  0  0  0  0
  -22.0617   -2.7591   23.2870 H   0  0  0  0  0  0
  -22.4153  -11.9823   22.4765 H   0  0  0  0  0  0
  -21.1118  -13.1155   22.2661 H   0  0  0  0  0  0
  -24.6684  -15.8531   20.5544 H   0  0  0  0  0  0
  -26.2784  -15.6315   20.0904 H   0  0  0  0  0  0
  -26.7167  -32.5383   23.1003 H   0  0  0  0  0  0
  -25.0009  -33.9663   25.0314 H   0  0  0  0  0  0
  -22.7299  -31.2999   21.3905 H   0  0  0  0  0  0
  -23.3751  -35.9542   23.3333 H   0  0  0  0  0  0
  -24.3515  -36.8860   22.2055 H   0  0  0  0  0  0
  -23.7179  -37.6443   23.6666 H   0  0  0  0  0  0
  -26.1200  -31.5251   20.6104 H   0  0  0  0  0  0
  -26.8536  -30.8070   22.0154 H   0  0  0  0  0  0
  -28.1164  -28.9086   21.2241 H   0  0  0  0  0  0
  -25.9701  -25.9207   18.9635 H   0  0  0  0  0  0
  -23.9801  -27.3161   18.9773 H   0  0  0  0  0  0
  -23.7781  -30.5908   19.3998 H   0  0  0  0  0  0
  -22.7669  -29.2483   19.8429 H   0  0  0  0  0  0
  -25.1297  -36.1884   25.0830 H   0  0  0  0  0  0
  -20.9969  -28.3261   24.1392 H   0  0  0  0  0  0
  -20.5680  -26.2309   23.3613 H   0  0  0  0  0  0
  -21.6615  -26.7457   22.1188 H   0  0  0  0  0  0
  -19.6886  -25.6300   21.1272 H   0  0  0  0  0  0
  -19.6662  -27.3186   20.6748 H   0  0  0  0  0  0
  -17.4173  -26.6703   21.4032 H   0  0  0  0  0  0
  -18.0263  -26.0145   22.9068 H   0  0  0  0  0  0
  -19.7995  -30.7274   24.2238 H   0  0  0  0  0  0
  -17.5107  -31.6329   24.5143 H   0  0  0  0  0  0
  -15.5391  -30.3076   23.7736 H   0  0  0  0  0  0
  -15.8643  -28.0914   22.7101 H   0  0  0  0  0  0
  -24.5867  -30.7149   25.7759 H   0  0  0  0  0  0
  -24.8813  -32.3029   26.4688 H   0  0  0  0  0  0
  -25.7939  -30.9139   27.0264 H   0  0  0  0  0  0
  -26.2949  -29.6761   24.1258 H   0  0  0  0  0  0
  -27.4072  -29.7350   25.4749 H   0  0  0  0  0  0
  -27.8794  -30.4359   23.9446 H   0  0  0  0  0  0
  -27.2570  -33.3769   26.1939 H   0  0  0  0  0  0
  -28.3859  -32.6907   25.0357 H   0  0  0  0  0  0
  -28.0576  -31.8626   26.5527 H   0  0  0  0  0  0
  -28.2613  -38.0051   24.7554 H   0  0  0  0  0  0
  -28.1025  -36.2596   24.6291 H   0  0  0  0  0  0
  -27.2271  -37.1411   25.8884 H   0  0  0  0  0  0
  -20.9393  -29.8784   21.6861 H   0  0  0  0  0  0
  -26.0132  -38.2844   24.1523 H   0  0  0  0  0  0
  -29.7128  -19.9829   22.2095 H   0  0  0  0  0  0
  -28.7142  -21.1486   18.1472 H   0  0  0  0  0  0
  -27.5013  -24.0384   22.5078 H   0  0  0  0  0  0
  -27.2791  -25.7722   22.4648 H   0  0  0  0  0  0
  -28.9011  -25.1025   22.5944 H   0  0  0  0  0  0
  -30.3630  -17.3421   22.1455 H   0  0  0  0  0  0
  -31.4301  -17.3187   20.7997 H   0  0  0  0  0  0
  -30.0463  -24.0252   20.3271 H   0  0  0  0  0  0
  -28.9488  -23.5753   19.0590 H   0  0  0  0  0  0
  -27.0598  -24.6240   20.2290 H   0  0  0  0  0  0
  -28.9177  -22.4193   21.8279 H   0  0  0  0  0  0
  -28.8892  -15.7178   20.8488 H   0  0  0  0  0  0
  1 25  1  0  0  0
  1 30  2  0  0  0
  1 80  1  0  0  0
  2  3  1  0  0  0
  2 25  1  0  0  0
  2 82  1  0  0  0
  2 83  1  0  0  0
  3  4  1  0  0  0
  3 84  1  0  0  0
  3 85  1  0  0  0
  4  5  1  0  0  0
  4 86  1  0  0  0
  4 87  1  0  0  0
  5  6  1  0  0  0
  5 26  1  0  0  0
  5 88  1  0  0  0
  6 25  1  0  0  0
  6 89  1  0  0  0
  6 90  1  0  0  0
  7  8  2  0  0  0
  7 26  1  0  0  0
  7 29  1  0  0  0
  8  9  1  0  0  0
  8 22  1  0  0  0
  9 10  1  0  0  0
  9 27  2  0  0  0
 10 11  2  0  0  0
 10 15  1  0  0  0
 11 12  1  0  0  0
 11 91  1  0  0  0
 12 13  2  0  0  0
 12 92  1  0  0  0
 13 14  1  0  0  0
 13 31  1  0  0  0
 14 15  2  0  0  0
 14 93  1  0  0  0
 15 94  1  0  0  0
 16 17  2  0  0  0
 16 21  1  0  0  0
 16 31  1  0  0  0
 17 18  1  0  0  0
 17 95  1  0  0  0
 18 19  2  0  0  0
 18 96  1  0  0  0
 19 20  1  0  0  0
 19 24  1  0  0  0
 20 21  2  0  0  0
 20 97  1  0  0  0
 21 23  1  0  0  0
 22 28  1  0  0  0
 22 32  2  0  0  0
 26 27  1  0  0  0
 28 98  1  0  0  0
 28 99  1  0  0  0
 29100  1  0  0  0
 29101  1  0  0  0
 33 34  1  0  0  0
 33 66  1  0  0  0
 33 70  2  0  0  0
 34 36  1  0  0  0
 34 59  1  0  0  0
 34102  1  0  0  0
 35 44  2  0  0  0
 35 45  1  0  0  0
 35 68  1  0  0  0
 36 56  1  0  0  0
 36103  1  0  0  0
 37 39  1  0  0  0
 37 47  1  0  0  0
 37 66  1  0  0  0
 37104  1  0  0  0
 38 43  2  0  0  0
 38 46  1  0  0  0
 38 47  1  0  0  0
 39 64  1  0  0  0
 39 67  2  0  0  0
 40 52  1  0  0  0
 40 53  2  0  0  0
 40 58  1  0  0  0
 41105  1  0  0  0
 41106  1  0  0  0
 41107  1  0  0  0
 41 48  1  0  0  0
 42 43  1  0  0  0
 42 66  1  0  0  0
 42108  1  0  0  0
 42109  1  0  0  0
 43 44  1  0  0  0
 44110  1  0  0  0
 45 46  2  0  0  0
 45111  1  0  0  0
 46112  1  0  0  0
 47113  1  0  0  0
 47114  1  0  0  0
 48 56  1  0  0  0
 48 65  1  0  0  0
 48115  1  0  0  0
 49 50  1  0  0  0
 49 53  1  0  0  0
 49 64  1  0  0  0
 49116  1  0  0  0
 50 51  1  0  0  0
 50117  1  0  0  0
 50118  1  0  0  0
 51 52  1  0  0  0
 51119  1  0  0  0
 51120  1  0  0  0
 52121  1  0  0  0
 52122  1  0  0  0
 53 54  1  0  0  0
 54 55  2  0  0  0
 54123  1  0  0  0
 55 57  1  0  0  0
 55124  1  0  0  0
 56 69  2  0  0  0
 57 58  2  0  0  0
 57125  1  0  0  0
 58126  1  0  0  0
 59 60  1  0  0  0
 59 61  1  0  0  0
 59 62  1  0  0  0
 60127  1  0  0  0
 60128  1  0  0  0
 60129  1  0  0  0
 61130  1  0  0  0
 61131  1  0  0  0
 61132  1  0  0  0
 62133  1  0  0  0
 62134  1  0  0  0
 62135  1  0  0  0
 63 65  1  0  0  0
 63136  1  0  0  0
 63137  1  0  0  0
 63138  1  0  0  0
 64139  1  0  0  0
 65140  1  0  0  0
 68 78  1  0  0  0
 71 73  1  0  0  0
 71 74  2  0  0  0
 71141  1  0  0  0
 72 73  2  0  0  0
 72 81  1  0  0  0
 72142  1  0  0  0
 73 79  1  0  0  0
 74 76  1  0  0  0
 74 81  1  0  0  0
 75143  1  0  0  0
 75144  1  0  0  0
 75145  1  0  0  0
 75 78  1  0  0  0
 76 80  1  0  0  0
 76146  1  0  0  0
 76147  1  0  0  0
 77 78  1  0  0  0
 77 79  1  0  0  0
 77148  1  0  0  0
 77149  1  0  0  0
 78150  1  0  0  0
 79151  1  0  0  0
 80152  1  0  0  0
M  ISO  4   1 100  68 101  78 101  80 100
M  END
> <chiral flag>
0

> <version>
0

> <s_m_source_file>
/data/baiqing/PycharmProjects/Reinvent-master-3.2/result/LINK_invent/BTK/process_docking_weight1_custom_product_contain_oxygen_bond_distance_aromatic_linkinvent_7_9_3/rearranged_h_0150.sdf

> <i_m_source_file_index>
54

> <r_mmod_Potential_Energy-OPLS-2005>
53.9637908935547

> <r_mmod_Stretch_Energy-OPLS-2005>
114.323295593262

> <r_mmod_Bend_Energy-OPLS-2005>
166.655578613281

> <r_mmod_Torsional_Energy-OPLS-2005>
229.128265380859

> <r_mmod_Improper_Torsional_Energy-OPLS-2005>
5.85178709030151

> <r_mmod_Van_der_Waal_Energy-OPLS-2005>
117.753631591797

> <r_mmod_Electrostatic_Energy-OPLS-2005>
-445.597015380859

> <r_mmod_Solvation_Energy-OPLS-2005>
-220.310134887695

> <b_mmod_Minimization_Converged-OPLS-2005>
0

> <r_mmod_RMS_Derivative-OPLS-2005>
2.98556566238403

$$$$
54
                    3D
 Structure written by MMmdl.
158166  0  0  1  0            999 V2000
  -30.6089  -14.6341   20.5014 C   0  0  0  0  0  0
  -30.4368  -12.3885   19.4460 C   0  0  0  0  0  0
  -29.5056  -12.5201   18.2205 C   0  0  0  0  0  0
  -28.0244  -12.3686   18.6237 C   0  0  0  0  0  0
  -27.6544  -13.2134   19.8735 C   0  0  2  0  0  0
  -28.7007  -13.0455   20.9993 C   0  0  0  0  0  0
  -25.2579  -13.8169   20.5684 C   0  0  0  0  0  0
  -24.1841  -13.0449   20.9173 C   0  0  0  0  0  0
  -24.6396  -11.6920   20.8728 C   0  0  0  0  0  0
  -23.9056  -10.4308   21.0395 C   0  0  0  0  0  0
  -24.3621   -9.4231   21.9178 C   0  0  0  0  0  0
  -23.6303   -8.2261   22.0745 C   0  0  0  0  0  0
  -22.4295   -8.0278   21.3525 C   0  0  0  0  0  0
  -21.9918   -9.0246   20.4641 C   0  0  0  0  0  0
  -22.7223  -10.2136   20.3047 C   0  0  0  0  0  0
  -21.6874   -6.0740   22.5261 C   0  0  0  0  0  0
  -21.4024   -6.5639   23.8197 C   0  0  0  0  0  0
  -21.3697   -5.6791   24.9164 C   0  0  0  0  0  0
  -21.6061   -4.3045   24.7225 C   0  0  0  0  0  0
  -21.8836   -3.8146   23.4338 C   0  0  0  0  0  0
  -21.9217   -4.6964   22.3396 C   0  0  0  0  0  0
  -22.7862  -13.5260   21.1839 C   0  0  0  0  0  0
  -22.1660   -4.2144   21.0967 F   0  0  0  0  0  0
  -21.5641   -3.4529   25.7736 F   0  0  0  0  0  0
  -30.0154  -13.4009   20.4356 N   0  0  0  0  0  0
  -26.2993  -12.9323   20.3372 N   0  0  0  0  0  0
  -25.9329  -11.6487   20.5797 N   0  0  0  0  0  0
  -22.0489  -12.8250   22.0384 N   0  0  0  0  0  0
  -25.4301  -15.1890   20.4064 N   0  0  0  0  0  0
  -31.7697  -14.8192   20.1172 O   0  0  0  0  0  0
  -21.6657   -6.8869   21.4224 O   0  0  0  0  0  0
  -22.3557  -14.5587   20.6718 O   0  0  0  0  0  0
  -24.6243  -31.8618   23.2057 C   0  0  0  0  0  0
  -25.9100  -32.4797   23.8365 C   0  0  1  0  0  0
  -27.2130  -27.3283   20.1108 C   0  0  0  0  0  0
  -25.5924  -33.8602   24.2288 N   0  0  0  0  0  0
  -23.4158  -30.4884   21.5468 C   0  0  2  0  0  0
  -24.8606  -28.9452   20.1113 C   0  0  0  0  0  0
  -22.7460  -29.4631   22.4930 C   0  0  0  0  0  0
  -18.0280  -28.1372   22.8484 C   0  0  0  0  0  0
  -24.1487  -36.7306   23.2620 C   0  0  0  0  0  0
  -25.9568  -30.7936   21.3765 C   0  0  0  0  0  0
  -26.0300  -29.4216   20.7186 C   0  0  0  0  0  0
  -27.2123  -28.6243   20.7086 C   0  0  0  0  0  0
  -26.0304  -26.9089   19.4655 C   0  0  0  0  0  0
  -24.8628  -27.6961   19.4708 C   0  0  0  0  0  0
  -23.6313  -29.8285   20.1597 C   0  0  0  0  0  0
  -25.4114  -36.3099   24.0318 C   0  0  1  0  0  0
  -20.5885  -28.3684   23.1292 C   0  0  2  0  0  0
  -20.6789  -26.9411   22.5413 C   0  0  0  0  0  0
  -19.5756  -26.6373   21.5218 C   0  0  0  0  0  0
  -18.1931  -26.7910   22.1617 C   0  0  0  0  0  0
  -19.1532  -28.8845   23.2888 C   0  0  0  0  0  0
  -18.9453  -30.1447   23.8907 C   0  0  0  0  0  0
  -17.6451  -30.6577   24.0558 C   0  0  0  0  0  0
  -25.9050  -34.9469   23.5101 C   0  0  0  0  0  0
  -16.5342  -29.9074   23.6322 C   0  0  0  0  0  0
  -16.7266  -28.6492   23.0343 C   0  0  0  0  0  0
  -26.4487  -31.6607   25.0729 C   0  0  0  0  0  0
  -25.3709  -31.3767   26.1449 C   0  0  0  0  0  0
  -27.0295  -30.3015   24.6176 C   0  0  0  0  0  0
  -27.6033  -32.4343   25.7519 C   0  0  0  0  0  0
  -27.5603  -37.1809   24.8450 C   0  0  0  0  0  0
  -21.4173  -29.3050   22.3695 N   0  0  0  0  0  0
  -26.4289  -37.3811   23.9420 N   0  0  0  0  0  0
  -24.6841  -31.0647   22.0998 N   0  0  0  0  0  0
  -23.4209  -28.8137   23.2966 O   0  0  0  0  0  0
  -28.3256  -26.4819   20.1169 O   0  0  0  0  0  0
  -26.5609  -34.8941   22.4658 O   0  0  0  0  0  0
  -23.5414  -32.1391   23.7412 O   0  0  0  0  0  0
  -30.4262  -18.0357   21.4845 C   0  0  0  0  0  0
  -29.1235  -17.6493   19.4961 C   0  0  0  0  0  0
  -30.3216  -19.4484   21.2768 C   0  0  0  0  0  0
  -29.0432  -19.0549   19.2769 C   0  0  0  0  0  0
  -29.8429  -17.0978   20.5898 C   0  0  0  0  0  0
  -29.6382  -19.9959   20.1553 C   0  0  0  0  0  0
  -30.4542  -24.3628   19.8356 C   0  0  0  0  0  0
  -28.5039  -23.8313   18.3333 C   0  0  0  0  0  0
  -28.8646  -22.4677   20.4746 C   0  0  0  0  0  0
  -28.1217  -25.0689   20.5188 C   0  0  0  0  0  0
  -28.9776  -23.9261   19.8007 C   0  0  0  0  0  0
  -29.7870  -15.6655   20.8708 N   0  0  0  0  0  0
  -29.6524  -21.3861   19.8086 N   0  0  0  0  0  0
  -31.4766  -12.5154   19.1397 H   0  0  0  0  0  0
  -30.3726  -11.3882   19.8746 H   0  0  0  0  0  0
  -29.7664  -11.7753   17.4688 H   0  0  0  0  0  0
  -29.6631  -13.4926   17.7534 H   0  0  0  0  0  0
  -27.8409  -11.3124   18.8173 H   0  0  0  0  0  0
  -27.3802  -12.6351   17.7839 H   0  0  0  0  0  0
  -27.6798  -14.2554   19.5611 H   0  0  0  0  0  0
  -28.7136  -12.0165   21.3606 H   0  0  0  0  0  0
  -28.4510  -13.6598   21.8651 H   0  0  0  0  0  0
  -25.2778   -9.5709   22.4741 H   0  0  0  0  0  0
  -24.0034   -7.4680   22.7472 H   0  0  0  0  0  0
  -21.0842   -8.8743   19.8958 H   0  0  0  0  0  0
  -22.3661  -10.9664   19.6139 H   0  0  0  0  0  0
  -21.1960   -7.6135   23.9696 H   0  0  0  0  0  0
  -21.1513   -6.0502   25.9072 H   0  0  0  0  0  0
  -22.0580   -2.7600   23.2828 H   0  0  0  0  0  0
  -22.4122  -11.9919   22.4776 H   0  0  0  0  0  0
  -21.1099  -13.1249   22.2603 H   0  0  0  0  0  0
  -24.6618  -15.8417   20.5136 H   0  0  0  0  0  0
  -26.2813  -15.6283   20.0805 H   0  0  0  0  0  0
  -26.7161  -32.5489   23.1116 H   0  0  0  0  0  0
  -25.0147  -33.9764   25.0478 H   0  0  0  0  0  0
  -22.7090  -31.3095   21.4090 H   0  0  0  0  0  0
  -23.3786  -35.9600   23.3231 H   0  0  0  0  0  0
  -24.3595  -36.8984   22.2048 H   0  0  0  0  0  0
  -23.7204  -37.6471   23.6680 H   0  0  0  0  0  0
  -26.0908  -31.5608   20.6129 H   0  0  0  0  0  0
  -26.8370  -30.8416   22.0060 H   0  0  0  0  0  0
  -28.1120  -28.9854   21.1874 H   0  0  0  0  0  0
  -26.0047  -25.9620   18.9438 H   0  0  0  0  0  0
  -23.9736  -27.3377   18.9685 H   0  0  0  0  0  0
  -23.7565  -30.6100   19.4086 H   0  0  0  0  0  0
  -22.7494  -29.2638   19.8505 H   0  0  0  0  0  0
  -25.1302  -36.1942   25.0812 H   0  0  0  0  0  0
  -20.9977  -28.3250   24.1404 H   0  0  0  0  0  0
  -20.5703  -26.2281   23.3600 H   0  0  0  0  0  0
  -21.6657  -26.7456   22.1189 H   0  0  0  0  0  0
  -19.6922  -25.6280   21.1255 H   0  0  0  0  0  0
  -19.6694  -27.3174   20.6737 H   0  0  0  0  0  0
  -17.4212  -26.6669   21.4012 H   0  0  0  0  0  0
  -18.0322  -26.0043   22.8996 H   0  0  0  0  0  0
  -19.7928  -30.7262   24.2275 H   0  0  0  0  0  0
  -17.5002  -31.6256   24.5136 H   0  0  0  0  0  0
  -15.5346  -30.2976   23.7632 H   0  0  0  0  0  0
  -15.8668  -28.0811   22.7054 H   0  0  0  0  0  0
  -24.5861  -30.7136   25.7806 H   0  0  0  0  0  0
  -24.8915  -32.2936   26.4884 H   0  0  0  0  0  0
  -25.8008  -30.8943   27.0230 H   0  0  0  0  0  0
  -26.2850  -29.6814   24.1158 H   0  0  0  0  0  0
  -27.3934  -29.7247   25.4697 H   0  0  0  0  0  0
  -27.8770  -30.4305   23.9434 H   0  0  0  0  0  0
  -27.2608  -33.3634   26.2116 H   0  0  0  0  0  0
  -28.3845  -32.6929   25.0348 H   0  0  0  0  0  0
  -28.0686  -31.8441   26.5434 H   0  0  0  0  0  0
  -28.2571  -38.0161   24.7592 H   0  0  0  0  0  0
  -28.1150  -36.2702   24.6150 H   0  0  0  0  0  0
  -27.2331  -37.1313   25.8850 H   0  0  0  0  0  0
  -20.9320  -29.8798   21.6951 H   0  0  0  0  0  0
  -26.0167  -38.2874   24.1467 H   0  0  0  0  0  0
  -30.9493  -17.6747   22.3593 H   0  0  0  0  0  0
  -28.6153  -16.9946   18.8024 H   0  0  0  0  0  0
  -30.8185  -20.1085   21.9754 H   0  0  0  0  0  0
  -28.5111  -19.4059   18.4022 H   0  0  0  0  0  0
  -31.0900  -23.6983   19.2516 H   0  0  0  0  0  0
  -30.8314  -24.3720   20.8584 H   0  0  0  0  0  0
  -30.5850  -25.3662   19.4314 H   0  0  0  0  0  0
  -29.1089  -23.1345   17.7523 H   0  0  0  0  0  0
  -28.5638  -24.7996   17.8336 H   0  0  0  0  0  0
  -27.4687  -23.4912   18.2684 H   0  0  0  0  0  0
  -27.8190  -22.1555   20.4858 H   0  0  0  0  0  0
  -29.1620  -22.5287   21.5229 H   0  0  0  0  0  0
  -28.3433  -25.0339   21.5857 H   0  0  0  0  0  0
  -27.0721  -24.7817   20.4630 H   0  0  0  0  0  0
  -28.8735  -15.3303   21.1383 H   0  0  0  0  0  0
  -29.6599  -21.5247   18.8025 H   0  0  0  0  0  0
  1 25  1  0  0  0
  1 30  2  0  0  0
  1 82  1  0  0  0
  2  3  1  0  0  0
  2 25  1  0  0  0
  2 84  1  0  0  0
  2 85  1  0  0  0
  3  4  1  0  0  0
  3 86  1  0  0  0
  3 87  1  0  0  0
  4  5  1  0  0  0
  4 88  1  0  0  0
  4 89  1  0  0  0
  5  6  1  0  0  0
  5 26  1  0  0  0
  5 90  1  0  0  0
  6 25  1  0  0  0
  6 91  1  0  0  0
  6 92  1  0  0  0
  7  8  2  0  0  0
  7 26  1  0  0  0
  7 29  1  0  0  0
  8  9  1  0  0  0
  8 22  1  0  0  0
  9 10  1  0  0  0
  9 27  2  0  0  0
 10 11  2  0  0  0
 10 15  1  0  0  0
 11 12  1  0  0  0
 11 93  1  0  0  0
 12 13  2  0  0  0
 12 94  1  0  0  0
 13 14  1  0  0  0
 13 31  1  0  0  0
 14 15  2  0  0  0
 14 95  1  0  0  0
 15 96  1  0  0  0
 16 17  2  0  0  0
 16 21  1  0  0  0
 16 31  1  0  0  0
 17 18  1  0  0  0
 17 97  1  0  0  0
 18 19  2  0  0  0
 18 98  1  0  0  0
 19 20  1  0  0  0
 19 24  1  0  0  0
 20 21  2  0  0  0
 20 99  1  0  0  0
 21 23  1  0  0  0
 22 28  1  0  0  0
 22 32  2  0  0  0
 26 27  1  0  0  0
 28100  1  0  0  0
 28101  1  0  0  0
 29102  1  0  0  0
 29103  1  0  0  0
 33 34  1  0  0  0
 33 66  1  0  0  0
 33 70  2  0  0  0
 34 36  1  0  0  0
 34 59  1  0  0  0
 34104  1  0  0  0
 35 44  2  0  0  0
 35 45  1  0  0  0
 35 68  1  0  0  0
 36 56  1  0  0  0
 36105  1  0  0  0
 37 39  1  0  0  0
 37 47  1  0  0  0
 37 66  1  0  0  0
 37106  1  0  0  0
 38 43  2  0  0  0
 38 46  1  0  0  0
 38 47  1  0  0  0
 39 64  1  0  0  0
 39 67  2  0  0  0
 40 52  1  0  0  0
 40 53  2  0  0  0
 40 58  1  0  0  0
 41107  1  0  0  0
 41108  1  0  0  0
 41109  1  0  0  0
 41 48  1  0  0  0
 42 43  1  0  0  0
 42 66  1  0  0  0
 42110  1  0  0  0
 42111  1  0  0  0
 43 44  1  0  0  0
 44112  1  0  0  0
 45 46  2  0  0  0
 45113  1  0  0  0
 46114  1  0  0  0
 47115  1  0  0  0
 47116  1  0  0  0
 48 56  1  0  0  0
 48 65  1  0  0  0
 48117  1  0  0  0
 49 50  1  0  0  0
 49 53  1  0  0  0
 49 64  1  0  0  0
 49118  1  0  0  0
 50 51  1  0  0  0
 50119  1  0  0  0
 50120  1  0  0  0
 51 52  1  0  0  0
 51121  1  0  0  0
 51122  1  0  0  0
 52123  1  0  0  0
 52124  1  0  0  0
 53 54  1  0  0  0
 54 55  2  0  0  0
 54125  1  0  0  0
 55 57  1  0  0  0
 55126  1  0  0  0
 56 69  2  0  0  0
 57 58  2  0  0  0
 57127  1  0  0  0
 58128  1  0  0  0
 59 60  1  0  0  0
 59 61  1  0  0  0
 59 62  1  0  0  0
 60129  1  0  0  0
 60130  1  0  0  0
 60131  1  0  0  0
 61132  1  0  0  0
 61133  1  0  0  0
 61134  1  0  0  0
 62135  1  0  0  0
 62136  1  0  0  0
 62137  1  0  0  0
 63 65  1  0  0  0
 63138  1  0  0  0
 63139  1  0  0  0
 63140  1  0  0  0
 64141  1  0  0  0
 65142  1  0  0  0
 68 80  1  0  0  0
 71 73  2  0  0  0
 71 75  1  0  0  0
 71143  1  0  0  0
 72 74  1  0  0  0
 72 75  2  0  0  0
 72144  1  0  0  0
 73 76  1  0  0  0
 73145  1  0  0  0
 74 76  2  0  0  0
 74146  1  0  0  0
 75 82  1  0  0  0
 76 83  1  0  0  0
 77147  1  0  0  0
 77148  1  0  0  0
 77149  1  0  0  0
 77 81  1  0  0  0
 78 81  1  0  0  0
 78150  1  0  0  0
 78151  1  0  0  0
 78152  1  0  0  0
 79 81  1  0  0  0
 79 83  1  0  0  0
 79153  1  0  0  0
 79154  1  0  0  0
 80 81  1  0  0  0
 80155  1  0  0  0
 80156  1  0  0  0
 82157  1  0  0  0
 83158  1  0  0  0
M  ISO  4   1 100  68 101  80 101  82 100
M  END
> <chiral flag>
0

> <version>
0

> <s_m_source_file>
/data/baiqing/PycharmProjects/Reinvent-master-3.2/result/LINK_invent/BTK/process_docking_weight1_custom_product_contain_oxygen_bond_distance_aromatic_linkinvent_7_9_3/rearranged_h_0150.sdf

> <i_m_source_file_index>
55

> <r_mmod_Potential_Energy-OPLS-2005>
65.023681640625

> <r_mmod_Stretch_Energy-OPLS-2005>
77.4648132324219

> <r_mmod_Bend_Energy-OPLS-2005>
137.757019042969

> <r_mmod_Torsional_Energy-OPLS-2005>
289.740295410156

> <r_mmod_Improper_Torsional_Energy-OPLS-2005>
9.69678783416748

> <r_mmod_Van_der_Waal_Energy-OPLS-2005>
136.25129699707

> <r_mmod_Electrostatic_Energy-OPLS-2005>
-421.08154296875

> <r_mmod_Solvation_Energy-OPLS-2005>
-210.066970825195

> <b_mmod_Minimization_Converged-OPLS-2005>
0

> <r_mmod_RMS_Derivative-OPLS-2005>
3.98515772819519

$$$$
55
                    3D
 Structure written by MMmdl.
155163  0  0  1  0            999 V2000
  -30.6419  -14.8040   20.4338 C   0  0  0  0  0  0
  -30.4442  -12.4890   19.4817 C   0  0  0  0  0  0
  -29.5147  -12.5151   18.2452 C   0  0  0  0  0  0
  -28.0420  -12.3403   18.6640 C   0  0  0  0  0  0
  -27.6496  -13.2470   19.8595 C   0  0  2  0  0  0
  -28.7052  -13.2186   20.9905 C   0  0  0  0  0  0
  -25.2548  -13.8246   20.5809 C   0  0  0  0  0  0
  -24.1843  -13.0498   20.9232 C   0  0  0  0  0  0
  -24.6445  -11.6963   20.8748 C   0  0  0  0  0  0
  -23.9142  -10.4316   21.0407 C   0  0  0  0  0  0
  -24.3664   -9.4223   21.9206 C   0  0  0  0  0  0
  -23.6331   -8.2265   22.0748 C   0  0  0  0  0  0
  -22.4310   -8.0307   21.3543 C   0  0  0  0  0  0
  -21.9969   -9.0302   20.4655 C   0  0  0  0  0  0
  -22.7307  -10.2172   20.3075 C   0  0  0  0  0  0
  -21.6843   -6.0759   22.5291 C   0  0  0  0  0  0
  -21.4014   -6.5663   23.8222 C   0  0  0  0  0  0
  -21.3659   -5.6806   24.9184 C   0  0  0  0  0  0
  -21.6043   -4.3067   24.7234 C   0  0  0  0  0  0
  -21.8819   -3.8174   23.4351 C   0  0  0  0  0  0
  -21.9202   -4.6993   22.3406 C   0  0  0  0  0  0
  -22.7847  -13.5220   21.1904 C   0  0  0  0  0  0
  -22.1668   -4.2178   21.0982 F   0  0  0  0  0  0
  -21.5622   -3.4553   25.7738 F   0  0  0  0  0  0
  -30.0060  -13.5744   20.3940 N   0  0  0  0  0  0
  -26.3009  -12.9505   20.3408 N   0  0  0  0  0  0
  -25.9392  -11.6621   20.5826 N   0  0  0  0  0  0
  -22.0509  -12.8171   22.0422 N   0  0  0  0  0  0
  -25.4274  -15.2002   20.4232 N   0  0  0  0  0  0
  -31.8310  -14.8686   20.1054 O   0  0  0  0  0  0
  -21.6653   -6.8917   21.4256 O   0  0  0  0  0  0
  -22.3501  -14.5522   20.6748 O   0  0  0  0  0  0
  -24.6383  -31.8524   23.1929 C   0  0  0  0  0  0
  -25.9219  -32.4729   23.8257 C   0  0  1  0  0  0
  -27.2441  -27.2208   20.1867 C   0  0  0  0  0  0
  -25.5969  -33.8500   24.2187 N   0  0  0  0  0  0
  -23.4323  -30.4815   21.5374 C   0  0  2  0  0  0
  -24.8878  -28.9022   20.1256 C   0  0  0  0  0  0
  -22.7507  -29.4683   22.4953 C   0  0  0  0  0  0
  -18.0327  -28.1358   22.8391 C   0  0  0  0  0  0
  -24.1504  -36.7265   23.2646 C   0  0  0  0  0  0
  -25.9796  -30.7534   21.3798 C   0  0  0  0  0  0
  -26.0577  -29.3670   20.7386 C   0  0  0  0  0  0
  -27.2368  -28.5440   20.7563 C   0  0  0  0  0  0
  -26.0517  -26.8332   19.5419 C   0  0  0  0  0  0
  -24.8910  -27.6378   19.5146 C   0  0  0  0  0  0
  -23.6551  -29.7897   20.1639 C   0  0  0  0  0  0
  -25.4128  -36.3036   24.0333 C   0  0  1  0  0  0
  -20.5944  -28.3560   23.1183 C   0  0  2  0  0  0
  -20.6862  -26.9463   22.4959 C   0  0  0  0  0  0
  -19.5734  -26.6366   21.4932 C   0  0  0  0  0  0
  -18.1884  -26.8026   22.1238 C   0  0  0  0  0  0
  -19.1619  -28.8725   23.2885 C   0  0  0  0  0  0
  -18.9593  -30.1307   23.8944 C   0  0  0  0  0  0
  -17.6581  -30.6459   24.0666 C   0  0  0  0  0  0
  -25.9095  -34.9421   23.5074 C   0  0  0  0  0  0
  -16.5453  -29.9037   23.6317 C   0  0  0  0  0  0
  -16.7309  -28.6521   23.0251 C   0  0  0  0  0  0
  -26.4524  -31.6572   25.0676 C   0  0  0  0  0  0
  -25.3717  -31.3761   26.1370 C   0  0  0  0  0  0
  -27.0388  -30.2960   24.6263 C   0  0  0  0  0  0
  -27.6038  -32.4323   25.7502 C   0  0  0  0  0  0
  -27.5574  -37.1799   24.8471 C   0  0  0  0  0  0
  -21.4220  -29.3017   22.3651 N   0  0  0  0  0  0
  -26.4278  -37.3761   23.9427 N   0  0  0  0  0  0
  -24.7030  -31.0494   22.0931 N   0  0  0  0  0  0
  -23.4193  -28.8224   23.3076 O   0  0  0  0  0  0
  -28.3687  -26.3606   20.0708 O   0  0  0  0  0  0
  -26.5669  -34.8921   22.4644 O   0  0  0  0  0  0
  -23.5526  -32.1376   23.7220 O   0  0  0  0  0  0
  -31.2700  -18.0003   20.1180 C   0  0  0  0  0  0
  -31.0099  -19.4336   20.1139 C   0  0  0  0  0  0
  -30.1221  -17.3493   20.5287 C   0  0  0  0  0  0
  -29.7076  -19.6310   20.5160 C   0  0  0  0  0  0
  -27.3901  -23.3951   19.4254 C   0  0  0  0  0  0
  -27.3170  -23.1966   21.9059 C   0  0  0  0  0  0
  -29.3775  -22.3301   20.6818 C   0  0  0  0  0  0
  -28.6666  -25.1212   20.9039 C   0  0  0  0  0  0
  -28.2315  -23.5291   20.7002 C   0  0  0  0  0  0
  -29.8819  -15.9563   20.6529 N   0  0  0  0  0  0
  -28.9265  -20.8638   20.6419 N   0  0  0  0  0  0
  -29.1526  -18.3552   20.7626 O   0  0  0  0  0  0
  -31.4871  -12.5969   19.1722 H   0  0  0  0  0  0
  -30.3889  -11.5259   19.9927 H   0  0  0  0  0  0
  -29.7992  -11.7309   17.5449 H   0  0  0  0  0  0
  -29.6338  -13.4649   17.7163 H   0  0  0  0  0  0
  -27.8924  -11.2913   18.9232 H   0  0  0  0  0  0
  -27.3813  -12.5391   17.8177 H   0  0  0  0  0  0
  -27.6333  -14.2654   19.4671 H   0  0  0  0  0  0
  -28.7570  -12.2333   21.4554 H   0  0  0  0  0  0
  -28.4397  -13.9146   21.7894 H   0  0  0  0  0  0
  -25.2821   -9.5667   22.4768 H   0  0  0  0  0  0
  -24.0047   -7.4639   22.7439 H   0  0  0  0  0  0
  -21.0908   -8.8867   19.8929 H   0  0  0  0  0  0
  -22.3835  -10.9730   19.6167 H   0  0  0  0  0  0
  -21.2004   -7.6169   23.9739 H   0  0  0  0  0  0
  -21.1461   -6.0530   25.9080 H   0  0  0  0  0  0
  -22.0590   -2.7642   23.2850 H   0  0  0  0  0  0
  -22.4154  -11.9832   22.4777 H   0  0  0  0  0  0
  -21.1120  -13.1147   22.2658 H   0  0  0  0  0  0
  -24.6745  -15.8650   20.5634 H   0  0  0  0  0  0
  -26.2810  -15.6403   20.1096 H   0  0  0  0  0  0
  -26.7304  -32.5393   23.1006 H   0  0  0  0  0  0
  -25.0007  -33.9599   25.0248 H   0  0  0  0  0  0
  -22.7388  -31.3119   21.3720 H   0  0  0  0  0  0
  -23.3752  -35.9619   23.3306 H   0  0  0  0  0  0
  -24.3582  -36.8882   22.2058 H   0  0  0  0  0  0
  -23.7290  -37.6480   23.6672 H   0  0  0  0  0  0
  -26.1209  -31.5114   20.6086 H   0  0  0  0  0  0
  -26.8529  -30.8023   22.0201 H   0  0  0  0  0  0
  -28.1299  -28.9214   21.2339 H   0  0  0  0  0  0
  -26.0116  -25.8880   19.0355 H   0  0  0  0  0  0
  -24.0045  -27.2667   19.0187 H   0  0  0  0  0  0
  -23.7666  -30.5462   19.3843 H   0  0  0  0  0  0
  -22.7790  -29.2092   19.8735 H   0  0  0  0  0  0
  -25.1328  -36.1839   25.0831 H   0  0  0  0  0  0
  -21.0138  -28.2960   24.1282 H   0  0  0  0  0  0
  -20.6290  -26.2015   23.2913 H   0  0  0  0  0  0
  -21.6598  -26.7911   22.0285 H   0  0  0  0  0  0
  -19.6657  -27.2937   20.6295 H   0  0  0  0  0  0
  -19.6969  -25.6217   21.1117 H   0  0  0  0  0  0
  -17.4227  -26.7221   21.3518 H   0  0  0  0  0  0
  -17.9980  -25.9940   22.8331 H   0  0  0  0  0  0
  -19.8200  -30.6955   24.2302 H   0  0  0  0  0  0
  -17.5185  -31.6067   24.5374 H   0  0  0  0  0  0
  -15.5437  -30.2889   23.7714 H   0  0  0  0  0  0
  -15.8660  -28.0883   22.6960 H   0  0  0  0  0  0
  -24.5859  -30.7167   25.7672 H   0  0  0  0  0  0
  -24.8946  -32.2956   26.4769 H   0  0  0  0  0  0
  -25.7985  -30.8904   27.0149 H   0  0  0  0  0  0
  -26.3013  -29.6657   24.1286 H   0  0  0  0  0  0
  -27.3997  -29.7286   25.4853 H   0  0  0  0  0  0
  -27.8914  -30.4154   23.9576 H   0  0  0  0  0  0
  -27.2603  -33.3596   26.2083 H   0  0  0  0  0  0
  -28.3883  -32.6932   25.0392 H   0  0  0  0  0  0
  -28.0684  -31.8446   26.5423 H   0  0  0  0  0  0
  -28.2619  -38.0075   24.7514 H   0  0  0  0  0  0
  -28.1051  -36.2610   24.6303 H   0  0  0  0  0  0
  -27.2306  -37.1468   25.8881 H   0  0  0  0  0  0
  -20.9333  -29.8614   21.6823 H   0  0  0  0  0  0
  -26.0135  -38.2845   24.1361 H   0  0  0  0  0  0
  -32.1962  -17.5143   19.8345 H   0  0  0  0  0  0
  -31.7130  -20.2081   19.8336 H   0  0  0  0  0  0
  -26.4483  -23.9295   19.5344 H   0  0  0  0  0  0
  -27.9140  -23.7842   18.5579 H   0  0  0  0  0  0
  -27.1367  -22.3578   19.2075 H   0  0  0  0  0  0
  -26.8298  -22.2235   21.8081 H   0  0  0  0  0  0
  -26.5241  -23.9378   22.0251 H   0  0  0  0  0  0
  -27.8890  -23.1689   22.8401 H   0  0  0  0  0  0
  -30.0017  -22.4381   21.5696 H   0  0  0  0  0  0
  -30.0438  -22.5024   19.8412 H   0  0  0  0  0  0
  -29.7581  -25.1008   20.8954 H   0  0  0  0  0  0
  -28.4711  -25.4039   21.9371 H   0  0  0  0  0  0
  -28.9308  -15.7335   20.8972 H   0  0  0  0  0  0
  -27.9518  -20.7302   20.8910 H   0  0  0  0  0  0
  1 25  1  0  0  0
  1 30  2  0  0  0
  1 80  1  0  0  0
  2  3  1  0  0  0
  2 25  1  0  0  0
  2 83  1  0  0  0
  2 84  1  0  0  0
  3  4  1  0  0  0
  3 85  1  0  0  0
  3 86  1  0  0  0
  4  5  1  0  0  0
  4 87  1  0  0  0
  4 88  1  0  0  0
  5  6  1  0  0  0
  5 26  1  0  0  0
  5 89  1  0  0  0
  6 25  1  0  0  0
  6 90  1  0  0  0
  6 91  1  0  0  0
  7  8  2  0  0  0
  7 26  1  0  0  0
  7 29  1  0  0  0
  8  9  1  0  0  0
  8 22  1  0  0  0
  9 10  1  0  0  0
  9 27  2  0  0  0
 10 11  2  0  0  0
 10 15  1  0  0  0
 11 12  1  0  0  0
 11 92  1  0  0  0
 12 13  2  0  0  0
 12 93  1  0  0  0
 13 14  1  0  0  0
 13 31  1  0  0  0
 14 15  2  0  0  0
 14 94  1  0  0  0
 15 95  1  0  0  0
 16 17  2  0  0  0
 16 21  1  0  0  0
 16 31  1  0  0  0
 17 18  1  0  0  0
 17 96  1  0  0  0
 18 19  2  0  0  0
 18 97  1  0  0  0
 19 20  1  0  0  0
 19 24  1  0  0  0
 20 21  2  0  0  0
 20 98  1  0  0  0
 21 23  1  0  0  0
 22 28  1  0  0  0
 22 32  2  0  0  0
 26 27  1  0  0  0
 28 99  1  0  0  0
 28100  1  0  0  0
 29101  1  0  0  0
 29102  1  0  0  0
 33 34  1  0  0  0
 33 66  1  0  0  0
 33 70  2  0  0  0
 34 36  1  0  0  0
 34 59  1  0  0  0
 34103  1  0  0  0
 35 44  2  0  0  0
 35 45  1  0  0  0
 35 68  1  0  0  0
 36 56  1  0  0  0
 36104  1  0  0  0
 37 39  1  0  0  0
 37 47  1  0  0  0
 37 66  1  0  0  0
 37105  1  0  0  0
 38 43  2  0  0  0
 38 46  1  0  0  0
 38 47  1  0  0  0
 39 64  1  0  0  0
 39 67  2  0  0  0
 40 52  1  0  0  0
 40 53  2  0  0  0
 40 58  1  0  0  0
 41106  1  0  0  0
 41107  1  0  0  0
 41108  1  0  0  0
 41 48  1  0  0  0
 42 43  1  0  0  0
 42 66  1  0  0  0
 42109  1  0  0  0
 42110  1  0  0  0
 43 44  1  0  0  0
 44111  1  0  0  0
 45 46  2  0  0  0
 45112  1  0  0  0
 46113  1  0  0  0
 47114  1  0  0  0
 47115  1  0  0  0
 48 56  1  0  0  0
 48 65  1  0  0  0
 48116  1  0  0  0
 49 50  1  0  0  0
 49 53  1  0  0  0
 49 64  1  0  0  0
 49117  1  0  0  0
 50 51  1  0  0  0
 50118  1  0  0  0
 50119  1  0  0  0
 51 52  1  0  0  0
 51120  1  0  0  0
 51121  1  0  0  0
 52122  1  0  0  0
 52123  1  0  0  0
 53 54  1  0  0  0
 54 55  2  0  0  0
 54124  1  0  0  0
 55 57  1  0  0  0
 55125  1  0  0  0
 56 69  2  0  0  0
 57 58  2  0  0  0
 57126  1  0  0  0
 58127  1  0  0  0
 59 60  1  0  0  0
 59 61  1  0  0  0
 59 62  1  0  0  0
 60128  1  0  0  0
 60129  1  0  0  0
 60130  1  0  0  0
 61131  1  0  0  0
 61132  1  0  0  0
 61133  1  0  0  0
 62134  1  0  0  0
 62135  1  0  0  0
 62136  1  0  0  0
 63 65  1  0  0  0
 63137  1  0  0  0
 63138  1  0  0  0
 63139  1  0  0  0
 64140  1  0  0  0
 65141  1  0  0  0
 68 78  1  0  0  0
 71 72  1  0  0  0
 71 73  2  0  0  0
 71142  1  0  0  0
 72 74  2  0  0  0
 72143  1  0  0  0
 73 80  1  0  0  0
 73 82  1  0  0  0
 74 81  1  0  0  0
 74 82  1  0  0  0
 75144  1  0  0  0
 75145  1  0  0  0
 75146  1  0  0  0
 75 79  1  0  0  0
 76 79  1  0  0  0
 76147  1  0  0  0
 76148  1  0  0  0
 76149  1  0  0  0
 77 79  1  0  0  0
 77 81  1  0  0  0
 77150  1  0  0  0
 77151  1  0  0  0
 78 79  1  0  0  0
 78152  1  0  0  0
 78153  1  0  0  0
 80154  1  0  0  0
 81155  1  0  0  0
M  ISO  4   1 100  68 101  78 101  80 100
M  END
> <chiral flag>
0

> <version>
0

> <s_m_source_file>
/data/baiqing/PycharmProjects/Reinvent-master-3.2/result/LINK_invent/BTK/process_docking_weight1_custom_product_contain_oxygen_bond_distance_aromatic_linkinvent_7_9_3/rearranged_h_0150.sdf

> <i_m_source_file_index>
56

> <r_mmod_Potential_Energy-OPLS-2005>
275.830230712891

> <r_mmod_Stretch_Energy-OPLS-2005>
158.451126098633

> <r_mmod_Bend_Energy-OPLS-2005>
253.108505249023

> <r_mmod_Torsional_Energy-OPLS-2005>
267.600799560547

> <r_mmod_Improper_Torsional_Energy-OPLS-2005>
5.1978440284729

> <r_mmod_Van_der_Waal_Energy-OPLS-2005>
113.865013122559

> <r_mmod_Electrostatic_Energy-OPLS-2005>
-418.821044921875

> <r_mmod_Solvation_Energy-OPLS-2005>
-207.410263061523

> <b_mmod_Minimization_Converged-OPLS-2005>
0

> <r_mmod_RMS_Derivative-OPLS-2005>
7.94577407836914

$$$$
56
                    3D
 Structure written by MMmdl.
153161  0  0  1  0            999 V2000
  -30.5467  -14.7738   20.4933 C   0  0  0  0  0  0
  -30.4569  -12.4773   19.4723 C   0  0  0  0  0  0
  -29.5213  -12.5260   18.2408 C   0  0  0  0  0  0
  -28.0469  -12.3369   18.6518 C   0  0  0  0  0  0
  -27.6521  -13.2213   19.8645 C   0  0  2  0  0  0
  -28.6963  -13.1083   20.9970 C   0  0  0  0  0  0
  -25.2539  -13.8163   20.5646 C   0  0  0  0  0  0
  -24.1824  -13.0427   20.9199 C   0  0  0  0  0  0
  -24.6409  -11.6908   20.8769 C   0  0  0  0  0  0
  -23.9078  -10.4284   21.0424 C   0  0  0  0  0  0
  -24.3624   -9.4197   21.9196 C   0  0  0  0  0  0
  -23.6298   -8.2231   22.0765 C   0  0  0  0  0  0
  -22.4281   -8.0275   21.3549 C   0  0  0  0  0  0
  -21.9924   -9.0250   20.4649 C   0  0  0  0  0  0
  -22.7255  -10.2131   20.3066 C   0  0  0  0  0  0
  -21.6847   -6.0740   22.5283 C   0  0  0  0  0  0
  -21.4008   -6.5644   23.8219 C   0  0  0  0  0  0
  -21.3661   -5.6793   24.9178 C   0  0  0  0  0  0
  -21.6048   -4.3056   24.7224 C   0  0  0  0  0  0
  -21.8820   -3.8152   23.4345 C   0  0  0  0  0  0
  -21.9190   -4.6971   22.3400 C   0  0  0  0  0  0
  -22.7845  -13.5220   21.1846 C   0  0  0  0  0  0
  -22.1660   -4.2160   21.0976 F   0  0  0  0  0  0
  -21.5634   -3.4539   25.7735 F   0  0  0  0  0  0
  -29.9985  -13.5062   20.4351 N   0  0  0  0  0  0
  -26.2989  -12.9358   20.3323 N   0  0  0  0  0  0
  -25.9341  -11.6517   20.5791 N   0  0  0  0  0  0
  -22.0478  -12.8218   22.0401 N   0  0  0  0  0  0
  -25.4175  -15.1871   20.3905 N   0  0  0  0  0  0
  -31.7012  -14.9710   20.0979 O   0  0  0  0  0  0
  -21.6640   -6.8881   21.4245 O   0  0  0  0  0  0
  -22.3530  -14.5523   20.6687 O   0  0  0  0  0  0
  -24.6358  -31.8525   23.1970 C   0  0  0  0  0  0
  -25.9175  -32.4734   23.8318 C   0  0  1  0  0  0
  -27.2177  -27.2270   20.1280 C   0  0  0  0  0  0
  -25.5962  -33.8538   24.2242 N   0  0  0  0  0  0
  -23.4339  -30.4768   21.5414 C   0  0  2  0  0  0
  -24.8803  -28.9215   20.1114 C   0  0  0  0  0  0
  -22.7521  -29.4597   22.4896 C   0  0  0  0  0  0
  -18.0297  -28.1391   22.8481 C   0  0  0  0  0  0
  -24.1492  -36.7267   23.2634 C   0  0  0  0  0  0
  -25.9846  -30.7541   21.3836 C   0  0  0  0  0  0
  -26.0565  -29.3754   20.7217 C   0  0  0  0  0  0
  -27.2286  -28.5435   20.7150 C   0  0  0  0  0  0
  -26.0133  -26.8551   19.4862 C   0  0  0  0  0  0
  -24.8666  -27.6711   19.4815 C   0  0  0  0  0  0
  -23.6541  -29.8136   20.1572 C   0  0  0  0  0  0
  -25.4123  -36.3057   24.0318 C   0  0  1  0  0  0
  -20.5905  -28.3711   23.1250 C   0  0  2  0  0  0
  -20.6784  -26.9424   22.5399 C   0  0  0  0  0  0
  -19.5758  -26.6386   21.5208 C   0  0  0  0  0  0
  -18.1936  -26.7937   22.1615 C   0  0  0  0  0  0
  -19.1550  -28.8871   23.2862 C   0  0  0  0  0  0
  -18.9465  -30.1470   23.8882 C   0  0  0  0  0  0
  -17.6466  -30.6590   24.0564 C   0  0  0  0  0  0
  -25.9067  -34.9428   23.5080 C   0  0  0  0  0  0
  -16.5358  -29.9082   23.6342 C   0  0  0  0  0  0
  -16.7285  -28.6502   23.0361 C   0  0  0  0  0  0
  -26.4528  -31.6567   25.0721 C   0  0  0  0  0  0
  -25.3743  -31.3726   26.1435 C   0  0  0  0  0  0
  -27.0377  -30.2970   24.6246 C   0  0  0  0  0  0
  -27.6067  -32.4321   25.7509 C   0  0  0  0  0  0
  -27.5596  -37.1776   24.8454 C   0  0  0  0  0  0
  -21.4221  -29.3054   22.3634 N   0  0  0  0  0  0
  -26.4286  -37.3767   23.9427 N   0  0  0  0  0  0
  -24.7041  -31.0464   22.0964 N   0  0  0  0  0  0
  -23.4205  -28.8137   23.3004 O   0  0  0  0  0  0
  -28.2922  -26.2929   20.1820 O   0  0  0  0  0  0
  -26.5636  -34.8912   22.4645 O   0  0  0  0  0  0
  -23.5502  -32.1366   23.7246 O   0  0  0  0  0  0
  -30.1492  -18.3963   20.1947 C   0  0  0  0  0  0
  -29.5455  -17.2779   20.9261 C   0  0  0  0  0  0
  -28.5899  -17.8889   21.7229 C   0  0  0  0  0  0
  -29.4937  -19.5763   20.5933 C   0  0  0  0  0  0
  -27.6407  -17.3476   22.7008 C   0  0  0  0  0  0
  -29.0795  -23.6655   20.2428 C   0  0  0  0  0  0
  -26.7231  -18.3202   23.4329 C   0  0  0  0  0  0
  -28.7046  -22.1152   20.5341 C   0  0  0  0  0  0
  -27.9437  -24.8103   20.1512 C   0  0  0  0  0  0
  -29.6818  -15.7805   20.9042 N   0  0  0  0  0  0
  -29.6608  -20.9688   20.1938 N   0  0  0  0  0  0
  -27.5727  -16.1421   22.9575 O   0  0  0  0  0  0
  -30.2654  -23.9626   20.0662 O   0  0  0  0  0  0
  -28.5588  -19.2569   21.5194 O   0  0  0  0  0  0
  -31.4913  -12.6424   19.1659 H   0  0  0  0  0  0
  -30.4364  -11.4891   19.9343 H   0  0  0  0  0  0
  -29.8083  -11.7617   17.5178 H   0  0  0  0  0  0
  -29.6393  -13.4852   17.7335 H   0  0  0  0  0  0
  -27.9066  -11.2846   18.9027 H   0  0  0  0  0  0
  -27.3885  -12.5368   17.8056 H   0  0  0  0  0  0
  -27.6582  -14.2513   19.5085 H   0  0  0  0  0  0
  -28.7402  -12.0859   21.3759 H   0  0  0  0  0  0
  -28.4144  -13.7241   21.8524 H   0  0  0  0  0  0
  -25.2763   -9.5678   22.4778 H   0  0  0  0  0  0
  -24.0008   -7.4625   22.7485 H   0  0  0  0  0  0
  -21.0861   -8.8767   19.8941 H   0  0  0  0  0  0
  -22.3718  -10.9673   19.6182 H   0  0  0  0  0  0
  -21.1993   -7.6150   23.9729 H   0  0  0  0  0  0
  -21.1488   -6.0520   25.9085 H   0  0  0  0  0  0
  -22.0599   -2.7615   23.2843 H   0  0  0  0  0  0
  -22.4095  -11.9881   22.4790 H   0  0  0  0  0  0
  -21.1094  -13.1257   22.2597 H   0  0  0  0  0  0
  -24.6320  -15.8248   20.4582 H   0  0  0  0  0  0
  -26.2396  -15.6135   19.9840 H   0  0  0  0  0  0
  -26.7239  -32.5369   23.1051 H   0  0  0  0  0  0
  -25.0132  -33.9676   25.0404 H   0  0  0  0  0  0
  -22.7329  -31.3009   21.3949 H   0  0  0  0  0  0
  -23.3775  -35.9575   23.3245 H   0  0  0  0  0  0
  -24.3591  -36.8947   22.2059 H   0  0  0  0  0  0
  -23.7214  -37.6436   23.6694 H   0  0  0  0  0  0
  -26.1325  -31.5167   20.6175 H   0  0  0  0  0  0
  -26.8584  -30.7984   22.0221 H   0  0  0  0  0  0
  -28.1267  -28.8861   21.2086 H   0  0  0  0  0  0
  -25.9139  -25.9055   18.9845 H   0  0  0  0  0  0
  -23.9679  -27.3192   18.9934 H   0  0  0  0  0  0
  -23.7836  -30.5924   19.4044 H   0  0  0  0  0  0
  -22.7700  -29.2529   19.8483 H   0  0  0  0  0  0
  -25.1297  -36.1884   25.0807 H   0  0  0  0  0  0
  -20.9999  -28.3293   24.1370 H   0  0  0  0  0  0
  -20.5691  -26.2319   23.3606 H   0  0  0  0  0  0
  -21.6649  -26.7445   22.1189 H   0  0  0  0  0  0
  -19.6919  -25.6293   21.1244 H   0  0  0  0  0  0
  -19.6699  -27.3194   20.6735 H   0  0  0  0  0  0
  -17.4207  -26.6699   21.4010 H   0  0  0  0  0  0
  -18.0329  -26.0075   22.9006 H   0  0  0  0  0  0
  -19.7943  -30.7299   24.2234 H   0  0  0  0  0  0
  -17.5015  -31.6270   24.5167 H   0  0  0  0  0  0
  -15.5357  -30.2978   23.7675 H   0  0  0  0  0  0
  -15.8682  -28.0818   22.7082 H   0  0  0  0  0  0
  -24.5925  -30.7070   25.7760 H   0  0  0  0  0  0
  -24.8936  -32.2900   26.4839 H   0  0  0  0  0  0
  -25.8059  -30.8916   27.0220 H   0  0  0  0  0  0
  -26.2964  -29.6701   24.1275 H   0  0  0  0  0  0
  -27.4035  -29.7255   25.4786 H   0  0  0  0  0  0
  -27.8859  -30.4214   23.9511 H   0  0  0  0  0  0
  -27.2658  -33.3630   26.2051 H   0  0  0  0  0  0
  -28.3902  -32.6866   25.0359 H   0  0  0  0  0  0
  -28.0705  -31.8468   26.5459 H   0  0  0  0  0  0
  -28.2545  -38.0140   24.7588 H   0  0  0  0  0  0
  -28.1162  -36.2672   24.6165 H   0  0  0  0  0  0
  -27.2326  -37.1282   25.8856 H   0  0  0  0  0  0
  -20.9414  -29.8772   21.6834 H   0  0  0  0  0  0
  -26.0152  -38.2821   24.1489 H   0  0  0  0  0  0
  -30.9348  -18.3384   19.4538 H   0  0  0  0  0  0
  -26.4011  -19.1212   22.7676 H   0  0  0  0  0  0
  -27.2493  -18.7610   24.2799 H   0  0  0  0  0  0
  -25.8361  -17.8055   23.8020 H   0  0  0  0  0  0
  -27.7547  -21.9167   20.0382 H   0  0  0  0  0  0
  -28.4906  -22.0501   21.6016 H   0  0  0  0  0  0
  -27.2164  -24.6128   20.9404 H   0  0  0  0  0  0
  -27.4397  -24.5968   19.2106 H   0  0  0  0  0  0
  -28.8711  -15.3370   21.3133 H   0  0  0  0  0  0
  -30.3650  -21.2085   19.4988 H   0  0  0  0  0  0
  1 25  1  0  0  0
  1 30  2  0  0  0
  1 80  1  0  0  0
  2  3  1  0  0  0
  2 25  1  0  0  0
  2 85  1  0  0  0
  2 86  1  0  0  0
  3  4  1  0  0  0
  3 87  1  0  0  0
  3 88  1  0  0  0
  4  5  1  0  0  0
  4 89  1  0  0  0
  4 90  1  0  0  0
  5  6  1  0  0  0
  5 26  1  0  0  0
  5 91  1  0  0  0
  6 25  1  0  0  0
  6 92  1  0  0  0
  6 93  1  0  0  0
  7  8  2  0  0  0
  7 26  1  0  0  0
  7 29  1  0  0  0
  8  9  1  0  0  0
  8 22  1  0  0  0
  9 10  1  0  0  0
  9 27  2  0  0  0
 10 11  2  0  0  0
 10 15  1  0  0  0
 11 12  1  0  0  0
 11 94  1  0  0  0
 12 13  2  0  0  0
 12 95  1  0  0  0
 13 14  1  0  0  0
 13 31  1  0  0  0
 14 15  2  0  0  0
 14 96  1  0  0  0
 15 97  1  0  0  0
 16 17  2  0  0  0
 16 21  1  0  0  0
 16 31  1  0  0  0
 17 18  1  0  0  0
 17 98  1  0  0  0
 18 19  2  0  0  0
 18 99  1  0  0  0
 19 20  1  0  0  0
 19 24  1  0  0  0
 20 21  2  0  0  0
 20100  1  0  0  0
 21 23  1  0  0  0
 22 28  1  0  0  0
 22 32  2  0  0  0
 26 27  1  0  0  0
 28101  1  0  0  0
 28102  1  0  0  0
 29103  1  0  0  0
 29104  1  0  0  0
 33 34  1  0  0  0
 33 66  1  0  0  0
 33 70  2  0  0  0
 34 36  1  0  0  0
 34 59  1  0  0  0
 34105  1  0  0  0
 35 44  2  0  0  0
 35 45  1  0  0  0
 35 68  1  0  0  0
 36 56  1  0  0  0
 36106  1  0  0  0
 37 39  1  0  0  0
 37 47  1  0  0  0
 37 66  1  0  0  0
 37107  1  0  0  0
 38 43  2  0  0  0
 38 46  1  0  0  0
 38 47  1  0  0  0
 39 64  1  0  0  0
 39 67  2  0  0  0
 40 52  1  0  0  0
 40 53  2  0  0  0
 40 58  1  0  0  0
 41108  1  0  0  0
 41109  1  0  0  0
 41110  1  0  0  0
 41 48  1  0  0  0
 42 43  1  0  0  0
 42 66  1  0  0  0
 42111  1  0  0  0
 42112  1  0  0  0
 43 44  1  0  0  0
 44113  1  0  0  0
 45 46  2  0  0  0
 45114  1  0  0  0
 46115  1  0  0  0
 47116  1  0  0  0
 47117  1  0  0  0
 48 56  1  0  0  0
 48 65  1  0  0  0
 48118  1  0  0  0
 49 50  1  0  0  0
 49 53  1  0  0  0
 49 64  1  0  0  0
 49119  1  0  0  0
 50 51  1  0  0  0
 50120  1  0  0  0
 50121  1  0  0  0
 51 52  1  0  0  0
 51122  1  0  0  0
 51123  1  0  0  0
 52124  1  0  0  0
 52125  1  0  0  0
 53 54  1  0  0  0
 54 55  2  0  0  0
 54126  1  0  0  0
 55 57  1  0  0  0
 55127  1  0  0  0
 56 69  2  0  0  0
 57 58  2  0  0  0
 57128  1  0  0  0
 58129  1  0  0  0
 59 60  1  0  0  0
 59 61  1  0  0  0
 59 62  1  0  0  0
 60130  1  0  0  0
 60131  1  0  0  0
 60132  1  0  0  0
 61133  1  0  0  0
 61134  1  0  0  0
 61135  1  0  0  0
 62136  1  0  0  0
 62137  1  0  0  0
 62138  1  0  0  0
 63 65  1  0  0  0
 63139  1  0  0  0
 63140  1  0  0  0
 63141  1  0  0  0
 64142  1  0  0  0
 65143  1  0  0  0
 68 79  1  0  0  0
 71 72  1  0  0  0
 71 74  2  0  0  0
 71144  1  0  0  0
 72 73  2  0  0  0
 72 80  1  0  0  0
 73 75  1  0  0  0
 73 84  1  0  0  0
 74 81  1  0  0  0
 74 84  1  0  0  0
 75 77  1  0  0  0
 75 82  2  0  0  0
 76 78  1  0  0  0
 76 79  1  0  0  0
 76 83  2  0  0  0
 77145  1  0  0  0
 77146  1  0  0  0
 77147  1  0  0  0
 78 81  1  0  0  0
 78148  1  0  0  0
 78149  1  0  0  0
 79150  1  0  0  0
 79151  1  0  0  0
 80152  1  0  0  0
 81153  1  0  0  0
M  ISO  4   1 100  68 101  79 101  80 100
M  END
> <chiral flag>
0

> <version>
0

> <s_m_source_file>
/data/baiqing/PycharmProjects/Reinvent-master-3.2/result/LINK_invent/BTK/process_docking_weight1_custom_product_contain_oxygen_bond_distance_aromatic_linkinvent_7_9_3/rearranged_h_0150.sdf

> <i_m_source_file_index>
57

> <r_mmod_Potential_Energy-OPLS-2005>
220.807586669922

> <r_mmod_Stretch_Energy-OPLS-2005>
140.890243530273

> <r_mmod_Bend_Energy-OPLS-2005>
220.2958984375

> <r_mmod_Torsional_Energy-OPLS-2005>
205.84001159668

> <r_mmod_Improper_Torsional_Energy-OPLS-2005>
4.08905792236328

> <r_mmod_Van_der_Waal_Energy-OPLS-2005>
112.785026550293

> <r_mmod_Electrostatic_Energy-OPLS-2005>
-315.956359863281

> <r_mmod_Solvation_Energy-OPLS-2005>
-251.26594543457

> <b_mmod_Minimization_Converged-OPLS-2005>
0

> <r_mmod_RMS_Derivative-OPLS-2005>
1.4978334903717

$$$$
57
                    3D
 Structure written by MMmdl.
157166  0  0  1  0            999 V2000
  -30.5655  -14.8255   20.4199 C   0  0  0  0  0  0
  -30.4417  -12.4985   19.4780 C   0  0  0  0  0  0
  -29.5195  -12.5050   18.2350 C   0  0  0  0  0  0
  -28.0400  -12.3296   18.6392 C   0  0  0  0  0  0
  -27.6363  -13.2319   19.8355 C   0  0  2  0  0  0
  -28.6804  -13.2061   20.9720 C   0  0  0  0  0  0
  -25.2510  -13.8178   20.5657 C   0  0  0  0  0  0
  -24.1811  -13.0424   20.9210 C   0  0  0  0  0  0
  -24.6428  -11.6904   20.8756 C   0  0  0  0  0  0
  -23.9095  -10.4272   21.0419 C   0  0  0  0  0  0
  -24.3632   -9.4178   21.9205 C   0  0  0  0  0  0
  -23.6312   -8.2205   22.0763 C   0  0  0  0  0  0
  -22.4303   -8.0266   21.3537 C   0  0  0  0  0  0
  -21.9921   -9.0244   20.4648 C   0  0  0  0  0  0
  -22.7244  -10.2137   20.3073 C   0  0  0  0  0  0
  -21.6846   -6.0760   22.5308 C   0  0  0  0  0  0
  -21.3992   -6.5655   23.8242 C   0  0  0  0  0  0
  -21.3643   -5.6797   24.9195 C   0  0  0  0  0  0
  -21.6060   -4.3062   24.7226 C   0  0  0  0  0  0
  -21.8800   -3.8166   23.4339 C   0  0  0  0  0  0
  -21.9164   -4.6985   22.3406 C   0  0  0  0  0  0
  -22.7838  -13.5233   21.1854 C   0  0  0  0  0  0
  -22.1626   -4.2190   21.0974 F   0  0  0  0  0  0
  -21.5669   -3.4526   25.7731 F   0  0  0  0  0  0
  -29.9731  -13.5777   20.3829 N   0  0  0  0  0  0
  -26.2932  -12.9386   20.3209 N   0  0  0  0  0  0
  -25.9344  -11.6540   20.5706 N   0  0  0  0  0  0
  -22.0460  -12.8263   22.0443 N   0  0  0  0  0  0
  -25.4084  -15.1906   20.4051 N   0  0  0  0  0  0
  -31.7697  -14.9203   20.1553 O   0  0  0  0  0  0
  -21.6624   -6.8893   21.4273 O   0  0  0  0  0  0
  -22.3488  -14.5495   20.6656 O   0  0  0  0  0  0
  -24.6320  -31.8491   23.1922 C   0  0  0  0  0  0
  -25.9154  -32.4709   23.8259 C   0  0  1  0  0  0
  -27.2485  -27.2570   20.1342 C   0  0  0  0  0  0
  -25.5954  -33.8509   24.2200 N   0  0  0  0  0  0
  -23.4285  -30.4677   21.5349 C   0  0  2  0  0  0
  -24.8821  -28.8952   20.1181 C   0  0  0  0  0  0
  -22.7487  -29.4589   22.4912 C   0  0  0  0  0  0
  -18.0316  -28.1338   22.8489 C   0  0  0  0  0  0
  -24.1487  -36.7283   23.2613 C   0  0  0  0  0  0
  -25.9681  -30.7634   21.3631 C   0  0  0  0  0  0
  -26.0500  -29.3802   20.7165 C   0  0  0  0  0  0
  -27.2352  -28.5750   20.7066 C   0  0  0  0  0  0
  -26.0533  -26.8275   19.5211 C   0  0  0  0  0  0
  -24.8864  -27.6243   19.5133 C   0  0  0  0  0  0
  -23.6489  -29.7810   20.1584 C   0  0  0  0  0  0
  -25.4114  -36.3047   24.0305 C   0  0  1  0  0  0
  -20.5907  -28.3671   23.1264 C   0  0  2  0  0  0
  -20.6787  -26.9406   22.5358 C   0  0  0  0  0  0
  -19.5772  -26.6387   21.5140 C   0  0  0  0  0  0
  -18.1960  -26.7902   22.1577 C   0  0  0  0  0  0
  -19.1550  -28.8824   23.2885 C   0  0  0  0  0  0
  -18.9468  -30.1417   23.8932 C   0  0  0  0  0  0
  -17.6472  -30.6546   24.0582 C   0  0  0  0  0  0
  -25.9066  -34.9416   23.5052 C   0  0  0  0  0  0
  -16.5373  -29.9046   23.6326 C   0  0  0  0  0  0
  -16.7299  -28.6447   23.0357 C   0  0  0  0  0  0
  -26.4539  -31.6534   25.0647 C   0  0  0  0  0  0
  -25.3774  -31.3704   26.1373 C   0  0  0  0  0  0
  -27.0377  -30.2947   24.6107 C   0  0  0  0  0  0
  -27.6077  -32.4261   25.7462 C   0  0  0  0  0  0
  -27.5580  -37.1794   24.8450 C   0  0  0  0  0  0
  -21.4184  -29.3064   22.3678 N   0  0  0  0  0  0
  -26.4272  -37.3768   23.9421 N   0  0  0  0  0  0
  -24.6956  -31.0441   22.0900 N   0  0  0  0  0  0
  -23.4168  -28.8107   23.3010 O   0  0  0  0  0  0
  -28.3919  -26.4194   20.1189 O   0  0  0  0  0  0
  -26.5627  -34.8913   22.4618 O   0  0  0  0  0  0
  -23.5485  -32.1314   23.7262 O   0  0  0  0  0  0
  -28.9955  -18.4151   20.3161 C   0  0  0  0  0  0
  -30.8728  -19.7818   20.3792 C   0  0  0  0  0  0
  -29.5059  -19.8126   20.2631 C   0  0  0  0  0  0
  -29.9332  -17.3577   20.4469 C   0  0  0  0  0  0
  -28.6741  -21.1076   19.9760 C   0  0  0  0  0  0
  -29.9356  -24.6241   20.8507 C   0  0  0  0  0  0
  -30.0662  -23.0650   20.9461 C   0  0  0  0  0  0
  -28.0693  -23.6848   19.7975 C   0  0  0  0  0  0
  -28.4432  -24.9946   20.6439 C   0  0  2  0  0  0
  -27.7018  -24.9957   21.9964 C   0  0  0  0  0  0
  -28.9081  -22.4804   20.2485 N   0  0  0  0  0  0
  -29.7316  -15.9506   20.5093 N   0  0  0  0  0  0
  -27.5365  -20.8741   19.3074 N   0  3  0  0  0  0
  -31.5092  -18.1351   20.5284 S   0  0  0  0  0  0
  -31.4785  -12.6411   19.1664 H   0  0  0  0  0  0
  -30.4062  -11.5327   19.9847 H   0  0  0  0  0  0
  -29.8123  -11.7107   17.5448 H   0  0  0  0  0  0
  -29.6425  -13.4454   17.6987 H   0  0  0  0  0  0
  -27.8886  -11.2801   18.8990 H   0  0  0  0  0  0
  -27.3863  -12.5276   17.7859 H   0  0  0  0  0  0
  -27.6123  -14.2450   19.4357 H   0  0  0  0  0  0
  -28.7366  -12.2231   21.4410 H   0  0  0  0  0  0
  -28.3917  -13.9024   21.7621 H   0  0  0  0  0  0
  -25.2753   -9.5667   22.4816 H   0  0  0  0  0  0
  -24.0012   -7.4604   22.7502 H   0  0  0  0  0  0
  -21.0836   -8.8757   19.8980 H   0  0  0  0  0  0
  -22.3672  -10.9693   19.6210 H   0  0  0  0  0  0
  -21.1966   -7.6160   23.9753 H   0  0  0  0  0  0
  -21.1499   -6.0523   25.9113 H   0  0  0  0  0  0
  -22.0593   -2.7644   23.2814 H   0  0  0  0  0  0
  -22.4024  -11.9927   22.4872 H   0  0  0  0  0  0
  -21.1113  -13.1430   22.2658 H   0  0  0  0  0  0
  -24.6105  -15.8112   20.4941 H   0  0  0  0  0  0
  -26.2272  -15.6515   20.0281 H   0  0  0  0  0  0
  -26.7218  -32.5365   23.1000 H   0  0  0  0  0  0
  -25.0202  -33.9596   25.0413 H   0  0  0  0  0  0
  -22.7268  -31.2899   21.3783 H   0  0  0  0  0  0
  -23.3741  -35.9620   23.3238 H   0  0  0  0  0  0
  -24.3561  -36.8944   22.2027 H   0  0  0  0  0  0
  -23.7236  -37.6466   23.6676 H   0  0  0  0  0  0
  -26.0862  -31.5093   20.5768 H   0  0  0  0  0  0
  -26.8501  -30.8327   21.9867 H   0  0  0  0  0  0
  -28.1372  -28.9455   21.1746 H   0  0  0  0  0  0
  -26.0153  -25.8538   19.0572 H   0  0  0  0  0  0
  -23.9912  -27.2323   19.0507 H   0  0  0  0  0  0
  -23.7759  -30.5392   19.3865 H   0  0  0  0  0  0
  -22.7670  -29.2116   19.8617 H   0  0  0  0  0  0
  -25.1301  -36.1867   25.0796 H   0  0  0  0  0  0
  -21.0035  -28.3189   24.1366 H   0  0  0  0  0  0
  -20.5652  -26.2264   23.3521 H   0  0  0  0  0  0
  -21.6658  -26.7426   22.1177 H   0  0  0  0  0  0
  -19.6914  -25.6310   21.1103 H   0  0  0  0  0  0
  -19.6669  -27.3241   20.6687 H   0  0  0  0  0  0
  -17.4232  -26.6669   21.3980 H   0  0  0  0  0  0
  -18.0400  -25.9988   22.8919 H   0  0  0  0  0  0
  -19.7940  -30.7216   24.2289 H   0  0  0  0  0  0
  -17.5038  -31.6222   24.5178 H   0  0  0  0  0  0
  -15.5377  -30.2967   23.7615 H   0  0  0  0  0  0
  -15.8693  -28.0774   22.7055 H   0  0  0  0  0  0
  -24.5969  -30.7022   25.7729 H   0  0  0  0  0  0
  -24.8954  -32.2884   26.4728 H   0  0  0  0  0  0
  -25.8078  -30.8938   27.0181 H   0  0  0  0  0  0
  -26.2952  -29.6691   24.1133 H   0  0  0  0  0  0
  -27.4084  -29.7202   25.4604 H   0  0  0  0  0  0
  -27.8813  -30.4213   23.9318 H   0  0  0  0  0  0
  -27.2671  -33.3564   26.2009 H   0  0  0  0  0  0
  -28.3932  -32.6776   25.0335 H   0  0  0  0  0  0
  -28.0698  -31.8389   26.5404 H   0  0  0  0  0  0
  -28.2568  -38.0126   24.7558 H   0  0  0  0  0  0
  -28.1109  -36.2651   24.6217 H   0  0  0  0  0  0
  -27.2297  -37.1381   25.8850 H   0  0  0  0  0  0
  -20.9331  -29.8831   21.6938 H   0  0  0  0  0  0
  -26.0128  -38.2820   24.1472 H   0  0  0  0  0  0
  -27.9352  -18.2305   20.2258 H   0  0  0  0  0  0
  -31.5740  -20.6041   20.3524 H   0  0  0  0  0  0
  -30.5177  -24.9820   19.9995 H   0  0  0  0  0  0
  -30.3614  -25.1136   21.7281 H   0  0  0  0  0  0
  -30.0464  -22.7453   21.9863 H   0  0  0  0  0  0
  -31.0051  -22.7287   20.5051 H   0  0  0  0  0  0
  -28.2791  -23.8537   18.7407 H   0  0  0  0  0  0
  -27.0046  -23.4706   19.8761 H   0  0  0  0  0  0
  -26.6332  -25.1653   21.8540 H   0  0  0  0  0  0
  -28.0818  -25.7859   22.6462 H   0  0  0  0  0  0
  -27.8007  -24.0503   22.5287 H   0  0  0  0  0  0
  -28.7614  -15.6833   20.5847 H   0  0  0  0  0  0
  -27.2944  -19.9400   19.0181 H   0  0  0  0  0  0
  -26.9169  -21.6215   19.0397 H   0  0  0  0  0  0
  1 25  1  0  0  0
  1 30  2  0  0  0
  1 82  1  0  0  0
  2  3  1  0  0  0
  2 25  1  0  0  0
  2 85  1  0  0  0
  2 86  1  0  0  0
  3  4  1  0  0  0
  3 87  1  0  0  0
  3 88  1  0  0  0
  4  5  1  0  0  0
  4 89  1  0  0  0
  4 90  1  0  0  0
  5  6  1  0  0  0
  5 26  1  0  0  0
  5 91  1  0  0  0
  6 25  1  0  0  0
  6 92  1  0  0  0
  6 93  1  0  0  0
  7  8  2  0  0  0
  7 26  1  0  0  0
  7 29  1  0  0  0
  8  9  1  0  0  0
  8 22  1  0  0  0
  9 10  1  0  0  0
  9 27  2  0  0  0
 10 11  2  0  0  0
 10 15  1  0  0  0
 11 12  1  0  0  0
 11 94  1  0  0  0
 12 13  2  0  0  0
 12 95  1  0  0  0
 13 14  1  0  0  0
 13 31  1  0  0  0
 14 15  2  0  0  0
 14 96  1  0  0  0
 15 97  1  0  0  0
 16 17  2  0  0  0
 16 21  1  0  0  0
 16 31  1  0  0  0
 17 18  1  0  0  0
 17 98  1  0  0  0
 18 19  2  0  0  0
 18 99  1  0  0  0
 19 20  1  0  0  0
 19 24  1  0  0  0
 20 21  2  0  0  0
 20100  1  0  0  0
 21 23  1  0  0  0
 22 28  1  0  0  0
 22 32  2  0  0  0
 26 27  1  0  0  0
 28101  1  0  0  0
 28102  1  0  0  0
 29103  1  0  0  0
 29104  1  0  0  0
 33 34  1  0  0  0
 33 66  1  0  0  0
 33 70  2  0  0  0
 34 36  1  0  0  0
 34 59  1  0  0  0
 34105  1  0  0  0
 35 44  2  0  0  0
 35 45  1  0  0  0
 35 68  1  0  0  0
 36 56  1  0  0  0
 36106  1  0  0  0
 37 39  1  0  0  0
 37 47  1  0  0  0
 37 66  1  0  0  0
 37107  1  0  0  0
 38 43  2  0  0  0
 38 46  1  0  0  0
 38 47  1  0  0  0
 39 64  1  0  0  0
 39 67  2  0  0  0
 40 52  1  0  0  0
 40 53  2  0  0  0
 40 58  1  0  0  0
 41108  1  0  0  0
 41109  1  0  0  0
 41110  1  0  0  0
 41 48  1  0  0  0
 42 43  1  0  0  0
 42 66  1  0  0  0
 42111  1  0  0  0
 42112  1  0  0  0
 43 44  1  0  0  0
 44113  1  0  0  0
 45 46  2  0  0  0
 45114  1  0  0  0
 46115  1  0  0  0
 47116  1  0  0  0
 47117  1  0  0  0
 48 56  1  0  0  0
 48 65  1  0  0  0
 48118  1  0  0  0
 49 50  1  0  0  0
 49 53  1  0  0  0
 49 64  1  0  0  0
 49119  1  0  0  0
 50 51  1  0  0  0
 50120  1  0  0  0
 50121  1  0  0  0
 51 52  1  0  0  0
 51122  1  0  0  0
 51123  1  0  0  0
 52124  1  0  0  0
 52125  1  0  0  0
 53 54  1  0  0  0
 54 55  2  0  0  0
 54126  1  0  0  0
 55 57  1  0  0  0
 55127  1  0  0  0
 56 69  2  0  0  0
 57 58  2  0  0  0
 57128  1  0  0  0
 58129  1  0  0  0
 59 60  1  0  0  0
 59 61  1  0  0  0
 59 62  1  0  0  0
 60130  1  0  0  0
 60131  1  0  0  0
 60132  1  0  0  0
 61133  1  0  0  0
 61134  1  0  0  0
 61135  1  0  0  0
 62136  1  0  0  0
 62137  1  0  0  0
 62138  1  0  0  0
 63 65  1  0  0  0
 63139  1  0  0  0
 63140  1  0  0  0
 63141  1  0  0  0
 64142  1  0  0  0
 65143  1  0  0  0
 68 79  1  0  0  0
 71 73  1  0  0  0
 71 74  2  0  0  0
 71144  1  0  0  0
 72 73  2  0  0  0
 72 84  1  0  0  0
 72145  1  0  0  0
 73 75  1  0  0  0
 74 82  1  0  0  0
 74 84  1  0  0  0
 75 81  1  0  0  0
 75 83  2  0  0  0
 76 77  1  0  0  0
 76 79  1  0  0  0
 76146  1  0  0  0
 76147  1  0  0  0
 77 81  1  0  0  0
 77148  1  0  0  0
 77149  1  0  0  0
 78 79  1  0  0  0
 78 81  1  0  0  0
 78150  1  0  0  0
 78151  1  0  0  0
 79 80  1  0  0  0
 80152  1  0  0  0
 80153  1  0  0  0
 80154  1  0  0  0
 82155  1  0  0  0
 83156  1  0  0  0
 83157  1  0  0  0
M  CHG  1  83   1
M  ISO  4   1 100  68 101  79 101  82 100
M  END
> <chiral flag>
0

> <version>
0

> <s_m_source_file>
/data/baiqing/PycharmProjects/Reinvent-master-3.2/result/LINK_invent/BTK/process_docking_weight1_custom_product_contain_oxygen_bond_distance_aromatic_linkinvent_7_9_3/rearranged_h_0150.sdf

> <i_m_source_file_index>
58

> <r_mmod_Potential_Energy-OPLS-2005>
115.976860046387

> <r_mmod_Stretch_Energy-OPLS-2005>
143.270935058594

> <r_mmod_Bend_Energy-OPLS-2005>
234.605072021484

> <r_mmod_Torsional_Energy-OPLS-2005>
284.841918945312

> <r_mmod_Improper_Torsional_Energy-OPLS-2005>
6.63792943954468

> <r_mmod_Van_der_Waal_Energy-OPLS-2005>
110.174674987793

> <r_mmod_Electrostatic_Energy-OPLS-2005>
-287.483093261719

> <r_mmod_Solvation_Energy-OPLS-2005>
-479.715484619141

> <b_mmod_Minimization_Converged-OPLS-2005>
0

> <r_mmod_RMS_Derivative-OPLS-2005>
5.17959690093994

$$$$
58
                    3D
 Structure written by MMmdl.
162171  0  0  1  0            999 V2000
  -30.6390  -14.5385   20.5675 C   0  0  0  0  0  0
  -30.4436  -12.3468   19.4248 C   0  0  0  0  0  0
  -29.5030  -12.5167   18.2108 C   0  0  0  0  0  0
  -28.0243  -12.3617   18.6229 C   0  0  0  0  0  0
  -27.6639  -13.2006   19.8773 C   0  0  2  0  0  0
  -28.7067  -12.9729   20.9954 C   0  0  0  0  0  0
  -25.2603  -13.8140   20.5667 C   0  0  0  0  0  0
  -24.1849  -13.0431   20.9180 C   0  0  0  0  0  0
  -24.6391  -11.6894   20.8737 C   0  0  0  0  0  0
  -23.9052  -10.4287   21.0407 C   0  0  0  0  0  0
  -24.3605   -9.4203   21.9184 C   0  0  0  0  0  0
  -23.6284   -8.2237   22.0752 C   0  0  0  0  0  0
  -22.4265   -8.0276   21.3544 C   0  0  0  0  0  0
  -21.9900   -9.0249   20.4646 C   0  0  0  0  0  0
  -22.7225  -10.2130   20.3057 C   0  0  0  0  0  0
  -21.6846   -6.0736   22.5282 C   0  0  0  0  0  0
  -21.4010   -6.5640   23.8216 C   0  0  0  0  0  0
  -21.3657   -5.6792   24.9177 C   0  0  0  0  0  0
  -21.6042   -4.3056   24.7228 C   0  0  0  0  0  0
  -21.8819   -3.8149   23.4350 C   0  0  0  0  0  0
  -21.9188   -4.6965   22.3405 C   0  0  0  0  0  0
  -22.7874  -13.5239   21.1846 C   0  0  0  0  0  0
  -22.1656   -4.2152   21.0982 F   0  0  0  0  0  0
  -21.5631   -3.4539   25.7741 F   0  0  0  0  0  0
  -30.0339  -13.3196   20.4516 N   0  0  0  0  0  0
  -26.3034  -12.9293   20.3362 N   0  0  0  0  0  0
  -25.9316  -11.6463   20.5765 N   0  0  0  0  0  0
  -22.0507  -12.8237   22.0401 N   0  0  0  0  0  0
  -25.4333  -15.1854   20.4044 N   0  0  0  0  0  0
  -31.7617  -14.7697   20.1065 O   0  0  0  0  0  0
  -21.6629   -6.8876   21.4242 O   0  0  0  0  0  0
  -22.3565  -14.5549   20.6696 O   0  0  0  0  0  0
  -24.6180  -31.8647   23.2074 C   0  0  0  0  0  0
  -25.9058  -32.4806   23.8383 C   0  0  1  0  0  0
  -27.2380  -27.4004   20.1104 C   0  0  0  0  0  0
  -25.5902  -33.8606   24.2314 N   0  0  0  0  0  0
  -23.4093  -30.4859   21.5481 C   0  0  2  0  0  0
  -24.8594  -28.9434   20.1185 C   0  0  0  0  0  0
  -22.7431  -29.4640   22.4981 C   0  0  0  0  0  0
  -18.0274  -28.1377   22.8492 C   0  0  0  0  0  0
  -24.1485  -36.7309   23.2640 C   0  0  0  0  0  0
  -25.9409  -30.8192   21.3670 C   0  0  0  0  0  0
  -26.0206  -29.4488   20.7188 C   0  0  0  0  0  0
  -27.2152  -28.6848   20.7118 C   0  0  0  0  0  0
  -26.0630  -26.9174   19.5018 C   0  0  0  0  0  0
  -24.8767  -27.6775   19.5065 C   0  0  0  0  0  0
  -23.6219  -29.8143   20.1647 C   0  0  0  0  0  0
  -25.4107  -36.3103   24.0337 C   0  0  1  0  0  0
  -20.5867  -28.3668   23.1308 C   0  0  2  0  0  0
  -20.6762  -26.9400   22.5417 C   0  0  0  0  0  0
  -19.5742  -26.6383   21.5212 C   0  0  0  0  0  0
  -18.1920  -26.7925   22.1622 C   0  0  0  0  0  0
  -19.1525  -28.8839   23.2896 C   0  0  0  0  0  0
  -18.9452  -30.1446   23.8905 C   0  0  0  0  0  0
  -17.6454  -30.6583   24.0564 C   0  0  0  0  0  0
  -25.9035  -34.9468   23.5123 C   0  0  0  0  0  0
  -16.5345  -29.9084   23.6330 C   0  0  0  0  0  0
  -16.7263  -28.6501   23.0350 C   0  0  0  0  0  0
  -26.4477  -31.6594   25.0722 C   0  0  0  0  0  0
  -25.3739  -31.3704   26.1469 C   0  0  0  0  0  0
  -27.0316  -30.3034   24.6118 C   0  0  0  0  0  0
  -27.6050  -32.4320   25.7484 C   0  0  0  0  0  0
  -27.5580  -37.1808   24.8466 C   0  0  0  0  0  0
  -21.4155  -29.3032   22.3716 N   0  0  0  0  0  0
  -26.4292  -37.3789   23.9410 N   0  0  0  0  0  0
  -24.6743  -31.0717   22.0991 N   0  0  0  0  0  0
  -23.4182  -28.8190   23.3045 O   0  0  0  0  0  0
  -28.3790  -26.6188   20.0736 O   0  0  0  0  0  0
  -26.5599  -34.8924   22.4687 O   0  0  0  0  0  0
  -23.5362  -32.1413   23.7447 O   0  0  0  0  0  0
  -28.3840  -18.9302   21.2164 C   0  0  0  0  0  0
  -28.5484  -17.5284   21.2660 C   0  0  0  0  0  0
  -30.8800  -17.7721   20.6920 C   0  0  0  0  0  0
  -30.7254  -19.1910   20.6618 C   0  0  0  0  0  0
  -29.4622  -19.8053   20.9273 C   0  0  0  0  0  0
  -29.7942  -16.9184   21.0076 C   0  0  0  0  0  0
  -28.3262  -23.2614   22.0722 C   0  0  0  0  0  0
  -29.4703  -23.5050   19.8821 C   0  0  0  0  0  0
  -28.2093  -21.7390   21.8213 C   0  0  0  0  0  0
  -29.3569  -21.9574   19.6861 C   0  0  0  0  0  0
  -28.3535  -24.1092   20.7761 C   0  0  0  0  0  0
  -31.9641  -20.0296   20.3868 C   0  0  0  0  0  0
  -28.5065  -25.6371   21.1308 C   0  0  0  0  0  0
  -29.2836  -21.2256   20.9611 N   0  0  0  0  0  0
  -29.8537  -15.4845   21.1385 N   0  0  0  0  0  0
  -27.1767  -23.9471   20.1665 F   0  0  0  0  0  0
  -31.4828  -12.4832   19.1200 H   0  0  0  0  0  0
  -30.3809  -11.3327   19.8222 H   0  0  0  0  0  0
  -29.7524  -11.7894   17.4370 H   0  0  0  0  0  0
  -29.6554  -13.5004   17.7637 H   0  0  0  0  0  0
  -27.8453  -11.3045   18.8227 H   0  0  0  0  0  0
  -27.3708  -12.6274   17.7912 H   0  0  0  0  0  0
  -27.7077  -14.2490   19.5815 H   0  0  0  0  0  0
  -28.7014  -11.9278   21.3085 H   0  0  0  0  0  0
  -28.4525  -13.5379   21.8933 H   0  0  0  0  0  0
  -25.2749   -9.5677   22.4761 H   0  0  0  0  0  0
  -23.9999   -7.4626   22.7465 H   0  0  0  0  0  0
  -21.0834   -8.8762   19.8948 H   0  0  0  0  0  0
  -22.3683  -10.9670   19.6166 H   0  0  0  0  0  0
  -21.2003   -7.6147   23.9724 H   0  0  0  0  0  0
  -21.1478   -6.0521   25.9081 H   0  0  0  0  0  0
  -22.0601   -2.7612   23.2851 H   0  0  0  0  0  0
  -22.4110  -11.9892   22.4790 H   0  0  0  0  0  0
  -21.1128  -13.1275   22.2608 H   0  0  0  0  0  0
  -24.6614  -15.8367   20.4969 H   0  0  0  0  0  0
  -26.2715  -15.6155   20.0354 H   0  0  0  0  0  0
  -26.7130  -32.5511   23.1148 H   0  0  0  0  0  0
  -25.0062  -33.9765   25.0466 H   0  0  0  0  0  0
  -22.6997  -31.3033   21.4046 H   0  0  0  0  0  0
  -23.3743  -35.9647   23.3311 H   0  0  0  0  0  0
  -24.3578  -36.8917   22.2053 H   0  0  0  0  0  0
  -23.7241  -37.6518   23.6651 H   0  0  0  0  0  0
  -26.0563  -31.5816   20.5954 H   0  0  0  0  0  0
  -26.8273  -30.8755   21.9872 H   0  0  0  0  0  0
  -28.1133  -29.0726   21.1718 H   0  0  0  0  0  0
  -26.0663  -25.9471   19.0255 H   0  0  0  0  0  0
  -23.9860  -27.2823   19.0381 H   0  0  0  0  0  0
  -23.7333  -30.5872   19.4034 H   0  0  0  0  0  0
  -22.7456  -29.2350   19.8679 H   0  0  0  0  0  0
  -25.1285  -36.1968   25.0831 H   0  0  0  0  0  0
  -20.9956  -28.3232   24.1430 H   0  0  0  0  0  0
  -20.5658  -26.2276   23.3607 H   0  0  0  0  0  0
  -21.6633  -26.7435   22.1211 H   0  0  0  0  0  0
  -19.6901  -25.6296   21.1235 H   0  0  0  0  0  0
  -19.6683  -27.3201   20.6749 H   0  0  0  0  0  0
  -17.4192  -26.6680   21.4020 H   0  0  0  0  0  0
  -18.0315  -26.0060   22.9011 H   0  0  0  0  0  0
  -19.7928  -30.7261   24.2276 H   0  0  0  0  0  0
  -17.5008  -31.6266   24.5161 H   0  0  0  0  0  0
  -15.5345  -30.2988   23.7648 H   0  0  0  0  0  0
  -15.8663  -28.0824   22.7058 H   0  0  0  0  0  0
  -24.5913  -30.7050   25.7806 H   0  0  0  0  0  0
  -24.8931  -32.2859   26.4923 H   0  0  0  0  0  0
  -25.8091  -30.8870   27.0225 H   0  0  0  0  0  0
  -26.2868  -29.6786   24.1172 H   0  0  0  0  0  0
  -27.4079  -29.7280   25.4587 H   0  0  0  0  0  0
  -27.8706  -30.4348   23.9280 H   0  0  0  0  0  0
  -27.2667  -33.3611   26.2082 H   0  0  0  0  0  0
  -28.3845  -32.6893   25.0301 H   0  0  0  0  0  0
  -28.0734  -31.8433   26.5381 H   0  0  0  0  0  0
  -28.2605  -38.0099   24.7507 H   0  0  0  0  0  0
  -28.1068  -36.2630   24.6298 H   0  0  0  0  0  0
  -27.2299  -37.1468   25.8870 H   0  0  0  0  0  0
  -20.9323  -29.8753   21.6933 H   0  0  0  0  0  0
  -26.0182  -38.2869   24.1406 H   0  0  0  0  0  0
  -27.3969  -19.3149   21.4234 H   0  0  0  0  0  0
  -27.6893  -16.9218   21.5157 H   0  0  0  0  0  0
  -31.8549  -17.3456   20.5027 H   0  0  0  0  0  0
  -29.2303  -23.4558   22.6509 H   0  0  0  0  0  0
  -27.4955  -23.5815   22.7022 H   0  0  0  0  0  0
  -29.4634  -23.9983   18.9096 H   0  0  0  0  0  0
  -30.4415  -23.7319   20.3235 H   0  0  0  0  0  0
  -27.2425  -21.5328   21.3589 H   0  0  0  0  0  0
  -28.2211  -21.2173   22.7799 H   0  0  0  0  0  0
  -30.1975  -21.6056   19.0886 H   0  0  0  0  0  0
  -28.4605  -21.7322   19.1059 H   0  0  0  0  0  0
  -32.8659  -19.5109   20.7118 H   0  0  0  0  0  0
  -31.9323  -20.9815   20.9175 H   0  0  0  0  0  0
  -32.0576  -20.2308   19.3200 H   0  0  0  0  0  0
  -29.4892  -25.7889   21.5782 H   0  0  0  0  0  0
  -27.7999  -25.8793   21.9276 H   0  0  0  0  0  0
  -29.0155  -15.0755   21.5216 H   0  0  0  0  0  0
  1 25  1  0  0  0
  1 30  2  0  0  0
  1 85  1  0  0  0
  2  3  1  0  0  0
  2 25  1  0  0  0
  2 87  1  0  0  0
  2 88  1  0  0  0
  3  4  1  0  0  0
  3 89  1  0  0  0
  3 90  1  0  0  0
  4  5  1  0  0  0
  4 91  1  0  0  0
  4 92  1  0  0  0
  5  6  1  0  0  0
  5 26  1  0  0  0
  5 93  1  0  0  0
  6 25  1  0  0  0
  6 94  1  0  0  0
  6 95  1  0  0  0
  7  8  2  0  0  0
  7 26  1  0  0  0
  7 29  1  0  0  0
  8  9  1  0  0  0
  8 22  1  0  0  0
  9 10  1  0  0  0
  9 27  2  0  0  0
 10 11  2  0  0  0
 10 15  1  0  0  0
 11 12  1  0  0  0
 11 96  1  0  0  0
 12 13  2  0  0  0
 12 97  1  0  0  0
 13 14  1  0  0  0
 13 31  1  0  0  0
 14 15  2  0  0  0
 14 98  1  0  0  0
 15 99  1  0  0  0
 16 17  2  0  0  0
 16 21  1  0  0  0
 16 31  1  0  0  0
 17 18  1  0  0  0
 17100  1  0  0  0
 18 19  2  0  0  0
 18101  1  0  0  0
 19 20  1  0  0  0
 19 24  1  0  0  0
 20 21  2  0  0  0
 20102  1  0  0  0
 21 23  1  0  0  0
 22 28  1  0  0  0
 22 32  2  0  0  0
 26 27  1  0  0  0
 28103  1  0  0  0
 28104  1  0  0  0
 29105  1  0  0  0
 29106  1  0  0  0
 33 34  1  0  0  0
 33 66  1  0  0  0
 33 70  2  0  0  0
 34 36  1  0  0  0
 34 59  1  0  0  0
 34107  1  0  0  0
 35 44  2  0  0  0
 35 45  1  0  0  0
 35 68  1  0  0  0
 36 56  1  0  0  0
 36108  1  0  0  0
 37 39  1  0  0  0
 37 47  1  0  0  0
 37 66  1  0  0  0
 37109  1  0  0  0
 38 43  2  0  0  0
 38 46  1  0  0  0
 38 47  1  0  0  0
 39 64  1  0  0  0
 39 67  2  0  0  0
 40 52  1  0  0  0
 40 53  2  0  0  0
 40 58  1  0  0  0
 41110  1  0  0  0
 41111  1  0  0  0
 41112  1  0  0  0
 41 48  1  0  0  0
 42 43  1  0  0  0
 42 66  1  0  0  0
 42113  1  0  0  0
 42114  1  0  0  0
 43 44  1  0  0  0
 44115  1  0  0  0
 45 46  2  0  0  0
 45116  1  0  0  0
 46117  1  0  0  0
 47118  1  0  0  0
 47119  1  0  0  0
 48 56  1  0  0  0
 48 65  1  0  0  0
 48120  1  0  0  0
 49 50  1  0  0  0
 49 53  1  0  0  0
 49 64  1  0  0  0
 49121  1  0  0  0
 50 51  1  0  0  0
 50122  1  0  0  0
 50123  1  0  0  0
 51 52  1  0  0  0
 51124  1  0  0  0
 51125  1  0  0  0
 52126  1  0  0  0
 52127  1  0  0  0
 53 54  1  0  0  0
 54 55  2  0  0  0
 54128  1  0  0  0
 55 57  1  0  0  0
 55129  1  0  0  0
 56 69  2  0  0  0
 57 58  2  0  0  0
 57130  1  0  0  0
 58131  1  0  0  0
 59 60  1  0  0  0
 59 61  1  0  0  0
 59 62  1  0  0  0
 60132  1  0  0  0
 60133  1  0  0  0
 60134  1  0  0  0
 61135  1  0  0  0
 61136  1  0  0  0
 61137  1  0  0  0
 62138  1  0  0  0
 62139  1  0  0  0
 62140  1  0  0  0
 63 65  1  0  0  0
 63141  1  0  0  0
 63142  1  0  0  0
 63143  1  0  0  0
 64144  1  0  0  0
 65145  1  0  0  0
 68 83  1  0  0  0
 71 72  2  0  0  0
 71 75  1  0  0  0
 71146  1  0  0  0
 72 76  1  0  0  0
 72147  1  0  0  0
 73 74  1  0  0  0
 73 76  2  0  0  0
 73148  1  0  0  0
 74 75  2  0  0  0
 74 82  1  0  0  0
 75 84  1  0  0  0
 76 85  1  0  0  0
 77 79  1  0  0  0
 77 81  1  0  0  0
 77149  1  0  0  0
 77150  1  0  0  0
 78 80  1  0  0  0
 78 81  1  0  0  0
 78151  1  0  0  0
 78152  1  0  0  0
 79 84  1  0  0  0
 79153  1  0  0  0
 79154  1  0  0  0
 80 84  1  0  0  0
 80155  1  0  0  0
 80156  1  0  0  0
 81 83  1  0  0  0
 81 86  1  0  0  0
 82157  1  0  0  0
 82158  1  0  0  0
 82159  1  0  0  0
 83160  1  0  0  0
 83161  1  0  0  0
 85162  1  0  0  0
M  ISO  4   1 100  68 101  83 101  85 100
M  END
> <chiral flag>
0

> <version>
0

> <s_m_source_file>
/data/baiqing/PycharmProjects/Reinvent-master-3.2/result/LINK_invent/BTK/process_docking_weight1_custom_product_contain_oxygen_bond_distance_aromatic_linkinvent_7_9_3/rearranged_h_0150.sdf

> <i_m_source_file_index>
59

> <r_mmod_Potential_Energy-OPLS-2005>
0.392990082502365

> <r_mmod_Stretch_Energy-OPLS-2005>
51.683650970459

> <r_mmod_Bend_Energy-OPLS-2005>
123.486465454102

> <r_mmod_Torsional_Energy-OPLS-2005>
278.092102050781

> <r_mmod_Improper_Torsional_Energy-OPLS-2005>
7.8632493019104

> <r_mmod_Van_der_Waal_Energy-OPLS-2005>
152.851287841797

> <r_mmod_Electrostatic_Energy-OPLS-2005>
-423.273254394531

> <r_mmod_Solvation_Energy-OPLS-2005>
-210.424072265625

> <b_mmod_Minimization_Converged-OPLS-2005>
0

> <r_mmod_RMS_Derivative-OPLS-2005>
0.364346355199814

$$$$
59
                    3D
 Structure written by MMmdl.
153161  0  0  1  0            999 V2000
  -30.4834  -15.2806   20.3699 C   0  0  0  0  0  0
  -30.4235  -12.8308   19.5117 C   0  0  0  0  0  0
  -29.5240  -12.5764   18.2788 C   0  0  0  0  0  0
  -28.0772  -12.2979   18.7166 C   0  0  0  0  0  0
  -27.6039  -13.2816   19.8160 C   0  0  2  0  0  0
  -28.6414  -13.4870   20.9407 C   0  0  0  0  0  0
  -25.2352  -13.8256   20.5755 C   0  0  0  0  0  0
  -24.1721  -13.0436   20.9276 C   0  0  0  0  0  0
  -24.6389  -11.6938   20.8775 C   0  0  0  0  0  0
  -23.9092  -10.4293   21.0410 C   0  0  0  0  0  0
  -24.3637   -9.4206   21.9186 C   0  0  0  0  0  0
  -23.6306   -8.2242   22.0753 C   0  0  0  0  0  0
  -22.4288   -8.0281   21.3543 C   0  0  0  0  0  0
  -21.9930   -9.0256   20.4645 C   0  0  0  0  0  0
  -22.7264  -10.2133   20.3057 C   0  0  0  0  0  0
  -21.6857   -6.0738   22.5278 C   0  0  0  0  0  0
  -21.4015   -6.5641   23.8212 C   0  0  0  0  0  0
  -21.3660   -5.6792   24.9173 C   0  0  0  0  0  0
  -21.6045   -4.3055   24.7224 C   0  0  0  0  0  0
  -21.8818   -3.8147   23.4344 C   0  0  0  0  0  0
  -21.9193   -4.6965   22.3401 C   0  0  0  0  0  0
  -22.7738  -13.5182   21.1912 C   0  0  0  0  0  0
  -22.1663   -4.2150   21.0979 F   0  0  0  0  0  0
  -21.5629   -3.4537   25.7736 F   0  0  0  0  0  0
  -29.8593  -13.9995   20.2900 N   0  0  0  0  0  0
  -26.2788  -12.9548   20.3230 N   0  0  0  0  0  0
  -25.9330  -11.6647   20.5740 N   0  0  0  0  0  0
  -22.0398  -12.8163   22.0465 N   0  0  0  0  0  0
  -25.3948  -15.1986   20.4156 N   0  0  0  0  0  0
  -31.7117  -15.1880   20.2208 O   0  0  0  0  0  0
  -21.6644   -6.8882   21.4242 O   0  0  0  0  0  0
  -22.3417  -14.5480   20.6745 O   0  0  0  0  0  0
  -24.6645  -31.8231   23.1703 C   0  0  0  0  0  0
  -25.9322  -32.4585   23.8169 C   0  0  1  0  0  0
  -27.2114  -26.9161   20.1830 C   0  0  0  0  0  0
  -25.5985  -33.8399   24.2076 N   0  0  0  0  0  0
  -23.4789  -30.4355   21.5205 C   0  0  2  0  0  0
  -24.9310  -28.8224   20.1133 C   0  0  0  0  0  0
  -22.7675  -29.4439   22.4780 C   0  0  0  0  0  0
  -18.0323  -28.1410   22.8467 C   0  0  0  0  0  0
  -24.1494  -36.7205   23.2646 C   0  0  0  0  0  0
  -26.0497  -30.6260   21.4019 C   0  0  0  0  0  0
  -26.1173  -29.2148   20.7465 C   0  0  0  0  0  0
  -27.2540  -28.2838   20.7550 C   0  0  0  0  0  0
  -25.9966  -26.6834   19.4988 C   0  0  0  0  0  0
  -24.8970  -27.5769   19.4685 C   0  0  0  0  0  0
  -23.7189  -29.7523   20.1468 C   0  0  0  0  0  0
  -25.4133  -36.2963   24.0299 C   0  0  1  0  0  0
  -20.5951  -28.3754   23.1185 C   0  0  2  0  0  0
  -20.6804  -26.9435   22.5398 C   0  0  0  0  0  0
  -19.5775  -26.6378   21.5213 C   0  0  0  0  0  0
  -18.1957  -26.7942   22.1624 C   0  0  0  0  0  0
  -19.1585  -28.8903   23.2813 C   0  0  0  0  0  0
  -18.9494  -30.1494   23.8848 C   0  0  0  0  0  0
  -17.6486  -30.6599   24.0552 C   0  0  0  0  0  0
  -25.9102  -34.9346   23.5007 C   0  0  0  0  0  0
  -16.5377  -29.9084   23.6343 C   0  0  0  0  0  0
  -16.7304  -28.6504   23.0362 C   0  0  0  0  0  0
  -26.4566  -31.6532   25.0701 C   0  0  0  0  0  0
  -25.3687  -31.3785   26.1352 C   0  0  0  0  0  0
  -27.0463  -30.2897   24.6443 C   0  0  0  0  0  0
  -27.6055  -32.4342   25.7506 C   0  0  0  0  0  0
  -27.5568  -37.1761   24.8465 C   0  0  0  0  0  0
  -21.4342  -29.3044   22.3533 N   0  0  0  0  0  0
  -26.4278  -37.3700   23.9407 N   0  0  0  0  0  0
  -24.7527  -30.9886   22.0844 N   0  0  0  0  0  0
  -23.4219  -28.8012   23.3027 O   0  0  0  0  0  0
  -28.1947  -25.7872   20.2478 O   0  0  0  0  0  0
  -26.5708  -34.8885   22.4602 O   0  0  0  0  0  0
  -23.5713  -32.1201   23.6793 O   0  0  0  0  0  0
  -28.9351  -19.9695   20.4368 C   0  0  0  0  0  0
  -28.8642  -22.7501   20.1742 C   0  0  0  0  0  0
  -28.1385  -18.6947   20.9687 C   0  0  0  0  0  0
  -28.4483  -17.1576   20.4423 C   0  0  0  0  0  0
  -30.6813  -17.9739   20.4020 C   0  0  0  0  0  0
  -25.6728  -23.1837   21.3696 C   0  0  0  0  0  0
  -26.9513  -24.0113   21.5786 C   0  0  0  0  0  0
  -27.8230  -24.1717   20.3097 C   0  0  1  0  0  0
  -28.4346  -21.3020   20.4949 N   0  0  0  0  0  0
  -29.8657  -16.6524   20.3937 N   0  0  0  0  0  0
  -30.0034  -22.9828   19.7748 O   0  0  0  0  0  0
  -30.1215  -19.3374   19.9340 O   0  0  0  0  0  0
  -31.4417  -13.0214   19.1698 H   0  0  0  0  0  0
  -30.4915  -11.9380   20.1357 H   0  0  0  0  0  0
  -29.9083  -11.7423   17.6901 H   0  0  0  0  0  0
  -29.5466  -13.4505   17.6261 H   0  0  0  0  0  0
  -28.0417  -11.2776   19.1000 H   0  0  0  0  0  0
  -27.4046  -12.3260   17.8586 H   0  0  0  0  0  0
  -27.5076  -14.2405   19.3050 H   0  0  0  0  0  0
  -28.8246  -12.5641   21.4931 H   0  0  0  0  0  0
  -28.2786  -14.2152   21.6669 H   0  0  0  0  0  0
  -25.2779   -9.5683   22.4767 H   0  0  0  0  0  0
  -24.0012   -7.4633   22.7473 H   0  0  0  0  0  0
  -21.0862   -8.8781   19.8950 H   0  0  0  0  0  0
  -22.3724  -10.9674   19.6169 H   0  0  0  0  0  0
  -21.2010   -7.6150   23.9716 H   0  0  0  0  0  0
  -21.1483   -6.0522   25.9076 H   0  0  0  0  0  0
  -22.0597   -2.7610   23.2842 H   0  0  0  0  0  0
  -22.4037  -11.9841   22.4864 H   0  0  0  0  0  0
  -21.1004  -13.1162   22.2657 H   0  0  0  0  0  0
  -24.6213  -15.8455   20.5255 H   0  0  0  0  0  0
  -26.2342  -15.6386   20.0647 H   0  0  0  0  0  0
  -26.7392  -32.5121   23.0884 H   0  0  0  0  0  0
  -25.0088  -33.9476   25.0196 H   0  0  0  0  0  0
  -22.7921  -31.2672   21.3501 H   0  0  0  0  0  0
  -23.3760  -35.9531   23.3288 H   0  0  0  0  0  0
  -24.3567  -36.8869   22.2063 H   0  0  0  0  0  0
  -23.7250  -37.6389   23.6712 H   0  0  0  0  0  0
  -26.2303  -31.3660   20.6209 H   0  0  0  0  0  0
  -26.9102  -30.6840   22.0567 H   0  0  0  0  0  0
  -28.1512  -28.5824   21.2787 H   0  0  0  0  0  0
  -25.8574  -25.7368   18.9998 H   0  0  0  0  0  0
  -23.9977  -27.2705   18.9522 H   0  0  0  0  0  0
  -23.8759  -30.5207   19.3889 H   0  0  0  0  0  0
  -22.8277  -29.2087   19.8284 H   0  0  0  0  0  0
  -25.1333  -36.1754   25.0790 H   0  0  0  0  0  0
  -21.0038  -28.3360   24.1309 H   0  0  0  0  0  0
  -20.5686  -26.2372   23.3640 H   0  0  0  0  0  0
  -21.6667  -26.7411   22.1205 H   0  0  0  0  0  0
  -19.6932  -25.6275   21.1277 H   0  0  0  0  0  0
  -19.6713  -27.3157   20.6719 H   0  0  0  0  0  0
  -17.4226  -26.6681   21.4029 H   0  0  0  0  0  0
  -18.0354  -26.0099   22.9035 H   0  0  0  0  0  0
  -19.7967  -30.7325   24.2196 H   0  0  0  0  0  0
  -17.5035  -31.6272   24.5165 H   0  0  0  0  0  0
  -15.5374  -30.2969   23.7697 H   0  0  0  0  0  0
  -15.8706  -28.0806   22.7105 H   0  0  0  0  0  0
  -24.5887  -30.7117   25.7662 H   0  0  0  0  0  0
  -24.8853  -32.2985   26.4647 H   0  0  0  0  0  0
  -25.7913  -30.9038   27.0215 H   0  0  0  0  0  0
  -26.3134  -29.6572   24.1424 H   0  0  0  0  0  0
  -27.3964  -29.7262   25.5101 H   0  0  0  0  0  0
  -27.9088  -30.4078   23.9882 H   0  0  0  0  0  0
  -27.2620  -33.3681   26.1965 H   0  0  0  0  0  0
  -28.3929  -32.6841   25.0384 H   0  0  0  0  0  0
  -28.0656  -31.8547   26.5519 H   0  0  0  0  0  0
  -28.2567  -38.0074   24.7507 H   0  0  0  0  0  0
  -28.1083  -36.2598   24.6298 H   0  0  0  0  0  0
  -27.2284  -37.1409   25.8868 H   0  0  0  0  0  0
  -20.9597  -29.8732   21.6661 H   0  0  0  0  0  0
  -26.0121  -38.2759   24.1409 H   0  0  0  0  0  0
  -27.0785  -18.8913   20.8064 H   0  0  0  0  0  0
  -28.2542  -18.6964   22.0528 H   0  0  0  0  0  0
  -28.0526  -17.0581   19.4308 H   0  0  0  0  0  0
  -27.8706  -16.4676   21.0556 H   0  0  0  0  0  0
  -31.5658  -17.7894   19.7905 H   0  0  0  0  0  0
  -31.0388  -18.1008   21.4251 H   0  0  0  0  0  0
  -25.1040  -23.1101   22.2972 H   0  0  0  0  0  0
  -25.8944  -22.1692   21.0393 H   0  0  0  0  0  0
  -25.0241  -23.6435   20.6232 H   0  0  0  0  0  0
  -27.5471  -23.5614   22.3738 H   0  0  0  0  0  0
  -26.6602  -24.9874   21.9648 H   0  0  0  0  0  0
  -27.1726  -24.0439   19.4456 H   0  0  0  0  0  0
  1 25  1  0  0  0
  1 30  2  0  0  0
  1 80  1  0  0  0
  2  3  1  0  0  0
  2 25  1  0  0  0
  2 83  1  0  0  0
  2 84  1  0  0  0
  3  4  1  0  0  0
  3 85  1  0  0  0
  3 86  1  0  0  0
  4  5  1  0  0  0
  4 87  1  0  0  0
  4 88  1  0  0  0
  5  6  1  0  0  0
  5 26  1  0  0  0
  5 89  1  0  0  0
  6 25  1  0  0  0
  6 90  1  0  0  0
  6 91  1  0  0  0
  7  8  2  0  0  0
  7 26  1  0  0  0
  7 29  1  0  0  0
  8  9  1  0  0  0
  8 22  1  0  0  0
  9 10  1  0  0  0
  9 27  2  0  0  0
 10 11  2  0  0  0
 10 15  1  0  0  0
 11 12  1  0  0  0
 11 92  1  0  0  0
 12 13  2  0  0  0
 12 93  1  0  0  0
 13 14  1  0  0  0
 13 31  1  0  0  0
 14 15  2  0  0  0
 14 94  1  0  0  0
 15 95  1  0  0  0
 16 17  2  0  0  0
 16 21  1  0  0  0
 16 31  1  0  0  0
 17 18  1  0  0  0
 17 96  1  0  0  0
 18 19  2  0  0  0
 18 97  1  0  0  0
 19 20  1  0  0  0
 19 24  1  0  0  0
 20 21  2  0  0  0
 20 98  1  0  0  0
 21 23  1  0  0  0
 22 28  1  0  0  0
 22 32  2  0  0  0
 26 27  1  0  0  0
 28 99  1  0  0  0
 28100  1  0  0  0
 29101  1  0  0  0
 29102  1  0  0  0
 33 34  1  0  0  0
 33 66  1  0  0  0
 33 70  2  0  0  0
 34 36  1  0  0  0
 34 59  1  0  0  0
 34103  1  0  0  0
 35 44  2  0  0  0
 35 45  1  0  0  0
 35 68  1  0  0  0
 36 56  1  0  0  0
 36104  1  0  0  0
 37 39  1  0  0  0
 37 47  1  0  0  0
 37 66  1  0  0  0
 37105  1  0  0  0
 38 43  2  0  0  0
 38 46  1  0  0  0
 38 47  1  0  0  0
 39 64  1  0  0  0
 39 67  2  0  0  0
 40 52  1  0  0  0
 40 53  2  0  0  0
 40 58  1  0  0  0
 41106  1  0  0  0
 41107  1  0  0  0
 41108  1  0  0  0
 41 48  1  0  0  0
 42 43  1  0  0  0
 42 66  1  0  0  0
 42109  1  0  0  0
 42110  1  0  0  0
 43 44  1  0  0  0
 44111  1  0  0  0
 45 46  2  0  0  0
 45112  1  0  0  0
 46113  1  0  0  0
 47114  1  0  0  0
 47115  1  0  0  0
 48 56  1  0  0  0
 48 65  1  0  0  0
 48116  1  0  0  0
 49 50  1  0  0  0
 49 53  1  0  0  0
 49 64  1  0  0  0
 49117  1  0  0  0
 50 51  1  0  0  0
 50118  1  0  0  0
 50119  1  0  0  0
 51 52  1  0  0  0
 51120  1  0  0  0
 51121  1  0  0  0
 52122  1  0  0  0
 52123  1  0  0  0
 53 54  1  0  0  0
 54 55  2  0  0  0
 54124  1  0  0  0
 55 57  1  0  0  0
 55125  1  0  0  0
 56 69  2  0  0  0
 57 58  2  0  0  0
 57126  1  0  0  0
 58127  1  0  0  0
 59 60  1  0  0  0
 59 61  1  0  0  0
 59 62  1  0  0  0
 60128  1  0  0  0
 60129  1  0  0  0
 60130  1  0  0  0
 61131  1  0  0  0
 61132  1  0  0  0
 61133  1  0  0  0
 62134  1  0  0  0
 62135  1  0  0  0
 62136  1  0  0  0
 63 65  1  0  0  0
 63137  1  0  0  0
 63138  1  0  0  0
 63139  1  0  0  0
 64140  1  0  0  0
 65141  1  0  0  0
 68 78  1  0  0  0
 71 73  1  0  0  0
 71 79  2  0  0  0
 71 82  1  0  0  0
 72 78  1  0  0  0
 72 79  1  0  0  0
 72 81  2  0  0  0
 73 74  1  0  0  0
 73142  1  0  0  0
 73143  1  0  0  0
 74 80  1  0  0  0
 74144  1  0  0  0
 74145  1  0  0  0
 75 80  1  0  0  0
 75 82  1  0  0  0
 75146  1  0  0  0
 75147  1  0  0  0
 76 77  1  0  0  0
 76148  1  0  0  0
 76149  1  0  0  0
 76150  1  0  0  0
 77151  1  0  0  0
 77152  1  0  0  0
 77 78  1  0  0  0
 78153  1  0  0  0
M  ISO  4   1 100  68 101  78 101  80 100
M  END
> <chiral flag>
0

> <version>
0

> <s_m_source_file>
/data/baiqing/PycharmProjects/Reinvent-master-3.2/result/LINK_invent/BTK/process_docking_weight1_custom_product_contain_oxygen_bond_distance_aromatic_linkinvent_7_9_3/rearranged_h_0150.sdf

> <i_m_source_file_index>
60

> <r_mmod_Potential_Energy-OPLS-2005>
1398.79833984375

> <r_mmod_Stretch_Energy-OPLS-2005>
546.833984375

> <r_mmod_Bend_Energy-OPLS-2005>
513.976318359375

> <r_mmod_Torsional_Energy-OPLS-2005>
265.543762207031

> <r_mmod_Improper_Torsional_Energy-OPLS-2005>
4.66457557678223

> <r_mmod_Van_der_Waal_Energy-OPLS-2005>
113.15470123291

> <r_mmod_Electrostatic_Energy-OPLS-2005>
-307.252716064453

> <r_mmod_Solvation_Energy-OPLS-2005>
-213.139282226562

> <b_mmod_Minimization_Converged-OPLS-2005>
0

> <r_mmod_RMS_Derivative-OPLS-2005>
0.483825445175171

$$$$
60
                    3D
 Structure written by MMmdl.
165173  0  0  1  0            999 V2000
  -30.6140  -14.5690   20.5632 C   0  0  0  0  0  0
  -30.4477  -12.3642   19.4301 C   0  0  0  0  0  0
  -29.5065  -12.5206   18.2136 C   0  0  0  0  0  0
  -28.0272  -12.3607   18.6231 C   0  0  0  0  0  0
  -27.6621  -13.2006   19.8747 C   0  0  2  0  0  0
  -28.7036  -12.9768   20.9942 C   0  0  0  0  0  0
  -25.2578  -13.8112   20.5622 C   0  0  0  0  0  0
  -24.1845  -13.0419   20.9200 C   0  0  0  0  0  0
  -24.6391  -11.6884   20.8752 C   0  0  0  0  0  0
  -23.9051  -10.4282   21.0418 C   0  0  0  0  0  0
  -24.3606   -9.4199   21.9190 C   0  0  0  0  0  0
  -23.6282   -8.2236   22.0758 C   0  0  0  0  0  0
  -22.4265   -8.0280   21.3548 C   0  0  0  0  0  0
  -21.9897   -9.0254   20.4651 C   0  0  0  0  0  0
  -22.7227  -10.2132   20.3062 C   0  0  0  0  0  0
  -21.6850   -6.0734   22.5278 C   0  0  0  0  0  0
  -21.4013   -6.5636   23.8213 C   0  0  0  0  0  0
  -21.3656   -5.6787   24.9172 C   0  0  0  0  0  0
  -21.6041   -4.3050   24.7221 C   0  0  0  0  0  0
  -21.8820   -3.8145   23.4342 C   0  0  0  0  0  0
  -21.9192   -4.6962   22.3399 C   0  0  0  0  0  0
  -22.7872  -13.5240   21.1845 C   0  0  0  0  0  0
  -22.1662   -4.2152   21.0976 F   0  0  0  0  0  0
  -21.5626   -3.4534   25.7734 F   0  0  0  0  0  0
  -30.0292  -13.3372   20.4544 N   0  0  0  0  0  0
  -26.3016  -12.9277   20.3327 N   0  0  0  0  0  0
  -25.9313  -11.6449   20.5756 N   0  0  0  0  0  0
  -22.0488  -12.8253   22.0398 N   0  0  0  0  0  0
  -25.4257  -15.1802   20.3858 N   0  0  0  0  0  0
  -31.7301  -14.8190   20.0949 O   0  0  0  0  0  0
  -21.6633   -6.8876   21.4242 O   0  0  0  0  0  0
  -22.3581  -14.5551   20.6682 O   0  0  0  0  0  0
  -24.6200  -31.8629   23.2044 C   0  0  0  0  0  0
  -25.9071  -32.4796   23.8360 C   0  0  1  0  0  0
  -27.2379  -27.3742   20.1175 C   0  0  0  0  0  0
  -25.5907  -33.8594   24.2294 N   0  0  0  0  0  0
  -23.4111  -30.4836   21.5460 C   0  0  2  0  0  0
  -24.8592  -28.9352   20.1191 C   0  0  0  0  0  0
  -22.7438  -29.4633   22.4971 C   0  0  0  0  0  0
  -18.0277  -28.1382   22.8486 C   0  0  0  0  0  0
  -24.1487  -36.7305   23.2639 C   0  0  0  0  0  0
  -25.9441  -30.8109   21.3647 C   0  0  0  0  0  0
  -26.0216  -29.4382   20.7161 C   0  0  0  0  0  0
  -27.2138  -28.6689   20.7035 C   0  0  0  0  0  0
  -26.0562  -26.8983   19.5097 C   0  0  0  0  0  0
  -24.8743  -27.6674   19.5102 C   0  0  0  0  0  0
  -23.6240  -29.8100   20.1631 C   0  0  0  0  0  0
  -25.4110  -36.3095   24.0332 C   0  0  1  0  0  0
  -20.5870  -28.3676   23.1306 C   0  0  2  0  0  0
  -20.6768  -26.9407   22.5416 C   0  0  0  0  0  0
  -19.5748  -26.6386   21.5212 C   0  0  0  0  0  0
  -18.1925  -26.7927   22.1621 C   0  0  0  0  0  0
  -19.1527  -28.8845   23.2891 C   0  0  0  0  0  0
  -18.9454  -30.1449   23.8904 C   0  0  0  0  0  0
  -17.6457  -30.6586   24.0566 C   0  0  0  0  0  0
  -25.9039  -34.9463   23.5115 C   0  0  0  0  0  0
  -16.5347  -29.9087   23.6327 C   0  0  0  0  0  0
  -16.7266  -28.6505   23.0344 C   0  0  0  0  0  0
  -26.4481  -31.6590   25.0709 C   0  0  0  0  0  0
  -25.3736  -31.3716   26.1454 C   0  0  0  0  0  0
  -27.0314  -30.3025   24.6113 C   0  0  0  0  0  0
  -27.6050  -32.4316   25.7477 C   0  0  0  0  0  0
  -27.5578  -37.1808   24.8465 C   0  0  0  0  0  0
  -21.4160  -29.3036   22.3710 N   0  0  0  0  0  0
  -26.4293  -37.3782   23.9407 N   0  0  0  0  0  0
  -24.6769  -31.0682   22.0965 N   0  0  0  0  0  0
  -23.4184  -28.8182   23.3039 O   0  0  0  0  0  0
  -28.4102  -26.6293   20.0873 O   0  0  0  0  0  0
  -26.5607  -34.8923   22.4678 O   0  0  0  0  0  0
  -23.5380  -32.1404   23.7408 O   0  0  0  0  0  0
  -30.4757  -17.9953   20.7051 C   0  0  0  0  0  0
  -28.3207  -17.4105   20.9420 C   0  0  0  0  0  0
  -29.5806  -16.8966   20.9033 C   0  0  0  0  0  0
  -29.7478  -19.1851   20.6609 C   0  0  0  0  0  0
  -30.2691  -20.5816   20.5940 C   0  0  0  0  0  0
  -27.1674  -19.5832   20.7114 C   0  0  0  0  0  0
  -25.8084  -18.9099   20.8865 C   0  0  0  0  0  0
  -30.6802  -25.3053   19.3899 C   0  0  0  0  0  0
  -28.9603  -23.8297   18.3495 C   0  0  0  0  0  0
  -30.1500  -23.1545   20.5253 C   0  0  0  0  0  0
  -28.3974  -25.2072   20.4360 C   0  0  0  0  0  0
  -29.5029  -24.3471   19.6953 C   0  0  0  0  0  0
  -28.3894  -18.7925   20.7561 N   0  0  0  0  0  0
  -31.6003  -20.6742   20.7243 N   0  0  0  0  0  0
  -29.8233  -15.4967   21.1640 N   0  0  0  0  0  0
  -29.5883  -21.7625   20.4413 N   0  3  0  0  0  0
  -27.2163  -20.7967   20.5115 O   0  0  0  0  0  0
  -31.4865  -12.5102   19.1278 H   0  0  0  0  0  0
  -30.3936  -11.3509   19.8302 H   0  0  0  0  0  0
  -29.7610  -11.7914   17.4431 H   0  0  0  0  0  0
  -29.6537  -13.5027   17.7618 H   0  0  0  0  0  0
  -27.8488  -11.3037   18.8229 H   0  0  0  0  0  0
  -27.3762  -12.6252   17.7893 H   0  0  0  0  0  0
  -27.7040  -14.2481   19.5758 H   0  0  0  0  0  0
  -28.7052  -11.9301   21.3021 H   0  0  0  0  0  0
  -28.4408  -13.5347   21.8942 H   0  0  0  0  0  0
  -25.2754   -9.5669   22.4759 H   0  0  0  0  0  0
  -23.9991   -7.4622   22.7472 H   0  0  0  0  0  0
  -21.0829   -8.8772   19.8954 H   0  0  0  0  0  0
  -22.3690  -10.9670   19.6169 H   0  0  0  0  0  0
  -21.2009   -7.6144   23.9714 H   0  0  0  0  0  0
  -21.1474   -6.0518   25.9074 H   0  0  0  0  0  0
  -22.0603   -2.7608   23.2840 H   0  0  0  0  0  0
  -22.4081  -11.9915   22.4802 H   0  0  0  0  0  0
  -21.1111  -13.1303   22.2587 H   0  0  0  0  0  0
  -24.6187  -15.7938   20.4006 H   0  0  0  0  0  0
  -26.2006  -15.5538   19.8546 H   0  0  0  0  0  0
  -26.7139  -32.5489   23.1116 H   0  0  0  0  0  0
  -25.0067  -33.9746   25.0447 H   0  0  0  0  0  0
  -22.7023  -31.3014   21.4014 H   0  0  0  0  0  0
  -23.3742  -35.9646   23.3314 H   0  0  0  0  0  0
  -24.3579  -36.8908   22.2050 H   0  0  0  0  0  0
  -23.7249  -37.6517   23.6648 H   0  0  0  0  0  0
  -26.0606  -31.5719   20.5919 H   0  0  0  0  0  0
  -26.8303  -30.8682   21.9850 H   0  0  0  0  0  0
  -28.1137  -29.0589   21.1581 H   0  0  0  0  0  0
  -26.0451  -25.9365   19.0170 H   0  0  0  0  0  0
  -23.9834  -27.2779   19.0374 H   0  0  0  0  0  0
  -23.7387  -30.5821   19.4013 H   0  0  0  0  0  0
  -22.7463  -29.2331   19.8658 H   0  0  0  0  0  0
  -25.1288  -36.1955   25.0825 H   0  0  0  0  0  0
  -20.9954  -28.3245   24.1430 H   0  0  0  0  0  0
  -20.5670  -26.2284   23.3607 H   0  0  0  0  0  0
  -21.6641  -26.7446   22.1213 H   0  0  0  0  0  0
  -19.6912  -25.6299   21.1237 H   0  0  0  0  0  0
  -19.6687  -27.3201   20.6746 H   0  0  0  0  0  0
  -17.4196  -26.6672   21.4023 H   0  0  0  0  0  0
  -18.0324  -26.0069   22.9016 H   0  0  0  0  0  0
  -19.7932  -30.7261   24.2277 H   0  0  0  0  0  0
  -17.5013  -31.6267   24.5167 H   0  0  0  0  0  0
  -15.5349  -30.2992   23.7648 H   0  0  0  0  0  0
  -15.8665  -28.0830   22.7050 H   0  0  0  0  0  0
  -24.5906  -30.7064   25.7795 H   0  0  0  0  0  0
  -24.8935  -32.2881   26.4894 H   0  0  0  0  0  0
  -25.8084  -30.8892   27.0215 H   0  0  0  0  0  0
  -26.2866  -29.6783   24.1162 H   0  0  0  0  0  0
  -27.4066  -29.7266   25.4583 H   0  0  0  0  0  0
  -27.8709  -30.4332   23.9280 H   0  0  0  0  0  0
  -27.2664  -33.3608   26.2071 H   0  0  0  0  0  0
  -28.3854  -32.6886   25.0302 H   0  0  0  0  0  0
  -28.0725  -31.8430   26.5381 H   0  0  0  0  0  0
  -28.2606  -38.0092   24.7496 H   0  0  0  0  0  0
  -28.1060  -36.2626   24.6309 H   0  0  0  0  0  0
  -27.2295  -37.1480   25.8867 H   0  0  0  0  0  0
  -20.9332  -29.8757   21.6923 H   0  0  0  0  0  0
  -26.0179  -38.2861   24.1397 H   0  0  0  0  0  0
  -31.5531  -17.9278   20.6615 H   0  0  0  0  0  0
  -27.3790  -16.9048   21.0970 H   0  0  0  0  0  0
  -25.6470  -18.1685   20.1049 H   0  0  0  0  0  0
  -25.0074  -19.6456   20.8206 H   0  0  0  0  0  0
  -25.7420  -18.4254   21.8601 H   0  0  0  0  0  0
  -31.5023  -24.7963   18.8850 H   0  0  0  0  0  0
  -31.0802  -25.7470   20.3037 H   0  0  0  0  0  0
  -30.3845  -26.1234   18.7326 H   0  0  0  0  0  0
  -29.7217  -23.2814   17.7930 H   0  0  0  0  0  0
  -28.6178  -24.6513   17.7193 H   0  0  0  0  0  0
  -28.1116  -23.1600   18.4932 H   0  0  0  0  0  0
  -30.2067  -23.4321   21.5783 H   0  0  0  0  0  0
  -31.1874  -23.0673   20.2075 H   0  0  0  0  0  0
  -28.5830  -25.1679   21.5096 H   0  0  0  0  0  0
  -27.4184  -24.7478   20.3013 H   0  0  0  0  0  0
  -32.1458  -19.8365   20.8520 H   0  0  0  0  0  0
  -32.0980  -21.5475   20.6958 H   0  0  0  0  0  0
  -29.0316  -15.0342   21.5851 H   0  0  0  0  0  0
  -28.5701  -21.6702   20.4084 H   0  0  0  0  0  0
  1 25  1  0  0  0
  1 30  2  0  0  0
  1 85  1  0  0  0
  2  3  1  0  0  0
  2 25  1  0  0  0
  2 88  1  0  0  0
  2 89  1  0  0  0
  3  4  1  0  0  0
  3 90  1  0  0  0
  3 91  1  0  0  0
  4  5  1  0  0  0
  4 92  1  0  0  0
  4 93  1  0  0  0
  5  6  1  0  0  0
  5 26  1  0  0  0
  5 94  1  0  0  0
  6 25  1  0  0  0
  6 95  1  0  0  0
  6 96  1  0  0  0
  7  8  2  0  0  0
  7 26  1  0  0  0
  7 29  1  0  0  0
  8  9  1  0  0  0
  8 22  1  0  0  0
  9 10  1  0  0  0
  9 27  2  0  0  0
 10 11  2  0  0  0
 10 15  1  0  0  0
 11 12  1  0  0  0
 11 97  1  0  0  0
 12 13  2  0  0  0
 12 98  1  0  0  0
 13 14  1  0  0  0
 13 31  1  0  0  0
 14 15  2  0  0  0
 14 99  1  0  0  0
 15100  1  0  0  0
 16 17  2  0  0  0
 16 21  1  0  0  0
 16 31  1  0  0  0
 17 18  1  0  0  0
 17101  1  0  0  0
 18 19  2  0  0  0
 18102  1  0  0  0
 19 20  1  0  0  0
 19 24  1  0  0  0
 20 21  2  0  0  0
 20103  1  0  0  0
 21 23  1  0  0  0
 22 28  1  0  0  0
 22 32  2  0  0  0
 26 27  1  0  0  0
 28104  1  0  0  0
 28105  1  0  0  0
 29106  1  0  0  0
 29107  1  0  0  0
 33 34  1  0  0  0
 33 66  1  0  0  0
 33 70  2  0  0  0
 34 36  1  0  0  0
 34 59  1  0  0  0
 34108  1  0  0  0
 35 44  2  0  0  0
 35 45  1  0  0  0
 35 68  1  0  0  0
 36 56  1  0  0  0
 36109  1  0  0  0
 37 39  1  0  0  0
 37 47  1  0  0  0
 37 66  1  0  0  0
 37110  1  0  0  0
 38 43  2  0  0  0
 38 46  1  0  0  0
 38 47  1  0  0  0
 39 64  1  0  0  0
 39 67  2  0  0  0
 40 52  1  0  0  0
 40 53  2  0  0  0
 40 58  1  0  0  0
 41111  1  0  0  0
 41112  1  0  0  0
 41113  1  0  0  0
 41 48  1  0  0  0
 42 43  1  0  0  0
 42 66  1  0  0  0
 42114  1  0  0  0
 42115  1  0  0  0
 43 44  1  0  0  0
 44116  1  0  0  0
 45 46  2  0  0  0
 45117  1  0  0  0
 46118  1  0  0  0
 47119  1  0  0  0
 47120  1  0  0  0
 48 56  1  0  0  0
 48 65  1  0  0  0
 48121  1  0  0  0
 49 50  1  0  0  0
 49 53  1  0  0  0
 49 64  1  0  0  0
 49122  1  0  0  0
 50 51  1  0  0  0
 50123  1  0  0  0
 50124  1  0  0  0
 51 52  1  0  0  0
 51125  1  0  0  0
 51126  1  0  0  0
 52127  1  0  0  0
 52128  1  0  0  0
 53 54  1  0  0  0
 54 55  2  0  0  0
 54129  1  0  0  0
 55 57  1  0  0  0
 55130  1  0  0  0
 56 69  2  0  0  0
 57 58  2  0  0  0
 57131  1  0  0  0
 58132  1  0  0  0
 59 60  1  0  0  0
 59 61  1  0  0  0
 59 62  1  0  0  0
 60133  1  0  0  0
 60134  1  0  0  0
 60135  1  0  0  0
 61136  1  0  0  0
 61137  1  0  0  0
 61138  1  0  0  0
 62139  1  0  0  0
 62140  1  0  0  0
 62141  1  0  0  0
 63 65  1  0  0  0
 63142  1  0  0  0
 63143  1  0  0  0
 63144  1  0  0  0
 64145  1  0  0  0
 65146  1  0  0  0
 68 81  1  0  0  0
 71 73  1  0  0  0
 71 74  2  0  0  0
 71147  1  0  0  0
 72 73  2  0  0  0
 72 83  1  0  0  0
 72148  1  0  0  0
 73 85  1  0  0  0
 74 75  1  0  0  0
 74 83  1  0  0  0
 75 84  1  0  0  0
 75 86  2  0  0  0
 76 77  1  0  0  0
 76 83  1  0  0  0
 76 87  2  0  0  0
 77149  1  0  0  0
 77150  1  0  0  0
 77151  1  0  0  0
 78152  1  0  0  0
 78153  1  0  0  0
 78154  1  0  0  0
 78 82  1  0  0  0
 79 82  1  0  0  0
 79155  1  0  0  0
 79156  1  0  0  0
 79157  1  0  0  0
 80 82  1  0  0  0
 80 86  1  0  0  0
 80158  1  0  0  0
 80159  1  0  0  0
 81 82  1  0  0  0
 81160  1  0  0  0
 81161  1  0  0  0
 84162  1  0  0  0
 84163  1  0  0  0
 85164  1  0  0  0
 86165  1  0  0  0
M  CHG  1  86   1
M  ISO  4   1 100  68 101  81 101  85 100
M  END
> <chiral flag>
0

> <version>
0

> <s_m_source_file>
/data/baiqing/PycharmProjects/Reinvent-master-3.2/result/LINK_invent/BTK/process_docking_weight1_custom_product_contain_oxygen_bond_distance_aromatic_linkinvent_7_9_3/rearranged_h_0150.sdf

> <i_m_source_file_index>
61

> <r_mmod_Potential_Energy-OPLS-2005>
-148.292129516602

> <r_mmod_Stretch_Energy-OPLS-2005>
65.2501220703125

> <r_mmod_Bend_Energy-OPLS-2005>
175.070343017578

> <r_mmod_Torsional_Energy-OPLS-2005>
274.251708984375

> <r_mmod_Improper_Torsional_Energy-OPLS-2005>
7.13297939300537

> <r_mmod_Van_der_Waal_Energy-OPLS-2005>
153.236419677734

> <r_mmod_Electrostatic_Energy-OPLS-2005>
-418.521545410156

> <r_mmod_Solvation_Energy-OPLS-2005>
-430.767700195312

> <b_mmod_Minimization_Converged-OPLS-2005>
0

> <r_mmod_RMS_Derivative-OPLS-2005>
0.724987626075745

$$$$
61
                    3D
 Structure written by MMmdl.
162171  0  0  1  0            999 V2000
  -30.5898  -14.8065   20.4437 C   0  0  0  0  0  0
  -30.4240  -12.4876   19.4883 C   0  0  0  0  0  0
  -29.5164  -12.5322   18.2407 C   0  0  0  0  0  0
  -28.0337  -12.3659   18.6311 C   0  0  0  0  0  0
  -27.6319  -13.2484   19.8458 C   0  0  2  0  0  0
  -28.6749  -13.1983   20.9829 C   0  0  0  0  0  0
  -25.2424  -13.8215   20.5702 C   0  0  0  0  0  0
  -24.1741  -13.0429   20.9215 C   0  0  0  0  0  0
  -24.6380  -11.6921   20.8750 C   0  0  0  0  0  0
  -23.9077  -10.4284   21.0408 C   0  0  0  0  0  0
  -24.3635   -9.4198   21.9177 C   0  0  0  0  0  0
  -23.6304   -8.2236   22.0753 C   0  0  0  0  0  0
  -22.4289   -8.0285   21.3545 C   0  0  0  0  0  0
  -21.9945   -9.0246   20.4628 C   0  0  0  0  0  0
  -22.7274  -10.2117   20.3036 C   0  0  0  0  0  0
  -21.6849   -6.0740   22.5286 C   0  0  0  0  0  0
  -21.4013   -6.5644   23.8225 C   0  0  0  0  0  0
  -21.3663   -5.6793   24.9185 C   0  0  0  0  0  0
  -21.6054   -4.3062   24.7219 C   0  0  0  0  0  0
  -21.8808   -3.8144   23.4337 C   0  0  0  0  0  0
  -21.9180   -4.6961   22.3394 C   0  0  0  0  0  0
  -22.7743  -13.5178   21.1869 C   0  0  0  0  0  0
  -22.1652   -4.2162   21.0965 F   0  0  0  0  0  0
  -21.5637   -3.4546   25.7730 F   0  0  0  0  0  0
  -29.9711  -13.5676   20.3996 N   0  0  0  0  0  0
  -26.2881  -12.9454   20.3258 N   0  0  0  0  0  0
  -25.9321  -11.6578   20.5748 N   0  0  0  0  0  0
  -22.0396  -12.8154   22.0410 N   0  0  0  0  0  0
  -25.4011  -15.1953   20.4089 N   0  0  0  0  0  0
  -31.7896  -14.8726   20.1554 O   0  0  0  0  0  0
  -21.6632   -6.8897   21.4251 O   0  0  0  0  0  0
  -22.3428  -14.5495   20.6740 O   0  0  0  0  0  0
  -24.6385  -31.8510   23.1981 C   0  0  0  0  0  0
  -25.9192  -32.4726   23.8335 C   0  0  1  0  0  0
  -27.2233  -27.2203   20.1278 C   0  0  0  0  0  0
  -25.5972  -33.8536   24.2258 N   0  0  0  0  0  0
  -23.4351  -30.4732   21.5419 C   0  0  2  0  0  0
  -24.8831  -28.9136   20.1148 C   0  0  0  0  0  0
  -22.7521  -29.4583   22.4925 C   0  0  0  0  0  0
  -18.0289  -28.1396   22.8473 C   0  0  0  0  0  0
  -24.1485  -36.7255   23.2640 C   0  0  0  0  0  0
  -25.9868  -30.7498   21.3825 C   0  0  0  0  0  0
  -26.0591  -29.3686   20.7252 C   0  0  0  0  0  0
  -27.2322  -28.5381   20.7156 C   0  0  0  0  0  0
  -26.0223  -26.8533   19.4786 C   0  0  0  0  0  0
  -24.8724  -27.6653   19.4794 C   0  0  0  0  0  0
  -23.6547  -29.8032   20.1599 C   0  0  0  0  0  0
  -25.4117  -36.3057   24.0328 C   0  0  1  0  0  0
  -20.5899  -28.3708   23.1267 C   0  0  2  0  0  0
  -20.6776  -26.9431   22.5414 C   0  0  0  0  0  0
  -19.5762  -26.6384   21.5213 C   0  0  0  0  0  0
  -18.1925  -26.7950   22.1604 C   0  0  0  0  0  0
  -19.1542  -28.8866   23.2844 C   0  0  0  0  0  0
  -18.9466  -30.1470   23.8867 C   0  0  0  0  0  0
  -17.6456  -30.6579   24.0570 C   0  0  0  0  0  0
  -25.9062  -34.9428   23.5085 C   0  0  0  0  0  0
  -16.5345  -29.9070   23.6358 C   0  0  0  0  0  0
  -16.7276  -28.6499   23.0363 C   0  0  0  0  0  0
  -26.4540  -31.6560   25.0728 C   0  0  0  0  0  0
  -25.3746  -31.3694   26.1420 C   0  0  0  0  0  0
  -27.0430  -30.2988   24.6248 C   0  0  0  0  0  0
  -27.6057  -32.4328   25.7518 C   0  0  0  0  0  0
  -27.5587  -37.1766   24.8446 C   0  0  0  0  0  0
  -21.4228  -29.3046   22.3648 N   0  0  0  0  0  0
  -26.4268  -37.3767   23.9441 N   0  0  0  0  0  0
  -24.7050  -31.0426   22.0966 N   0  0  0  0  0  0
  -23.4192  -28.8133   23.3044 O   0  0  0  0  0  0
  -28.3041  -26.2892   20.1538 O   0  0  0  0  0  0
  -26.5626  -34.8910   22.4645 O   0  0  0  0  0  0
  -23.5523  -32.1375   23.7244 O   0  0  0  0  0  0
  -31.2366  -19.3398   20.4142 C   0  0  0  0  0  0
  -31.3683  -17.9084   20.5331 C   0  0  0  0  0  0
  -29.9020  -19.6594   20.3442 C   0  0  0  0  0  0
  -30.1110  -17.3520   20.5120 C   0  0  0  0  0  0
  -29.2899  -23.1178   18.7476 C   0  0  0  0  0  0
  -29.8814  -21.6762   18.7776 C   0  0  0  0  0  0
  -29.0620  -23.5456   20.2135 C   0  0  1  0  0  0
  -28.6708  -22.0514   20.7858 C   0  0  0  0  0  0
  -30.4132  -24.0255   20.7879 C   0  0  0  0  0  0
  -27.1586  -21.8099   20.5936 C   0  0  0  0  0  0
  -28.9814  -21.9065   22.2875 C   0  0  0  0  0  0
  -28.0106  -24.8071   20.3832 C   0  0  0  0  0  0
  -29.3913  -20.9956   19.9783 N   0  0  0  0  0  0
  -29.8065  -15.9628   20.5861 N   0  0  0  0  0  0
  -29.1779  -18.4352   20.4044 O   0  0  0  0  0  0
  -31.4687  -12.6047   19.2005 H   0  0  0  0  0  0
  -30.3522  -11.5153   19.9797 H   0  0  0  0  0  0
  -29.8080  -11.7624   17.5243 H   0  0  0  0  0  0
  -29.6575  -13.4860   17.7283 H   0  0  0  0  0  0
  -27.8636  -11.3114   18.8532 H   0  0  0  0  0  0
  -27.4016  -12.5981   17.7715 H   0  0  0  0  0  0
  -27.6125  -14.2710   19.4699 H   0  0  0  0  0  0
  -28.7146  -12.2003   21.4259 H   0  0  0  0  0  0
  -28.4010  -13.8787   21.7902 H   0  0  0  0  0  0
  -25.2792   -9.5675   22.4743 H   0  0  0  0  0  0
  -23.9991   -7.4639   22.7485 H   0  0  0  0  0  0
  -21.0879   -8.8772   19.8940 H   0  0  0  0  0  0
  -22.3751  -10.9638   19.6133 H   0  0  0  0  0  0
  -21.2012   -7.6152   23.9738 H   0  0  0  0  0  0
  -21.1517   -6.0523   25.9087 H   0  0  0  0  0  0
  -22.0582   -2.7599   23.2851 H   0  0  0  0  0  0
  -22.4044  -11.9827   22.4775 H   0  0  0  0  0  0
  -21.1014  -13.1183   22.2626 H   0  0  0  0  0  0
  -24.6101  -15.8273   20.4838 H   0  0  0  0  0  0
  -26.2180  -15.6431   20.0157 H   0  0  0  0  0  0
  -26.7236  -32.5370   23.1050 H   0  0  0  0  0  0
  -25.0173  -33.9662   25.0445 H   0  0  0  0  0  0
  -22.7341  -31.2966   21.3922 H   0  0  0  0  0  0
  -23.3786  -35.9529   23.3218 H   0  0  0  0  0  0
  -24.3592  -36.8985   22.2080 H   0  0  0  0  0  0
  -23.7175  -37.6393   23.6732 H   0  0  0  0  0  0
  -26.1328  -31.5109   20.6143 H   0  0  0  0  0  0
  -26.8607  -30.7997   22.0194 H   0  0  0  0  0  0
  -28.1317  -28.8851   21.2051 H   0  0  0  0  0  0
  -25.9435  -25.9189   18.9484 H   0  0  0  0  0  0
  -23.9771  -27.3187   18.9818 H   0  0  0  0  0  0
  -23.7787  -30.5770   19.4014 H   0  0  0  0  0  0
  -22.7727  -29.2322   19.8588 H   0  0  0  0  0  0
  -25.1295  -36.1878   25.0812 H   0  0  0  0  0  0
  -20.9978  -28.3290   24.1392 H   0  0  0  0  0  0
  -20.5688  -26.2321   23.3615 H   0  0  0  0  0  0
  -21.6638  -26.7429   22.1219 H   0  0  0  0  0  0
  -19.6916  -25.6282   21.1263 H   0  0  0  0  0  0
  -19.6712  -27.3170   20.6730 H   0  0  0  0  0  0
  -17.4215  -26.6741   21.3967 H   0  0  0  0  0  0
  -18.0267  -26.0060   22.8970 H   0  0  0  0  0  0
  -19.7931  -30.7314   24.2218 H   0  0  0  0  0  0
  -17.5001  -31.6276   24.5166 H   0  0  0  0  0  0
  -15.5352  -30.2964   23.7692 H   0  0  0  0  0  0
  -15.8678  -28.0810   22.7098 H   0  0  0  0  0  0
  -24.5946  -30.7022   25.7729 H   0  0  0  0  0  0
  -24.8906  -32.2852   26.4821 H   0  0  0  0  0  0
  -25.8060  -30.8887   27.0212 H   0  0  0  0  0  0
  -26.3043  -29.6684   24.1283 H   0  0  0  0  0  0
  -27.4131  -29.7297   25.4791 H   0  0  0  0  0  0
  -27.8904  -30.4279   23.9511 H   0  0  0  0  0  0
  -27.2625  -33.3605   26.2108 H   0  0  0  0  0  0
  -28.3857  -32.6944   25.0352 H   0  0  0  0  0  0
  -28.0742  -31.8471   26.5436 H   0  0  0  0  0  0
  -28.2522  -38.0153   24.7615 H   0  0  0  0  0  0
  -28.1180  -36.2687   24.6104 H   0  0  0  0  0  0
  -27.2333  -37.1206   25.8852 H   0  0  0  0  0  0
  -20.9446  -29.8755   21.6841 H   0  0  0  0  0  0
  -26.0144  -38.2817   24.1508 H   0  0  0  0  0  0
  -32.0491  -20.0509   20.3529 H   0  0  0  0  0  0
  -32.3021  -17.3635   20.5940 H   0  0  0  0  0  0
  -28.3384  -23.1035   18.2142 H   0  0  0  0  0  0
  -29.9338  -23.8080   18.2025 H   0  0  0  0  0  0
  -30.9708  -21.7285   18.8192 H   0  0  0  0  0  0
  -29.6116  -21.1242   17.8769 H   0  0  0  0  0  0
  -31.1790  -23.2508   20.7356 H   0  0  0  0  0  0
  -30.3198  -24.3290   21.8299 H   0  0  0  0  0  0
  -30.7903  -24.8873   20.2349 H   0  0  0  0  0  0
  -26.5592  -22.5473   21.1262 H   0  0  0  0  0  0
  -26.8624  -20.8282   20.9614 H   0  0  0  0  0  0
  -26.8700  -21.8549   19.5452 H   0  0  0  0  0  0
  -28.5561  -22.7350   22.8522 H   0  0  0  0  0  0
  -30.0528  -21.8904   22.4828 H   0  0  0  0  0  0
  -28.5634  -20.9878   22.7007 H   0  0  0  0  0  0
  -27.6588  -24.7664   21.4153 H   0  0  0  0  0  0
  -27.1459  -24.5181   19.7943 H   0  0  0  0  0  0
  -28.8279  -15.7586   20.7167 H   0  0  0  0  0  0
  1 25  1  0  0  0
  1 30  2  0  0  0
  1 84  1  0  0  0
  2  3  1  0  0  0
  2 25  1  0  0  0
  2 86  1  0  0  0
  2 87  1  0  0  0
  3  4  1  0  0  0
  3 88  1  0  0  0
  3 89  1  0  0  0
  4  5  1  0  0  0
  4 90  1  0  0  0
  4 91  1  0  0  0
  5  6  1  0  0  0
  5 26  1  0  0  0
  5 92  1  0  0  0
  6 25  1  0  0  0
  6 93  1  0  0  0
  6 94  1  0  0  0
  7  8  2  0  0  0
  7 26  1  0  0  0
  7 29  1  0  0  0
  8  9  1  0  0  0
  8 22  1  0  0  0
  9 10  1  0  0  0
  9 27  2  0  0  0
 10 11  2  0  0  0
 10 15  1  0  0  0
 11 12  1  0  0  0
 11 95  1  0  0  0
 12 13  2  0  0  0
 12 96  1  0  0  0
 13 14  1  0  0  0
 13 31  1  0  0  0
 14 15  2  0  0  0
 14 97  1  0  0  0
 15 98  1  0  0  0
 16 17  2  0  0  0
 16 21  1  0  0  0
 16 31  1  0  0  0
 17 18  1  0  0  0
 17 99  1  0  0  0
 18 19  2  0  0  0
 18100  1  0  0  0
 19 20  1  0  0  0
 19 24  1  0  0  0
 20 21  2  0  0  0
 20101  1  0  0  0
 21 23  1  0  0  0
 22 28  1  0  0  0
 22 32  2  0  0  0
 26 27  1  0  0  0
 28102  1  0  0  0
 28103  1  0  0  0
 29104  1  0  0  0
 29105  1  0  0  0
 33 34  1  0  0  0
 33 66  1  0  0  0
 33 70  2  0  0  0
 34 36  1  0  0  0
 34 59  1  0  0  0
 34106  1  0  0  0
 35 44  2  0  0  0
 35 45  1  0  0  0
 35 68  1  0  0  0
 36 56  1  0  0  0
 36107  1  0  0  0
 37 39  1  0  0  0
 37 47  1  0  0  0
 37 66  1  0  0  0
 37108  1  0  0  0
 38 43  2  0  0  0
 38 46  1  0  0  0
 38 47  1  0  0  0
 39 64  1  0  0  0
 39 67  2  0  0  0
 40 52  1  0  0  0
 40 53  2  0  0  0
 40 58  1  0  0  0
 41109  1  0  0  0
 41110  1  0  0  0
 41111  1  0  0  0
 41 48  1  0  0  0
 42 43  1  0  0  0
 42 66  1  0  0  0
 42112  1  0  0  0
 42113  1  0  0  0
 43 44  1  0  0  0
 44114  1  0  0  0
 45 46  2  0  0  0
 45115  1  0  0  0
 46116  1  0  0  0
 47117  1  0  0  0
 47118  1  0  0  0
 48 56  1  0  0  0
 48 65  1  0  0  0
 48119  1  0  0  0
 49 50  1  0  0  0
 49 53  1  0  0  0
 49 64  1  0  0  0
 49120  1  0  0  0
 50 51  1  0  0  0
 50121  1  0  0  0
 50122  1  0  0  0
 51 52  1  0  0  0
 51123  1  0  0  0
 51124  1  0  0  0
 52125  1  0  0  0
 52126  1  0  0  0
 53 54  1  0  0  0
 54 55  2  0  0  0
 54127  1  0  0  0
 55 57  1  0  0  0
 55128  1  0  0  0
 56 69  2  0  0  0
 57 58  2  0  0  0
 57129  1  0  0  0
 58130  1  0  0  0
 59 60  1  0  0  0
 59 61  1  0  0  0
 59 62  1  0  0  0
 60131  1  0  0  0
 60132  1  0  0  0
 60133  1  0  0  0
 61134  1  0  0  0
 61135  1  0  0  0
 61136  1  0  0  0
 62137  1  0  0  0
 62138  1  0  0  0
 62139  1  0  0  0
 63 65  1  0  0  0
 63140  1  0  0  0
 63141  1  0  0  0
 63142  1  0  0  0
 64143  1  0  0  0
 65144  1  0  0  0
 68 82  1  0  0  0
 71 72  1  0  0  0
 71 73  2  0  0  0
 71145  1  0  0  0
 72 74  2  0  0  0
 72146  1  0  0  0
 73 83  1  0  0  0
 73 85  1  0  0  0
 74 84  1  0  0  0
 74 85  1  0  0  0
 75 76  1  0  0  0
 75 77  1  0  0  0
 75147  1  0  0  0
 75148  1  0  0  0
 76 83  1  0  0  0
 76149  1  0  0  0
 76150  1  0  0  0
 77 78  1  0  0  0
 77 79  1  0  0  0
 77 82  1  0  0  0
 78 80  1  0  0  0
 78 81  1  0  0  0
 78 83  1  0  0  0
 79151  1  0  0  0
 79152  1  0  0  0
 79153  1  0  0  0
 80154  1  0  0  0
 80155  1  0  0  0
 80156  1  0  0  0
 81157  1  0  0  0
 81158  1  0  0  0
 81159  1  0  0  0
 82160  1  0  0  0
 82161  1  0  0  0
 84162  1  0  0  0
M  ISO  4   1 100  68 101  82 101  84 100
M  END
> <chiral flag>
0

> <version>
0

> <s_m_source_file>
/data/baiqing/PycharmProjects/Reinvent-master-3.2/result/LINK_invent/BTK/process_docking_weight1_custom_product_contain_oxygen_bond_distance_aromatic_linkinvent_7_9_3/rearranged_h_0150.sdf

> <i_m_source_file_index>
62

> <r_mmod_Potential_Energy-OPLS-2005>
361.945953369141

> <r_mmod_Stretch_Energy-OPLS-2005>
160.738876342773

> <r_mmod_Bend_Energy-OPLS-2005>
242.756225585938

> <r_mmod_Torsional_Energy-OPLS-2005>
351.345458984375

> <r_mmod_Improper_Torsional_Energy-OPLS-2005>
7.84371709823608

> <r_mmod_Van_der_Waal_Energy-OPLS-2005>
120.245330810547

> <r_mmod_Electrostatic_Energy-OPLS-2005>
-427.728302001953

> <r_mmod_Solvation_Energy-OPLS-2005>
-204.918182373047

> <b_mmod_Minimization_Converged-OPLS-2005>
0

> <r_mmod_RMS_Derivative-OPLS-2005>
4.23038864135742

$$$$
62
                    3D
 Structure written by MMmdl.
156164  0  0  1  0            999 V2000
  -30.6386  -14.7315   20.4253 C   0  0  0  0  0  0
  -30.4170  -12.4387   19.4684 C   0  0  0  0  0  0
  -29.4947  -12.4914   18.2300 C   0  0  0  0  0  0
  -28.0219  -12.3265   18.6485 C   0  0  0  0  0  0
  -27.6351  -13.2342   19.8465 C   0  0  2  0  0  0
  -28.6849  -13.1835   20.9790 C   0  0  0  0  0  0
  -25.2487  -13.8216   20.5720 C   0  0  0  0  0  0
  -24.1783  -13.0460   20.9230 C   0  0  0  0  0  0
  -24.6364  -11.6927   20.8741 C   0  0  0  0  0  0
  -23.9037  -10.4298   21.0398 C   0  0  0  0  0  0
  -24.3595   -9.4215   21.9164 C   0  0  0  0  0  0
  -23.6286   -8.2241   22.0734 C   0  0  0  0  0  0
  -22.4264   -8.0268   21.3526 C   0  0  0  0  0  0
  -21.9899   -9.0237   20.4621 C   0  0  0  0  0  0
  -22.7214  -10.2129   20.3036 C   0  0  0  0  0  0
  -21.6855   -6.0711   22.5261 C   0  0  0  0  0  0
  -21.4016   -6.5619   23.8191 C   0  0  0  0  0  0
  -21.3666   -5.6775   24.9161 C   0  0  0  0  0  0
  -21.6054   -4.3038   24.7213 C   0  0  0  0  0  0
  -21.8821   -3.8127   23.4336 C   0  0  0  0  0  0
  -21.9194   -4.6936   22.3389 C   0  0  0  0  0  0
  -22.7801  -13.5221   21.1893 C   0  0  0  0  0  0
  -22.1662   -4.2123   21.0964 F   0  0  0  0  0  0
  -21.5638   -3.4519   25.7734 F   0  0  0  0  0  0
  -29.9839  -13.5202   20.3848 N   0  0  0  0  0  0
  -26.2899  -12.9426   20.3289 N   0  0  0  0  0  0
  -25.9298  -11.6558   20.5775 N   0  0  0  0  0  0
  -22.0454  -12.8184   22.0437 N   0  0  0  0  0  0
  -25.4221  -15.1937   20.4141 N   0  0  0  0  0  0
  -31.8416  -14.7548   20.1522 O   0  0  0  0  0  0
  -21.6639   -6.8856   21.4226 O   0  0  0  0  0  0
  -22.3465  -14.5513   20.6737 O   0  0  0  0  0  0
  -24.6294  -31.8545   23.1957 C   0  0  0  0  0  0
  -25.9131  -32.4745   23.8310 C   0  0  1  0  0  0
  -27.2133  -27.2664   20.1241 C   0  0  0  0  0  0
  -25.5955  -33.8539   24.2248 N   0  0  0  0  0  0
  -23.4268  -30.4715   21.5414 C   0  0  2  0  0  0
  -24.8686  -28.9129   20.1140 C   0  0  0  0  0  0
  -22.7499  -29.4565   22.4947 C   0  0  0  0  0  0
  -18.0290  -28.1332   22.8492 C   0  0  0  0  0  0
  -24.1494  -36.7254   23.2634 C   0  0  0  0  0  0
  -25.9701  -30.7686   21.3727 C   0  0  0  0  0  0
  -26.0419  -29.3902   20.7155 C   0  0  0  0  0  0
  -27.2193  -28.5795   20.7032 C   0  0  0  0  0  0
  -26.0217  -26.8444   19.5039 C   0  0  0  0  0  0
  -24.8633  -27.6479   19.4983 C   0  0  0  0  0  0
  -23.6419  -29.8020   20.1586 C   0  0  0  0  0  0
  -25.4123  -36.3045   24.0325 C   0  0  1  0  0  0
  -20.5891  -28.3643   23.1283 C   0  0  2  0  0  0
  -20.6773  -26.9368   22.5412 C   0  0  0  0  0  0
  -19.5759  -26.6347   21.5202 C   0  0  0  0  0  0
  -18.1932  -26.7885   22.1608 C   0  0  0  0  0  0
  -19.1537  -28.8808   23.2876 C   0  0  0  0  0  0
  -18.9472  -30.1404   23.8903 C   0  0  0  0  0  0
  -17.6478  -30.6557   24.0536 C   0  0  0  0  0  0
  -25.9071  -34.9422   23.5079 C   0  0  0  0  0  0
  -16.5367  -29.9048   23.6306 C   0  0  0  0  0  0
  -16.7278  -28.6447   23.0375 C   0  0  0  0  0  0
  -26.4503  -31.6580   25.0709 C   0  0  0  0  0  0
  -25.3718  -31.3731   26.1428 C   0  0  0  0  0  0
  -27.0364  -30.3006   24.6153 C   0  0  0  0  0  0
  -27.6064  -32.4311   25.7482 C   0  0  0  0  0  0
  -27.5602  -37.1748   24.8448 C   0  0  0  0  0  0
  -21.4209  -29.3018   22.3717 N   0  0  0  0  0  0
  -26.4275  -37.3755   23.9437 N   0  0  0  0  0  0
  -24.6948  -31.0507   22.0930 N   0  0  0  0  0  0
  -23.4209  -28.8124   23.3046 O   0  0  0  0  0  0
  -28.3294  -26.4099   20.1090 O   0  0  0  0  0  0
  -26.5637  -34.8927   22.4647 O   0  0  0  0  0  0
  -23.5454  -32.1400   23.7239 O   0  0  0  0  0  0
  -31.6078  -17.7377   20.2163 C   0  0  0  0  0  0
  -29.3204  -18.4615   20.2994 C   0  0  0  0  0  0
  -31.9509  -19.0832   20.0232 C   0  0  0  0  0  0
  -30.2584  -17.3447   20.3555 C   0  0  0  0  0  0
  -29.7312  -19.8545   20.1155 C   0  0  0  0  0  0
  -29.0375  -22.3293   20.3876 C   0  0  0  0  0  0
  -27.4260  -25.0167   21.9782 C   0  0  0  0  0  0
  -27.5427  -20.7496   19.2442 C   0  0  0  0  0  0
  -28.2145  -23.6322   19.8905 C   0  0  0  0  0  0
  -28.3189  -25.0328   20.7205 C   0  0  1  0  0  0
  -31.0563  -20.0898   19.9681 N   0  0  0  0  0  0
  -29.8918  -15.9051   20.5425 N   0  0  0  0  0  0
  -28.7903  -21.0089   19.9709 N   0  0  0  0  0  0
  -29.9285  -22.5514   21.2129 O   0  0  0  0  0  0
  -31.4588  -12.5373   19.1604 H   0  0  0  0  0  0
  -30.3447  -11.4680   19.9615 H   0  0  0  0  0  0
  -29.7683  -11.7118   17.5183 H   0  0  0  0  0  0
  -29.6249  -13.4418   17.7115 H   0  0  0  0  0  0
  -27.8715  -11.2801   18.9131 H   0  0  0  0  0  0
  -27.3623  -12.5221   17.8018 H   0  0  0  0  0  0
  -27.6242  -14.2516   19.4569 H   0  0  0  0  0  0
  -28.7154  -12.1922   21.4350 H   0  0  0  0  0  0
  -28.4283  -13.8796   21.7781 H   0  0  0  0  0  0
  -25.2736   -9.5698   22.4739 H   0  0  0  0  0  0
  -23.9988   -7.4633   22.7454 H   0  0  0  0  0  0
  -21.0828   -8.8745   19.8919 H   0  0  0  0  0  0
  -22.3654  -10.9663   19.6140 H   0  0  0  0  0  0
  -21.2001   -7.6126   23.9688 H   0  0  0  0  0  0
  -21.1497   -6.0503   25.9062 H   0  0  0  0  0  0
  -22.0596   -2.7586   23.2839 H   0  0  0  0  0  0
  -22.4120  -11.9863   22.4829 H   0  0  0  0  0  0
  -21.1054  -13.1154   22.2634 H   0  0  0  0  0  0
  -24.6617  -15.8544   20.5263 H   0  0  0  0  0  0
  -26.2692  -15.6249   20.0698 H   0  0  0  0  0  0
  -26.7202  -32.5394   23.1070 H   0  0  0  0  0  0
  -25.0168  -33.9673   25.0432 H   0  0  0  0  0  0
  -22.7230  -31.2914   21.3943 H   0  0  0  0  0  0
  -23.3798  -35.9539   23.3217 H   0  0  0  0  0  0
  -24.3634  -36.8962   22.2066 H   0  0  0  0  0  0
  -23.7172  -37.6395   23.6732 H   0  0  0  0  0  0
  -26.1092  -31.5344   20.6062 H   0  0  0  0  0  0
  -26.8434  -30.8141   22.0114 H   0  0  0  0  0  0
  -28.1289  -28.9407   21.1656 H   0  0  0  0  0  0
  -25.9861  -25.8775   19.0222 H   0  0  0  0  0  0
  -23.9650  -27.2817   19.0175 H   0  0  0  0  0  0
  -23.7607  -30.5774   19.4005 H   0  0  0  0  0  0
  -22.7589  -29.2344   19.8579 H   0  0  0  0  0  0
  -25.1267  -36.1893   25.0812 H   0  0  0  0  0  0
  -20.9960  -28.3219   24.1412 H   0  0  0  0  0  0
  -20.5672  -26.2262   23.3620 H   0  0  0  0  0  0
  -21.6646  -26.7397   22.1221 H   0  0  0  0  0  0
  -19.6938  -25.6253   21.1245 H   0  0  0  0  0  0
  -19.6692  -27.3148   20.6730 H   0  0  0  0  0  0
  -17.4208  -26.6639   21.4001 H   0  0  0  0  0  0
  -18.0307  -26.0003   22.8981 H   0  0  0  0  0  0
  -19.7959  -30.7167   24.2328 H   0  0  0  0  0  0
  -17.5052  -31.6261   24.5093 H   0  0  0  0  0  0
  -15.5369  -30.2960   23.7617 H   0  0  0  0  0  0
  -15.8685  -28.0747   22.7124 H   0  0  0  0  0  0
  -24.5926  -30.7032   25.7785 H   0  0  0  0  0  0
  -24.8866  -32.2892   26.4790 H   0  0  0  0  0  0
  -25.8017  -30.8988   27.0258 H   0  0  0  0  0  0
  -26.2938  -29.6739   24.1201 H   0  0  0  0  0  0
  -27.4121  -29.7262   25.4632 H   0  0  0  0  0  0
  -27.8788  -30.4313   23.9356 H   0  0  0  0  0  0
  -27.2700  -33.3662   26.1970 H   0  0  0  0  0  0
  -28.3929  -32.6760   25.0337 H   0  0  0  0  0  0
  -28.0679  -31.8482   26.5469 H   0  0  0  0  0  0
  -28.2486  -38.0168   24.7665 H   0  0  0  0  0  0
  -28.1209  -36.2697   24.6043 H   0  0  0  0  0  0
  -27.2358  -37.1122   25.8850 H   0  0  0  0  0  0
  -20.9399  -29.8785   21.6958 H   0  0  0  0  0  0
  -26.0151  -38.2805   24.1549 H   0  0  0  0  0  0
  -32.4244  -17.0326   20.2480 H   0  0  0  0  0  0
  -28.2653  -18.2507   20.3996 H   0  0  0  0  0  0
  -32.9877  -19.3631   19.9001 H   0  0  0  0  0  0
  -27.5746  -24.1064   22.5602 H   0  0  0  0  0  0
  -26.3681  -25.0712   21.7193 H   0  0  0  0  0  0
  -27.6498  -25.8599   22.6334 H   0  0  0  0  0  0
  -27.4163  -21.4390   18.4073 H   0  0  0  0  0  0
  -26.6886  -20.8542   19.9152 H   0  0  0  0  0  0
  -27.5044  -19.7460   18.8179 H   0  0  0  0  0  0
  -27.1602  -23.3622   19.8109 H   0  0  0  0  0  0
  -28.5397  -23.8299   18.8690 H   0  0  0  0  0  0
  -29.3352  -25.0136   21.1116 H   0  0  0  0  0  0
  -28.9129  -15.7362   20.7099 H   0  0  0  0  0  0
  1 25  1  0  0  0
  1 30  2  0  0  0
  1 82  1  0  0  0
  2  3  1  0  0  0
  2 25  1  0  0  0
  2 85  1  0  0  0
  2 86  1  0  0  0
  3  4  1  0  0  0
  3 87  1  0  0  0
  3 88  1  0  0  0
  4  5  1  0  0  0
  4 89  1  0  0  0
  4 90  1  0  0  0
  5  6  1  0  0  0
  5 26  1  0  0  0
  5 91  1  0  0  0
  6 25  1  0  0  0
  6 92  1  0  0  0
  6 93  1  0  0  0
  7  8  2  0  0  0
  7 26  1  0  0  0
  7 29  1  0  0  0
  8  9  1  0  0  0
  8 22  1  0  0  0
  9 10  1  0  0  0
  9 27  2  0  0  0
 10 11  2  0  0  0
 10 15  1  0  0  0
 11 12  1  0  0  0
 11 94  1  0  0  0
 12 13  2  0  0  0
 12 95  1  0  0  0
 13 14  1  0  0  0
 13 31  1  0  0  0
 14 15  2  0  0  0
 14 96  1  0  0  0
 15 97  1  0  0  0
 16 17  2  0  0  0
 16 21  1  0  0  0
 16 31  1  0  0  0
 17 18  1  0  0  0
 17 98  1  0  0  0
 18 19  2  0  0  0
 18 99  1  0  0  0
 19 20  1  0  0  0
 19 24  1  0  0  0
 20 21  2  0  0  0
 20100  1  0  0  0
 21 23  1  0  0  0
 22 28  1  0  0  0
 22 32  2  0  0  0
 26 27  1  0  0  0
 28101  1  0  0  0
 28102  1  0  0  0
 29103  1  0  0  0
 29104  1  0  0  0
 33 34  1  0  0  0
 33 66  1  0  0  0
 33 70  2  0  0  0
 34 36  1  0  0  0
 34 59  1  0  0  0
 34105  1  0  0  0
 35 44  2  0  0  0
 35 45  1  0  0  0
 35 68  1  0  0  0
 36 56  1  0  0  0
 36106  1  0  0  0
 37 39  1  0  0  0
 37 47  1  0  0  0
 37 66  1  0  0  0
 37107  1  0  0  0
 38 43  2  0  0  0
 38 46  1  0  0  0
 38 47  1  0  0  0
 39 64  1  0  0  0
 39 67  2  0  0  0
 40 52  1  0  0  0
 40 53  2  0  0  0
 40 58  1  0  0  0
 41108  1  0  0  0
 41109  1  0  0  0
 41110  1  0  0  0
 41 48  1  0  0  0
 42 43  1  0  0  0
 42 66  1  0  0  0
 42111  1  0  0  0
 42112  1  0  0  0
 43 44  1  0  0  0
 44113  1  0  0  0
 45 46  2  0  0  0
 45114  1  0  0  0
 46115  1  0  0  0
 47116  1  0  0  0
 47117  1  0  0  0
 48 56  1  0  0  0
 48 65  1  0  0  0
 48118  1  0  0  0
 49 50  1  0  0  0
 49 53  1  0  0  0
 49 64  1  0  0  0
 49119  1  0  0  0
 50 51  1  0  0  0
 50120  1  0  0  0
 50121  1  0  0  0
 51 52  1  0  0  0
 51122  1  0  0  0
 51123  1  0  0  0
 52124  1  0  0  0
 52125  1  0  0  0
 53 54  1  0  0  0
 54 55  2  0  0  0
 54126  1  0  0  0
 55 57  1  0  0  0
 55127  1  0  0  0
 56 69  2  0  0  0
 57 58  2  0  0  0
 57128  1  0  0  0
 58129  1  0  0  0
 59 60  1  0  0  0
 59 61  1  0  0  0
 59 62  1  0  0  0
 60130  1  0  0  0
 60131  1  0  0  0
 60132  1  0  0  0
 61133  1  0  0  0
 61134  1  0  0  0
 61135  1  0  0  0
 62136  1  0  0  0
 62137  1  0  0  0
 62138  1  0  0  0
 63 65  1  0  0  0
 63139  1  0  0  0
 63140  1  0  0  0
 63141  1  0  0  0
 64142  1  0  0  0
 65143  1  0  0  0
 68 80  1  0  0  0
 71 73  2  0  0  0
 71 74  1  0  0  0
 71144  1  0  0  0
 72 74  2  0  0  0
 72 75  1  0  0  0
 72145  1  0  0  0
 73 81  1  0  0  0
 73146  1  0  0  0
 74 82  1  0  0  0
 75 81  2  0  0  0
 75 83  1  0  0  0
 76 79  1  0  0  0
 76 83  1  0  0  0
 76 84  2  0  0  0
 77147  1  0  0  0
 77148  1  0  0  0
 77149  1  0  0  0
 77 80  1  0  0  0
 78 83  1  0  0  0
 78150  1  0  0  0
 78151  1  0  0  0
 78152  1  0  0  0
 79 80  1  0  0  0
 79153  1  0  0  0
 79154  1  0  0  0
 80155  1  0  0  0
 82156  1  0  0  0
M  ISO  4   1 100  68 101  80 101  82 100
M  END
> <chiral flag>
0

> <version>
0

> <s_m_source_file>
/data/baiqing/PycharmProjects/Reinvent-master-3.2/result/LINK_invent/BTK/process_docking_weight1_custom_product_contain_oxygen_bond_distance_aromatic_linkinvent_7_9_3/rearranged_h_0150.sdf

> <i_m_source_file_index>
63

> <r_mmod_Potential_Energy-OPLS-2005>
132.185928344727

> <r_mmod_Stretch_Energy-OPLS-2005>
138.467895507812

> <r_mmod_Bend_Energy-OPLS-2005>
183.56755065918

> <r_mmod_Torsional_Energy-OPLS-2005>
259.537902832031

> <r_mmod_Improper_Torsional_Energy-OPLS-2005>
5.50798273086548

> <r_mmod_Van_der_Waal_Energy-OPLS-2005>
149.601409912109

> <r_mmod_Electrostatic_Energy-OPLS-2005>
-441.257629394531

> <r_mmod_Solvation_Energy-OPLS-2005>
-242.175354003906

> <b_mmod_Minimization_Converged-OPLS-2005>
0

> <r_mmod_RMS_Derivative-OPLS-2005>
3.29194450378418

$$$$
63
                    3D
 Structure written by MMmdl.
153161  0  0  1  0            999 V2000
  -30.6139  -14.7626   20.4609 C   0  0  0  0  0  0
  -30.4340  -12.4712   19.4662 C   0  0  0  0  0  0
  -29.5082  -12.5033   18.2306 C   0  0  0  0  0  0
  -28.0372  -12.3201   18.6508 C   0  0  0  0  0  0
  -27.6376  -13.2306   19.8421 C   0  0  2  0  0  0
  -28.6844  -13.1860   20.9759 C   0  0  0  0  0  0
  -25.2503  -13.8191   20.5699 C   0  0  0  0  0  0
  -24.1795  -13.0440   20.9223 C   0  0  0  0  0  0
  -24.6384  -11.6917   20.8757 C   0  0  0  0  0  0
  -23.9061  -10.4297   21.0414 C   0  0  0  0  0  0
  -24.3609   -9.4209   21.9184 C   0  0  0  0  0  0
  -23.6287   -8.2244   22.0752 C   0  0  0  0  0  0
  -22.4267   -8.0284   21.3548 C   0  0  0  0  0  0
  -21.9905   -9.0256   20.4649 C   0  0  0  0  0  0
  -22.7236  -10.2134   20.3062 C   0  0  0  0  0  0
  -21.6856   -6.0735   22.5277 C   0  0  0  0  0  0
  -21.4014   -6.5635   23.8210 C   0  0  0  0  0  0
  -21.3657   -5.6787   24.9170 C   0  0  0  0  0  0
  -21.6043   -4.3052   24.7222 C   0  0  0  0  0  0
  -21.8818   -3.8145   23.4345 C   0  0  0  0  0  0
  -21.9192   -4.6964   22.3402 C   0  0  0  0  0  0
  -22.7816  -13.5228   21.1872 C   0  0  0  0  0  0
  -22.1663   -4.2149   21.0982 F   0  0  0  0  0  0
  -21.5627   -3.4536   25.7736 F   0  0  0  0  0  0
  -29.9793  -13.5411   20.3836 N   0  0  0  0  0  0
  -26.2914  -12.9393   20.3247 N   0  0  0  0  0  0
  -25.9309  -11.6541   20.5728 N   0  0  0  0  0  0
  -22.0449  -12.8224   22.0422 N   0  0  0  0  0  0
  -25.4193  -15.1917   20.4119 N   0  0  0  0  0  0
  -31.8164  -14.8341   20.1887 O   0  0  0  0  0  0
  -21.6638   -6.8877   21.4239 O   0  0  0  0  0  0
  -22.3509  -14.5537   20.6718 O   0  0  0  0  0  0
  -24.6321  -31.8545   23.1964 C   0  0  0  0  0  0
  -25.9139  -32.4754   23.8318 C   0  0  1  0  0  0
  -27.2203  -27.2567   20.1390 C   0  0  0  0  0  0
  -25.5929  -33.8556   24.2242 N   0  0  0  0  0  0
  -23.4297  -30.4756   21.5400 C   0  0  2  0  0  0
  -24.8781  -28.9177   20.1135 C   0  0  0  0  0  0
  -22.7511  -29.4598   22.4907 C   0  0  0  0  0  0
  -18.0300  -28.1389   22.8485 C   0  0  0  0  0  0
  -24.1490  -36.7288   23.2637 C   0  0  0  0  0  0
  -25.9753  -30.7674   21.3753 C   0  0  0  0  0  0
  -26.0503  -29.3875   20.7209 C   0  0  0  0  0  0
  -27.2282  -28.5716   20.7170 C   0  0  0  0  0  0
  -26.0279  -26.8517   19.5050 C   0  0  0  0  0  0
  -24.8720  -27.6579   19.4934 C   0  0  0  0  0  0
  -23.6494  -29.8067   20.1574 C   0  0  0  0  0  0
  -25.4113  -36.3069   24.0324 C   0  0  1  0  0  0
  -20.5904  -28.3699   23.1271 C   0  0  2  0  0  0
  -20.6787  -26.9416   22.5411 C   0  0  0  0  0  0
  -19.5760  -26.6385   21.5215 C   0  0  0  0  0  0
  -18.1941  -26.7932   22.1625 C   0  0  0  0  0  0
  -19.1553  -28.8862   23.2874 C   0  0  0  0  0  0
  -18.9470  -30.1462   23.8892 C   0  0  0  0  0  0
  -17.6467  -30.6585   24.0565 C   0  0  0  0  0  0
  -25.9058  -34.9442   23.5087 C   0  0  0  0  0  0
  -16.5361  -29.9080   23.6330 C   0  0  0  0  0  0
  -16.7285  -28.6502   23.0348 C   0  0  0  0  0  0
  -26.4502  -31.6584   25.0712 C   0  0  0  0  0  0
  -25.3716  -31.3740   26.1426 C   0  0  0  0  0  0
  -27.0352  -30.3002   24.6202 C   0  0  0  0  0  0
  -27.6049  -32.4329   25.7490 C   0  0  0  0  0  0
  -27.5587  -37.1786   24.8453 C   0  0  0  0  0  0
  -21.4218  -29.3043   22.3655 N   0  0  0  0  0  0
  -26.4285  -37.3772   23.9418 N   0  0  0  0  0  0
  -24.6982  -31.0507   22.0938 N   0  0  0  0  0  0
  -23.4207  -28.8146   23.3015 O   0  0  0  0  0  0
  -28.3048  -26.3513   20.1519 O   0  0  0  0  0  0
  -26.5639  -34.8920   22.4662 O   0  0  0  0  0  0
  -23.5468  -32.1368   23.7258 O   0  0  0  0  0  0
  -31.4133  -17.6448   21.4861 C   0  0  0  0  0  0
  -30.9704  -20.0459   21.3627 C   0  0  0  0  0  0
  -31.7899  -18.9743   21.7698 C   0  0  0  0  0  0
  -30.2191  -17.3476   20.7881 C   0  0  0  0  0  0
  -29.7687  -19.8172   20.6574 C   0  0  0  0  0  0
  -28.7053  -23.6738   20.0527 C   0  0  0  0  0  0
  -28.8749  -22.3057   20.8807 C   0  0  0  0  0  0
  -28.0666  -24.9819   20.7396 C   0  0  0  0  0  0
  -29.4546  -18.4676   20.4108 N   0  3  0  0  0  0
  -32.9772  -19.2288   22.4654 N   0  0  0  0  0  0
  -29.8370  -15.9182   20.5752 N   0  0  0  0  0  0
  -28.9738  -20.9459   20.1977 N   0  0  0  0  0  0
  -29.0669  -23.7155   18.8716 O   0  0  0  0  0  0
  -31.4725  -12.6028   19.1575 H   0  0  0  0  0  0
  -30.3877  -11.4997   19.9609 H   0  0  0  0  0  0
  -29.7942  -11.7257   17.5215 H   0  0  0  0  0  0
  -29.6254  -13.4533   17.7058 H   0  0  0  0  0  0
  -27.9042  -11.2736   18.9281 H   0  0  0  0  0  0
  -27.3766  -12.4951   17.8009 H   0  0  0  0  0  0
  -27.6241  -14.2458   19.4456 H   0  0  0  0  0  0
  -28.7272  -12.1948   21.4296 H   0  0  0  0  0  0
  -28.4170  -13.8797   21.7751 H   0  0  0  0  0  0
  -25.2750   -9.5683   22.4764 H   0  0  0  0  0  0
  -23.9997   -7.4632   22.7469 H   0  0  0  0  0  0
  -21.0836   -8.8776   19.8955 H   0  0  0  0  0  0
  -22.3692  -10.9671   19.6175 H   0  0  0  0  0  0
  -21.2006   -7.6142   23.9711 H   0  0  0  0  0  0
  -21.1479   -6.0519   25.9072 H   0  0  0  0  0  0
  -22.0599   -2.7608   23.2847 H   0  0  0  0  0  0
  -22.4056  -11.9888   22.4825 H   0  0  0  0  0  0
  -21.1061  -13.1248   22.2610 H   0  0  0  0  0  0
  -24.6500  -15.8423   20.5290 H   0  0  0  0  0  0
  -26.2520  -15.6295   20.0415 H   0  0  0  0  0  0
  -26.7208  -32.5405   23.1064 H   0  0  0  0  0  0
  -25.0057  -33.9687   25.0375 H   0  0  0  0  0  0
  -22.7263  -31.2977   21.3922 H   0  0  0  0  0  0
  -23.3756  -35.9615   23.3276 H   0  0  0  0  0  0
  -24.3590  -36.8937   22.2058 H   0  0  0  0  0  0
  -23.7238  -37.6478   23.6681 H   0  0  0  0  0  0
  -26.1121  -31.5263   20.6036 H   0  0  0  0  0  0
  -26.8536  -30.8203   22.0070 H   0  0  0  0  0  0
  -28.1284  -28.9286   21.1973 H   0  0  0  0  0  0
  -25.9810  -25.8844   19.0243 H   0  0  0  0  0  0
  -23.9754  -27.2941   19.0108 H   0  0  0  0  0  0
  -23.7774  -30.5820   19.4010 H   0  0  0  0  0  0
  -22.7668  -29.2423   19.8511 H   0  0  0  0  0  0
  -25.1292  -36.1909   25.0815 H   0  0  0  0  0  0
  -21.0000  -28.3280   24.1390 H   0  0  0  0  0  0
  -20.5694  -26.2307   23.3614 H   0  0  0  0  0  0
  -21.6652  -26.7445   22.1199 H   0  0  0  0  0  0
  -19.6920  -25.6296   21.1244 H   0  0  0  0  0  0
  -19.6693  -27.3197   20.6746 H   0  0  0  0  0  0
  -17.4210  -26.6686   21.4027 H   0  0  0  0  0  0
  -18.0337  -26.0077   22.9023 H   0  0  0  0  0  0
  -19.7941  -30.7287   24.2257 H   0  0  0  0  0  0
  -17.5015  -31.6261   24.5171 H   0  0  0  0  0  0
  -15.5359  -30.2976   23.7655 H   0  0  0  0  0  0
  -15.8688  -28.0819   22.7058 H   0  0  0  0  0  0
  -24.5895  -30.7086   25.7752 H   0  0  0  0  0  0
  -24.8900  -32.2910   26.4827 H   0  0  0  0  0  0
  -25.8022  -30.8932   27.0217 H   0  0  0  0  0  0
  -26.2938  -29.6742   24.1222 H   0  0  0  0  0  0
  -27.4034  -29.7275   25.4724 H   0  0  0  0  0  0
  -27.8812  -30.4280   23.9445 H   0  0  0  0  0  0
  -27.2650  -33.3629   26.2060 H   0  0  0  0  0  0
  -28.3860  -32.6893   25.0321 H   0  0  0  0  0  0
  -28.0716  -31.8461   26.5411 H   0  0  0  0  0  0
  -28.2561  -38.0126   24.7560 H   0  0  0  0  0  0
  -28.1128  -36.2662   24.6195 H   0  0  0  0  0  0
  -27.2320  -37.1330   25.8856 H   0  0  0  0  0  0
  -20.9412  -29.8746   21.6839 H   0  0  0  0  0  0
  -26.0161  -38.2838   24.1446 H   0  0  0  0  0  0
  -32.0512  -16.8423   21.8271 H   0  0  0  0  0  0
  -31.2897  -21.0534   21.5730 H   0  0  0  0  0  0
  -28.0161  -22.2495   21.5495 H   0  0  0  0  0  0
  -29.7309  -22.4507   21.5358 H   0  0  0  0  0  0
  -28.4288  -25.0109   21.7674 H   0  0  0  0  0  0
  -26.9953  -24.7998   20.8199 H   0  0  0  0  0  0
  -28.5854  -18.2898   19.9006 H   0  0  0  0  0  0
  -33.6880  -18.5057   22.4562 H   0  0  0  0  0  0
  -33.3764  -20.1576   22.3880 H   0  0  0  0  0  0
  -28.8473  -15.7333   20.5500 H   0  0  0  0  0  0
  -28.1914  -20.7368   19.5958 H   0  0  0  0  0  0
  1 25  1  0  0  0
  1 30  2  0  0  0
  1 81  1  0  0  0
  2  3  1  0  0  0
  2 25  1  0  0  0
  2 84  1  0  0  0
  2 85  1  0  0  0
  3  4  1  0  0  0
  3 86  1  0  0  0
  3 87  1  0  0  0
  4  5  1  0  0  0
  4 88  1  0  0  0
  4 89  1  0  0  0
  5  6  1  0  0  0
  5 26  1  0  0  0
  5 90  1  0  0  0
  6 25  1  0  0  0
  6 91  1  0  0  0
  6 92  1  0  0  0
  7  8  2  0  0  0
  7 26  1  0  0  0
  7 29  1  0  0  0
  8  9  1  0  0  0
  8 22  1  0  0  0
  9 10  1  0  0  0
  9 27  2  0  0  0
 10 11  2  0  0  0
 10 15  1  0  0  0
 11 12  1  0  0  0
 11 93  1  0  0  0
 12 13  2  0  0  0
 12 94  1  0  0  0
 13 14  1  0  0  0
 13 31  1  0  0  0
 14 15  2  0  0  0
 14 95  1  0  0  0
 15 96  1  0  0  0
 16 17  2  0  0  0
 16 21  1  0  0  0
 16 31  1  0  0  0
 17 18  1  0  0  0
 17 97  1  0  0  0
 18 19  2  0  0  0
 18 98  1  0  0  0
 19 20  1  0  0  0
 19 24  1  0  0  0
 20 21  2  0  0  0
 20 99  1  0  0  0
 21 23  1  0  0  0
 22 28  1  0  0  0
 22 32  2  0  0  0
 26 27  1  0  0  0
 28100  1  0  0  0
 28101  1  0  0  0
 29102  1  0  0  0
 29103  1  0  0  0
 33 34  1  0  0  0
 33 66  1  0  0  0
 33 70  2  0  0  0
 34 36  1  0  0  0
 34 59  1  0  0  0
 34104  1  0  0  0
 35 44  2  0  0  0
 35 45  1  0  0  0
 35 68  1  0  0  0
 36 56  1  0  0  0
 36105  1  0  0  0
 37 39  1  0  0  0
 37 47  1  0  0  0
 37 66  1  0  0  0
 37106  1  0  0  0
 38 43  2  0  0  0
 38 46  1  0  0  0
 38 47  1  0  0  0
 39 64  1  0  0  0
 39 67  2  0  0  0
 40 52  1  0  0  0
 40 53  2  0  0  0
 40 58  1  0  0  0
 41107  1  0  0  0
 41108  1  0  0  0
 41109  1  0  0  0
 41 48  1  0  0  0
 42 43  1  0  0  0
 42 66  1  0  0  0
 42110  1  0  0  0
 42111  1  0  0  0
 43 44  1  0  0  0
 44112  1  0  0  0
 45 46  2  0  0  0
 45113  1  0  0  0
 46114  1  0  0  0
 47115  1  0  0  0
 47116  1  0  0  0
 48 56  1  0  0  0
 48 65  1  0  0  0
 48117  1  0  0  0
 49 50  1  0  0  0
 49 53  1  0  0  0
 49 64  1  0  0  0
 49118  1  0  0  0
 50 51  1  0  0  0
 50119  1  0  0  0
 50120  1  0  0  0
 51 52  1  0  0  0
 51121  1  0  0  0
 51122  1  0  0  0
 52123  1  0  0  0
 52124  1  0  0  0
 53 54  1  0  0  0
 54 55  2  0  0  0
 54125  1  0  0  0
 55 57  1  0  0  0
 55126  1  0  0  0
 56 69  2  0  0  0
 57 58  2  0  0  0
 57127  1  0  0  0
 58128  1  0  0  0
 59 60  1  0  0  0
 59 61  1  0  0  0
 59 62  1  0  0  0
 60129  1  0  0  0
 60130  1  0  0  0
 60131  1  0  0  0
 61132  1  0  0  0
 61133  1  0  0  0
 61134  1  0  0  0
 62135  1  0  0  0
 62136  1  0  0  0
 62137  1  0  0  0
 63 65  1  0  0  0
 63138  1  0  0  0
 63139  1  0  0  0
 63140  1  0  0  0
 64141  1  0  0  0
 65142  1  0  0  0
 68 78  1  0  0  0
 71 73  2  0  0  0
 71 74  1  0  0  0
 71143  1  0  0  0
 72 73  1  0  0  0
 72 75  2  0  0  0
 72144  1  0  0  0
 73 80  1  0  0  0
 74 79  2  0  0  0
 74 81  1  0  0  0
 75 79  1  0  0  0
 75 82  1  0  0  0
 76 77  1  0  0  0
 76 78  1  0  0  0
 76 83  2  0  0  0
 77 82  1  0  0  0
 77145  1  0  0  0
 77146  1  0  0  0
 78147  1  0  0  0
 78148  1  0  0  0
 79149  1  0  0  0
 80150  1  0  0  0
 80151  1  0  0  0
 81152  1  0  0  0
 82153  1  0  0  0
M  CHG  1  79   1
M  ISO  4   1 100  68 101  78 101  81 100
M  END
> <chiral flag>
0

> <version>
0

> <s_m_source_file>
/data/baiqing/PycharmProjects/Reinvent-master-3.2/result/LINK_invent/BTK/process_docking_weight1_custom_product_contain_oxygen_bond_distance_aromatic_linkinvent_7_9_3/rearranged_h_0150.sdf

> <i_m_source_file_index>
64

> <r_mmod_Potential_Energy-OPLS-2005>
66.4286270141602

> <r_mmod_Stretch_Energy-OPLS-2005>
132.015640258789

> <r_mmod_Bend_Energy-OPLS-2005>
169.61799621582

> <r_mmod_Torsional_Energy-OPLS-2005>
236.639633178711

> <r_mmod_Improper_Torsional_Energy-OPLS-2005>
11.3921670913696

> <r_mmod_Van_der_Waal_Energy-OPLS-2005>
136.75048828125

> <r_mmod_Electrostatic_Energy-OPLS-2005>
-248.078796386719

> <r_mmod_Solvation_Energy-OPLS-2005>
-464.223449707031

> <b_mmod_Minimization_Converged-OPLS-2005>
0

> <r_mmod_RMS_Derivative-OPLS-2005>
0.871562659740448

$$$$
64
                    3D
 Structure written by MMmdl.
166175  0  0  1  0            999 V2000
  -30.7037  -14.4842   20.5258 C   0  0  0  0  0  0
  -30.4270  -12.2994   19.4310 C   0  0  0  0  0  0
  -29.4981  -12.4821   18.2114 C   0  0  0  0  0  0
  -28.0191  -12.3440   18.6257 C   0  0  0  0  0  0
  -27.6612  -13.2033   19.8684 C   0  0  2  0  0  0
  -28.7059  -13.0078   20.9925 C   0  0  0  0  0  0
  -25.2600  -13.8163   20.5684 C   0  0  0  0  0  0
  -24.1849  -13.0454   20.9198 C   0  0  0  0  0  0
  -24.6391  -11.6917   20.8746 C   0  0  0  0  0  0
  -23.9053  -10.4309   21.0403 C   0  0  0  0  0  0
  -24.3611   -9.4227   21.9183 C   0  0  0  0  0  0
  -23.6296   -8.2251   22.0744 C   0  0  0  0  0  0
  -22.4275   -8.0284   21.3543 C   0  0  0  0  0  0
  -21.9913   -9.0252   20.4634 C   0  0  0  0  0  0
  -22.7228  -10.2142   20.3047 C   0  0  0  0  0  0
  -21.6856   -6.0740   22.5277 C   0  0  0  0  0  0
  -21.3999   -6.5637   23.8214 C   0  0  0  0  0  0
  -21.3662   -5.6788   24.9178 C   0  0  0  0  0  0
  -21.6048   -4.3049   24.7223 C   0  0  0  0  0  0
  -21.8821   -3.8146   23.4345 C   0  0  0  0  0  0
  -21.9194   -4.6967   22.3402 C   0  0  0  0  0  0
  -22.7871  -13.5254   21.1870 C   0  0  0  0  0  0
  -22.1664   -4.2153   21.0980 F   0  0  0  0  0  0
  -21.5643   -3.4527   25.7736 F   0  0  0  0  0  0
  -30.0396  -13.2991   20.4376 N   0  0  0  0  0  0
  -26.3022  -12.9321   20.3351 N   0  0  0  0  0  0
  -25.9316  -11.6487   20.5772 N   0  0  0  0  0  0
  -22.0495  -12.8223   22.0396 N   0  0  0  0  0  0
  -25.4353  -15.1876   20.4082 N   0  0  0  0  0  0
  -31.8519  -14.6300   20.1023 O   0  0  0  0  0  0
  -21.6641   -6.8882   21.4240 O   0  0  0  0  0  0
  -22.3564  -14.5571   20.6739 O   0  0  0  0  0  0
  -24.6141  -31.8693   23.2106 C   0  0  0  0  0  0
  -25.9038  -32.4832   23.8389 C   0  0  1  0  0  0
  -27.2353  -27.4464   20.1062 C   0  0  0  0  0  0
  -25.5880  -33.8628   24.2324 N   0  0  0  0  0  0
  -23.4009  -30.4954   21.5499 C   0  0  2  0  0  0
  -24.8499  -28.9644   20.1083 C   0  0  0  0  0  0
  -22.7396  -29.4685   22.4985 C   0  0  0  0  0  0
  -18.0281  -28.1394   22.8534 C   0  0  0  0  0  0
  -24.1477  -36.7302   23.2641 C   0  0  0  0  0  0
  -25.9291  -30.8436   21.3573 C   0  0  0  0  0  0
  -26.0103  -29.4789   20.7049 C   0  0  0  0  0  0
  -27.2082  -28.7276   20.7006 C   0  0  0  0  0  0
  -26.0659  -26.9531   19.4866 C   0  0  0  0  0  0
  -24.8736  -27.7015   19.4921 C   0  0  0  0  0  0
  -23.6073  -29.8280   20.1630 C   0  0  0  0  0  0
  -25.4104  -36.3111   24.0342 C   0  0  1  0  0  0
  -20.5877  -28.3665   23.1344 C   0  0  2  0  0  0
  -20.6782  -26.9406   22.5437 C   0  0  0  0  0  0
  -19.5754  -26.6418   21.5238 C   0  0  0  0  0  0
  -18.1924  -26.7962   22.1637 C   0  0  0  0  0  0
  -19.1532  -28.8845   23.2940 C   0  0  0  0  0  0
  -18.9467  -30.1462   23.8922 C   0  0  0  0  0  0
  -17.6467  -30.6605   24.0596 C   0  0  0  0  0  0
  -25.9030  -34.9483   23.5141 C   0  0  0  0  0  0
  -16.5354  -29.9122   23.6348 C   0  0  0  0  0  0
  -16.7266  -28.6545   23.0357 C   0  0  0  0  0  0
  -26.4471  -31.6588   25.0698 C   0  0  0  0  0  0
  -25.3746  -31.3710   26.1441 C   0  0  0  0  0  0
  -27.0279  -30.3036   24.6037 C   0  0  0  0  0  0
  -27.6032  -32.4306   25.7467 C   0  0  0  0  0  0
  -27.5574  -37.1818   24.8474 C   0  0  0  0  0  0
  -21.4125  -29.3046   22.3724 N   0  0  0  0  0  0
  -26.4287  -37.3787   23.9407 N   0  0  0  0  0  0
  -24.6665  -31.0827   22.0988 N   0  0  0  0  0  0
  -23.4186  -28.8227   23.3002 O   0  0  0  0  0  0
  -28.3561  -26.6480   20.1681 O   0  0  0  0  0  0
  -26.5595  -34.8944   22.4700 O   0  0  0  0  0  0
  -23.5348  -32.1424   23.7530 O   0  0  0  0  0  0
  -28.8842  -19.0817   20.5654 C   0  0  0  0  0  0
  -31.1085  -18.8892   19.6174 C   0  0  0  0  0  0
  -28.9229  -17.7183   20.9365 C   0  0  0  0  0  0
  -31.1438  -17.5230   19.9808 C   0  0  0  0  0  0
  -29.9752  -19.6860   19.9011 C   0  0  0  0  0  0
  -30.0414  -16.9084   20.6329 C   0  0  0  0  0  0
  -29.8917  -21.0795   19.4075 C   0  0  0  0  0  0
  -28.8216  -23.3485   22.1103 C   0  0  0  0  0  0
  -29.4927  -22.0544   21.6572 C   0  0  0  0  0  0
  -29.1435  -23.5309   19.7658 C   0  0  1  0  0  0
  -29.2086  -24.3994   21.0549 C   0  0  2  0  0  0
  -29.9074  -24.1497   18.5718 C   0  0  0  0  0  0
  -30.6320  -24.9199   21.3647 C   0  0  0  0  0  0
  -28.1749  -25.5632   21.0968 C   0  0  0  0  0  0
  -29.5814  -22.1568   20.1856 N   0  0  0  0  0  0
  -29.9650  -15.5167   20.9790 N   0  0  0  0  0  0
  -30.1183  -21.2630   18.1114 N   0  3  0  0  0  0
  -31.4715  -12.3909   19.1267 H   0  0  0  0  0  0
  -30.3280  -11.2959   19.8484 H   0  0  0  0  0  0
  -29.7417  -11.7462   17.4432 H   0  0  0  0  0  0
  -29.6619  -13.4615   17.7602 H   0  0  0  0  0  0
  -27.8349  -11.2906   18.8396 H   0  0  0  0  0  0
  -27.3679  -12.5984   17.7890 H   0  0  0  0  0  0
  -27.6994  -14.2452   19.5502 H   0  0  0  0  0  0
  -28.6825  -11.9799   21.3570 H   0  0  0  0  0  0
  -28.4709  -13.6292   21.8580 H   0  0  0  0  0  0
  -25.2758   -9.5705   22.4752 H   0  0  0  0  0  0
  -24.0016   -7.4635   22.7450 H   0  0  0  0  0  0
  -21.0859   -8.8762   19.8926 H   0  0  0  0  0  0
  -22.3693  -10.9675   19.6148 H   0  0  0  0  0  0
  -21.1966   -7.6140   23.9719 H   0  0  0  0  0  0
  -21.1487   -6.0513   25.9086 H   0  0  0  0  0  0
  -22.0595   -2.7606   23.2837 H   0  0  0  0  0  0
  -22.4089  -11.9872   22.4768 H   0  0  0  0  0  0
  -21.1108  -13.1240   22.2589 H   0  0  0  0  0  0
  -24.6678  -15.8432   20.5074 H   0  0  0  0  0  0
  -26.2762  -15.6176   20.0441 H   0  0  0  0  0  0
  -26.7117  -32.5546   23.1153 H   0  0  0  0  0  0
  -25.0010  -33.9774   25.0464 H   0  0  0  0  0  0
  -22.6929  -31.3161   21.4140 H   0  0  0  0  0  0
  -23.3729  -35.9645   23.3330 H   0  0  0  0  0  0
  -24.3573  -36.8873   22.2047 H   0  0  0  0  0  0
  -23.7262  -37.6537   23.6625 H   0  0  0  0  0  0
  -26.0389  -31.6103   20.5888 H   0  0  0  0  0  0
  -26.8201  -30.9010   21.9706 H   0  0  0  0  0  0
  -28.0982  -29.1157   21.1771 H   0  0  0  0  0  0
  -26.0748  -25.9795   19.0182 H   0  0  0  0  0  0
  -23.9822  -27.3032   19.0253 H   0  0  0  0  0  0
  -23.7109  -30.6057   19.4057 H   0  0  0  0  0  0
  -22.7316  -29.2463   19.8660 H   0  0  0  0  0  0
  -25.1302  -36.1949   25.0841 H   0  0  0  0  0  0
  -20.9998  -28.3224   24.1451 H   0  0  0  0  0  0
  -20.5726  -26.2257   23.3616 H   0  0  0  0  0  0
  -21.6640  -26.7498   22.1176 H   0  0  0  0  0  0
  -19.6909  -25.6343   21.1232 H   0  0  0  0  0  0
  -19.6685  -27.3276   20.6795 H   0  0  0  0  0  0
  -17.4206  -26.6744   21.4008 H   0  0  0  0  0  0
  -18.0282  -26.0112   22.9030 H   0  0  0  0  0  0
  -19.7931  -30.7306   24.2260 H   0  0  0  0  0  0
  -17.5022  -31.6283   24.5203 H   0  0  0  0  0  0
  -15.5358  -30.3036   23.7675 H   0  0  0  0  0  0
  -15.8662  -28.0899   22.7012 H   0  0  0  0  0  0
  -24.5901  -30.7069   25.7791 H   0  0  0  0  0  0
  -24.8955  -32.2880   26.4887 H   0  0  0  0  0  0
  -25.8112  -30.8887   27.0191 H   0  0  0  0  0  0
  -26.2808  -29.6812   24.1104 H   0  0  0  0  0  0
  -27.4077  -29.7252   25.4467 H   0  0  0  0  0  0
  -27.8626  -30.4361   23.9154 H   0  0  0  0  0  0
  -27.2623  -33.3600   26.2046 H   0  0  0  0  0  0
  -28.3840  -32.6872   25.0293 H   0  0  0  0  0  0
  -28.0681  -31.8423   26.5386 H   0  0  0  0  0  0
  -28.2625  -38.0083   24.7480 H   0  0  0  0  0  0
  -28.1038  -36.2619   24.6345 H   0  0  0  0  0  0
  -27.2289  -37.1507   25.8879 H   0  0  0  0  0  0
  -20.9246  -29.8743   21.6945 H   0  0  0  0  0  0
  -26.0172  -38.2867   24.1386 H   0  0  0  0  0  0
  -27.9903  -19.6573   20.7653 H   0  0  0  0  0  0
  -31.9555  -19.3207   19.1007 H   0  0  0  0  0  0
  -28.0619  -17.2951   21.4348 H   0  0  0  0  0  0
  -32.0321  -16.9655   19.7256 H   0  0  0  0  0  0
  -29.1363  -23.6367   23.1137 H   0  0  0  0  0  0
  -27.7412  -23.1896   22.1434 H   0  0  0  0  0  0
  -28.9330  -21.1938   22.0184 H   0  0  0  0  0  0
  -30.5005  -21.9881   22.0717 H   0  0  0  0  0  0
  -28.0953  -23.4472   19.4715 H   0  0  0  0  0  0
  -30.9668  -23.8897   18.5767 H   0  0  0  0  0  0
  -29.8466  -25.2390   18.5890 H   0  0  0  0  0  0
  -29.4717  -23.8369   17.6234 H   0  0  0  0  0  0
  -31.3795  -24.1267   21.3035 H   0  0  0  0  0  0
  -30.6896  -25.3431   22.3685 H   0  0  0  0  0  0
  -30.9355  -25.7033   20.6709 H   0  0  0  0  0  0
  -28.1722  -25.9960   22.0983 H   0  0  0  0  0  0
  -27.1836  -25.1259   20.9733 H   0  0  0  0  0  0
  -29.0906  -15.2275   21.3863 H   0  0  0  0  0  0
  -30.3121  -20.4677   17.5238 H   0  0  0  0  0  0
  -30.1943  -22.1899   17.7267 H   0  0  0  0  0  0
  1 25  1  0  0  0
  1 30  2  0  0  0
  1 86  1  0  0  0
  2  3  1  0  0  0
  2 25  1  0  0  0
  2 88  1  0  0  0
  2 89  1  0  0  0
  3  4  1  0  0  0
  3 90  1  0  0  0
  3 91  1  0  0  0
  4  5  1  0  0  0
  4 92  1  0  0  0
  4 93  1  0  0  0
  5  6  1  0  0  0
  5 26  1  0  0  0
  5 94  1  0  0  0
  6 25  1  0  0  0
  6 95  1  0  0  0
  6 96  1  0  0  0
  7  8  2  0  0  0
  7 26  1  0  0  0
  7 29  1  0  0  0
  8  9  1  0  0  0
  8 22  1  0  0  0
  9 10  1  0  0  0
  9 27  2  0  0  0
 10 11  2  0  0  0
 10 15  1  0  0  0
 11 12  1  0  0  0
 11 97  1  0  0  0
 12 13  2  0  0  0
 12 98  1  0  0  0
 13 14  1  0  0  0
 13 31  1  0  0  0
 14 15  2  0  0  0
 14 99  1  0  0  0
 15100  1  0  0  0
 16 17  2  0  0  0
 16 21  1  0  0  0
 16 31  1  0  0  0
 17 18  1  0  0  0
 17101  1  0  0  0
 18 19  2  0  0  0
 18102  1  0  0  0
 19 20  1  0  0  0
 19 24  1  0  0  0
 20 21  2  0  0  0
 20103  1  0  0  0
 21 23  1  0  0  0
 22 28  1  0  0  0
 22 32  2  0  0  0
 26 27  1  0  0  0
 28104  1  0  0  0
 28105  1  0  0  0
 29106  1  0  0  0
 29107  1  0  0  0
 33 34  1  0  0  0
 33 66  1  0  0  0
 33 70  2  0  0  0
 34 36  1  0  0  0
 34 59  1  0  0  0
 34108  1  0  0  0
 35 44  2  0  0  0
 35 45  1  0  0  0
 35 68  1  0  0  0
 36 56  1  0  0  0
 36109  1  0  0  0
 37 39  1  0  0  0
 37 47  1  0  0  0
 37 66  1  0  0  0
 37110  1  0  0  0
 38 43  2  0  0  0
 38 46  1  0  0  0
 38 47  1  0  0  0
 39 64  1  0  0  0
 39 67  2  0  0  0
 40 52  1  0  0  0
 40 53  2  0  0  0
 40 58  1  0  0  0
 41111  1  0  0  0
 41112  1  0  0  0
 41113  1  0  0  0
 41 48  1  0  0  0
 42 43  1  0  0  0
 42 66  1  0  0  0
 42114  1  0  0  0
 42115  1  0  0  0
 43 44  1  0  0  0
 44116  1  0  0  0
 45 46  2  0  0  0
 45117  1  0  0  0
 46118  1  0  0  0
 47119  1  0  0  0
 47120  1  0  0  0
 48 56  1  0  0  0
 48 65  1  0  0  0
 48121  1  0  0  0
 49 50  1  0  0  0
 49 53  1  0  0  0
 49 64  1  0  0  0
 49122  1  0  0  0
 50 51  1  0  0  0
 50123  1  0  0  0
 50124  1  0  0  0
 51 52  1  0  0  0
 51125  1  0  0  0
 51126  1  0  0  0
 52127  1  0  0  0
 52128  1  0  0  0
 53 54  1  0  0  0
 54 55  2  0  0  0
 54129  1  0  0  0
 55 57  1  0  0  0
 55130  1  0  0  0
 56 69  2  0  0  0
 57 58  2  0  0  0
 57131  1  0  0  0
 58132  1  0  0  0
 59 60  1  0  0  0
 59 61  1  0  0  0
 59 62  1  0  0  0
 60133  1  0  0  0
 60134  1  0  0  0
 60135  1  0  0  0
 61136  1  0  0  0
 61137  1  0  0  0
 61138  1  0  0  0
 62139  1  0  0  0
 62140  1  0  0  0
 62141  1  0  0  0
 63 65  1  0  0  0
 63142  1  0  0  0
 63143  1  0  0  0
 63144  1  0  0  0
 64145  1  0  0  0
 65146  1  0  0  0
 68 84  1  0  0  0
 71 73  2  0  0  0
 71 75  1  0  0  0
 71147  1  0  0  0
 72 74  1  0  0  0
 72 75  2  0  0  0
 72148  1  0  0  0
 73 76  1  0  0  0
 73149  1  0  0  0
 74 76  2  0  0  0
 74150  1  0  0  0
 75 77  1  0  0  0
 76 86  1  0  0  0
 77 85  1  0  0  0
 77 87  2  0  0  0
 78 79  1  0  0  0
 78 81  1  0  0  0
 78151  1  0  0  0
 78152  1  0  0  0
 79 85  1  0  0  0
 79153  1  0  0  0
 79154  1  0  0  0
 80 81  1  0  0  0
 80 82  1  0  0  0
 80 85  1  0  0  0
 80155  1  0  0  0
 81 83  1  0  0  0
 81 84  1  0  0  0
 82156  1  0  0  0
 82157  1  0  0  0
 82158  1  0  0  0
 83159  1  0  0  0
 83160  1  0  0  0
 83161  1  0  0  0
 84162  1  0  0  0
 84163  1  0  0  0
 86164  1  0  0  0
 87165  1  0  0  0
 87166  1  0  0  0
M  CHG  1  87   1
M  ISO  4   1 100  68 101  84 101  86 100
M  END
> <chiral flag>
0

> <version>
0

> <s_m_source_file>
/data/baiqing/PycharmProjects/Reinvent-master-3.2/result/LINK_invent/BTK/process_docking_weight1_custom_product_contain_oxygen_bond_distance_aromatic_linkinvent_7_9_3/rearranged_h_0150.sdf

> <i_m_source_file_index>
65

> <r_mmod_Potential_Energy-OPLS-2005>
-59.1487312316895

> <r_mmod_Stretch_Energy-OPLS-2005>
43.1447334289551

> <r_mmod_Bend_Energy-OPLS-2005>
141.441818237305

> <r_mmod_Torsional_Energy-OPLS-2005>
336.423461914062

> <r_mmod_Improper_Torsional_Energy-OPLS-2005>
5.09784746170044

> <r_mmod_Van_der_Waal_Energy-OPLS-2005>
164.780364990234

> <r_mmod_Electrostatic_Energy-OPLS-2005>
-382.607971191406

> <r_mmod_Solvation_Energy-OPLS-2005>
-384.286895751953

> <b_mmod_Minimization_Converged-OPLS-2005>
0

> <r_mmod_RMS_Derivative-OPLS-2005>
3.11256766319275

$$$$
65
                    3D
 Structure written by MMmdl.
155164  0  0  1  0            999 V2000
  -30.5874  -14.7222   20.5936 C   0  0  0  0  0  0
  -30.4570  -12.4795   19.4540 C   0  0  0  0  0  0
  -29.5162  -12.5528   18.2254 C   0  0  0  0  0  0
  -28.0325  -12.3871   18.6208 C   0  0  0  0  0  0
  -27.6551  -13.2202   19.8721 C   0  0  2  0  0  0
  -28.7005  -12.9971   20.9784 C   0  0  0  0  0  0
  -25.2563  -13.8168   20.5706 C   0  0  0  0  0  0
  -24.1821  -13.0429   20.9164 C   0  0  0  0  0  0
  -24.6391  -11.6902   20.8707 C   0  0  0  0  0  0
  -23.9055  -10.4285   21.0376 C   0  0  0  0  0  0
  -24.3606   -9.4207   21.9160 C   0  0  0  0  0  0
  -23.6277   -8.2250   22.0748 C   0  0  0  0  0  0
  -22.4257   -8.0281   21.3548 C   0  0  0  0  0  0
  -21.9881   -9.0257   20.4660 C   0  0  0  0  0  0
  -22.7215  -10.2134   20.3048 C   0  0  0  0  0  0
  -21.6858   -6.0729   22.5271 C   0  0  0  0  0  0
  -21.4022   -6.5629   23.8205 C   0  0  0  0  0  0
  -21.3665   -5.6787   24.9168 C   0  0  0  0  0  0
  -21.6041   -4.3047   24.7222 C   0  0  0  0  0  0
  -21.8822   -3.8138   23.4344 C   0  0  0  0  0  0
  -21.9200   -4.6952   22.3398 C   0  0  0  0  0  0
  -22.7853  -13.5225   21.1846 C   0  0  0  0  0  0
  -22.1664   -4.2142   21.0977 F   0  0  0  0  0  0
  -21.5623   -3.4531   25.7737 F   0  0  0  0  0  0
  -29.9961  -13.4723   20.4594 N   0  0  0  0  0  0
  -26.2989  -12.9353   20.3330 N   0  0  0  0  0  0
  -25.9315  -11.6495   20.5695 N   0  0  0  0  0  0
  -22.0500  -12.8240   22.0424 N   0  0  0  0  0  0
  -25.4275  -15.1898   20.4200 N   0  0  0  0  0  0
  -31.7035  -14.9082   20.0895 O   0  0  0  0  0  0
  -21.6633   -6.8869   21.4235 O   0  0  0  0  0  0
  -22.3537  -14.5536   20.6697 O   0  0  0  0  0  0
  -24.6312  -31.8565   23.2011 C   0  0  0  0  0  0
  -25.9135  -32.4766   23.8356 C   0  0  1  0  0  0
  -27.2238  -27.2727   20.1132 C   0  0  0  0  0  0
  -25.5929  -33.8571   24.2267 N   0  0  0  0  0  0
  -23.4289  -30.4805   21.5449 C   0  0  2  0  0  0
  -24.8778  -28.9361   20.1117 C   0  0  0  0  0  0
  -22.7511  -29.4598   22.4917 C   0  0  0  0  0  0
  -18.0294  -28.1380   22.8477 C   0  0  0  0  0  0
  -24.1489  -36.7282   23.2638 C   0  0  0  0  0  0
  -25.9788  -30.7698   21.3875 C   0  0  0  0  0  0
  -26.0524  -29.3974   20.7198 C   0  0  0  0  0  0
  -27.2288  -28.5794   20.7086 C   0  0  0  0  0  0
  -26.0199  -26.8843   19.4764 C   0  0  0  0  0  0
  -24.8669  -27.6873   19.4797 C   0  0  0  0  0  0
  -23.6490  -29.8208   20.1601 C   0  0  0  0  0  0
  -25.4117  -36.3075   24.0324 C   0  0  1  0  0  0
  -20.5898  -28.3691   23.1272 C   0  0  2  0  0  0
  -20.6783  -26.9404   22.5416 C   0  0  0  0  0  0
  -19.5761  -26.6375   21.5211 C   0  0  0  0  0  0
  -18.1938  -26.7922   22.1615 C   0  0  0  0  0  0
  -19.1549  -28.8854   23.2867 C   0  0  0  0  0  0
  -18.9464  -30.1452   23.8891 C   0  0  0  0  0  0
  -17.6461  -30.6579   24.0557 C   0  0  0  0  0  0
  -25.9058  -34.9443   23.5098 C   0  0  0  0  0  0
  -16.5354  -29.9076   23.6326 C   0  0  0  0  0  0
  -16.7278  -28.6493   23.0350 C   0  0  0  0  0  0
  -26.4490  -31.6604   25.0758 C   0  0  0  0  0  0
  -25.3699  -31.3792   26.1475 C   0  0  0  0  0  0
  -27.0342  -30.3003   24.6299 C   0  0  0  0  0  0
  -27.6034  -32.4365   25.7523 C   0  0  0  0  0  0
  -27.5583  -37.1804   24.8450 C   0  0  0  0  0  0
  -21.4217  -29.3033   22.3661 N   0  0  0  0  0  0
  -26.4290  -37.3772   23.9400 N   0  0  0  0  0  0
  -24.6981  -31.0530   22.0995 N   0  0  0  0  0  0
  -23.4206  -28.8119   23.3005 O   0  0  0  0  0  0
  -28.3132  -26.3690   20.1553 O   0  0  0  0  0  0
  -26.5627  -34.8910   22.4667 O   0  0  0  0  0  0
  -23.5456  -32.1391   23.7291 O   0  0  0  0  0  0
  -29.5166  -17.9019   22.0732 C   0  0  0  0  0  0
  -29.3636  -19.3317   21.9140 C   0  0  0  0  0  0
  -29.8706  -17.1593   20.9893 C   0  0  0  0  0  0
  -29.6300  -19.7704   20.6265 C   0  0  0  0  0  0
  -29.1089  -23.7914   20.1850 C   0  0  0  0  0  0
  -29.3464  -17.0098   23.2391 C   0  0  0  0  0  0
  -29.3411  -15.6172   22.5722 C   0  0  0  0  0  0
  -28.9782  -20.2171   23.0619 C   0  0  0  0  0  0
  -28.7156  -22.2637   20.4840 C   0  0  0  0  0  0
  -27.9693  -24.9048   20.0994 C   0  0  0  0  0  0
  -29.8871  -15.7720   21.2021 N   0  0  0  0  0  0
  -29.6431  -21.1234   20.0927 N   0  0  0  0  0  0
  -30.2924  -24.0918   19.9938 O   0  0  0  0  0  0
  -30.0895  -18.3121   19.6468 S   0  0  0  0  0  0
  -31.4872  -12.6580   19.1417 H   0  0  0  0  0  0
  -30.4586  -11.4739   19.8781 H   0  0  0  0  0  0
  -29.7933  -11.7936   17.4927 H   0  0  0  0  0  0
  -29.6499  -13.5146   17.7285 H   0  0  0  0  0  0
  -27.8531  -11.3291   18.8129 H   0  0  0  0  0  0
  -27.3892  -12.6578   17.7833 H   0  0  0  0  0  0
  -27.6897  -14.2709   19.5823 H   0  0  0  0  0  0
  -28.7583  -11.9323   21.2097 H   0  0  0  0  0  0
  -28.3943  -13.4198   21.9231 H   0  0  0  0  0  0
  -25.2755   -9.5682   22.4724 H   0  0  0  0  0  0
  -23.9995   -7.4636   22.7457 H   0  0  0  0  0  0
  -21.0805   -8.8767   19.8975 H   0  0  0  0  0  0
  -22.3651  -10.9667   19.6159 H   0  0  0  0  0  0
  -21.2011   -7.6138   23.9708 H   0  0  0  0  0  0
  -21.1484   -6.0514   25.9074 H   0  0  0  0  0  0
  -22.0596   -2.7596   23.2852 H   0  0  0  0  0  0
  -22.4123  -11.9908   22.4820 H   0  0  0  0  0  0
  -21.1134  -13.1298   22.2647 H   0  0  0  0  0  0
  -24.6633  -15.8449   20.5398 H   0  0  0  0  0  0
  -26.2907  -15.6355   20.1345 H   0  0  0  0  0  0
  -26.7202  -32.5407   23.1097 H   0  0  0  0  0  0
  -25.0074  -33.9714   25.0409 H   0  0  0  0  0  0
  -22.7248  -31.3025   21.4005 H   0  0  0  0  0  0
  -23.3761  -35.9604   23.3297 H   0  0  0  0  0  0
  -24.3580  -36.8913   22.2052 H   0  0  0  0  0  0
  -23.7235  -37.6477   23.6670 H   0  0  0  0  0  0
  -26.1347  -31.5402   20.6308 H   0  0  0  0  0  0
  -26.8476  -30.8021   22.0336 H   0  0  0  0  0  0
  -28.1284  -28.9293   21.1957 H   0  0  0  0  0  0
  -25.9259  -25.9402   18.9653 H   0  0  0  0  0  0
  -23.9689  -27.3327   18.9928 H   0  0  0  0  0  0
  -23.7779  -30.5998   19.4079 H   0  0  0  0  0  0
  -22.7681  -29.2558   19.8491 H   0  0  0  0  0  0
  -25.1304  -36.1923   25.0818 H   0  0  0  0  0  0
  -20.9983  -28.3266   24.1393 H   0  0  0  0  0  0
  -20.5674  -26.2289   23.3616 H   0  0  0  0  0  0
  -21.6655  -26.7420   22.1219 H   0  0  0  0  0  0
  -19.6924  -25.6283   21.1248 H   0  0  0  0  0  0
  -19.6705  -27.3181   20.6737 H   0  0  0  0  0  0
  -17.4206  -26.6661   21.4019 H   0  0  0  0  0  0
  -18.0338  -26.0069   22.9016 H   0  0  0  0  0  0
  -19.7938  -30.7270   24.2265 H   0  0  0  0  0  0
  -17.5012  -31.6260   24.5160 H   0  0  0  0  0  0
  -15.5352  -30.2969   23.7665 H   0  0  0  0  0  0
  -15.8674  -28.0803   22.7079 H   0  0  0  0  0  0
  -24.5819  -30.7212   25.7794 H   0  0  0  0  0  0
  -24.8961  -32.2991   26.4916 H   0  0  0  0  0  0
  -25.7984  -30.8927   27.0246 H   0  0  0  0  0  0
  -26.2960  -29.6764   24.1248 H   0  0  0  0  0  0
  -27.3902  -29.7263   25.4866 H   0  0  0  0  0  0
  -27.8893  -30.4244   23.9649 H   0  0  0  0  0  0
  -27.2616  -33.3653   26.2102 H   0  0  0  0  0  0
  -28.3830  -32.6960   25.0347 H   0  0  0  0  0  0
  -28.0726  -31.8511   26.5440 H   0  0  0  0  0  0
  -28.2591  -38.0108   24.7510 H   0  0  0  0  0  0
  -28.1094  -36.2647   24.6262 H   0  0  0  0  0  0
  -27.2311  -37.1433   25.8854 H   0  0  0  0  0  0
  -20.9404  -29.8754   21.6867 H   0  0  0  0  0  0
  -26.0175  -38.2847   24.1404 H   0  0  0  0  0  0
  -28.4240  -17.2034   23.7890 H   0  0  0  0  0  0
  -30.1835  -17.1121   23.9310 H   0  0  0  0  0  0
  -28.2869  -15.3574   22.4891 H   0  0  0  0  0  0
  -29.8467  -14.8648   23.1805 H   0  0  0  0  0  0
  -29.0653  -19.7021   24.0180 H   0  0  0  0  0  0
  -27.9447  -20.5516   22.9729 H   0  0  0  0  0  0
  -29.6191  -21.0963   23.1192 H   0  0  0  0  0  0
  -27.7603  -22.0870   19.9886 H   0  0  0  0  0  0
  -28.4981  -22.2194   21.5482 H   0  0  0  0  0  0
  -27.2358  -24.6903   20.8775 H   0  0  0  0  0  0
  -27.4887  -24.7002   19.1445 H   0  0  0  0  0  0
  -30.0115  -21.2242   19.1490 H   0  0  0  0  0  0
  1 25  1  0  0  0
  1 30  2  0  0  0
  1 81  1  0  0  0
  2  3  1  0  0  0
  2 25  1  0  0  0
  2 85  1  0  0  0
  2 86  1  0  0  0
  3  4  1  0  0  0
  3 87  1  0  0  0
  3 88  1  0  0  0
  4  5  1  0  0  0
  4 89  1  0  0  0
  4 90  1  0  0  0
  5  6  1  0  0  0
  5 26  1  0  0  0
  5 91  1  0  0  0
  6 25  1  0  0  0
  6 92  1  0  0  0
  6 93  1  0  0  0
  7  8  2  0  0  0
  7 26  1  0  0  0
  7 29  1  0  0  0
  8  9  1  0  0  0
  8 22  1  0  0  0
  9 10  1  0  0  0
  9 27  2  0  0  0
 10 11  2  0  0  0
 10 15  1  0  0  0
 11 12  1  0  0  0
 11 94  1  0  0  0
 12 13  2  0  0  0
 12 95  1  0  0  0
 13 14  1  0  0  0
 13 31  1  0  0  0
 14 15  2  0  0  0
 14 96  1  0  0  0
 15 97  1  0  0  0
 16 17  2  0  0  0
 16 21  1  0  0  0
 16 31  1  0  0  0
 17 18  1  0  0  0
 17 98  1  0  0  0
 18 19  2  0  0  0
 18 99  1  0  0  0
 19 20  1  0  0  0
 19 24  1  0  0  0
 20 21  2  0  0  0
 20100  1  0  0  0
 21 23  1  0  0  0
 22 28  1  0  0  0
 22 32  2  0  0  0
 26 27  1  0  0  0
 28101  1  0  0  0
 28102  1  0  0  0
 29103  1  0  0  0
 29104  1  0  0  0
 33 34  1  0  0  0
 33 66  1  0  0  0
 33 70  2  0  0  0
 34 36  1  0  0  0
 34 59  1  0  0  0
 34105  1  0  0  0
 35 44  2  0  0  0
 35 45  1  0  0  0
 35 68  1  0  0  0
 36 56  1  0  0  0
 36106  1  0  0  0
 37 39  1  0  0  0
 37 47  1  0  0  0
 37 66  1  0  0  0
 37107  1  0  0  0
 38 43  2  0  0  0
 38 46  1  0  0  0
 38 47  1  0  0  0
 39 64  1  0  0  0
 39 67  2  0  0  0
 40 52  1  0  0  0
 40 53  2  0  0  0
 40 58  1  0  0  0
 41108  1  0  0  0
 41109  1  0  0  0
 41110  1  0  0  0
 41 48  1  0  0  0
 42 43  1  0  0  0
 42 66  1  0  0  0
 42111  1  0  0  0
 42112  1  0  0  0
 43 44  1  0  0  0
 44113  1  0  0  0
 45 46  2  0  0  0
 45114  1  0  0  0
 46115  1  0  0  0
 47116  1  0  0  0
 47117  1  0  0  0
 48 56  1  0  0  0
 48 65  1  0  0  0
 48118  1  0  0  0
 49 50  1  0  0  0
 49 53  1  0  0  0
 49 64  1  0  0  0
 49119  1  0  0  0
 50 51  1  0  0  0
 50120  1  0  0  0
 50121  1  0  0  0
 51 52  1  0  0  0
 51122  1  0  0  0
 51123  1  0  0  0
 52124  1  0  0  0
 52125  1  0  0  0
 53 54  1  0  0  0
 54 55  2  0  0  0
 54126  1  0  0  0
 55 57  1  0  0  0
 55127  1  0  0  0
 56 69  2  0  0  0
 57 58  2  0  0  0
 57128  1  0  0  0
 58129  1  0  0  0
 59 60  1  0  0  0
 59 61  1  0  0  0
 59 62  1  0  0  0
 60130  1  0  0  0
 60131  1  0  0  0
 60132  1  0  0  0
 61133  1  0  0  0
 61134  1  0  0  0
 61135  1  0  0  0
 62136  1  0  0  0
 62137  1  0  0  0
 62138  1  0  0  0
 63 65  1  0  0  0
 63139  1  0  0  0
 63140  1  0  0  0
 63141  1  0  0  0
 64142  1  0  0  0
 65143  1  0  0  0
 68 80  1  0  0  0
 71 72  1  0  0  0
 71 73  2  0  0  0
 71 76  1  0  0  0
 72 74  2  0  0  0
 72 78  1  0  0  0
 73 81  1  0  0  0
 73 84  1  0  0  0
 74 82  1  0  0  0
 74 84  1  0  0  0
 75 79  1  0  0  0
 75 80  1  0  0  0
 75 83  2  0  0  0
 76 77  1  0  0  0
 76144  1  0  0  0
 76145  1  0  0  0
 77 81  1  0  0  0
 77146  1  0  0  0
 77147  1  0  0  0
 78148  1  0  0  0
 78149  1  0  0  0
 78150  1  0  0  0
 79 82  1  0  0  0
 79151  1  0  0  0
 79152  1  0  0  0
 80153  1  0  0  0
 80154  1  0  0  0
 82155  1  0  0  0
M  ISO  4   1 100  68 101  80 101  81 100
M  END
> <chiral flag>
0

> <version>
0

> <s_m_source_file>
/data/baiqing/PycharmProjects/Reinvent-master-3.2/result/LINK_invent/BTK/process_docking_weight1_custom_product_contain_oxygen_bond_distance_aromatic_linkinvent_7_9_3/rearranged_h_0150.sdf

> <i_m_source_file_index>
66

> <r_mmod_Potential_Energy-OPLS-2005>
394.382049560547

> <r_mmod_Stretch_Energy-OPLS-2005>
118.611572265625

> <r_mmod_Bend_Energy-OPLS-2005>
272.659393310547

> <r_mmod_Torsional_Energy-OPLS-2005>
273.626373291016

> <r_mmod_Improper_Torsional_Energy-OPLS-2005>
5.61988115310669

> <r_mmod_Van_der_Waal_Energy-OPLS-2005>
125.275840759277

> <r_mmod_Electrostatic_Energy-OPLS-2005>
-236.559036254883

> <r_mmod_Solvation_Energy-OPLS-2005>
-239.325302124023

> <b_mmod_Minimization_Converged-OPLS-2005>
0

> <r_mmod_RMS_Derivative-OPLS-2005>
1.56475472450256

$$$$
66
                    3D
 Structure written by MMmdl.
163172  0  0  1  0            999 V2000
  -30.6688  -14.5565   20.5122 C   0  0  0  0  0  0
  -30.4276  -12.3427   19.4395 C   0  0  0  0  0  0
  -29.5013  -12.5005   18.2148 C   0  0  0  0  0  0
  -28.0235  -12.3530   18.6258 C   0  0  0  0  0  0
  -27.6590  -13.2121   19.8674 C   0  0  2  0  0  0
  -28.7020  -13.0390   20.9943 C   0  0  0  0  0  0
  -25.2591  -13.8169   20.5668 C   0  0  0  0  0  0
  -24.1841  -13.0440   20.9182 C   0  0  0  0  0  0
  -24.6398  -11.6912   20.8759 C   0  0  0  0  0  0
  -23.9062  -10.4297   21.0411 C   0  0  0  0  0  0
  -24.3617   -9.4221   21.9189 C   0  0  0  0  0  0
  -23.6312   -8.2251   22.0757 C   0  0  0  0  0  0
  -22.4292   -8.0289   21.3547 C   0  0  0  0  0  0
  -21.9920   -9.0248   20.4633 C   0  0  0  0  0  0
  -22.7244  -10.2142   20.3054 C   0  0  0  0  0  0
  -21.6850   -6.0744   22.5285 C   0  0  0  0  0  0
  -21.3992   -6.5642   23.8221 C   0  0  0  0  0  0
  -21.3672   -5.6795   24.9179 C   0  0  0  0  0  0
  -21.6054   -4.3060   24.7224 C   0  0  0  0  0  0
  -21.8819   -3.8162   23.4343 C   0  0  0  0  0  0
  -21.9179   -4.6974   22.3399 C   0  0  0  0  0  0
  -22.7873  -13.5253   21.1852 C   0  0  0  0  0  0
  -22.1651   -4.2167   21.0979 F   0  0  0  0  0  0
  -21.5640   -3.4536   25.7729 F   0  0  0  0  0  0
  -30.0277  -13.3527   20.4357 N   0  0  0  0  0  0
  -26.3022  -12.9347   20.3338 N   0  0  0  0  0  0
  -25.9330  -11.6507   20.5779 N   0  0  0  0  0  0
  -22.0480  -12.8264   22.0405 N   0  0  0  0  0  0
  -25.4301  -15.1873   20.4047 N   0  0  0  0  0  0
  -31.8213  -14.7057   20.0942 O   0  0  0  0  0  0
  -21.6651   -6.8897   21.4260 O   0  0  0  0  0  0
  -22.3574  -14.5553   20.6681 O   0  0  0  0  0  0
  -24.6185  -31.8610   23.2054 C   0  0  0  0  0  0
  -25.9058  -32.4774   23.8359 C   0  0  1  0  0  0
  -27.2442  -27.3935   20.1025 C   0  0  0  0  0  0
  -25.5899  -33.8578   24.2299 N   0  0  0  0  0  0
  -23.4078  -30.4829   21.5434 C   0  0  2  0  0  0
  -24.8547  -28.9409   20.1072 C   0  0  0  0  0  0
  -22.7427  -29.4618   22.4942 C   0  0  0  0  0  0
  -18.0274  -28.1366   22.8481 C   0  0  0  0  0  0
  -24.1475  -36.7306   23.2647 C   0  0  0  0  0  0
  -25.9399  -30.8099   21.3646 C   0  0  0  0  0  0
  -26.0119  -29.4410   20.7151 C   0  0  0  0  0  0
  -27.2007  -28.6738   20.7119 C   0  0  0  0  0  0
  -26.0686  -26.9173   19.4802 C   0  0  0  0  0  0
  -24.8801  -27.6785   19.4861 C   0  0  0  0  0  0
  -23.6173  -29.8117   20.1578 C   0  0  0  0  0  0
  -25.4090  -36.3083   24.0350 C   0  0  1  0  0  0
  -20.5869  -28.3664   23.1291 C   0  0  2  0  0  0
  -20.6752  -26.9390   22.5406 C   0  0  0  0  0  0
  -19.5730  -26.6372   21.5201 C   0  0  0  0  0  0
  -18.1915  -26.7911   22.1610 C   0  0  0  0  0  0
  -19.1528  -28.8827   23.2888 C   0  0  0  0  0  0
  -18.9460  -30.1437   23.8891 C   0  0  0  0  0  0
  -17.6462  -30.6577   24.0549 C   0  0  0  0  0  0
  -25.9029  -34.9449   23.5124 C   0  0  0  0  0  0
  -16.5352  -29.9071   23.6330 C   0  0  0  0  0  0
  -16.7263  -28.6489   23.0342 C   0  0  0  0  0  0
  -26.4489  -31.6561   25.0693 C   0  0  0  0  0  0
  -25.3770  -31.3661   26.1455 C   0  0  0  0  0  0
  -27.0336  -30.2990   24.6107 C   0  0  0  0  0  0
  -27.6045  -32.4289   25.7470 C   0  0  0  0  0  0
  -27.5567  -37.1807   24.8471 C   0  0  0  0  0  0
  -21.4146  -29.3027   22.3697 N   0  0  0  0  0  0
  -26.4266  -37.3771   23.9433 N   0  0  0  0  0  0
  -24.6736  -31.0687   22.0955 N   0  0  0  0  0  0
  -23.4188  -28.8168   23.2999 O   0  0  0  0  0  0
  -28.4267  -26.6689   20.1681 O   0  0  0  0  0  0
  -26.5615  -34.8934   22.4704 O   0  0  0  0  0  0
  -23.5367  -32.1359   23.7454 O   0  0  0  0  0  0
  -30.5862  -19.1123   19.9185 C   0  0  0  0  0  0
  -30.7009  -17.6844   19.7844 C   0  0  0  0  0  0
  -29.8515  -19.5143   21.0047 C   0  0  0  0  0  0
  -30.0540  -16.9561   20.7657 C   0  0  0  0  0  0
  -27.9612  -24.1189   21.5985 C   0  0  0  0  0  0
  -27.9322  -22.6462   22.0428 C   0  0  0  0  0  0
  -29.0994  -22.8307   19.9851 C   0  0  0  0  0  0
  -28.1356  -24.0622   20.0849 C   0  0  2  0  0  0
  -26.7462  -23.2846   18.2171 C   0  0  0  0  0  0
  -29.7012  -20.9170   21.5895 C   0  0  0  0  0  0
  -28.6433  -25.4237   19.4561 C   0  0  0  0  0  0
  -31.4221  -17.1470   18.7140 N   0  0  0  0  0  0
  -29.9212  -15.5967   20.9613 N   0  0  0  0  0  0
  -28.6593  -21.8435   21.0190 N   0  3  1  0  0  0
  -26.8370  -23.7298   19.5703 O   0  0  0  0  0  0
  -29.2309  -18.0916   21.8351 S   0  0  0  0  0  0
  -31.4722  -12.4415   19.1369 H   0  0  0  0  0  0
  -30.3346  -11.3411   19.8599 H   0  0  0  0  0  0
  -29.7560  -11.7571   17.4578 H   0  0  0  0  0  0
  -29.6597  -13.4766   17.7530 H   0  0  0  0  0  0
  -27.8491  -11.2989   18.8418 H   0  0  0  0  0  0
  -27.3693  -12.5983   17.7894 H   0  0  0  0  0  0
  -27.6922  -14.2532   19.5502 H   0  0  0  0  0  0
  -28.6899  -12.0125   21.3579 H   0  0  0  0  0  0
  -28.4582  -13.6617   21.8561 H   0  0  0  0  0  0
  -25.2740   -9.5708   22.4780 H   0  0  0  0  0  0
  -24.0011   -7.4637   22.7490 H   0  0  0  0  0  0
  -21.0852   -8.8769   19.8938 H   0  0  0  0  0  0
  -22.3690  -10.9688   19.6172 H   0  0  0  0  0  0
  -21.1973   -7.6145   23.9738 H   0  0  0  0  0  0
  -21.1504   -6.0513   25.9090 H   0  0  0  0  0  0
  -22.0585   -2.7624   23.2828 H   0  0  0  0  0  0
  -22.4023  -11.9905   22.4809 H   0  0  0  0  0  0
  -21.1089  -13.1332   22.2529 H   0  0  0  0  0  0
  -24.6560  -15.8371   20.4912 H   0  0  0  0  0  0
  -26.2768  -15.6255   20.0652 H   0  0  0  0  0  0
  -26.7131  -32.5452   23.1115 H   0  0  0  0  0  0
  -25.0038  -33.9746   25.0429 H   0  0  0  0  0  0
  -22.6974  -31.2987   21.4003 H   0  0  0  0  0  0
  -23.3726  -35.9643   23.3275 H   0  0  0  0  0  0
  -24.3557  -36.8942   22.2061 H   0  0  0  0  0  0
  -23.7241  -37.6512   23.6677 H   0  0  0  0  0  0
  -26.0666  -31.5674   20.5918 H   0  0  0  0  0  0
  -26.8243  -30.8596   21.9871 H   0  0  0  0  0  0
  -28.0882  -29.0643   21.1895 H   0  0  0  0  0  0
  -26.0490  -25.9585   18.9888 H   0  0  0  0  0  0
  -23.9945  -27.2873   19.0027 H   0  0  0  0  0  0
  -23.7274  -30.5866   19.3979 H   0  0  0  0  0  0
  -22.7415  -29.2316   19.8629 H   0  0  0  0  0  0
  -25.1267  -36.1928   25.0839 H   0  0  0  0  0  0
  -20.9971  -28.3241   24.1408 H   0  0  0  0  0  0
  -20.5612  -26.2299   23.3611 H   0  0  0  0  0  0
  -21.6625  -26.7396   22.1214 H   0  0  0  0  0  0
  -19.6894  -25.6292   21.1228 H   0  0  0  0  0  0
  -19.6670  -27.3183   20.6731 H   0  0  0  0  0  0
  -17.4183  -26.6665   21.4017 H   0  0  0  0  0  0
  -18.0308  -26.0056   22.9004 H   0  0  0  0  0  0
  -19.7943  -30.7249   24.2247 H   0  0  0  0  0  0
  -17.5023  -31.6275   24.5130 H   0  0  0  0  0  0
  -15.5352  -30.2967   23.7652 H   0  0  0  0  0  0
  -15.8665  -28.0811   22.7038 H   0  0  0  0  0  0
  -24.5974  -30.6950   25.7830 H   0  0  0  0  0  0
  -24.8928  -32.2801   26.4904 H   0  0  0  0  0  0
  -25.8158  -30.8867   27.0215 H   0  0  0  0  0  0
  -26.2885  -29.6728   24.1183 H   0  0  0  0  0  0
  -27.4106  -29.7253   25.4592 H   0  0  0  0  0  0
  -27.8730  -30.4282   23.9267 H   0  0  0  0  0  0
  -27.2637  -33.3583   26.2057 H   0  0  0  0  0  0
  -28.3868  -32.6851   25.0308 H   0  0  0  0  0  0
  -28.0702  -31.8399   26.5388 H   0  0  0  0  0  0
  -28.2582  -38.0112   24.7524 H   0  0  0  0  0  0
  -28.1078  -36.2653   24.6271 H   0  0  0  0  0  0
  -27.2313  -37.1412   25.8882 H   0  0  0  0  0  0
  -20.9300  -29.8761   21.6935 H   0  0  0  0  0  0
  -26.0153  -38.2847   24.1411 H   0  0  0  0  0  0
  -31.0744  -19.8021   19.2435 H   0  0  0  0  0  0
  -28.8183  -24.6180   22.0527 H   0  0  0  0  0  0
  -27.0699  -24.6690   21.9008 H   0  0  0  0  0  0
  -26.9029  -22.2878   22.0844 H   0  0  0  0  0  0
  -28.3472  -22.5576   23.0475 H   0  0  0  0  0  0
  -30.1112  -23.1603   20.2277 H   0  0  0  0  0  0
  -29.1546  -22.3797   18.9961 H   0  0  0  0  0  0
  -27.0998  -22.2603   18.1053 H   0  0  0  0  0  0
  -27.2895  -23.9119   17.5136 H   0  0  0  0  0  0
  -25.7000  -23.2930   17.9104 H   0  0  0  0  0  0
  -30.6683  -21.4187   21.5921 H   0  0  0  0  0  0
  -29.4864  -20.7706   22.6483 H   0  0  0  0  0  0
  -28.3439  -25.5421   18.4169 H   0  0  0  0  0  0
  -29.7310  -25.3534   19.4044 H   0  0  0  0  0  0
  -32.1424  -17.7391   18.3132 H   0  0  0  0  0  0
  -31.7763  -16.2067   18.9026 H   0  0  0  0  0  0
  -29.0804  -15.3176   21.4408 H   0  0  0  0  0  0
  -27.9517  -21.2580   20.6006 H   0  0  0  0  0  0
  1 25  1  0  0  0
  1 30  2  0  0  0
  1 83  1  0  0  0
  2  3  1  0  0  0
  2 25  1  0  0  0
  2 87  1  0  0  0
  2 88  1  0  0  0
  3  4  1  0  0  0
  3 89  1  0  0  0
  3 90  1  0  0  0
  4  5  1  0  0  0
  4 91  1  0  0  0
  4 92  1  0  0  0
  5  6  1  0  0  0
  5 26  1  0  0  0
  5 93  1  0  0  0
  6 25  1  0  0  0
  6 94  1  0  0  0
  6 95  1  0  0  0
  7  8  2  0  0  0
  7 26  1  0  0  0
  7 29  1  0  0  0
  8  9  1  0  0  0
  8 22  1  0  0  0
  9 10  1  0  0  0
  9 27  2  0  0  0
 10 11  2  0  0  0
 10 15  1  0  0  0
 11 12  1  0  0  0
 11 96  1  0  0  0
 12 13  2  0  0  0
 12 97  1  0  0  0
 13 14  1  0  0  0
 13 31  1  0  0  0
 14 15  2  0  0  0
 14 98  1  0  0  0
 15 99  1  0  0  0
 16 17  2  0  0  0
 16 21  1  0  0  0
 16 31  1  0  0  0
 17 18  1  0  0  0
 17100  1  0  0  0
 18 19  2  0  0  0
 18101  1  0  0  0
 19 20  1  0  0  0
 19 24  1  0  0  0
 20 21  2  0  0  0
 20102  1  0  0  0
 21 23  1  0  0  0
 22 28  1  0  0  0
 22 32  2  0  0  0
 26 27  1  0  0  0
 28103  1  0  0  0
 28104  1  0  0  0
 29105  1  0  0  0
 29106  1  0  0  0
 33 34  1  0  0  0
 33 66  1  0  0  0
 33 70  2  0  0  0
 34 36  1  0  0  0
 34 59  1  0  0  0
 34107  1  0  0  0
 35 44  2  0  0  0
 35 45  1  0  0  0
 35 68  1  0  0  0
 36 56  1  0  0  0
 36108  1  0  0  0
 37 39  1  0  0  0
 37 47  1  0  0  0
 37 66  1  0  0  0
 37109  1  0  0  0
 38 43  2  0  0  0
 38 46  1  0  0  0
 38 47  1  0  0  0
 39 64  1  0  0  0
 39 67  2  0  0  0
 40 52  1  0  0  0
 40 53  2  0  0  0
 40 58  1  0  0  0
 41110  1  0  0  0
 41111  1  0  0  0
 41112  1  0  0  0
 41 48  1  0  0  0
 42 43  1  0  0  0
 42 66  1  0  0  0
 42113  1  0  0  0
 42114  1  0  0  0
 43 44  1  0  0  0
 44115  1  0  0  0
 45 46  2  0  0  0
 45116  1  0  0  0
 46117  1  0  0  0
 47118  1  0  0  0
 47119  1  0  0  0
 48 56  1  0  0  0
 48 65  1  0  0  0
 48120  1  0  0  0
 49 50  1  0  0  0
 49 53  1  0  0  0
 49 64  1  0  0  0
 49121  1  0  0  0
 50 51  1  0  0  0
 50122  1  0  0  0
 50123  1  0  0  0
 51 52  1  0  0  0
 51124  1  0  0  0
 51125  1  0  0  0
 52126  1  0  0  0
 52127  1  0  0  0
 53 54  1  0  0  0
 54 55  2  0  0  0
 54128  1  0  0  0
 55 57  1  0  0  0
 55129  1  0  0  0
 56 69  2  0  0  0
 57 58  2  0  0  0
 57130  1  0  0  0
 58131  1  0  0  0
 59 60  1  0  0  0
 59 61  1  0  0  0
 59 62  1  0  0  0
 60132  1  0  0  0
 60133  1  0  0  0
 60134  1  0  0  0
 61135  1  0  0  0
 61136  1  0  0  0
 61137  1  0  0  0
 62138  1  0  0  0
 62139  1  0  0  0
 62140  1  0  0  0
 63 65  1  0  0  0
 63141  1  0  0  0
 63142  1  0  0  0
 63143  1  0  0  0
 64144  1  0  0  0
 65145  1  0  0  0
 68 81  1  0  0  0
 71 72  1  0  0  0
 71 73  2  0  0  0
 71146  1  0  0  0
 72 74  2  0  0  0
 72 82  1  0  0  0
 73 80  1  0  0  0
 73 86  1  0  0  0
 74 83  1  0  0  0
 74 86  1  0  0  0
 75 76  1  0  0  0
 75 78  1  0  0  0
 75147  1  0  0  0
 75148  1  0  0  0
 76 84  1  0  0  0
 76149  1  0  0  0
 76150  1  0  0  0
 77 78  1  0  0  0
 77 84  1  0  0  0
 77151  1  0  0  0
 77152  1  0  0  0
 78 81  1  0  0  0
 78 85  1  0  0  0
 79 85  1  0  0  0
 79153  1  0  0  0
 79154  1  0  0  0
 79155  1  0  0  0
 80156  1  0  0  0
 80157  1  0  0  0
 80 84  1  0  0  0
 81158  1  0  0  0
 81159  1  0  0  0
 82160  1  0  0  0
 82161  1  0  0  0
 83162  1  0  0  0
 84163  1  0  0  0
M  CHG  1  84   1
M  ISO  4   1 100  68 101  81 101  83 100
M  END
> <chiral flag>
0

> <version>
0

> <s_m_source_file>
/data/baiqing/PycharmProjects/Reinvent-master-3.2/result/LINK_invent/BTK/process_docking_weight1_custom_product_contain_oxygen_bond_distance_aromatic_linkinvent_7_9_3/rearranged_h_0150.sdf

> <i_m_source_file_index>
67

> <r_mmod_Potential_Energy-OPLS-2005>
-195.804595947266

> <r_mmod_Stretch_Energy-OPLS-2005>
51.1508827209473

> <r_mmod_Bend_Energy-OPLS-2005>
173.037841796875

> <r_mmod_Torsional_Energy-OPLS-2005>
286.181762695312

> <r_mmod_Improper_Torsional_Energy-OPLS-2005>
8.60108280181885

> <r_mmod_Van_der_Waal_Energy-OPLS-2005>
127.754898071289

> <r_mmod_Electrostatic_Energy-OPLS-2005>
-435.558166503906

> <r_mmod_Solvation_Energy-OPLS-2005>
-431.204162597656

> <b_mmod_Minimization_Converged-OPLS-2005>
0

> <r_mmod_RMS_Derivative-OPLS-2005>
3.05960965156555

$$$$
67
                    3D
 Structure written by MMmdl.
152160  0  0  1  0            999 V2000
  -30.7164  -14.4893   20.5366 C   0  0  0  0  0  0
  -30.4111  -12.2983   19.4435 C   0  0  0  0  0  0
  -29.4960  -12.4953   18.2178 C   0  0  0  0  0  0
  -28.0156  -12.3607   18.6237 C   0  0  0  0  0  0
  -27.6574  -13.2159   19.8693 C   0  0  2  0  0  0
  -28.6981  -13.0338   20.9952 C   0  0  0  0  0  0
  -25.2564  -13.8190   20.5682 C   0  0  0  0  0  0
  -24.1819  -13.0452   20.9173 C   0  0  0  0  0  0
  -24.6388  -11.6925   20.8740 C   0  0  0  0  0  0
  -23.9059  -10.4300   21.0406 C   0  0  0  0  0  0
  -24.3609   -9.4214   21.9185 C   0  0  0  0  0  0
  -23.6283   -8.2252   22.0757 C   0  0  0  0  0  0
  -22.4267   -8.0284   21.3543 C   0  0  0  0  0  0
  -21.9904   -9.0262   20.4646 C   0  0  0  0  0  0
  -22.7234  -10.2141   20.3053 C   0  0  0  0  0  0
  -21.6853   -6.0733   22.5280 C   0  0  0  0  0  0
  -21.4019   -6.5637   23.8213 C   0  0  0  0  0  0
  -21.3660   -5.6789   24.9174 C   0  0  0  0  0  0
  -21.6046   -4.3053   24.7225 C   0  0  0  0  0  0
  -21.8821   -3.8142   23.4346 C   0  0  0  0  0  0
  -21.9191   -4.6959   22.3403 C   0  0  0  0  0  0
  -22.7837  -13.5237   21.1835 C   0  0  0  0  0  0
  -22.1652   -4.2146   21.0983 F   0  0  0  0  0  0
  -21.5632   -3.4534   25.7738 F   0  0  0  0  0  0
  -30.0320  -13.3132   20.4414 N   0  0  0  0  0  0
  -26.3005  -12.9377   20.3352 N   0  0  0  0  0  0
  -25.9313  -11.6526   20.5764 N   0  0  0  0  0  0
  -22.0490  -12.8230   22.0406 N   0  0  0  0  0  0
  -25.4281  -15.1906   20.4080 N   0  0  0  0  0  0
  -31.8709  -14.5599   20.1034 O   0  0  0  0  0  0
  -21.6637   -6.8876   21.4241 O   0  0  0  0  0  0
  -22.3508  -14.5536   20.6682 O   0  0  0  0  0  0
  -24.6160  -31.8686   23.2115 C   0  0  0  0  0  0
  -25.9055  -32.4828   23.8401 C   0  0  1  0  0  0
  -27.2232  -27.4216   20.0999 C   0  0  0  0  0  0
  -25.5913  -33.8624   24.2335 N   0  0  0  0  0  0
  -23.4026  -30.4958   21.5522 C   0  0  2  0  0  0
  -24.8475  -28.9696   20.1089 C   0  0  0  0  0  0
  -22.7417  -29.4660   22.4971 C   0  0  0  0  0  0
  -18.0282  -28.1363   22.8489 C   0  0  0  0  0  0
  -24.1485  -36.7308   23.2637 C   0  0  0  0  0  0
  -25.9336  -30.8339   21.3653 C   0  0  0  0  0  0
  -26.0107  -29.4696   20.7079 C   0  0  0  0  0  0
  -27.2021  -28.7044   20.6992 C   0  0  0  0  0  0
  -26.0404  -26.9531   19.4767 C   0  0  0  0  0  0
  -24.8587  -27.7118   19.4880 C   0  0  0  0  0  0
  -23.6109  -29.8372   20.1629 C   0  0  0  0  0  0
  -25.4109  -36.3112   24.0335 C   0  0  1  0  0  0
  -20.5875  -28.3660   23.1300 C   0  0  2  0  0  0
  -20.6767  -26.9391   22.5406 C   0  0  0  0  0  0
  -19.5745  -26.6379   21.5199 C   0  0  0  0  0  0
  -18.1929  -26.7910   22.1618 C   0  0  0  0  0  0
  -19.1529  -28.8823   23.2899 C   0  0  0  0  0  0
  -18.9458  -30.1428   23.8918 C   0  0  0  0  0  0
  -17.6461  -30.6575   24.0559 C   0  0  0  0  0  0
  -25.9039  -34.9479   23.5129 C   0  0  0  0  0  0
  -16.5354  -29.9080   23.6310 C   0  0  0  0  0  0
  -16.7272  -28.6488   23.0348 C   0  0  0  0  0  0
  -26.4484  -31.6597   25.0720 C   0  0  0  0  0  0
  -25.3757  -31.3678   26.1465 C   0  0  0  0  0  0
  -27.0313  -30.3045   24.6079 C   0  0  0  0  0  0
  -27.6058  -32.4307   25.7495 C   0  0  0  0  0  0
  -27.5582  -37.1813   24.8466 C   0  0  0  0  0  0
  -21.4146  -29.3031   22.3703 N   0  0  0  0  0  0
  -26.4295  -37.3802   23.9408 N   0  0  0  0  0  0
  -24.6691  -31.0796   22.1016 N   0  0  0  0  0  0
  -23.4190  -28.8197   23.3008 O   0  0  0  0  0  0
  -28.3707  -26.6461   20.1530 O   0  0  0  0  0  0
  -26.5599  -34.8933   22.4687 O   0  0  0  0  0  0
  -23.5353  -32.1439   23.7515 O   0  0  0  0  0  0
  -28.5953  -18.4354   21.2737 C   0  0  0  0  0  0
  -28.4275  -19.8557   21.3791 C   0  0  0  0  0  0
  -29.8961  -18.0628   21.0543 C   0  0  0  0  0  0
  -29.5946  -20.5832   21.2524 C   0  0  0  0  0  0
  -30.5001  -16.7495   20.8362 C   0  0  0  0  0  0
  -28.9736  -22.8285   20.6522 C   0  0  0  0  0  0
  -30.9856  -22.4298   22.0004 C   0  0  0  0  0  0
  -29.2922  -24.3516   20.6779 C   0  0  0  0  0  0
  -28.1643  -25.2189   20.0705 C   0  0  0  0  0  0
  -29.9620  -15.5875   20.9814 N   0  0  0  0  0  0
  -29.7842  -21.9440   21.3056 N   0  0  0  0  0  0
  -27.9800  -22.4550   20.0192 O   0  0  0  0  0  0
  -30.9291  -19.4698   20.9871 S   0  0  0  0  0  0
  -31.4589  -12.3579   19.1441 H   0  0  0  0  0  0
  -30.2809  -11.2980   19.8601 H   0  0  0  0  0  0
  -29.7381  -11.7656   17.4443 H   0  0  0  0  0  0
  -29.6701  -13.4786   17.7792 H   0  0  0  0  0  0
  -27.8243  -11.3065   18.8290 H   0  0  0  0  0  0
  -27.3681  -12.6257   17.7867 H   0  0  0  0  0  0
  -27.6938  -14.2594   19.5567 H   0  0  0  0  0  0
  -28.6669  -12.0150   21.3831 H   0  0  0  0  0  0
  -28.4642  -13.6806   21.8427 H   0  0  0  0  0  0
  -25.2753   -9.5695   22.4762 H   0  0  0  0  0  0
  -23.9994   -7.4647   22.7482 H   0  0  0  0  0  0
  -21.0839   -8.8782   19.8950 H   0  0  0  0  0  0
  -22.3691  -10.9678   19.6165 H   0  0  0  0  0  0
  -21.2015   -7.6143   23.9718 H   0  0  0  0  0  0
  -21.1477   -6.0516   25.9080 H   0  0  0  0  0  0
  -22.0597   -2.7603   23.2850 H   0  0  0  0  0  0
  -22.4094  -11.9876   22.4776 H   0  0  0  0  0  0
  -21.1118  -13.1263   22.2640 H   0  0  0  0  0  0
  -24.6709  -15.8553   20.5225 H   0  0  0  0  0  0
  -26.2976  -15.6214   20.1180 H   0  0  0  0  0  0
  -26.7126  -32.5547   23.1166 H   0  0  0  0  0  0
  -25.0081  -33.9782   25.0489 H   0  0  0  0  0  0
  -22.6910  -31.3134   21.4179 H   0  0  0  0  0  0
  -23.3763  -35.9625   23.3283 H   0  0  0  0  0  0
  -24.3589  -36.8946   22.2058 H   0  0  0  0  0  0
  -23.7220  -37.6496   23.6668 H   0  0  0  0  0  0
  -26.0478  -31.6047   20.6017 H   0  0  0  0  0  0
  -26.8205  -30.8850   21.9847 H   0  0  0  0  0  0
  -28.0964  -29.0823   21.1759 H   0  0  0  0  0  0
  -26.0034  -25.9955   18.9784 H   0  0  0  0  0  0
  -23.9669  -27.3238   19.0151 H   0  0  0  0  0  0
  -23.7200  -30.6180   19.4087 H   0  0  0  0  0  0
  -22.7332  -29.2618   19.8642 H   0  0  0  0  0  0
  -25.1285  -36.1978   25.0826 H   0  0  0  0  0  0
  -20.9974  -28.3230   24.1417 H   0  0  0  0  0  0
  -20.5658  -26.2268   23.3598 H   0  0  0  0  0  0
  -21.6641  -26.7427   22.1209 H   0  0  0  0  0  0
  -19.6910  -25.6296   21.1217 H   0  0  0  0  0  0
  -19.6677  -27.3193   20.6730 H   0  0  0  0  0  0
  -17.4193  -26.6648   21.4029 H   0  0  0  0  0  0
  -18.0342  -26.0049   22.9008 H   0  0  0  0  0  0
  -19.7938  -30.7223   24.2313 H   0  0  0  0  0  0
  -17.5025  -31.6258   24.5160 H   0  0  0  0  0  0
  -15.5358  -30.2993   23.7614 H   0  0  0  0  0  0
  -15.8672  -28.0810   22.7062 H   0  0  0  0  0  0
  -24.5938  -30.7022   25.7793 H   0  0  0  0  0  0
  -24.8942  -32.2824   26.4937 H   0  0  0  0  0  0
  -25.8124  -30.8831   27.0206 H   0  0  0  0  0  0
  -26.2846  -29.6806   24.1157 H   0  0  0  0  0  0
  -27.4116  -29.7281   25.4522 H   0  0  0  0  0  0
  -27.8670  -30.4360   23.9201 H   0  0  0  0  0  0
  -27.2689  -33.3615   26.2071 H   0  0  0  0  0  0
  -28.3887  -32.6851   25.0339 H   0  0  0  0  0  0
  -28.0702  -31.8424   26.5420 H   0  0  0  0  0  0
  -28.2590  -38.0123   24.7550 H   0  0  0  0  0  0
  -28.1091  -36.2659   24.6256 H   0  0  0  0  0  0
  -27.2298  -37.1417   25.8867 H   0  0  0  0  0  0
  -20.9301  -29.8776   21.6951 H   0  0  0  0  0  0
  -26.0179  -38.2870   24.1447 H   0  0  0  0  0  0
  -27.7646  -17.7485   21.3423 H   0  0  0  0  0  0
  -27.4519  -20.2911   21.5444 H   0  0  0  0  0  0
  -31.5336  -16.8513   20.4886 H   0  0  0  0  0  0
  -31.4637  -21.6531   22.5978 H   0  0  0  0  0  0
  -30.7525  -23.2289   22.7041 H   0  0  0  0  0  0
  -31.7237  -22.7999   21.2873 H   0  0  0  0  0  0
  -30.2231  -24.5268   20.1387 H   0  0  0  0  0  0
  -29.4462  -24.6759   21.7057 H   0  0  0  0  0  0
  -27.2505  -24.9533   20.6076 H   0  0  0  0  0  0
  -28.0198  -24.9457   19.0235 H   0  0  0  0  0  0
  1 25  1  0  0  0
  1 30  2  0  0  0
  1 80  1  0  0  0
  2  3  1  0  0  0
  2 25  1  0  0  0
  2 84  1  0  0  0
  2 85  1  0  0  0
  3  4  1  0  0  0
  3 86  1  0  0  0
  3 87  1  0  0  0
  4  5  1  0  0  0
  4 88  1  0  0  0
  4 89  1  0  0  0
  5  6  1  0  0  0
  5 26  1  0  0  0
  5 90  1  0  0  0
  6 25  1  0  0  0
  6 91  1  0  0  0
  6 92  1  0  0  0
  7  8  2  0  0  0
  7 26  1  0  0  0
  7 29  1  0  0  0
  8  9  1  0  0  0
  8 22  1  0  0  0
  9 10  1  0  0  0
  9 27  2  0  0  0
 10 11  2  0  0  0
 10 15  1  0  0  0
 11 12  1  0  0  0
 11 93  1  0  0  0
 12 13  2  0  0  0
 12 94  1  0  0  0
 13 14  1  0  0  0
 13 31  1  0  0  0
 14 15  2  0  0  0
 14 95  1  0  0  0
 15 96  1  0  0  0
 16 17  2  0  0  0
 16 21  1  0  0  0
 16 31  1  0  0  0
 17 18  1  0  0  0
 17 97  1  0  0  0
 18 19  2  0  0  0
 18 98  1  0  0  0
 19 20  1  0  0  0
 19 24  1  0  0  0
 20 21  2  0  0  0
 20 99  1  0  0  0
 21 23  1  0  0  0
 22 28  1  0  0  0
 22 32  2  0  0  0
 26 27  1  0  0  0
 28100  1  0  0  0
 28101  1  0  0  0
 29102  1  0  0  0
 29103  1  0  0  0
 33 34  1  0  0  0
 33 66  1  0  0  0
 33 70  2  0  0  0
 34 36  1  0  0  0
 34 59  1  0  0  0
 34104  1  0  0  0
 35 44  2  0  0  0
 35 45  1  0  0  0
 35 68  1  0  0  0
 36 56  1  0  0  0
 36105  1  0  0  0
 37 39  1  0  0  0
 37 47  1  0  0  0
 37 66  1  0  0  0
 37106  1  0  0  0
 38 43  2  0  0  0
 38 46  1  0  0  0
 38 47  1  0  0  0
 39 64  1  0  0  0
 39 67  2  0  0  0
 40 52  1  0  0  0
 40 53  2  0  0  0
 40 58  1  0  0  0
 41107  1  0  0  0
 41108  1  0  0  0
 41109  1  0  0  0
 41 48  1  0  0  0
 42 43  1  0  0  0
 42 66  1  0  0  0
 42110  1  0  0  0
 42111  1  0  0  0
 43 44  1  0  0  0
 44112  1  0  0  0
 45 46  2  0  0  0
 45113  1  0  0  0
 46114  1  0  0  0
 47115  1  0  0  0
 47116  1  0  0  0
 48 56  1  0  0  0
 48 65  1  0  0  0
 48117  1  0  0  0
 49 50  1  0  0  0
 49 53  1  0  0  0
 49 64  1  0  0  0
 49118  1  0  0  0
 50 51  1  0  0  0
 50119  1  0  0  0
 50120  1  0  0  0
 51 52  1  0  0  0
 51121  1  0  0  0
 51122  1  0  0  0
 52123  1  0  0  0
 52124  1  0  0  0
 53 54  1  0  0  0
 54 55  2  0  0  0
 54125  1  0  0  0
 55 57  1  0  0  0
 55126  1  0  0  0
 56 69  2  0  0  0
 57 58  2  0  0  0
 57127  1  0  0  0
 58128  1  0  0  0
 59 60  1  0  0  0
 59 61  1  0  0  0
 59 62  1  0  0  0
 60129  1  0  0  0
 60130  1  0  0  0
 60131  1  0  0  0
 61132  1  0  0  0
 61133  1  0  0  0
 61134  1  0  0  0
 62135  1  0  0  0
 62136  1  0  0  0
 62137  1  0  0  0
 63 65  1  0  0  0
 63138  1  0  0  0
 63139  1  0  0  0
 63140  1  0  0  0
 64141  1  0  0  0
 65142  1  0  0  0
 68 79  1  0  0  0
 71 72  1  0  0  0
 71 73  2  0  0  0
 71143  1  0  0  0
 72 74  2  0  0  0
 72144  1  0  0  0
 73 75  1  0  0  0
 73 83  1  0  0  0
 74 81  1  0  0  0
 74 83  1  0  0  0
 75 80  2  0  0  0
 75145  1  0  0  0
 76 78  1  0  0  0
 76 81  1  0  0  0
 76 82  2  0  0  0
 77 81  1  0  0  0
 77146  1  0  0  0
 77147  1  0  0  0
 77148  1  0  0  0
 78 79  1  0  0  0
 78149  1  0  0  0
 78150  1  0  0  0
 79151  1  0  0  0
 79152  1  0  0  0
M  ISO  4   1 100  68 101  79 101  80 100
M  END
> <chiral flag>
0

> <version>
0

> <s_m_source_file>
/data/baiqing/PycharmProjects/Reinvent-master-3.2/result/LINK_invent/BTK/process_docking_weight1_custom_product_contain_oxygen_bond_distance_aromatic_linkinvent_7_9_3/rearranged_h_0150.sdf

> <i_m_source_file_index>
68

> <r_mmod_Potential_Energy-OPLS-2005>
-26.3051319122314

> <r_mmod_Stretch_Energy-OPLS-2005>
43.704273223877

> <r_mmod_Bend_Energy-OPLS-2005>
101.467170715332

> <r_mmod_Torsional_Energy-OPLS-2005>
197.821426391602

> <r_mmod_Improper_Torsional_Energy-OPLS-2005>
3.85200214385986

> <r_mmod_Van_der_Waal_Energy-OPLS-2005>
169.890975952148

> <r_mmod_Electrostatic_Energy-OPLS-2005>
-368.939178466797

> <r_mmod_Solvation_Energy-OPLS-2005>
-193.36833190918

> <b_mmod_Minimization_Converged-OPLS-2005>
0

> <r_mmod_RMS_Derivative-OPLS-2005>
1.3097140789032

$$$$
68
                    3D
 Structure written by MMmdl.
159168  0  0  1  0            999 V2000
  -30.6893  -14.4879   20.5623 C   0  0  0  0  0  0
  -30.4270  -12.3114   19.4246 C   0  0  0  0  0  0
  -29.4973  -12.5051   18.2081 C   0  0  0  0  0  0
  -28.0177  -12.3647   18.6189 C   0  0  0  0  0  0
  -27.6627  -13.2050   19.8745 C   0  0  2  0  0  0
  -28.7047  -12.9852   20.9953 C   0  0  0  0  0  0
  -25.2603  -13.8157   20.5681 C   0  0  0  0  0  0
  -24.1851  -13.0439   20.9177 C   0  0  0  0  0  0
  -24.6399  -11.6904   20.8736 C   0  0  0  0  0  0
  -23.9063  -10.4292   21.0403 C   0  0  0  0  0  0
  -24.3619   -9.4207   21.9181 C   0  0  0  0  0  0
  -23.6295   -8.2244   22.0753 C   0  0  0  0  0  0
  -22.4275   -8.0282   21.3544 C   0  0  0  0  0  0
  -21.9909   -9.0255   20.4649 C   0  0  0  0  0  0
  -22.7237  -10.2134   20.3055 C   0  0  0  0  0  0
  -21.6853   -6.0736   22.5280 C   0  0  0  0  0  0
  -21.4010   -6.5641   23.8213 C   0  0  0  0  0  0
  -21.3658   -5.6790   24.9175 C   0  0  0  0  0  0
  -21.6044   -4.3054   24.7223 C   0  0  0  0  0  0
  -21.8819   -3.8147   23.4344 C   0  0  0  0  0  0
  -21.9194   -4.6964   22.3401 C   0  0  0  0  0  0
  -22.7875  -13.5241   21.1842 C   0  0  0  0  0  0
  -22.1663   -4.2151   21.0978 F   0  0  0  0  0  0
  -21.5630   -3.4538   25.7735 F   0  0  0  0  0  0
  -30.0365  -13.2972   20.4459 N   0  0  0  0  0  0
  -26.3033  -12.9321   20.3360 N   0  0  0  0  0  0
  -25.9327  -11.6484   20.5764 N   0  0  0  0  0  0
  -22.0511  -12.8235   22.0397 N   0  0  0  0  0  0
  -25.4348  -15.1874   20.4088 N   0  0  0  0  0  0
  -31.8204  -14.6643   20.0972 O   0  0  0  0  0  0
  -21.6640   -6.8879   21.4241 O   0  0  0  0  0  0
  -22.3565  -14.5550   20.6694 O   0  0  0  0  0  0
  -24.6159  -31.8677   23.2100 C   0  0  0  0  0  0
  -25.9050  -32.4822   23.8398 C   0  0  1  0  0  0
  -27.2322  -27.4271   20.0975 C   0  0  0  0  0  0
  -25.5910  -33.8620   24.2333 N   0  0  0  0  0  0
  -23.4047  -30.4917   21.5505 C   0  0  2  0  0  0
  -24.8522  -28.9588   20.1141 C   0  0  0  0  0  0
  -22.7422  -29.4658   22.4984 C   0  0  0  0  0  0
  -18.0274  -28.1375   22.8494 C   0  0  0  0  0  0
  -24.1487  -36.7309   23.2637 C   0  0  0  0  0  0
  -25.9354  -30.8317   21.3644 C   0  0  0  0  0  0
  -26.0145  -29.4665   20.7098 C   0  0  0  0  0  0
  -27.2112  -28.7095   20.6960 C   0  0  0  0  0  0
  -26.0547  -26.9418   19.4910 C   0  0  0  0  0  0
  -24.8676  -27.6959   19.4998 C   0  0  0  0  0  0
  -23.6135  -29.8248   20.1652 C   0  0  0  0  0  0
  -25.4108  -36.3110   24.0341 C   0  0  1  0  0  0
  -20.5867  -28.3663   23.1317 C   0  0  2  0  0  0
  -20.6762  -26.9397   22.5421 C   0  0  0  0  0  0
  -19.5743  -26.6382   21.5214 C   0  0  0  0  0  0
  -18.1918  -26.7926   22.1618 C   0  0  0  0  0  0
  -19.1524  -28.8836   23.2901 C   0  0  0  0  0  0
  -18.9451  -30.1445   23.8905 C   0  0  0  0  0  0
  -17.6453  -30.6584   24.0564 C   0  0  0  0  0  0
  -25.9038  -34.9476   23.5131 C   0  0  0  0  0  0
  -16.5343  -29.9084   23.6328 C   0  0  0  0  0  0
  -16.7263  -28.6502   23.0349 C   0  0  0  0  0  0
  -26.4476  -31.6596   25.0723 C   0  0  0  0  0  0
  -25.3750  -31.3721   26.1483 C   0  0  0  0  0  0
  -27.0284  -30.3027   24.6096 C   0  0  0  0  0  0
  -27.6067  -32.4305   25.7473 C   0  0  0  0  0  0
  -27.5584  -37.1805   24.8463 C   0  0  0  0  0  0
  -21.4148  -29.3032   22.3726 N   0  0  0  0  0  0
  -26.4293  -37.3794   23.9413 N   0  0  0  0  0  0
  -24.6703  -31.0776   22.1001 N   0  0  0  0  0  0
  -23.4190  -28.8196   23.3025 O   0  0  0  0  0  0
  -28.3707  -26.6451   20.1049 O   0  0  0  0  0  0
  -26.5590  -34.8928   22.4685 O   0  0  0  0  0  0
  -23.5350  -32.1425   23.7493 O   0  0  0  0  0  0
  -31.0704  -18.9310   20.6042 C   0  0  0  0  0  0
  -29.9492  -19.3764   21.2687 C   0  0  0  0  0  0
  -30.1285  -16.8970   21.0638 C   0  0  0  0  0  0
  -30.1655  -23.9313   19.9467 C   0  0  0  0  0  0
  -30.4217  -22.4063   19.9477 C   0  0  0  0  0  0
  -28.3694  -22.8695   21.0571 C   0  0  0  0  0  0
  -28.6523  -24.0981   20.1553 C   0  0  2  0  0  0
  -27.8954  -23.9602   18.8163 C   0  0  0  0  0  0
  -29.5938  -20.7868   21.7006 C   0  0  0  0  0  0
  -28.2506  -25.4287   20.8759 C   0  0  0  0  0  0
  -31.1575  -17.5325   20.4866 N   0  0  0  0  0  0
  -29.9606  -15.4786   21.1193 N   0  0  0  0  0  0
  -29.2635  -21.7645   20.6198 N   0  3  2  0  0  0
  -28.9502  -18.0148   21.7531 S   0  0  0  0  0  0
  -31.4712  -12.4120   19.1225 H   0  0  0  0  0  0
  -30.3314  -11.3002   19.8233 H   0  0  0  0  0  0
  -29.7394  -11.7792   17.4305 H   0  0  0  0  0  0
  -29.6645  -13.4899   17.7688 H   0  0  0  0  0  0
  -27.8276  -11.3088   18.8151 H   0  0  0  0  0  0
  -27.3678  -12.6386   17.7871 H   0  0  0  0  0  0
  -27.7064  -14.2526   19.5757 H   0  0  0  0  0  0
  -28.6836  -11.9475   21.3315 H   0  0  0  0  0  0
  -28.4620  -13.5778   21.8786 H   0  0  0  0  0  0
  -25.2770   -9.5683   22.4748 H   0  0  0  0  0  0
  -24.0008   -7.4634   22.7469 H   0  0  0  0  0  0
  -21.0840   -8.8774   19.8954 H   0  0  0  0  0  0
  -22.3699  -10.9672   19.6161 H   0  0  0  0  0  0
  -21.1995   -7.6148   23.9716 H   0  0  0  0  0  0
  -21.1480   -6.0520   25.9077 H   0  0  0  0  0  0
  -22.0597   -2.7609   23.2840 H   0  0  0  0  0  0
  -22.4115  -11.9886   22.4775 H   0  0  0  0  0  0
  -21.1132  -13.1268   22.2606 H   0  0  0  0  0  0
  -24.6679  -15.8430   20.5118 H   0  0  0  0  0  0
  -26.2833  -15.6220   20.0690 H   0  0  0  0  0  0
  -26.7123  -32.5530   23.1165 H   0  0  0  0  0  0
  -25.0092  -33.9784   25.0500 H   0  0  0  0  0  0
  -22.6937  -31.3089   21.4118 H   0  0  0  0  0  0
  -23.3751  -35.9638   23.3309 H   0  0  0  0  0  0
  -24.3585  -36.8909   22.2050 H   0  0  0  0  0  0
  -23.7237  -37.6519   23.6640 H   0  0  0  0  0  0
  -26.0496  -31.5989   20.5972 H   0  0  0  0  0  0
  -26.8227  -30.8835   21.9837 H   0  0  0  0  0  0
  -28.1081  -29.0953   21.1604 H   0  0  0  0  0  0
  -26.0467  -25.9765   19.0109 H   0  0  0  0  0  0
  -23.9762  -27.3003   19.0328 H   0  0  0  0  0  0
  -23.7203  -30.5994   19.4049 H   0  0  0  0  0  0
  -22.7379  -29.2434   19.8700 H   0  0  0  0  0  0
  -25.1284  -36.1972   25.0835 H   0  0  0  0  0  0
  -20.9961  -28.3223   24.1438 H   0  0  0  0  0  0
  -20.5657  -26.2269   23.3608 H   0  0  0  0  0  0
  -21.6632  -26.7434   22.1215 H   0  0  0  0  0  0
  -19.6901  -25.6296   21.1233 H   0  0  0  0  0  0
  -19.6690  -27.3200   20.6751 H   0  0  0  0  0  0
  -17.4197  -26.6694   21.4007 H   0  0  0  0  0  0
  -18.0303  -26.0057   22.9000 H   0  0  0  0  0  0
  -19.7929  -30.7258   24.2269 H   0  0  0  0  0  0
  -17.5011  -31.6266   24.5162 H   0  0  0  0  0  0
  -15.5344  -30.2986   23.7655 H   0  0  0  0  0  0
  -15.8663  -28.0828   22.7049 H   0  0  0  0  0  0
  -24.5912  -30.7069   25.7839 H   0  0  0  0  0  0
  -24.8951  -32.2882   26.4934 H   0  0  0  0  0  0
  -25.8109  -30.8896   27.0238 H   0  0  0  0  0  0
  -26.2807  -29.6802   24.1162 H   0  0  0  0  0  0
  -27.4056  -29.7255   25.4549 H   0  0  0  0  0  0
  -27.8654  -30.4332   23.9232 H   0  0  0  0  0  0
  -27.2704  -33.3607   26.2067 H   0  0  0  0  0  0
  -28.3864  -32.6857   25.0283 H   0  0  0  0  0  0
  -28.0744  -31.8412   26.5370 H   0  0  0  0  0  0
  -28.2609  -38.0096   24.7509 H   0  0  0  0  0  0
  -28.1072  -36.2631   24.6282 H   0  0  0  0  0  0
  -27.2310  -37.1445   25.8869 H   0  0  0  0  0  0
  -20.9304  -29.8766   21.6963 H   0  0  0  0  0  0
  -26.0185  -38.2872   24.1417 H   0  0  0  0  0  0
  -31.8771  -19.5354   20.2118 H   0  0  0  0  0  0
  -30.5265  -24.4150   19.0381 H   0  0  0  0  0  0
  -30.7081  -24.3798   20.7804 H   0  0  0  0  0  0
  -31.3719  -22.1720   20.4298 H   0  0  0  0  0  0
  -30.4798  -22.0273   18.9266 H   0  0  0  0  0  0
  -27.3219  -22.5646   21.0404 H   0  0  0  0  0  0
  -28.6071  -23.1237   22.0924 H   0  0  0  0  0  0
  -28.1936  -23.0712   18.2606 H   0  0  0  0  0  0
  -28.0805  -24.8174   18.1681 H   0  0  0  0  0  0
  -26.8195  -23.8888   18.9749 H   0  0  0  0  0  0
  -30.3895  -21.1924   22.3270 H   0  0  0  0  0  0
  -28.7278  -20.7182   22.3606 H   0  0  0  0  0  0
  -28.8701  -25.5592   21.7639 H   0  0  0  0  0  0
  -27.2370  -25.3131   21.2662 H   0  0  0  0  0  0
  -29.0881  -15.1722   21.5193 H   0  0  0  0  0  0
  -28.7539  -21.2580   19.9114 H   0  0  0  0  0  0
  1 25  1  0  0  0
  1 30  2  0  0  0
  1 82  1  0  0  0
  2  3  1  0  0  0
  2 25  1  0  0  0
  2 85  1  0  0  0
  2 86  1  0  0  0
  3  4  1  0  0  0
  3 87  1  0  0  0
  3 88  1  0  0  0
  4  5  1  0  0  0
  4 89  1  0  0  0
  4 90  1  0  0  0
  5  6  1  0  0  0
  5 26  1  0  0  0
  5 91  1  0  0  0
  6 25  1  0  0  0
  6 92  1  0  0  0
  6 93  1  0  0  0
  7  8  2  0  0  0
  7 26  1  0  0  0
  7 29  1  0  0  0
  8  9  1  0  0  0
  8 22  1  0  0  0
  9 10  1  0  0  0
  9 27  2  0  0  0
 10 11  2  0  0  0
 10 15  1  0  0  0
 11 12  1  0  0  0
 11 94  1  0  0  0
 12 13  2  0  0  0
 12 95  1  0  0  0
 13 14  1  0  0  0
 13 31  1  0  0  0
 14 15  2  0  0  0
 14 96  1  0  0  0
 15 97  1  0  0  0
 16 17  2  0  0  0
 16 21  1  0  0  0
 16 31  1  0  0  0
 17 18  1  0  0  0
 17 98  1  0  0  0
 18 19  2  0  0  0
 18 99  1  0  0  0
 19 20  1  0  0  0
 19 24  1  0  0  0
 20 21  2  0  0  0
 20100  1  0  0  0
 21 23  1  0  0  0
 22 28  1  0  0  0
 22 32  2  0  0  0
 26 27  1  0  0  0
 28101  1  0  0  0
 28102  1  0  0  0
 29103  1  0  0  0
 29104  1  0  0  0
 33 34  1  0  0  0
 33 66  1  0  0  0
 33 70  2  0  0  0
 34 36  1  0  0  0
 34 59  1  0  0  0
 34105  1  0  0  0
 35 44  2  0  0  0
 35 45  1  0  0  0
 35 68  1  0  0  0
 36 56  1  0  0  0
 36106  1  0  0  0
 37 39  1  0  0  0
 37 47  1  0  0  0
 37 66  1  0  0  0
 37107  1  0  0  0
 38 43  2  0  0  0
 38 46  1  0  0  0
 38 47  1  0  0  0
 39 64  1  0  0  0
 39 67  2  0  0  0
 40 52  1  0  0  0
 40 53  2  0  0  0
 40 58  1  0  0  0
 41108  1  0  0  0
 41109  1  0  0  0
 41110  1  0  0  0
 41 48  1  0  0  0
 42 43  1  0  0  0
 42 66  1  0  0  0
 42111  1  0  0  0
 42112  1  0  0  0
 43 44  1  0  0  0
 44113  1  0  0  0
 45 46  2  0  0  0
 45114  1  0  0  0
 46115  1  0  0  0
 47116  1  0  0  0
 47117  1  0  0  0
 48 56  1  0  0  0
 48 65  1  0  0  0
 48118  1  0  0  0
 49 50  1  0  0  0
 49 53  1  0  0  0
 49 64  1  0  0  0
 49119  1  0  0  0
 50 51  1  0  0  0
 50120  1  0  0  0
 50121  1  0  0  0
 51 52  1  0  0  0
 51122  1  0  0  0
 51123  1  0  0  0
 52124  1  0  0  0
 52125  1  0  0  0
 53 54  1  0  0  0
 54 55  2  0  0  0
 54126  1  0  0  0
 55 57  1  0  0  0
 55127  1  0  0  0
 56 69  2  0  0  0
 57 58  2  0  0  0
 57128  1  0  0  0
 58129  1  0  0  0
 59 60  1  0  0  0
 59 61  1  0  0  0
 59 62  1  0  0  0
 60130  1  0  0  0
 60131  1  0  0  0
 60132  1  0  0  0
 61133  1  0  0  0
 61134  1  0  0  0
 61135  1  0  0  0
 62136  1  0  0  0
 62137  1  0  0  0
 62138  1  0  0  0
 63 65  1  0  0  0
 63139  1  0  0  0
 63140  1  0  0  0
 63141  1  0  0  0
 64142  1  0  0  0
 65143  1  0  0  0
 68 80  1  0  0  0
 71 72  2  0  0  0
 71 81  1  0  0  0
 71144  1  0  0  0
 72 79  1  0  0  0
 72 84  1  0  0  0
 73 81  2  0  0  0
 73 82  1  0  0  0
 73 84  1  0  0  0
 74 75  1  0  0  0
 74 77  1  0  0  0
 74145  1  0  0  0
 74146  1  0  0  0
 75 83  1  0  0  0
 75147  1  0  0  0
 75148  1  0  0  0
 76 77  1  0  0  0
 76 83  1  0  0  0
 76149  1  0  0  0
 76150  1  0  0  0
 77 78  1  0  0  0
 77 80  1  0  0  0
 78151  1  0  0  0
 78152  1  0  0  0
 78153  1  0  0  0
 79154  1  0  0  0
 79155  1  0  0  0
 79 83  1  0  0  0
 80156  1  0  0  0
 80157  1  0  0  0
 82158  1  0  0  0
 83159  1  0  0  0
M  CHG  1  83   1
M  ISO  4   1 100  68 101  80 101  82 100
M  END
> <chiral flag>
0

> <version>
0

> <s_m_source_file>
/data/baiqing/PycharmProjects/Reinvent-master-3.2/result/LINK_invent/BTK/process_docking_weight1_custom_product_contain_oxygen_bond_distance_aromatic_linkinvent_7_9_3/rearranged_h_0150.sdf

> <i_m_source_file_index>
69

> <r_mmod_Potential_Energy-OPLS-2005>
-155.337112426758

> <r_mmod_Stretch_Energy-OPLS-2005>
39.2681732177734

> <r_mmod_Bend_Energy-OPLS-2005>
127.461357116699

> <r_mmod_Torsional_Energy-OPLS-2005>
294.490509033203

> <r_mmod_Improper_Torsional_Energy-OPLS-2005>
3.42385411262512

> <r_mmod_Van_der_Waal_Energy-OPLS-2005>
126.104705810547

> <r_mmod_Electrostatic_Energy-OPLS-2005>
-286.450805664062

> <r_mmod_Solvation_Energy-OPLS-2005>
-474.030944824219

> <b_mmod_Minimization_Converged-OPLS-2005>
0

> <r_mmod_RMS_Derivative-OPLS-2005>
0.560734689235687

$$$$
69
                    3D
 Structure written by MMmdl.
153161  0  0  1  0            999 V2000
  -30.6578  -14.5602   20.5490 C   0  0  0  0  0  0
  -30.4308  -12.3596   19.4266 C   0  0  0  0  0  0
  -29.4966  -12.5036   18.2068 C   0  0  0  0  0  0
  -28.0191  -12.3501   18.6228 C   0  0  0  0  0  0
  -27.6530  -13.2097   19.8627 C   0  0  2  0  0  0
  -28.6972  -13.0315   20.9857 C   0  0  0  0  0  0
  -25.2559  -13.8156   20.5677 C   0  0  0  0  0  0
  -24.1823  -13.0432   20.9187 C   0  0  0  0  0  0
  -24.6381  -11.6900   20.8738 C   0  0  0  0  0  0
  -23.9051  -10.4289   21.0403 C   0  0  0  0  0  0
  -24.3608   -9.4205   21.9179 C   0  0  0  0  0  0
  -23.6287   -8.2237   22.0751 C   0  0  0  0  0  0
  -22.4269   -8.0273   21.3542 C   0  0  0  0  0  0
  -21.9900   -9.0246   20.4645 C   0  0  0  0  0  0
  -22.7225  -10.2127   20.3052 C   0  0  0  0  0  0
  -21.6851   -6.0728   22.5280 C   0  0  0  0  0  0
  -21.4012   -6.5635   23.8212 C   0  0  0  0  0  0
  -21.3662   -5.6790   24.9177 C   0  0  0  0  0  0
  -21.6044   -4.3053   24.7229 C   0  0  0  0  0  0
  -21.8821   -3.8142   23.4352 C   0  0  0  0  0  0
  -21.9191   -4.6956   22.3406 C   0  0  0  0  0  0
  -22.7849  -13.5231   21.1855 C   0  0  0  0  0  0
  -22.1660   -4.2142   21.0983 F   0  0  0  0  0  0
  -21.5631   -3.4538   25.7742 F   0  0  0  0  0  0
  -30.0144  -13.3632   20.4208 N   0  0  0  0  0  0
  -26.2980  -12.9325   20.3310 N   0  0  0  0  0  0
  -25.9303  -11.6486   20.5748 N   0  0  0  0  0  0
  -22.0491  -12.8229   22.0416 N   0  0  0  0  0  0
  -25.4275  -15.1878   20.4095 N   0  0  0  0  0  0
  -31.8157  -14.7291   20.1568 O   0  0  0  0  0  0
  -21.6635   -6.8870   21.4239 O   0  0  0  0  0  0
  -22.3538  -14.5538   20.6701 O   0  0  0  0  0  0
  -24.6191  -31.8632   23.2045 C   0  0  0  0  0  0
  -25.9064  -32.4796   23.8360 C   0  0  1  0  0  0
  -27.2322  -27.3759   20.1191 C   0  0  0  0  0  0
  -25.5906  -33.8594   24.2298 N   0  0  0  0  0  0
  -23.4103  -30.4834   21.5460 C   0  0  2  0  0  0
  -24.8565  -28.9329   20.1212 C   0  0  0  0  0  0
  -22.7433  -29.4633   22.4974 C   0  0  0  0  0  0
  -18.0271  -28.1384   22.8490 C   0  0  0  0  0  0
  -24.1486  -36.7302   23.2636 C   0  0  0  0  0  0
  -25.9428  -30.8114   21.3640 C   0  0  0  0  0  0
  -26.0190  -29.4390   20.7157 C   0  0  0  0  0  0
  -27.2112  -28.6710   20.7021 C   0  0  0  0  0  0
  -26.0506  -26.8907   19.5233 C   0  0  0  0  0  0
  -24.8692  -27.6606   19.5206 C   0  0  0  0  0  0
  -23.6225  -29.8088   20.1637 C   0  0  0  0  0  0
  -25.4112  -36.3098   24.0334 C   0  0  1  0  0  0
  -20.5867  -28.3672   23.1312 C   0  0  2  0  0  0
  -20.6763  -26.9404   22.5418 C   0  0  0  0  0  0
  -19.5741  -26.6388   21.5213 C   0  0  0  0  0  0
  -18.1917  -26.7932   22.1619 C   0  0  0  0  0  0
  -19.1522  -28.8844   23.2897 C   0  0  0  0  0  0
  -18.9452  -30.1448   23.8911 C   0  0  0  0  0  0
  -17.6456  -30.6592   24.0564 C   0  0  0  0  0  0
  -25.9043  -34.9461   23.5118 C   0  0  0  0  0  0
  -16.5346  -29.9095   23.6329 C   0  0  0  0  0  0
  -16.7260  -28.6509   23.0352 C   0  0  0  0  0  0
  -26.4476  -31.6591   25.0707 C   0  0  0  0  0  0
  -25.3728  -31.3718   26.1450 C   0  0  0  0  0  0
  -27.0311  -30.3026   24.6112 C   0  0  0  0  0  0
  -27.6047  -32.4316   25.7473 C   0  0  0  0  0  0
  -27.5584  -37.1806   24.8463 C   0  0  0  0  0  0
  -21.4154  -29.3031   22.3715 N   0  0  0  0  0  0
  -26.4293  -37.3789   23.9411 N   0  0  0  0  0  0
  -24.6759  -31.0687   22.0965 N   0  0  0  0  0  0
  -23.4180  -28.8177   23.3039 O   0  0  0  0  0  0
  -28.4053  -26.6369   20.0703 O   0  0  0  0  0  0
  -26.5606  -34.8915   22.4681 O   0  0  0  0  0  0
  -23.5372  -32.1407   23.7412 O   0  0  0  0  0  0
  -29.2600  -19.3450   21.1622 C   0  0  0  0  0  0
  -29.9034  -18.1594   20.6253 C   0  0  0  0  0  0
  -29.1291  -20.3864   20.2599 C   0  0  0  0  0  0
  -28.9264  -22.8050   19.8343 C   0  0  0  0  0  0
  -28.0051  -25.3403   22.1404 C   0  0  0  0  0  0
  -30.3629  -16.9380   21.4333 C   0  0  0  0  0  0
  -27.9829  -24.0540   19.8963 C   0  0  0  0  0  0
  -28.5044  -25.3133   20.6854 C   0  0  1  0  0  0
  -30.1968  -18.2459   19.3433 N   0  0  0  0  0  0
  -28.5610  -21.6323   20.4228 N   0  0  0  0  0  0
  -29.9075  -15.5879   21.0154 N   0  0  0  0  0  0
  -29.9986  -22.9183   19.2344 O   0  0  0  0  0  0
  -29.7742  -19.7751   18.7596 S   0  0  0  0  0  0
  -31.4711  -12.4843   19.1205 H   0  0  0  0  0  0
  -30.3606  -11.3567   19.8510 H   0  0  0  0  0  0
  -29.7515  -11.7618   17.4483 H   0  0  0  0  0  0
  -29.6470  -13.4795   17.7419 H   0  0  0  0  0  0
  -27.8459  -11.2956   18.8403 H   0  0  0  0  0  0
  -27.3647  -12.5970   17.7857 H   0  0  0  0  0  0
  -27.6825  -14.2510   19.5404 H   0  0  0  0  0  0
  -28.6983  -12.0022   21.3469 H   0  0  0  0  0  0
  -28.4500  -13.6464   21.8526 H   0  0  0  0  0  0
  -25.2753   -9.5685   22.4750 H   0  0  0  0  0  0
  -24.0002   -7.4629   22.7470 H   0  0  0  0  0  0
  -21.0830   -8.8758   19.8954 H   0  0  0  0  0  0
  -22.3675  -10.9662   19.6164 H   0  0  0  0  0  0
  -21.2000   -7.6142   23.9712 H   0  0  0  0  0  0
  -21.1485   -6.0522   25.9080 H   0  0  0  0  0  0
  -22.0598   -2.7602   23.2855 H   0  0  0  0  0  0
  -22.4110  -11.9893   22.4810 H   0  0  0  0  0  0
  -21.1103  -13.1248   22.2615 H   0  0  0  0  0  0
  -24.6595  -15.8412   20.5198 H   0  0  0  0  0  0
  -26.2747  -15.6279   20.0730 H   0  0  0  0  0  0
  -26.7131  -32.5488   23.1113 H   0  0  0  0  0  0
  -25.0067  -33.9750   25.0452 H   0  0  0  0  0  0
  -22.7024  -31.3019   21.4010 H   0  0  0  0  0  0
  -23.3747  -35.9637   23.3302 H   0  0  0  0  0  0
  -24.3577  -36.8913   22.2050 H   0  0  0  0  0  0
  -23.7236  -37.6505   23.6651 H   0  0  0  0  0  0
  -26.0608  -31.5727   20.5918 H   0  0  0  0  0  0
  -26.8288  -30.8663   21.9850 H   0  0  0  0  0  0
  -28.1135  -29.0632   21.1507 H   0  0  0  0  0  0
  -26.0418  -25.9207   19.0483 H   0  0  0  0  0  0
  -23.9760  -27.2660   19.0559 H   0  0  0  0  0  0
  -23.7383  -30.5800   19.4014 H   0  0  0  0  0  0
  -22.7445  -29.2321   19.8665 H   0  0  0  0  0  0
  -25.1293  -36.1960   25.0827 H   0  0  0  0  0  0
  -20.9960  -28.3246   24.1433 H   0  0  0  0  0  0
  -20.5669  -26.2277   23.3605 H   0  0  0  0  0  0
  -21.6630  -26.7440   22.1212 H   0  0  0  0  0  0
  -19.6896  -25.6301   21.1232 H   0  0  0  0  0  0
  -19.6688  -27.3206   20.6747 H   0  0  0  0  0  0
  -17.4194  -26.6687   21.4011 H   0  0  0  0  0  0
  -18.0308  -26.0062   22.9000 H   0  0  0  0  0  0
  -19.7930  -30.7252   24.2289 H   0  0  0  0  0  0
  -17.5016  -31.6271   24.5167 H   0  0  0  0  0  0
  -15.5348  -30.3003   23.7649 H   0  0  0  0  0  0
  -15.8653  -28.0837   22.7069 H   0  0  0  0  0  0
  -24.5892  -30.7077   25.7783 H   0  0  0  0  0  0
  -24.8926  -32.2878   26.4899 H   0  0  0  0  0  0
  -25.8062  -30.8878   27.0211 H   0  0  0  0  0  0
  -26.2867  -29.6789   24.1146 H   0  0  0  0  0  0
  -27.4048  -29.7264   25.4587 H   0  0  0  0  0  0
  -27.8714  -30.4335   23.9290 H   0  0  0  0  0  0
  -27.2668  -33.3607   26.2077 H   0  0  0  0  0  0
  -28.3841  -32.6896   25.0290 H   0  0  0  0  0  0
  -28.0733  -31.8424   26.5367 H   0  0  0  0  0  0
  -28.2605  -38.0102   24.7520 H   0  0  0  0  0  0
  -28.1076  -36.2634   24.6279 H   0  0  0  0  0  0
  -27.2299  -37.1445   25.8864 H   0  0  0  0  0  0
  -20.9318  -29.8749   21.6930 H   0  0  0  0  0  0
  -26.0177  -38.2865   24.1415 H   0  0  0  0  0  0
  -28.9638  -19.3968   22.2003 H   0  0  0  0  0  0
  -28.2317  -24.4033   22.6496 H   0  0  0  0  0  0
  -26.9264  -25.4901   22.1920 H   0  0  0  0  0  0
  -28.4810  -26.1429   22.7044 H   0  0  0  0  0  0
  -30.0432  -17.0588   22.4684 H   0  0  0  0  0  0
  -31.4527  -16.9442   21.4864 H   0  0  0  0  0  0
  -26.9983  -23.7586   20.2593 H   0  0  0  0  0  0
  -27.8274  -24.3491   18.8590 H   0  0  0  0  0  0
  -29.5847  -25.1847   20.7601 H   0  0  0  0  0  0
  -27.7513  -21.6736   21.0266 H   0  0  0  0  0  0
  -28.9474  -15.3679   21.2278 H   0  0  0  0  0  0
  1 25  1  0  0  0
  1 30  2  0  0  0
  1 81  1  0  0  0
  2  3  1  0  0  0
  2 25  1  0  0  0
  2 84  1  0  0  0
  2 85  1  0  0  0
  3  4  1  0  0  0
  3 86  1  0  0  0
  3 87  1  0  0  0
  4  5  1  0  0  0
  4 88  1  0  0  0
  4 89  1  0  0  0
  5  6  1  0  0  0
  5 26  1  0  0  0
  5 90  1  0  0  0
  6 25  1  0  0  0
  6 91  1  0  0  0
  6 92  1  0  0  0
  7  8  2  0  0  0
  7 26  1  0  0  0
  7 29  1  0  0  0
  8  9  1  0  0  0
  8 22  1  0  0  0
  9 10  1  0  0  0
  9 27  2  0  0  0
 10 11  2  0  0  0
 10 15  1  0  0  0
 11 12  1  0  0  0
 11 93  1  0  0  0
 12 13  2  0  0  0
 12 94  1  0  0  0
 13 14  1  0  0  0
 13 31  1  0  0  0
 14 15  2  0  0  0
 14 95  1  0  0  0
 15 96  1  0  0  0
 16 17  2  0  0  0
 16 21  1  0  0  0
 16 31  1  0  0  0
 17 18  1  0  0  0
 17 97  1  0  0  0
 18 19  2  0  0  0
 18 98  1  0  0  0
 19 20  1  0  0  0
 19 24  1  0  0  0
 20 21  2  0  0  0
 20 99  1  0  0  0
 21 23  1  0  0  0
 22 28  1  0  0  0
 22 32  2  0  0  0
 26 27  1  0  0  0
 28100  1  0  0  0
 28101  1  0  0  0
 29102  1  0  0  0
 29103  1  0  0  0
 33 34  1  0  0  0
 33 66  1  0  0  0
 33 70  2  0  0  0
 34 36  1  0  0  0
 34 59  1  0  0  0
 34104  1  0  0  0
 35 44  2  0  0  0
 35 45  1  0  0  0
 35 68  1  0  0  0
 36 56  1  0  0  0
 36105  1  0  0  0
 37 39  1  0  0  0
 37 47  1  0  0  0
 37 66  1  0  0  0
 37106  1  0  0  0
 38 43  2  0  0  0
 38 46  1  0  0  0
 38 47  1  0  0  0
 39 64  1  0  0  0
 39 67  2  0  0  0
 40 52  1  0  0  0
 40 53  2  0  0  0
 40 58  1  0  0  0
 41107  1  0  0  0
 41108  1  0  0  0
 41109  1  0  0  0
 41 48  1  0  0  0
 42 43  1  0  0  0
 42 66  1  0  0  0
 42110  1  0  0  0
 42111  1  0  0  0
 43 44  1  0  0  0
 44112  1  0  0  0
 45 46  2  0  0  0
 45113  1  0  0  0
 46114  1  0  0  0
 47115  1  0  0  0
 47116  1  0  0  0
 48 56  1  0  0  0
 48 65  1  0  0  0
 48117  1  0  0  0
 49 50  1  0  0  0
 49 53  1  0  0  0
 49 64  1  0  0  0
 49118  1  0  0  0
 50 51  1  0  0  0
 50119  1  0  0  0
 50120  1  0  0  0
 51 52  1  0  0  0
 51121  1  0  0  0
 51122  1  0  0  0
 52123  1  0  0  0
 52124  1  0  0  0
 53 54  1  0  0  0
 54 55  2  0  0  0
 54125  1  0  0  0
 55 57  1  0  0  0
 55126  1  0  0  0
 56 69  2  0  0  0
 57 58  2  0  0  0
 57127  1  0  0  0
 58128  1  0  0  0
 59 60  1  0  0  0
 59 61  1  0  0  0
 59 62  1  0  0  0
 60129  1  0  0  0
 60130  1  0  0  0
 60131  1  0  0  0
 61132  1  0  0  0
 61133  1  0  0  0
 61134  1  0  0  0
 62135  1  0  0  0
 62136  1  0  0  0
 62137  1  0  0  0
 63 65  1  0  0  0
 63138  1  0  0  0
 63139  1  0  0  0
 63140  1  0  0  0
 64141  1  0  0  0
 65142  1  0  0  0
 68 78  1  0  0  0
 71 72  1  0  0  0
 71 73  2  0  0  0
 71143  1  0  0  0
 72 76  1  0  0  0
 72 79  2  0  0  0
 73 80  1  0  0  0
 73 83  1  0  0  0
 74 77  1  0  0  0
 74 80  1  0  0  0
 74 82  2  0  0  0
 75144  1  0  0  0
 75145  1  0  0  0
 75146  1  0  0  0
 75 78  1  0  0  0
 76 81  1  0  0  0
 76147  1  0  0  0
 76148  1  0  0  0
 77 78  1  0  0  0
 77149  1  0  0  0
 77150  1  0  0  0
 78151  1  0  0  0
 79 83  1  0  0  0
 80152  1  0  0  0
 81153  1  0  0  0
M  ISO  4   1 100  68 101  78 101  81 100
M  END
> <chiral flag>
0

> <version>
0

> <s_m_source_file>
/data/baiqing/PycharmProjects/Reinvent-master-3.2/result/LINK_invent/BTK/process_docking_weight1_custom_product_contain_oxygen_bond_distance_aromatic_linkinvent_7_9_3/rearranged_h_0150.sdf

> <i_m_source_file_index>
70

> <r_mmod_Potential_Energy-OPLS-2005>
-190.675750732422

> <r_mmod_Stretch_Energy-OPLS-2005>
51.2794990539551

> <r_mmod_Bend_Energy-OPLS-2005>
128.235107421875

> <r_mmod_Torsional_Energy-OPLS-2005>
227.047744750977

> <r_mmod_Improper_Torsional_Energy-OPLS-2005>
3.58152985572815

> <r_mmod_Van_der_Waal_Energy-OPLS-2005>
119.208694458008

> <r_mmod_Electrostatic_Energy-OPLS-2005>
-484.281280517578

> <r_mmod_Solvation_Energy-OPLS-2005>
-260.509948730469

> <b_mmod_Minimization_Converged-OPLS-2005>
0

> <r_mmod_RMS_Derivative-OPLS-2005>
0.78378826379776

$$$$
70
                    3D
 Structure written by MMmdl.
154162  0  0  1  0            999 V2000
  -30.6442  -14.7146   20.4853 C   0  0  0  0  0  0
  -30.4285  -12.4453   19.4614 C   0  0  0  0  0  0
  -29.5030  -12.5034   18.2276 C   0  0  0  0  0  0
  -28.0306  -12.3305   18.6468 C   0  0  0  0  0  0
  -27.6415  -13.2310   19.8500 C   0  0  2  0  0  0
  -28.6894  -13.1619   20.9817 C   0  0  0  0  0  0
  -25.2512  -13.8198   20.5708 C   0  0  0  0  0  0
  -24.1801  -13.0442   20.9213 C   0  0  0  0  0  0
  -24.6392  -11.6920   20.8757 C   0  0  0  0  0  0
  -23.9068  -10.4295   21.0411 C   0  0  0  0  0  0
  -24.3620   -9.4210   21.9188 C   0  0  0  0  0  0
  -23.6297   -8.2245   22.0756 C   0  0  0  0  0  0
  -22.4279   -8.0282   21.3546 C   0  0  0  0  0  0
  -21.9914   -9.0254   20.4648 C   0  0  0  0  0  0
  -22.7241  -10.2135   20.3060 C   0  0  0  0  0  0
  -21.6852   -6.0739   22.5281 C   0  0  0  0  0  0
  -21.4012   -6.5643   23.8214 C   0  0  0  0  0  0
  -21.3658   -5.6797   24.9176 C   0  0  0  0  0  0
  -21.6041   -4.3059   24.7227 C   0  0  0  0  0  0
  -21.8818   -3.8151   23.4348 C   0  0  0  0  0  0
  -21.9193   -4.6968   22.3404 C   0  0  0  0  0  0
  -22.7822  -13.5223   21.1872 C   0  0  0  0  0  0
  -22.1662   -4.2154   21.0982 F   0  0  0  0  0  0
  -21.5628   -3.4543   25.7739 F   0  0  0  0  0  0
  -29.9886  -13.5088   20.3924 N   0  0  0  0  0  0
  -26.2939  -12.9405   20.3300 N   0  0  0  0  0  0
  -25.9323  -11.6546   20.5765 N   0  0  0  0  0  0
  -22.0470  -12.8209   22.0427 N   0  0  0  0  0  0
  -25.4200  -15.1923   20.4128 N   0  0  0  0  0  0
  -31.8360  -14.7877   20.1772 O   0  0  0  0  0  0
  -21.6641   -6.8880   21.4242 O   0  0  0  0  0  0
  -22.3508  -14.5532   20.6722 O   0  0  0  0  0  0
  -24.6321  -31.8563   23.2009 C   0  0  0  0  0  0
  -25.9147  -32.4760   23.8346 C   0  0  1  0  0  0
  -27.2131  -27.2635   20.1221 C   0  0  0  0  0  0
  -25.5945  -33.8560   24.2266 N   0  0  0  0  0  0
  -23.4281  -30.4825   21.5447 C   0  0  2  0  0  0
  -24.8737  -28.9374   20.1097 C   0  0  0  0  0  0
  -22.7509  -29.4609   22.4911 C   0  0  0  0  0  0
  -18.0292  -28.1383   22.8485 C   0  0  0  0  0  0
  -24.1485  -36.7274   23.2642 C   0  0  0  0  0  0
  -25.9771  -30.7700   21.3828 C   0  0  0  0  0  0
  -26.0485  -29.3954   20.7201 C   0  0  0  0  0  0
  -27.2223  -28.5721   20.7157 C   0  0  0  0  0  0
  -26.0122  -26.8842   19.4748 C   0  0  0  0  0  0
  -24.8614  -27.6897   19.4757 C   0  0  0  0  0  0
  -23.6455  -29.8236   20.1592 C   0  0  0  0  0  0
  -25.4112  -36.3066   24.0327 C   0  0  1  0  0  0
  -20.5900  -28.3692   23.1263 C   0  0  2  0  0  0
  -20.6780  -26.9405   22.5404 C   0  0  0  0  0  0
  -19.5751  -26.6373   21.5211 C   0  0  0  0  0  0
  -18.1932  -26.7924   22.1624 C   0  0  0  0  0  0
  -19.1548  -28.8855   23.2871 C   0  0  0  0  0  0
  -18.9471  -30.1458   23.8888 C   0  0  0  0  0  0
  -17.6469  -30.6586   24.0560 C   0  0  0  0  0  0
  -25.9056  -34.9439   23.5094 C   0  0  0  0  0  0
  -16.5359  -29.9078   23.6339 C   0  0  0  0  0  0
  -16.7278  -28.6496   23.0359 C   0  0  0  0  0  0
  -26.4511  -31.6589   25.0741 C   0  0  0  0  0  0
  -25.3729  -31.3746   26.1459 C   0  0  0  0  0  0
  -27.0366  -30.3003   24.6240 C   0  0  0  0  0  0
  -27.6056  -32.4345   25.7511 C   0  0  0  0  0  0
  -27.5573  -37.1793   24.8467 C   0  0  0  0  0  0
  -21.4217  -29.3046   22.3658 N   0  0  0  0  0  0
  -26.4283  -37.3766   23.9413 N   0  0  0  0  0  0
  -24.6982  -31.0538   22.0984 N   0  0  0  0  0  0
  -23.4216  -28.8135   23.2993 O   0  0  0  0  0  0
  -28.2864  -26.3400   20.1871 O   0  0  0  0  0  0
  -26.5623  -34.8917   22.4659 O   0  0  0  0  0  0
  -23.5469  -32.1374   23.7307 O   0  0  0  0  0  0
  -29.0304  -19.5811   21.0593 C   0  0  0  0  0  0
  -29.2510  -20.8763   20.4112 C   0  0  0  0  0  0
  -29.9627  -18.6248   20.6480 C   0  0  0  0  0  0
  -30.3240  -20.5612   19.6195 C   0  0  0  0  0  0
  -28.9661  -23.7169   20.3283 C   0  0  0  0  0  0
  -32.2454  -21.0290   18.1740 C   0  0  0  0  0  0
  -28.4141  -22.2306   20.5525 C   0  0  0  0  0  0
  -30.4922  -17.2229   21.1402 C   0  0  0  0  0  0
  -27.9120  -24.8867   20.0598 C   0  0  0  0  0  0
  -30.9845  -21.4394   18.7733 N   0  0  0  0  0  0
  -29.9236  -15.8640   20.7588 N   0  0  0  0  0  0
  -30.1792  -23.9510   20.3447 O   0  0  0  0  0  0
  -30.7550  -19.2595   19.7301 O   0  0  0  0  0  0
  -31.4690  -12.5642   19.1541 H   0  0  0  0  0  0
  -30.3703  -11.4683   19.9441 H   0  0  0  0  0  0
  -29.7804  -11.7300   17.5101 H   0  0  0  0  0  0
  -29.6300  -13.4582   17.7146 H   0  0  0  0  0  0
  -27.8873  -11.2818   18.9102 H   0  0  0  0  0  0
  -27.3698  -12.5234   17.8008 H   0  0  0  0  0  0
  -27.6368  -14.2532   19.4715 H   0  0  0  0  0  0
  -28.7238  -12.1638   21.4204 H   0  0  0  0  0  0
  -28.4302  -13.8436   21.7932 H   0  0  0  0  0  0
  -25.2762   -9.5691   22.4768 H   0  0  0  0  0  0
  -24.0007   -7.4637   22.7475 H   0  0  0  0  0  0
  -21.0847   -8.8770   19.8954 H   0  0  0  0  0  0
  -22.3695  -10.9677   19.6173 H   0  0  0  0  0  0
  -21.2000   -7.6150   23.9719 H   0  0  0  0  0  0
  -21.1479   -6.0528   25.9080 H   0  0  0  0  0  0
  -22.0597   -2.7615   23.2847 H   0  0  0  0  0  0
  -22.4090  -11.9868   22.4807 H   0  0  0  0  0  0
  -21.1090  -13.1234   22.2644 H   0  0  0  0  0  0
  -24.6504  -15.8443   20.5202 H   0  0  0  0  0  0
  -26.2654  -15.6334   20.0740 H   0  0  0  0  0  0
  -26.7214  -32.5406   23.1089 H   0  0  0  0  0  0
  -25.0111  -33.9700   25.0426 H   0  0  0  0  0  0
  -22.7242  -31.3053   21.4018 H   0  0  0  0  0  0
  -23.3754  -35.9599   23.3298 H   0  0  0  0  0  0
  -24.3576  -36.8901   22.2057 H   0  0  0  0  0  0
  -23.7229  -37.6469   23.6673 H   0  0  0  0  0  0
  -26.1218  -31.5337   20.6174 H   0  0  0  0  0  0
  -26.8525  -30.8123   22.0193 H   0  0  0  0  0  0
  -28.1189  -28.9159   21.2121 H   0  0  0  0  0  0
  -25.9152  -25.9380   18.9661 H   0  0  0  0  0  0
  -23.9638  -27.3356   18.9876 H   0  0  0  0  0  0
  -23.7702  -30.6030   19.4065 H   0  0  0  0  0  0
  -22.7637  -29.2586   19.8518 H   0  0  0  0  0  0
  -25.1290  -36.1908   25.0817 H   0  0  0  0  0  0
  -20.9998  -28.3266   24.1382 H   0  0  0  0  0  0
  -20.5678  -26.2298   23.3611 H   0  0  0  0  0  0
  -21.6646  -26.7421   22.1198 H   0  0  0  0  0  0
  -19.6914  -25.6283   21.1243 H   0  0  0  0  0  0
  -19.6692  -27.3185   20.6744 H   0  0  0  0  0  0
  -17.4201  -26.6682   21.4023 H   0  0  0  0  0  0
  -18.0324  -26.0059   22.9012 H   0  0  0  0  0  0
  -19.7948  -30.7278   24.2249 H   0  0  0  0  0  0
  -17.5022  -31.6269   24.5155 H   0  0  0  0  0  0
  -15.5363  -30.2978   23.7670 H   0  0  0  0  0  0
  -15.8675  -28.0811   22.7084 H   0  0  0  0  0  0
  -24.5917  -30.7075   25.7797 H   0  0  0  0  0  0
  -24.8909  -32.2919   26.4854 H   0  0  0  0  0  0
  -25.8045  -30.8955   27.0257 H   0  0  0  0  0  0
  -26.2962  -29.6743   24.1247 H   0  0  0  0  0  0
  -27.4024  -29.7271   25.4772 H   0  0  0  0  0  0
  -27.8847  -30.4270   23.9508 H   0  0  0  0  0  0
  -27.2657  -33.3667   26.2037 H   0  0  0  0  0  0
  -28.3893  -32.6873   25.0357 H   0  0  0  0  0  0
  -28.0694  -31.8506   26.5472 H   0  0  0  0  0  0
  -28.2588  -38.0094   24.7515 H   0  0  0  0  0  0
  -28.1072  -36.2623   24.6290 H   0  0  0  0  0  0
  -27.2294  -37.1434   25.8873 H   0  0  0  0  0  0
  -20.9399  -29.8783   21.6878 H   0  0  0  0  0  0
  -26.0156  -38.2835   24.1430 H   0  0  0  0  0  0
  -28.2824  -19.3852   21.8147 H   0  0  0  0  0  0
  -32.6783  -21.8468   17.5965 H   0  0  0  0  0  0
  -32.1012  -20.1793   17.5048 H   0  0  0  0  0  0
  -32.9653  -20.7415   18.9423 H   0  0  0  0  0  0
  -27.9870  -22.2235   21.5549 H   0  0  0  0  0  0
  -27.5612  -22.1259   19.8827 H   0  0  0  0  0  0
  -30.4567  -17.2412   22.2297 H   0  0  0  0  0  0
  -31.5609  -17.2006   20.9226 H   0  0  0  0  0  0
  -27.0576  -24.6933   20.7096 H   0  0  0  0  0  0
  -27.5728  -24.7170   19.0385 H   0  0  0  0  0  0
  -30.8583  -22.4365   18.9485 H   0  0  0  0  0  0
  -28.9326  -15.7445   20.9011 H   0  0  0  0  0  0
  1 25  1  0  0  0
  1 30  2  0  0  0
  1 81  1  0  0  0
  2  3  1  0  0  0
  2 25  1  0  0  0
  2 84  1  0  0  0
  2 85  1  0  0  0
  3  4  1  0  0  0
  3 86  1  0  0  0
  3 87  1  0  0  0
  4  5  1  0  0  0
  4 88  1  0  0  0
  4 89  1  0  0  0
  5  6  1  0  0  0
  5 26  1  0  0  0
  5 90  1  0  0  0
  6 25  1  0  0  0
  6 91  1  0  0  0
  6 92  1  0  0  0
  7  8  2  0  0  0
  7 26  1  0  0  0
  7 29  1  0  0  0
  8  9  1  0  0  0
  8 22  1  0  0  0
  9 10  1  0  0  0
  9 27  2  0  0  0
 10 11  2  0  0  0
 10 15  1  0  0  0
 11 12  1  0  0  0
 11 93  1  0  0  0
 12 13  2  0  0  0
 12 94  1  0  0  0
 13 14  1  0  0  0
 13 31  1  0  0  0
 14 15  2  0  0  0
 14 95  1  0  0  0
 15 96  1  0  0  0
 16 17  2  0  0  0
 16 21  1  0  0  0
 16 31  1  0  0  0
 17 18  1  0  0  0
 17 97  1  0  0  0
 18 19  2  0  0  0
 18 98  1  0  0  0
 19 20  1  0  0  0
 19 24  1  0  0  0
 20 21  2  0  0  0
 20 99  1  0  0  0
 21 23  1  0  0  0
 22 28  1  0  0  0
 22 32  2  0  0  0
 26 27  1  0  0  0
 28100  1  0  0  0
 28101  1  0  0  0
 29102  1  0  0  0
 29103  1  0  0  0
 33 34  1  0  0  0
 33 66  1  0  0  0
 33 70  2  0  0  0
 34 36  1  0  0  0
 34 59  1  0  0  0
 34104  1  0  0  0
 35 44  2  0  0  0
 35 45  1  0  0  0
 35 68  1  0  0  0
 36 56  1  0  0  0
 36105  1  0  0  0
 37 39  1  0  0  0
 37 47  1  0  0  0
 37 66  1  0  0  0
 37106  1  0  0  0
 38 43  2  0  0  0
 38 46  1  0  0  0
 38 47  1  0  0  0
 39 64  1  0  0  0
 39 67  2  0  0  0
 40 52  1  0  0  0
 40 53  2  0  0  0
 40 58  1  0  0  0
 41107  1  0  0  0
 41108  1  0  0  0
 41109  1  0  0  0
 41 48  1  0  0  0
 42 43  1  0  0  0
 42 66  1  0  0  0
 42110  1  0  0  0
 42111  1  0  0  0
 43 44  1  0  0  0
 44112  1  0  0  0
 45 46  2  0  0  0
 45113  1  0  0  0
 46114  1  0  0  0
 47115  1  0  0  0
 47116  1  0  0  0
 48 56  1  0  0  0
 48 65  1  0  0  0
 48117  1  0  0  0
 49 50  1  0  0  0
 49 53  1  0  0  0
 49 64  1  0  0  0
 49118  1  0  0  0
 50 51  1  0  0  0
 50119  1  0  0  0
 50120  1  0  0  0
 51 52  1  0  0  0
 51121  1  0  0  0
 51122  1  0  0  0
 52123  1  0  0  0
 52124  1  0  0  0
 53 54  1  0  0  0
 54 55  2  0  0  0
 54125  1  0  0  0
 55 57  1  0  0  0
 55126  1  0  0  0
 56 69  2  0  0  0
 57 58  2  0  0  0
 57127  1  0  0  0
 58128  1  0  0  0
 59 60  1  0  0  0
 59 61  1  0  0  0
 59 62  1  0  0  0
 60129  1  0  0  0
 60130  1  0  0  0
 60131  1  0  0  0
 61132  1  0  0  0
 61133  1  0  0  0
 61134  1  0  0  0
 62135  1  0  0  0
 62136  1  0  0  0
 62137  1  0  0  0
 63 65  1  0  0  0
 63138  1  0  0  0
 63139  1  0  0  0
 63140  1  0  0  0
 64141  1  0  0  0
 65142  1  0  0  0
 68 79  1  0  0  0
 71 72  1  0  0  0
 71 73  2  0  0  0
 71143  1  0  0  0
 72 74  2  0  0  0
 72 77  1  0  0  0
 73 78  1  0  0  0
 73 83  1  0  0  0
 74 80  1  0  0  0
 74 83  1  0  0  0
 75 77  1  0  0  0
 75 79  1  0  0  0
 75 82  2  0  0  0
 76 80  1  0  0  0
 76144  1  0  0  0
 76145  1  0  0  0
 76146  1  0  0  0
 77147  1  0  0  0
 77148  1  0  0  0
 78 81  1  0  0  0
 78149  1  0  0  0
 78150  1  0  0  0
 79151  1  0  0  0
 79152  1  0  0  0
 80153  1  0  0  0
 81154  1  0  0  0
M  ISO  4   1 100  68 101  79 101  81 100
M  END
> <chiral flag>
0

> <version>
0

> <s_m_source_file>
/data/baiqing/PycharmProjects/Reinvent-master-3.2/result/LINK_invent/BTK/process_docking_weight1_custom_product_contain_oxygen_bond_distance_aromatic_linkinvent_7_9_3/rearranged_h_0150.sdf

> <i_m_source_file_index>
71

> <r_mmod_Potential_Energy-OPLS-2005>
9.79520130157471

> <r_mmod_Stretch_Energy-OPLS-2005>
110.543441772461

> <r_mmod_Bend_Energy-OPLS-2005>
184.982711791992

> <r_mmod_Torsional_Energy-OPLS-2005>
204.842849731445

> <r_mmod_Improper_Torsional_Energy-OPLS-2005>
7.4863224029541

> <r_mmod_Van_der_Waal_Energy-OPLS-2005>
124.432411193848

> <r_mmod_Electrostatic_Energy-OPLS-2005>
-450.091583251953

> <r_mmod_Solvation_Energy-OPLS-2005>
-254.278518676758

> <b_mmod_Minimization_Converged-OPLS-2005>
0

> <r_mmod_RMS_Derivative-OPLS-2005>
0.6235511302948

$$$$
71
                    3D
 Structure written by MMmdl.
154163  0  0  1  0            999 V2000
  -30.6977  -14.4890   20.6058 C   0  0  0  0  0  0
  -30.4267  -12.3261   19.4279 C   0  0  0  0  0  0
  -29.4967  -12.5121   18.2103 C   0  0  0  0  0  0
  -28.0177  -12.3652   18.6200 C   0  0  0  0  0  0
  -27.6608  -13.2064   19.8741 C   0  0  2  0  0  0
  -28.6992  -12.9864   20.9955 C   0  0  0  0  0  0
  -25.2587  -13.8150   20.5676 C   0  0  0  0  0  0
  -24.1835  -13.0433   20.9168 C   0  0  0  0  0  0
  -24.6387  -11.6898   20.8726 C   0  0  0  0  0  0
  -23.9053  -10.4282   21.0399 C   0  0  0  0  0  0
  -24.3609   -9.4196   21.9176 C   0  0  0  0  0  0
  -23.6282   -8.2234   22.0756 C   0  0  0  0  0  0
  -22.4269   -8.0265   21.3540 C   0  0  0  0  0  0
  -21.9895   -9.0241   20.4652 C   0  0  0  0  0  0
  -22.7220  -10.2125   20.3058 C   0  0  0  0  0  0
  -21.6847   -6.0726   22.5281 C   0  0  0  0  0  0
  -21.4020   -6.5636   23.8216 C   0  0  0  0  0  0
  -21.3658   -5.6792   24.9179 C   0  0  0  0  0  0
  -21.6040   -4.3054   24.7231 C   0  0  0  0  0  0
  -21.8820   -3.8145   23.4356 C   0  0  0  0  0  0
  -21.9191   -4.6954   22.3405 C   0  0  0  0  0  0
  -22.7863  -13.5236   21.1836 C   0  0  0  0  0  0
  -22.1656   -4.2137   21.0983 F   0  0  0  0  0  0
  -21.5625   -3.4540   25.7748 F   0  0  0  0  0  0
  -30.0300  -13.3077   20.4539 N   0  0  0  0  0  0
  -26.3020  -12.9321   20.3357 N   0  0  0  0  0  0
  -25.9313  -11.6480   20.5760 N   0  0  0  0  0  0
  -22.0507  -12.8240   22.0410 N   0  0  0  0  0  0
  -25.4316  -15.1867   20.4094 N   0  0  0  0  0  0
  -31.8000  -14.6903   20.0837 O   0  0  0  0  0  0
  -21.6633   -6.8863   21.4241 O   0  0  0  0  0  0
  -22.3540  -14.5531   20.6674 O   0  0  0  0  0  0
  -24.6165  -31.8669   23.2089 C   0  0  0  0  0  0
  -25.9042  -32.4815   23.8397 C   0  0  1  0  0  0
  -27.2276  -27.4205   20.1059 C   0  0  0  0  0  0
  -25.5888  -33.8613   24.2325 N   0  0  0  0  0  0
  -23.4069  -30.4907   21.5496 C   0  0  2  0  0  0
  -24.8547  -28.9590   20.1100 C   0  0  0  0  0  0
  -22.7431  -29.4652   22.4972 C   0  0  0  0  0  0
  -18.0286  -28.1378   22.8495 C   0  0  0  0  0  0
  -24.1489  -36.7325   23.2641 C   0  0  0  0  0  0
  -25.9368  -30.8308   21.3638 C   0  0  0  0  0  0
  -26.0163  -29.4648   20.7097 C   0  0  0  0  0  0
  -27.2103  -28.7032   20.7045 C   0  0  0  0  0  0
  -26.0565  -26.9397   19.4846 C   0  0  0  0  0  0
  -24.8707  -27.6970   19.4918 C   0  0  0  0  0  0
  -23.6172  -29.8268   20.1629 C   0  0  0  0  0  0
  -25.4112  -36.3108   24.0336 C   0  0  1  0  0  0
  -20.5879  -28.3671   23.1307 C   0  0  2  0  0  0
  -20.6776  -26.9404   22.5408 C   0  0  0  0  0  0
  -19.5751  -26.6390   21.5212 C   0  0  0  0  0  0
  -18.1937  -26.7917   22.1642 C   0  0  0  0  0  0
  -19.1532  -28.8846   23.2898 C   0  0  0  0  0  0
  -18.9457  -30.1453   23.8907 C   0  0  0  0  0  0
  -17.6454  -30.6584   24.0568 C   0  0  0  0  0  0
  -25.9027  -34.9467   23.5130 C   0  0  0  0  0  0
  -16.5350  -29.9090   23.6313 C   0  0  0  0  0  0
  -16.7274  -28.6509   23.0336 C   0  0  0  0  0  0
  -26.4468  -31.6588   25.0718 C   0  0  0  0  0  0
  -25.3731  -31.3707   26.1467 C   0  0  0  0  0  0
  -27.0297  -30.3033   24.6081 C   0  0  0  0  0  0
  -27.6050  -32.4308   25.7469 C   0  0  0  0  0  0
  -27.5571  -37.1833   24.8481 C   0  0  0  0  0  0
  -21.4155  -29.3035   22.3709 N   0  0  0  0  0  0
  -26.4312  -37.3776   23.9376 N   0  0  0  0  0  0
  -24.6718  -31.0763   22.0999 N   0  0  0  0  0  0
  -23.4193  -28.8187   23.3018 O   0  0  0  0  0  0
  -28.3429  -26.6099   20.1496 O   0  0  0  0  0  0
  -26.5590  -34.8915   22.4689 O   0  0  0  0  0  0
  -23.5350  -32.1421   23.7466 O   0  0  0  0  0  0
  -30.2411  -21.3441   20.7204 C   0  0  0  0  0  0
  -28.9636  -21.7741   21.0184 C   0  0  0  0  0  0
  -29.3368  -19.2907   21.2057 C   0  0  0  0  0  0
  -28.9477  -24.2143   20.6389 C   0  0  0  0  0  0
  -29.8921  -17.3102   22.7811 C   0  0  0  0  0  0
  -29.9834  -15.7835   22.5869 C   0  0  0  0  0  0
  -29.8424  -16.8204   20.4467 C   0  0  0  0  0  0
  -29.2605  -17.7972   21.4860 C   0  0  2  0  0  0
  -28.1718  -25.4911   21.0550 C   0  0  0  0  0  0
  -30.4431  -19.9562   20.8532 N   0  0  0  0  0  0
  -29.9844  -15.5192   21.1376 N   0  0  0  0  0  0
  -28.4409  -23.0386   21.0808 N   0  0  0  0  0  0
  -29.9658  -24.2955   19.9460 O   0  0  0  0  0  0
  -27.9647  -20.3856   21.4224 S   0  0  0  0  0  0
  -31.4702  -12.4337   19.1266 H   0  0  0  0  0  0
  -30.3406  -11.3133   19.8250 H   0  0  0  0  0  0
  -29.7430  -11.7871   17.4337 H   0  0  0  0  0  0
  -29.6589  -13.4974   17.7708 H   0  0  0  0  0  0
  -27.8311  -11.3090   18.8180 H   0  0  0  0  0  0
  -27.3666  -12.6343   17.7871 H   0  0  0  0  0  0
  -27.7037  -14.2548   19.5768 H   0  0  0  0  0  0
  -28.6819  -11.9499   21.3351 H   0  0  0  0  0  0
  -28.4411  -13.5773   21.8712 H   0  0  0  0  0  0
  -25.2761   -9.5668   22.4738 H   0  0  0  0  0  0
  -23.9990   -7.4627   22.7478 H   0  0  0  0  0  0
  -21.0824   -8.8761   19.8954 H   0  0  0  0  0  0
  -22.3675  -10.9666   19.6170 H   0  0  0  0  0  0
  -21.2023   -7.6148   23.9721 H   0  0  0  0  0  0
  -21.1473   -6.0521   25.9082 H   0  0  0  0  0  0
  -22.0599   -2.7606   23.2861 H   0  0  0  0  0  0
  -22.4136  -11.9915   22.4809 H   0  0  0  0  0  0
  -21.1130  -13.1271   22.2622 H   0  0  0  0  0  0
  -24.6682  -15.8443   20.5238 H   0  0  0  0  0  0
  -26.2934  -15.6251   20.1107 H   0  0  0  0  0  0
  -26.7119  -32.5534   23.1168 H   0  0  0  0  0  0
  -25.0027  -33.9776   25.0466 H   0  0  0  0  0  0
  -22.6960  -31.3078   21.4100 H   0  0  0  0  0  0
  -23.3696  -35.9722   23.3408 H   0  0  0  0  0  0
  -24.3563  -36.8822   22.2033 H   0  0  0  0  0  0
  -23.7313  -37.6602   23.6573 H   0  0  0  0  0  0
  -26.0481  -31.5966   20.5951 H   0  0  0  0  0  0
  -26.8256  -30.8871   21.9801 H   0  0  0  0  0  0
  -28.1044  -29.0819   21.1794 H   0  0  0  0  0  0
  -26.0580  -25.9674   19.0108 H   0  0  0  0  0  0
  -23.9793  -27.3041   19.0215 H   0  0  0  0  0  0
  -23.7269  -30.6051   19.4066 H   0  0  0  0  0  0
  -22.7415  -29.2485   19.8633 H   0  0  0  0  0  0
  -25.1297  -36.1996   25.0835 H   0  0  0  0  0  0
  -20.9977  -28.3234   24.1427 H   0  0  0  0  0  0
  -20.5701  -26.2275   23.3597 H   0  0  0  0  0  0
  -21.6639  -26.7456   22.1180 H   0  0  0  0  0  0
  -19.6907  -25.6306   21.1235 H   0  0  0  0  0  0
  -19.6681  -27.3215   20.6750 H   0  0  0  0  0  0
  -17.4194  -26.6644   21.4060 H   0  0  0  0  0  0
  -18.0359  -26.0070   22.9057 H   0  0  0  0  0  0
  -19.7935  -30.7264   24.2277 H   0  0  0  0  0  0
  -17.5012  -31.6258   24.5183 H   0  0  0  0  0  0
  -15.5349  -30.2997   23.7628 H   0  0  0  0  0  0
  -15.8678  -28.0838   22.7022 H   0  0  0  0  0  0
  -24.5862  -30.7108   25.7794 H   0  0  0  0  0  0
  -24.8972  -32.2876   26.4956 H   0  0  0  0  0  0
  -25.8065  -30.8823   27.0202 H   0  0  0  0  0  0
  -26.2847  -29.6797   24.1121 H   0  0  0  0  0  0
  -27.4073  -29.7253   25.4526 H   0  0  0  0  0  0
  -27.8676  -30.4366   23.9230 H   0  0  0  0  0  0
  -27.2667  -33.3586   26.2098 H   0  0  0  0  0  0
  -28.3822  -32.6911   25.0267 H   0  0  0  0  0  0
  -28.0759  -31.8400   26.5336 H   0  0  0  0  0  0
  -28.2661  -38.0054   24.7407 H   0  0  0  0  0  0
  -28.0991  -36.2577   24.6472 H   0  0  0  0  0  0
  -27.2262  -37.1685   25.8882 H   0  0  0  0  0  0
  -20.9316  -29.8759   21.6932 H   0  0  0  0  0  0
  -26.0212  -38.2879   24.1288 H   0  0  0  0  0  0
  -31.0877  -21.9588   20.4470 H   0  0  0  0  0  0
  -30.8938  -17.7299   22.8851 H   0  0  0  0  0  0
  -29.3201  -17.5941   23.6653 H   0  0  0  0  0  0
  -29.1134  -15.3098   23.0420 H   0  0  0  0  0  0
  -30.8683  -15.3770   23.0816 H   0  0  0  0  0  0
  -30.8258  -17.1679   20.1239 H   0  0  0  0  0  0
  -29.2105  -16.7422   19.5612 H   0  0  0  0  0  0
  -28.1958  -17.5656   21.5564 H   0  0  0  0  0  0
  -28.5282  -25.7958   22.0395 H   0  0  0  0  0  0
  -27.1219  -25.2235   21.1851 H   0  0  0  0  0  0
  -27.5543  -23.1171   21.5614 H   0  0  0  0  0  0
  1 25  1  0  0  0
  1 30  2  0  0  0
  1 81  1  0  0  0
  2  3  1  0  0  0
  2 25  1  0  0  0
  2 85  1  0  0  0
  2 86  1  0  0  0
  3  4  1  0  0  0
  3 87  1  0  0  0
  3 88  1  0  0  0
  4  5  1  0  0  0
  4 89  1  0  0  0
  4 90  1  0  0  0
  5  6  1  0  0  0
  5 26  1  0  0  0
  5 91  1  0  0  0
  6 25  1  0  0  0
  6 92  1  0  0  0
  6 93  1  0  0  0
  7  8  2  0  0  0
  7 26  1  0  0  0
  7 29  1  0  0  0
  8  9  1  0  0  0
  8 22  1  0  0  0
  9 10  1  0  0  0
  9 27  2  0  0  0
 10 11  2  0  0  0
 10 15  1  0  0  0
 11 12  1  0  0  0
 11 94  1  0  0  0
 12 13  2  0  0  0
 12 95  1  0  0  0
 13 14  1  0  0  0
 13 31  1  0  0  0
 14 15  2  0  0  0
 14 96  1  0  0  0
 15 97  1  0  0  0
 16 17  2  0  0  0
 16 21  1  0  0  0
 16 31  1  0  0  0
 17 18  1  0  0  0
 17 98  1  0  0  0
 18 19  2  0  0  0
 18 99  1  0  0  0
 19 20  1  0  0  0
 19 24  1  0  0  0
 20 21  2  0  0  0
 20100  1  0  0  0
 21 23  1  0  0  0
 22 28  1  0  0  0
 22 32  2  0  0  0
 26 27  1  0  0  0
 28101  1  0  0  0
 28102  1  0  0  0
 29103  1  0  0  0
 29104  1  0  0  0
 33 34  1  0  0  0
 33 66  1  0  0  0
 33 70  2  0  0  0
 34 36  1  0  0  0
 34 59  1  0  0  0
 34105  1  0  0  0
 35 44  2  0  0  0
 35 45  1  0  0  0
 35 68  1  0  0  0
 36 56  1  0  0  0
 36106  1  0  0  0
 37 39  1  0  0  0
 37 47  1  0  0  0
 37 66  1  0  0  0
 37107  1  0  0  0
 38 43  2  0  0  0
 38 46  1  0  0  0
 38 47  1  0  0  0
 39 64  1  0  0  0
 39 67  2  0  0  0
 40 52  1  0  0  0
 40 53  2  0  0  0
 40 58  1  0  0  0
 41108  1  0  0  0
 41109  1  0  0  0
 41110  1  0  0  0
 41 48  1  0  0  0
 42 43  1  0  0  0
 42 66  1  0  0  0
 42111  1  0  0  0
 42112  1  0  0  0
 43 44  1  0  0  0
 44113  1  0  0  0
 45 46  2  0  0  0
 45114  1  0  0  0
 46115  1  0  0  0
 47116  1  0  0  0
 47117  1  0  0  0
 48 56  1  0  0  0
 48 65  1  0  0  0
 48118  1  0  0  0
 49 50  1  0  0  0
 49 53  1  0  0  0
 49 64  1  0  0  0
 49119  1  0  0  0
 50 51  1  0  0  0
 50120  1  0  0  0
 50121  1  0  0  0
 51 52  1  0  0  0
 51122  1  0  0  0
 51123  1  0  0  0
 52124  1  0  0  0
 52125  1  0  0  0
 53 54  1  0  0  0
 54 55  2  0  0  0
 54126  1  0  0  0
 55 57  1  0  0  0
 55127  1  0  0  0
 56 69  2  0  0  0
 57 58  2  0  0  0
 57128  1  0  0  0
 58129  1  0  0  0
 59 60  1  0  0  0
 59 61  1  0  0  0
 59 62  1  0  0  0
 60130  1  0  0  0
 60131  1  0  0  0
 60132  1  0  0  0
 61133  1  0  0  0
 61134  1  0  0  0
 61135  1  0  0  0
 62136  1  0  0  0
 62137  1  0  0  0
 62138  1  0  0  0
 63 65  1  0  0  0
 63139  1  0  0  0
 63140  1  0  0  0
 63141  1  0  0  0
 64142  1  0  0  0
 65143  1  0  0  0
 68 79  1  0  0  0
 71 72  2  0  0  0
 71 80  1  0  0  0
 71144  1  0  0  0
 72 82  1  0  0  0
 72 84  1  0  0  0
 73 80  2  0  0  0
 73 84  1  0  0  0
 73 78  1  0  0  0
 74 79  1  0  0  0
 74 82  1  0  0  0
 74 83  2  0  0  0
 75 76  1  0  0  0
 75 78  1  0  0  0
 75145  1  0  0  0
 75146  1  0  0  0
 76 81  1  0  0  0
 76147  1  0  0  0
 76148  1  0  0  0
 77 78  1  0  0  0
 77 81  1  0  0  0
 77149  1  0  0  0
 77150  1  0  0  0
 78151  1  0  0  0
 79152  1  0  0  0
 79153  1  0  0  0
 82154  1  0  0  0
M  ISO  4   1 100  68 101  79 101  81 100
M  END
> <chiral flag>
0

> <version>
0

> <s_m_source_file>
/data/baiqing/PycharmProjects/Reinvent-master-3.2/result/LINK_invent/BTK/process_docking_weight1_custom_product_contain_oxygen_bond_distance_aromatic_linkinvent_7_9_3/rearranged_h_0150.sdf

> <i_m_source_file_index>
72

> <r_mmod_Potential_Energy-OPLS-2005>
117.939071655273

> <r_mmod_Stretch_Energy-OPLS-2005>
41.8369369506836

> <r_mmod_Bend_Energy-OPLS-2005>
129.319885253906

> <r_mmod_Torsional_Energy-OPLS-2005>
330.648986816406

> <r_mmod_Improper_Torsional_Energy-OPLS-2005>
8.95490264892578

> <r_mmod_Van_der_Waal_Energy-OPLS-2005>
120.947761535645

> <r_mmod_Electrostatic_Energy-OPLS-2005>
-292.939056396484

> <r_mmod_Solvation_Energy-OPLS-2005>
-236.927139282227

> <b_mmod_Minimization_Converged-OPLS-2005>
0

> <r_mmod_RMS_Derivative-OPLS-2005>
1.68844437599182

$$$$
72
                    3D
 Structure written by MMmdl.
157165  0  0  1  0            999 V2000
  -30.6304  -14.5739   20.5535 C   0  0  0  0  0  0
  -30.4573  -12.3697   19.4274 C   0  0  0  0  0  0
  -29.5130  -12.5206   18.2112 C   0  0  0  0  0  0
  -28.0331  -12.3703   18.6190 C   0  0  0  0  0  0
  -27.6679  -13.2023   19.8764 C   0  0  2  0  0  0
  -28.7148  -12.9852   20.9944 C   0  0  0  0  0  0
  -25.2676  -13.8153   20.5736 C   0  0  0  0  0  0
  -24.1868  -13.0454   20.9154 C   0  0  0  0  0  0
  -24.6394  -11.6903   20.8707 C   0  0  0  0  0  0
  -23.9045  -10.4296   21.0393 C   0  0  0  0  0  0
  -24.3598   -9.4218   21.9176 C   0  0  0  0  0  0
  -23.6253   -8.2275   22.0761 C   0  0  0  0  0  0
  -22.4244   -8.0303   21.3570 C   0  0  0  0  0  0
  -21.9882   -9.0268   20.4664 C   0  0  0  0  0  0
  -22.7220  -10.2137   20.3052 C   0  0  0  0  0  0
  -21.6849   -6.0724   22.5273 C   0  0  0  0  0  0
  -21.4005   -6.5623   23.8208 C   0  0  0  0  0  0
  -21.3651   -5.6781   24.9173 C   0  0  0  0  0  0
  -21.6049   -4.3039   24.7223 C   0  0  0  0  0  0
  -21.8816   -3.8129   23.4340 C   0  0  0  0  0  0
  -21.9185   -4.6944   22.3395 C   0  0  0  0  0  0
  -22.7907  -13.5300   21.1773 C   0  0  0  0  0  0
  -22.1670   -4.2135   21.0969 F   0  0  0  0  0  0
  -21.5626   -3.4523   25.7727 F   0  0  0  0  0  0
  -30.0391  -13.3435   20.4495 N   0  0  0  0  0  0
  -26.3064  -12.9281   20.3330 N   0  0  0  0  0  0
  -25.9320  -11.6450   20.5706 N   0  0  0  0  0  0
  -22.0499  -12.8342   22.0316 N   0  0  0  0  0  0
  -25.4514  -15.1859   20.4297 N   0  0  0  0  0  0
  -31.7334  -14.8287   20.0588 O   0  0  0  0  0  0
  -21.6647   -6.8874   21.4245 O   0  0  0  0  0  0
  -22.3648  -14.5633   20.6595 O   0  0  0  0  0  0
  -24.6181  -31.8630   23.2028 C   0  0  0  0  0  0
  -25.9053  -32.4782   23.8351 C   0  0  1  0  0  0
  -27.2472  -27.3771   20.0929 C   0  0  0  0  0  0
  -25.5888  -33.8582   24.2277 N   0  0  0  0  0  0
  -23.4103  -30.4853   21.5418 C   0  0  2  0  0  0
  -24.8630  -28.9451   20.1079 C   0  0  0  0  0  0
  -22.7414  -29.4634   22.4909 C   0  0  0  0  0  0
  -18.0273  -28.1404   22.8479 C   0  0  0  0  0  0
  -24.1489  -36.7321   23.2640 C   0  0  0  0  0  0
  -25.9456  -30.8042   21.3725 C   0  0  0  0  0  0
  -26.0239  -29.4347   20.7195 C   0  0  0  0  0  0
  -27.2124  -28.6575   20.7126 C   0  0  0  0  0  0
  -26.0600  -26.9218   19.4686 C   0  0  0  0  0  0
  -24.8807  -27.6902   19.4784 C   0  0  0  0  0  0
  -23.6260  -29.8153   20.1577 C   0  0  0  0  0  0
  -25.4103  -36.3078   24.0326 C   0  0  1  0  0  0
  -20.5863  -28.3691   23.1298 C   0  0  2  0  0  0
  -20.6765  -26.9414   22.5419 C   0  0  0  0  0  0
  -19.5750  -26.6392   21.5209 C   0  0  0  0  0  0
  -18.1927  -26.7943   22.1619 C   0  0  0  0  0  0
  -19.1525  -28.8854   23.2896 C   0  0  0  0  0  0
  -18.9467  -30.1457   23.8917 C   0  0  0  0  0  0
  -17.6470  -30.6599   24.0571 C   0  0  0  0  0  0
  -25.9033  -34.9451   23.5103 C   0  0  0  0  0  0
  -16.5353  -29.9108   23.6336 C   0  0  0  0  0  0
  -16.7260  -28.6534   23.0334 C   0  0  0  0  0  0
  -26.4477  -31.6570   25.0693 C   0  0  0  0  0  0
  -25.3739  -31.3707   26.1435 C   0  0  0  0  0  0
  -27.0337  -30.3003   24.6127 C   0  0  0  0  0  0
  -27.6034  -32.4314   25.7460 C   0  0  0  0  0  0
  -27.5577  -37.1803   24.8445 C   0  0  0  0  0  0
  -21.4124  -29.3046   22.3662 N   0  0  0  0  0  0
  -26.4278  -37.3773   23.9413 N   0  0  0  0  0  0
  -24.6752  -31.0672   22.0968 N   0  0  0  0  0  0
  -23.4153  -28.8171   23.2975 O   0  0  0  0  0  0
  -28.4129  -26.6095   20.1127 O   0  0  0  0  0  0
  -26.5609  -34.8911   22.4678 O   0  0  0  0  0  0
  -23.5363  -32.1424   23.7385 O   0  0  0  0  0  0
  -30.0714  -17.8930   20.3180 C   0  0  0  0  0  0
  -29.1714  -19.1691   22.0668 C   0  0  0  0  0  0
  -29.6617  -19.2100   20.7859 C   0  0  0  0  0  0
  -29.8173  -16.8675   21.2321 C   0  0  0  0  0  0
  -29.2503  -21.6866   20.3007 C   0  0  0  0  0  0
  -30.1975  -24.4498   21.3673 C   0  0  0  0  0  0
  -30.7477  -25.1284   19.0542 C   0  0  0  0  0  0
  -29.6129  -22.8836   19.3636 C   0  0  0  0  0  0
  -28.3418  -25.1930   19.7625 C   0  0  0  0  0  0
  -29.6926  -24.3878   19.9084 C   0  0  0  0  0  0
  -29.7625  -20.4442   20.0221 N   0  0  0  0  0  0
  -29.8655  -15.4947   21.1914 N   0  0  0  0  0  0
  -28.4776  -21.8931   21.2399 O   0  0  0  0  0  0
  -29.1342  -17.5506   22.6912 S   0  0  0  0  0  0
  -31.4944  -12.5169   19.1201 H   0  0  0  0  0  0
  -30.4130  -11.3587   19.8353 H   0  0  0  0  0  0
  -29.7651  -11.7878   17.4449 H   0  0  0  0  0  0
  -29.6626  -13.4984   17.7521 H   0  0  0  0  0  0
  -27.8441  -11.3126   18.8038 H   0  0  0  0  0  0
  -27.3896  -12.6571   17.7855 H   0  0  0  0  0  0
  -27.7097  -14.2489   19.5778 H   0  0  0  0  0  0
  -28.7185  -11.9408   21.3088 H   0  0  0  0  0  0
  -28.4541  -13.5535   21.8887 H   0  0  0  0  0  0
  -25.2743   -9.5679   22.4758 H   0  0  0  0  0  0
  -23.9947   -7.4664   22.7470 H   0  0  0  0  0  0
  -21.0826   -8.8797   19.8969 H   0  0  0  0  0  0
  -22.3685  -10.9682   19.6172 H   0  0  0  0  0  0
  -21.2031   -7.6135   23.9692 H   0  0  0  0  0  0
  -21.1468   -6.0528   25.9072 H   0  0  0  0  0  0
  -22.0600   -2.7588   23.2855 H   0  0  0  0  0  0
  -22.4064  -12.0009   22.4766 H   0  0  0  0  0  0
  -21.1123  -13.1421   22.2463 H   0  0  0  0  0  0
  -24.7135  -15.8643   20.5767 H   0  0  0  0  0  0
  -26.3274  -15.6060   20.1484 H   0  0  0  0  0  0
  -26.7097  -32.5479   23.1084 H   0  0  0  0  0  0
  -24.9978  -33.9722   25.0376 H   0  0  0  0  0  0
  -22.7051  -31.3058   21.3960 H   0  0  0  0  0  0
  -23.3731  -35.9672   23.3267 H   0  0  0  0  0  0
  -24.3585  -36.8987   22.2060 H   0  0  0  0  0  0
  -23.7268  -37.6523   23.6699 H   0  0  0  0  0  0
  -26.0632  -31.5626   20.5984 H   0  0  0  0  0  0
  -26.8317  -30.8607   21.9918 H   0  0  0  0  0  0
  -28.1002  -29.0268   21.2071 H   0  0  0  0  0  0
  -26.0175  -25.9715   18.9587 H   0  0  0  0  0  0
  -23.9926  -27.3135   18.9889 H   0  0  0  0  0  0
  -23.7375  -30.5897   19.3990 H   0  0  0  0  0  0
  -22.7514  -29.2351   19.8560 H   0  0  0  0  0  0
  -25.1278  -36.1923   25.0818 H   0  0  0  0  0  0
  -20.9975  -28.3284   24.1410 H   0  0  0  0  0  0
  -20.5676  -26.2288   23.3608 H   0  0  0  0  0  0
  -21.6645  -26.7453   22.1223 H   0  0  0  0  0  0
  -19.6925  -25.6304   21.1235 H   0  0  0  0  0  0
  -19.6714  -27.3206   20.6746 H   0  0  0  0  0  0
  -17.4196  -26.6669   21.4028 H   0  0  0  0  0  0
  -18.0348  -26.0089   22.9022 H   0  0  0  0  0  0
  -19.7941  -30.7265   24.2300 H   0  0  0  0  0  0
  -17.5032  -31.6286   24.5173 H   0  0  0  0  0  0
  -15.5367  -30.3034   23.7658 H   0  0  0  0  0  0
  -15.8652  -28.0881   22.7035 H   0  0  0  0  0  0
  -24.5877  -30.7096   25.7758 H   0  0  0  0  0  0
  -24.8979  -32.2886   26.4906 H   0  0  0  0  0  0
  -25.8082  -30.8838   27.0174 H   0  0  0  0  0  0
  -26.2909  -29.6709   24.1207 H   0  0  0  0  0  0
  -27.4103  -29.7288   25.4619 H   0  0  0  0  0  0
  -27.8739  -30.4282   23.9294 H   0  0  0  0  0  0
  -27.2635  -33.3606   26.2041 H   0  0  0  0  0  0
  -28.3849  -32.6885   25.0298 H   0  0  0  0  0  0
  -28.0693  -31.8442   26.5375 H   0  0  0  0  0  0
  -28.2551  -38.0133   24.7514 H   0  0  0  0  0  0
  -28.1112  -36.2671   24.6230 H   0  0  0  0  0  0
  -27.2308  -37.1398   25.8845 H   0  0  0  0  0  0
  -20.9271  -29.8767   21.6885 H   0  0  0  0  0  0
  -26.0147  -38.2837   24.1457 H   0  0  0  0  0  0
  -30.4787  -17.7382   19.3277 H   0  0  0  0  0  0
  -28.8079  -19.9761   22.6905 H   0  0  0  0  0  0
  -31.0818  -23.8264   21.5071 H   0  0  0  0  0  0
  -29.4418  -24.1245   22.0814 H   0  0  0  0  0  0
  -30.4724  -25.4654   21.6503 H   0  0  0  0  0  0
  -31.7360  -24.6757   19.1532 H   0  0  0  0  0  0
  -30.8483  -26.1707   19.3597 H   0  0  0  0  0  0
  -30.4865  -25.1243   17.9956 H   0  0  0  0  0  0
  -28.9080  -22.8484   18.5314 H   0  0  0  0  0  0
  -30.5721  -22.6196   18.9171 H   0  0  0  0  0  0
  -27.5573  -24.7130   20.3524 H   0  0  0  0  0  0
  -28.0376  -25.1276   18.7170 H   0  0  0  0  0  0
  -30.2829  -20.3784   19.1571 H   0  0  0  0  0  0
  -29.1275  -15.0530   21.7177 H   0  0  0  0  0  0
  1 25  1  0  0  0
  1 30  2  0  0  0
  1 82  1  0  0  0
  2  3  1  0  0  0
  2 25  1  0  0  0
  2 85  1  0  0  0
  2 86  1  0  0  0
  3  4  1  0  0  0
  3 87  1  0  0  0
  3 88  1  0  0  0
  4  5  1  0  0  0
  4 89  1  0  0  0
  4 90  1  0  0  0
  5  6  1  0  0  0
  5 26  1  0  0  0
  5 91  1  0  0  0
  6 25  1  0  0  0
  6 92  1  0  0  0
  6 93  1  0  0  0
  7  8  2  0  0  0
  7 26  1  0  0  0
  7 29  1  0  0  0
  8  9  1  0  0  0
  8 22  1  0  0  0
  9 10  1  0  0  0
  9 27  2  0  0  0
 10 11  2  0  0  0
 10 15  1  0  0  0
 11 12  1  0  0  0
 11 94  1  0  0  0
 12 13  2  0  0  0
 12 95  1  0  0  0
 13 14  1  0  0  0
 13 31  1  0  0  0
 14 15  2  0  0  0
 14 96  1  0  0  0
 15 97  1  0  0  0
 16 17  2  0  0  0
 16 21  1  0  0  0
 16 31  1  0  0  0
 17 18  1  0  0  0
 17 98  1  0  0  0
 18 19  2  0  0  0
 18 99  1  0  0  0
 19 20  1  0  0  0
 19 24  1  0  0  0
 20 21  2  0  0  0
 20100  1  0  0  0
 21 23  1  0  0  0
 22 28  1  0  0  0
 22 32  2  0  0  0
 26 27  1  0  0  0
 28101  1  0  0  0
 28102  1  0  0  0
 29103  1  0  0  0
 29104  1  0  0  0
 33 34  1  0  0  0
 33 66  1  0  0  0
 33 70  2  0  0  0
 34 36  1  0  0  0
 34 59  1  0  0  0
 34105  1  0  0  0
 35 44  2  0  0  0
 35 45  1  0  0  0
 35 68  1  0  0  0
 36 56  1  0  0  0
 36106  1  0  0  0
 37 39  1  0  0  0
 37 47  1  0  0  0
 37 66  1  0  0  0
 37107  1  0  0  0
 38 43  2  0  0  0
 38 46  1  0  0  0
 38 47  1  0  0  0
 39 64  1  0  0  0
 39 67  2  0  0  0
 40 52  1  0  0  0
 40 53  2  0  0  0
 40 58  1  0  0  0
 41108  1  0  0  0
 41109  1  0  0  0
 41110  1  0  0  0
 41 48  1  0  0  0
 42 43  1  0  0  0
 42 66  1  0  0  0
 42111  1  0  0  0
 42112  1  0  0  0
 43 44  1  0  0  0
 44113  1  0  0  0
 45 46  2  0  0  0
 45114  1  0  0  0
 46115  1  0  0  0
 47116  1  0  0  0
 47117  1  0  0  0
 48 56  1  0  0  0
 48 65  1  0  0  0
 48118  1  0  0  0
 49 50  1  0  0  0
 49 53  1  0  0  0
 49 64  1  0  0  0
 49119  1  0  0  0
 50 51  1  0  0  0
 50120  1  0  0  0
 50121  1  0  0  0
 51 52  1  0  0  0
 51122  1  0  0  0
 51123  1  0  0  0
 52124  1  0  0  0
 52125  1  0  0  0
 53 54  1  0  0  0
 54 55  2  0  0  0
 54126  1  0  0  0
 55 57  1  0  0  0
 55127  1  0  0  0
 56 69  2  0  0  0
 57 58  2  0  0  0
 57128  1  0  0  0
 58129  1  0  0  0
 59 60  1  0  0  0
 59 61  1  0  0  0
 59 62  1  0  0  0
 60130  1  0  0  0
 60131  1  0  0  0
 60132  1  0  0  0
 61133  1  0  0  0
 61134  1  0  0  0
 61135  1  0  0  0
 62136  1  0  0  0
 62137  1  0  0  0
 62138  1  0  0  0
 63 65  1  0  0  0
 63139  1  0  0  0
 63140  1  0  0  0
 63141  1  0  0  0
 64142  1  0  0  0
 65143  1  0  0  0
 68 79  1  0  0  0
 71 73  1  0  0  0
 71 74  2  0  0  0
 71144  1  0  0  0
 72 73  2  0  0  0
 72 84  1  0  0  0
 72145  1  0  0  0
 73 81  1  0  0  0
 74 82  1  0  0  0
 74 84  1  0  0  0
 75 78  1  0  0  0
 75 81  1  0  0  0
 75 83  2  0  0  0
 76146  1  0  0  0
 76147  1  0  0  0
 76148  1  0  0  0
 76 80  1  0  0  0
 77 80  1  0  0  0
 77149  1  0  0  0
 77150  1  0  0  0
 77151  1  0  0  0
 78 80  1  0  0  0
 78152  1  0  0  0
 78153  1  0  0  0
 79 80  1  0  0  0
 79154  1  0  0  0
 79155  1  0  0  0
 81156  1  0  0  0
 82157  1  0  0  0
M  ISO  4   1 100  68 101  79 101  82 100
M  END
> <chiral flag>
0

> <version>
0

> <s_m_source_file>
/data/baiqing/PycharmProjects/Reinvent-master-3.2/result/LINK_invent/BTK/process_docking_weight1_custom_product_contain_oxygen_bond_distance_aromatic_linkinvent_7_9_3/rearranged_h_0150.sdf

> <i_m_source_file_index>
73

> <r_mmod_Potential_Energy-OPLS-2005>
-18.9435520172119

> <r_mmod_Stretch_Energy-OPLS-2005>
62.3390731811523

> <r_mmod_Bend_Energy-OPLS-2005>
152.351486206055

> <r_mmod_Torsional_Energy-OPLS-2005>
219.007049560547

> <r_mmod_Improper_Torsional_Energy-OPLS-2005>
2.85207867622375

> <r_mmod_Van_der_Waal_Energy-OPLS-2005>
134.515274047852

> <r_mmod_Electrostatic_Energy-OPLS-2005>
-392.677215576172

> <r_mmod_Solvation_Energy-OPLS-2005>
-225.287963867188

> <b_mmod_Minimization_Converged-OPLS-2005>
0

> <r_mmod_RMS_Derivative-OPLS-2005>
4.07398700714111

$$$$
73
                    3D
 Structure written by MMmdl.
154163  0  0  1  0            999 V2000
  -30.5670  -14.7230   20.4865 C   0  0  0  0  0  0
  -30.4483  -12.4408   19.4657 C   0  0  0  0  0  0
  -29.5146  -12.5083   18.2335 C   0  0  0  0  0  0
  -28.0374  -12.3348   18.6427 C   0  0  0  0  0  0
  -27.6477  -13.2173   19.8580 C   0  0  2  0  0  0
  -28.6925  -13.0963   20.9904 C   0  0  0  0  0  0
  -25.2534  -13.8160   20.5691 C   0  0  0  0  0  0
  -24.1808  -13.0428   20.9198 C   0  0  0  0  0  0
  -24.6383  -11.6899   20.8738 C   0  0  0  0  0  0
  -23.9058  -10.4289   21.0403 C   0  0  0  0  0  0
  -24.3616   -9.4207   21.9187 C   0  0  0  0  0  0
  -23.6285   -8.2241   22.0755 C   0  0  0  0  0  0
  -22.4272   -8.0274   21.3539 C   0  0  0  0  0  0
  -21.9900   -9.0258   20.4650 C   0  0  0  0  0  0
  -22.7221  -10.2140   20.3059 C   0  0  0  0  0  0
  -21.6851   -6.0728   22.5279 C   0  0  0  0  0  0
  -21.4017   -6.5638   23.8205 C   0  0  0  0  0  0
  -21.3654   -5.6788   24.9171 C   0  0  0  0  0  0
  -21.6043   -4.3056   24.7217 C   0  0  0  0  0  0
  -21.8819   -3.8136   23.4341 C   0  0  0  0  0  0
  -21.9193   -4.6954   22.3396 C   0  0  0  0  0  0
  -22.7836  -13.5230   21.1848 C   0  0  0  0  0  0
  -22.1662   -4.2132   21.0979 F   0  0  0  0  0  0
  -21.5619   -3.4541   25.7730 F   0  0  0  0  0  0
  -30.0013  -13.4697   20.4289 N   0  0  0  0  0  0
  -26.2951  -12.9340   20.3296 N   0  0  0  0  0  0
  -25.9314  -11.6500   20.5763 N   0  0  0  0  0  0
  -22.0472  -12.8238   22.0417 N   0  0  0  0  0  0
  -25.4227  -15.1884   20.4094 N   0  0  0  0  0  0
  -31.7316  -14.9125   20.1197 O   0  0  0  0  0  0
  -21.6631   -6.8875   21.4237 O   0  0  0  0  0  0
  -22.3525  -14.5537   20.6696 O   0  0  0  0  0  0
  -24.6291  -31.8568   23.2026 C   0  0  0  0  0  0
  -25.9131  -32.4764   23.8358 C   0  0  1  0  0  0
  -27.2208  -27.2809   20.1197 C   0  0  0  0  0  0
  -25.5936  -33.8571   24.2270 N   0  0  0  0  0  0
  -23.4247  -30.4838   21.5437 C   0  0  2  0  0  0
  -24.8722  -28.9360   20.1124 C   0  0  0  0  0  0
  -22.7490  -29.4620   22.4896 C   0  0  0  0  0  0
  -18.0292  -28.1396   22.8476 C   0  0  0  0  0  0
  -24.1488  -36.7286   23.2630 C   0  0  0  0  0  0
  -25.9724  -30.7754   21.3826 C   0  0  0  0  0  0
  -26.0456  -29.4019   20.7199 C   0  0  0  0  0  0
  -27.2232  -28.5885   20.7118 C   0  0  0  0  0  0
  -26.0193  -26.8818   19.4871 C   0  0  0  0  0  0
  -24.8631  -27.6819   19.4884 C   0  0  0  0  0  0
  -23.6439  -29.8230   20.1588 C   0  0  0  0  0  0
  -25.4114  -36.3070   24.0316 C   0  0  1  0  0  0
  -20.5894  -28.3704   23.1253 C   0  0  2  0  0  0
  -20.6780  -26.9424   22.5392 C   0  0  0  0  0  0
  -19.5754  -26.6393   21.5198 C   0  0  0  0  0  0
  -18.1941  -26.7932   22.1631 C   0  0  0  0  0  0
  -19.1547  -28.8867   23.2860 C   0  0  0  0  0  0
  -18.9474  -30.1469   23.8878 C   0  0  0  0  0  0
  -17.6475  -30.6594   24.0565 C   0  0  0  0  0  0
  -25.9059  -34.9440   23.5090 C   0  0  0  0  0  0
  -16.5363  -29.9098   23.6340 C   0  0  0  0  0  0
  -16.7276  -28.6520   23.0347 C   0  0  0  0  0  0
  -26.4508  -31.6599   25.0746 C   0  0  0  0  0  0
  -25.3746  -31.3789   26.1489 C   0  0  0  0  0  0
  -27.0350  -30.3003   24.6265 C   0  0  0  0  0  0
  -27.6059  -32.4354   25.7503 C   0  0  0  0  0  0
  -27.5586  -37.1786   24.8451 C   0  0  0  0  0  0
  -21.4198  -29.3055   22.3639 N   0  0  0  0  0  0
  -26.4281  -37.3780   23.9418 N   0  0  0  0  0  0
  -24.6940  -31.0562   22.0986 N   0  0  0  0  0  0
  -23.4203  -28.8146   23.2977 O   0  0  0  0  0  0
  -28.3196  -26.3916   20.1714 O   0  0  0  0  0  0
  -26.5633  -34.8900   22.4661 O   0  0  0  0  0  0
  -23.5442  -32.1382   23.7332 O   0  0  0  0  0  0
  -28.4343  -19.1262   19.8937 C   0  0  0  0  0  0
  -28.4872  -17.6810   19.9300 C   0  0  0  0  0  0
  -29.4866  -19.7733   20.4986 C   0  0  0  0  0  0
  -29.5880  -17.1072   20.5378 C   0  0  0  0  0  0
  -30.5674  -23.0981   22.2294 C   0  0  0  0  0  0
  -30.5935  -21.6155   21.7740 C   0  0  0  0  0  0
  -28.6891  -22.2398   20.2222 C   0  0  0  0  0  0
  -29.1534  -23.7815   20.2982 C   0  0  1  0  0  0
  -28.0428  -24.9227   20.0511 C   0  0  0  0  0  0
  -29.8638  -24.0137   21.5485 N   0  0  0  0  0  0
  -29.6791  -21.2033   20.6955 N   0  0  0  0  0  0
  -29.7016  -15.7419   20.8360 N   0  0  0  0  0  0
  -31.1879  -23.4244   23.2399 O   0  0  0  0  0  0
  -30.6092  -18.4801   21.0678 S   0  0  0  0  0  0
  -31.4850  -12.5922   19.1603 H   0  0  0  0  0  0
  -30.4099  -11.4529   19.9282 H   0  0  0  0  0  0
  -29.7913  -11.7407   17.5097 H   0  0  0  0  0  0
  -29.6427  -13.4658   17.7253 H   0  0  0  0  0  0
  -27.8872  -11.2831   18.8908 H   0  0  0  0  0  0
  -27.3823  -12.5419   17.7958 H   0  0  0  0  0  0
  -27.6532  -14.2471   19.5004 H   0  0  0  0  0  0
  -28.7215  -12.0758   21.3754 H   0  0  0  0  0  0
  -28.4205  -13.7251   21.8394 H   0  0  0  0  0  0
  -25.2767   -9.5674   22.4761 H   0  0  0  0  0  0
  -23.9980   -7.4637   22.7488 H   0  0  0  0  0  0
  -21.0814   -8.8786   19.8979 H   0  0  0  0  0  0
  -22.3672  -10.9689   19.6170 H   0  0  0  0  0  0
  -21.2020   -7.6147   23.9708 H   0  0  0  0  0  0
  -21.1474   -6.0521   25.9073 H   0  0  0  0  0  0
  -22.0601   -2.7594   23.2851 H   0  0  0  0  0  0
  -22.4079  -11.9901   22.4824 H   0  0  0  0  0  0
  -21.1110  -13.1303   22.2647 H   0  0  0  0  0  0
  -24.6529  -15.8407   20.5133 H   0  0  0  0  0  0
  -26.2621  -15.6217   20.0536 H   0  0  0  0  0  0
  -26.7191  -32.5415   23.1091 H   0  0  0  0  0  0
  -25.0065  -33.9734   25.0400 H   0  0  0  0  0  0
  -22.7193  -31.3050   21.4006 H   0  0  0  0  0  0
  -23.3754  -35.9612   23.3257 H   0  0  0  0  0  0
  -24.3583  -36.8955   22.2054 H   0  0  0  0  0  0
  -23.7231  -37.6465   23.6688 H   0  0  0  0  0  0
  -26.1188  -31.5415   20.6199 H   0  0  0  0  0  0
  -26.8459  -30.8148   22.0215 H   0  0  0  0  0  0
  -28.1193  -28.9425   21.2027 H   0  0  0  0  0  0
  -25.9319  -25.9276   18.9917 H   0  0  0  0  0  0
  -23.9646  -27.3184   19.0085 H   0  0  0  0  0  0
  -23.7711  -30.6027   19.4067 H   0  0  0  0  0  0
  -22.7616  -29.2608   19.8485 H   0  0  0  0  0  0
  -25.1289  -36.1900   25.0806 H   0  0  0  0  0  0
  -20.9992  -28.3287   24.1371 H   0  0  0  0  0  0
  -20.5685  -26.2314   23.3593 H   0  0  0  0  0  0
  -21.6648  -26.7452   22.1178 H   0  0  0  0  0  0
  -19.6915  -25.6303   21.1233 H   0  0  0  0  0  0
  -19.6684  -27.3196   20.6720 H   0  0  0  0  0  0
  -17.4191  -26.6641   21.4060 H   0  0  0  0  0  0
  -18.0375  -26.0093   22.9057 H   0  0  0  0  0  0
  -19.7952  -30.7294   24.2232 H   0  0  0  0  0  0
  -17.5032  -31.6267   24.5180 H   0  0  0  0  0  0
  -15.5365  -30.3004   23.7677 H   0  0  0  0  0  0
  -15.8672  -28.0851   22.7057 H   0  0  0  0  0  0
  -24.5793  -30.7305   25.7801 H   0  0  0  0  0  0
  -24.9112  -32.3003   26.5031 H   0  0  0  0  0  0
  -25.8046  -30.8818   27.0194 H   0  0  0  0  0  0
  -26.2945  -29.6749   24.1270 H   0  0  0  0  0  0
  -27.3975  -29.7284   25.4817 H   0  0  0  0  0  0
  -27.8847  -30.4252   23.9552 H   0  0  0  0  0  0
  -27.2651  -33.3641   26.2091 H   0  0  0  0  0  0
  -28.3853  -32.6958   25.0330 H   0  0  0  0  0  0
  -28.0741  -31.8487   26.5416 H   0  0  0  0  0  0
  -28.2560  -38.0128   24.7552 H   0  0  0  0  0  0
  -28.1130  -36.2662   24.6200 H   0  0  0  0  0  0
  -27.2307  -37.1312   25.8851 H   0  0  0  0  0  0
  -20.9368  -29.8798   21.6868 H   0  0  0  0  0  0
  -26.0145  -38.2832   24.1487 H   0  0  0  0  0  0
  -27.5876  -19.6306   19.4505 H   0  0  0  0  0  0
  -27.6641  -17.1116   19.5220 H   0  0  0  0  0  0
  -30.3911  -21.0109   22.6596 H   0  0  0  0  0  0
  -31.6162  -21.3832   21.4731 H   0  0  0  0  0  0
  -28.3946  -22.0135   19.1965 H   0  0  0  0  0  0
  -27.7852  -22.1194   20.8202 H   0  0  0  0  0  0
  -29.9052  -23.9173   19.5199 H   0  0  0  0  0  0
  -27.1997  -24.6964   20.7057 H   0  0  0  0  0  0
  -27.6877  -24.7461   19.0354 H   0  0  0  0  0  0
  -29.8703  -24.9645   21.8913 H   0  0  0  0  0  0
  -28.8217  -15.3338   21.1099 H   0  0  0  0  0  0
  1 25  1  0  0  0
  1 30  2  0  0  0
  1 82  1  0  0  0
  2  3  1  0  0  0
  2 25  1  0  0  0
  2 85  1  0  0  0
  2 86  1  0  0  0
  3  4  1  0  0  0
  3 87  1  0  0  0
  3 88  1  0  0  0
  4  5  1  0  0  0
  4 89  1  0  0  0
  4 90  1  0  0  0
  5  6  1  0  0  0
  5 26  1  0  0  0
  5 91  1  0  0  0
  6 25  1  0  0  0
  6 92  1  0  0  0
  6 93  1  0  0  0
  7  8  2  0  0  0
  7 26  1  0  0  0
  7 29  1  0  0  0
  8  9  1  0  0  0
  8 22  1  0  0  0
  9 10  1  0  0  0
  9 27  2  0  0  0
 10 11  2  0  0  0
 10 15  1  0  0  0
 11 12  1  0  0  0
 11 94  1  0  0  0
 12 13  2  0  0  0
 12 95  1  0  0  0
 13 14  1  0  0  0
 13 31  1  0  0  0
 14 15  2  0  0  0
 14 96  1  0  0  0
 15 97  1  0  0  0
 16 17  2  0  0  0
 16 21  1  0  0  0
 16 31  1  0  0  0
 17 18  1  0  0  0
 17 98  1  0  0  0
 18 19  2  0  0  0
 18 99  1  0  0  0
 19 20  1  0  0  0
 19 24  1  0  0  0
 20 21  2  0  0  0
 20100  1  0  0  0
 21 23  1  0  0  0
 22 28  1  0  0  0
 22 32  2  0  0  0
 26 27  1  0  0  0
 28101  1  0  0  0
 28102  1  0  0  0
 29103  1  0  0  0
 29104  1  0  0  0
 33 34  1  0  0  0
 33 66  1  0  0  0
 33 70  2  0  0  0
 34 36  1  0  0  0
 34 59  1  0  0  0
 34105  1  0  0  0
 35 44  2  0  0  0
 35 45  1  0  0  0
 35 68  1  0  0  0
 36 56  1  0  0  0
 36106  1  0  0  0
 37 39  1  0  0  0
 37 47  1  0  0  0
 37 66  1  0  0  0
 37107  1  0  0  0
 38 43  2  0  0  0
 38 46  1  0  0  0
 38 47  1  0  0  0
 39 64  1  0  0  0
 39 67  2  0  0  0
 40 52  1  0  0  0
 40 53  2  0  0  0
 40 58  1  0  0  0
 41108  1  0  0  0
 41109  1  0  0  0
 41110  1  0  0  0
 41 48  1  0  0  0
 42 43  1  0  0  0
 42 66  1  0  0  0
 42111  1  0  0  0
 42112  1  0  0  0
 43 44  1  0  0  0
 44113  1  0  0  0
 45 46  2  0  0  0
 45114  1  0  0  0
 46115  1  0  0  0
 47116  1  0  0  0
 47117  1  0  0  0
 48 56  1  0  0  0
 48 65  1  0  0  0
 48118  1  0  0  0
 49 50  1  0  0  0
 49 53  1  0  0  0
 49 64  1  0  0  0
 49119  1  0  0  0
 50 51  1  0  0  0
 50120  1  0  0  0
 50121  1  0  0  0
 51 52  1  0  0  0
 51122  1  0  0  0
 51123  1  0  0  0
 52124  1  0  0  0
 52125  1  0  0  0
 53 54  1  0  0  0
 54 55  2  0  0  0
 54126  1  0  0  0
 55 57  1  0  0  0
 55127  1  0  0  0
 56 69  2  0  0  0
 57 58  2  0  0  0
 57128  1  0  0  0
 58129  1  0  0  0
 59 60  1  0  0  0
 59 61  1  0  0  0
 59 62  1  0  0  0
 60130  1  0  0  0
 60131  1  0  0  0
 60132  1  0  0  0
 61133  1  0  0  0
 61134  1  0  0  0
 61135  1  0  0  0
 62136  1  0  0  0
 62137  1  0  0  0
 62138  1  0  0  0
 63 65  1  0  0  0
 63139  1  0  0  0
 63140  1  0  0  0
 63141  1  0  0  0
 64142  1  0  0  0
 65143  1  0  0  0
 68 79  1  0  0  0
 71 72  1  0  0  0
 71 73  2  0  0  0
 71144  1  0  0  0
 72 74  2  0  0  0
 72145  1  0  0  0
 73 81  1  0  0  0
 73 84  1  0  0  0
 74 82  1  0  0  0
 74 84  1  0  0  0
 75 76  1  0  0  0
 75 80  1  0  0  0
 75 83  2  0  0  0
 76 81  1  0  0  0
 76146  1  0  0  0
 76147  1  0  0  0
 77 78  1  0  0  0
 77 81  1  0  0  0
 77148  1  0  0  0
 77149  1  0  0  0
 78 79  1  0  0  0
 78 80  1  0  0  0
 78150  1  0  0  0
 79151  1  0  0  0
 79152  1  0  0  0
 80153  1  0  0  0
 82154  1  0  0  0
M  ISO  4   1 100  68 101  79 101  82 100
M  END
> <chiral flag>
0

> <version>
0

> <s_m_source_file>
/data/baiqing/PycharmProjects/Reinvent-master-3.2/result/LINK_invent/BTK/process_docking_weight1_custom_product_contain_oxygen_bond_distance_aromatic_linkinvent_7_9_3/rearranged_h_0150.sdf

> <i_m_source_file_index>
74

> <r_mmod_Potential_Energy-OPLS-2005>
130.532302856445

> <r_mmod_Stretch_Energy-OPLS-2005>
103.579750061035

> <r_mmod_Bend_Energy-OPLS-2005>
173.080230712891

> <r_mmod_Torsional_Energy-OPLS-2005>
259.621917724609

> <r_mmod_Improper_Torsional_Energy-OPLS-2005>
7.08999156951904

> <r_mmod_Van_der_Waal_Energy-OPLS-2005>
126.626899719238

> <r_mmod_Electrostatic_Energy-OPLS-2005>
-343.883819580078

> <r_mmod_Solvation_Energy-OPLS-2005>
-271.713226318359

> <b_mmod_Minimization_Converged-OPLS-2005>
0

> <r_mmod_RMS_Derivative-OPLS-2005>
2.02939248085022

$$$$
74
                    3D
 Structure written by MMmdl.
160169  0  0  1  0            999 V2000
  -30.6542  -14.7274   20.4454 C   0  0  0  0  0  0
  -30.4082  -12.4410   19.4724 C   0  0  0  0  0  0
  -29.4914  -12.4931   18.2319 C   0  0  0  0  0  0
  -28.0220  -12.3250   18.6528 C   0  0  0  0  0  0
  -27.6353  -13.2331   19.8518 C   0  0  2  0  0  0
  -28.6816  -13.1866   20.9870 C   0  0  0  0  0  0
  -25.2469  -13.8181   20.5700 C   0  0  0  0  0  0
  -24.1763  -13.0454   20.9208 C   0  0  0  0  0  0
  -24.6362  -11.6928   20.8777 C   0  0  0  0  0  0
  -23.9044  -10.4307   21.0416 C   0  0  0  0  0  0
  -24.3602   -9.4219   21.9198 C   0  0  0  0  0  0
  -23.6290   -8.2248   22.0757 C   0  0  0  0  0  0
  -22.4285   -8.0275   21.3538 C   0  0  0  0  0  0
  -21.9914   -9.0244   20.4631 C   0  0  0  0  0  0
  -22.7226  -10.2136   20.3057 C   0  0  0  0  0  0
  -21.6854   -6.0735   22.5266 C   0  0  0  0  0  0
  -21.4007   -6.5646   23.8203 C   0  0  0  0  0  0
  -21.3661   -5.6784   24.9162 C   0  0  0  0  0  0
  -21.6043   -4.3050   24.7227 C   0  0  0  0  0  0
  -21.8820   -3.8161   23.4340 C   0  0  0  0  0  0
  -21.9193   -4.6963   22.3394 C   0  0  0  0  0  0
  -22.7783  -13.5228   21.1899 C   0  0  0  0  0  0
  -22.1665   -4.2141   21.0971 F   0  0  0  0  0  0
  -21.5633   -3.4548   25.7748 F   0  0  0  0  0  0
  -29.9805  -13.5252   20.3924 N   0  0  0  0  0  0
  -26.2890  -12.9404   20.3318 N   0  0  0  0  0  0
  -25.9287  -11.6550   20.5784 N   0  0  0  0  0  0
  -22.0451  -12.8180   22.0403 N   0  0  0  0  0  0
  -25.4192  -15.1914   20.4097 N   0  0  0  0  0  0
  -31.8460  -14.7246   20.1348 O   0  0  0  0  0  0
  -21.6651   -6.8894   21.4227 O   0  0  0  0  0  0
  -22.3479  -14.5562   20.6776 O   0  0  0  0  0  0
  -24.6313  -31.8565   23.1928 C   0  0  0  0  0  0
  -25.9140  -32.4753   23.8254 C   0  0  1  0  0  0
  -27.2461  -27.2575   20.1543 C   0  0  0  0  0  0
  -25.5888  -33.8539   24.2175 N   0  0  0  0  0  0
  -23.4295  -30.4737   21.5391 C   0  0  2  0  0  0
  -24.8841  -28.9040   20.1239 C   0  0  0  0  0  0
  -22.7516  -29.4612   22.4936 C   0  0  0  0  0  0
  -18.0319  -28.1404   22.8506 C   0  0  0  0  0  0
  -24.1481  -36.7291   23.2636 C   0  0  0  0  0  0
  -25.9754  -30.7647   21.3756 C   0  0  0  0  0  0
  -26.0547  -29.3833   20.7262 C   0  0  0  0  0  0
  -27.2361  -28.5744   20.7241 C   0  0  0  0  0  0
  -26.0498  -26.8423   19.5245 C   0  0  0  0  0  0
  -24.8858  -27.6401   19.5144 C   0  0  0  0  0  0
  -23.6510  -29.7895   20.1651 C   0  0  0  0  0  0
  -25.4112  -36.3082   24.0308 C   0  0  1  0  0  0
  -20.5911  -28.3739   23.1274 C   0  0  2  0  0  0
  -20.6797  -26.9453   22.5429 C   0  0  0  0  0  0
  -19.5758  -26.6413   21.5259 C   0  0  0  0  0  0
  -18.1942  -26.7954   22.1657 C   0  0  0  0  0  0
  -19.1578  -28.8898   23.2864 C   0  0  0  0  0  0
  -18.9493  -30.1500   23.8878 C   0  0  0  0  0  0
  -17.6494  -30.6602   24.0635 C   0  0  0  0  0  0
  -25.9053  -34.9447   23.5069 C   0  0  0  0  0  0
  -16.5376  -29.9111   23.6374 C   0  0  0  0  0  0
  -16.7325  -28.6539   23.0366 C   0  0  0  0  0  0
  -26.4451  -31.6606   25.0686 C   0  0  0  0  0  0
  -25.3630  -31.3810   26.1405 C   0  0  0  0  0  0
  -27.0342  -30.3015   24.6215 C   0  0  0  0  0  0
  -27.5964  -32.4404   25.7477 C   0  0  0  0  0  0
  -27.5588  -37.1779   24.8449 C   0  0  0  0  0  0
  -21.4237  -29.3066   22.3671 N   0  0  0  0  0  0
  -26.4302  -37.3783   23.9392 N   0  0  0  0  0  0
  -24.6979  -31.0501   22.0908 N   0  0  0  0  0  0
  -23.4222  -28.8179   23.3065 O   0  0  0  0  0  0
  -28.3715  -26.3971   20.1946 O   0  0  0  0  0  0
  -26.5725  -34.8946   22.4692 O   0  0  0  0  0  0
  -23.5469  -32.1390   23.7224 O   0  0  0  0  0  0
  -31.7933  -17.6312   20.3329 C   0  0  0  0  0  0
  -32.2950  -18.9344   20.2020 C   0  0  0  0  0  0
  -29.5494  -18.5443   20.5117 C   0  0  0  0  0  0
  -30.0516  -19.9173   20.3886 C   0  0  0  0  0  0
  -30.4109  -17.3520   20.5001 C   0  0  0  0  0  0
  -31.4518  -20.0552   20.2402 C   0  0  0  0  0  0
  -29.2597  -21.2238   20.1758 C   0  0  0  0  0  0
  -30.6752  -23.8488   22.3749 C   0  0  0  0  0  0
  -30.7135  -24.4111   20.9431 C   0  0  0  0  0  0
  -30.0162  -22.4634   22.2113 C   0  0  0  0  0  0
  -29.4256  -23.8816   20.2804 C   0  0  2  0  0  0
  -28.2117  -24.9331   20.5358 C   0  0  0  0  0  0
  -29.4054  -22.4394   20.8557 N   0  0  0  0  0  0
  -29.9563  -15.9247   20.6285 N   0  0  0  0  0  0
  -28.4169  -21.2445   19.1465 N   0  3  0  0  0  0
  -32.0176  -21.2747   20.0631 F   0  0  0  0  0  0
  -31.4531  -12.5232   19.1668 H   0  0  0  0  0  0
  -30.3221  -11.4725   19.9651 H   0  0  0  0  0  0
  -29.7643  -11.7060   17.5277 H   0  0  0  0  0  0
  -29.6148  -13.4382   17.7019 H   0  0  0  0  0  0
  -27.8749  -11.2767   18.9158 H   0  0  0  0  0  0
  -27.3596  -12.5162   17.8080 H   0  0  0  0  0  0
  -27.6272  -14.2523   19.4656 H   0  0  0  0  0  0
  -28.7118  -12.1956   21.4447 H   0  0  0  0  0  0
  -28.4221  -13.8837   21.7865 H   0  0  0  0  0  0
  -25.2757   -9.5691   22.4764 H   0  0  0  0  0  0
  -24.0007   -7.4636   22.7471 H   0  0  0  0  0  0
  -21.0872   -8.8764   19.8917 H   0  0  0  0  0  0
  -22.3704  -10.9680   19.6166 H   0  0  0  0  0  0
  -21.2002   -7.6150   23.9693 H   0  0  0  0  0  0
  -21.1470   -6.0538   25.9065 H   0  0  0  0  0  0
  -22.0601   -2.7614   23.2850 H   0  0  0  0  0  0
  -22.4123  -11.9835   22.4744 H   0  0  0  0  0  0
  -21.1036  -13.1106   22.2631 H   0  0  0  0  0  0
  -24.6522  -15.8480   20.5220 H   0  0  0  0  0  0
  -26.2611  -15.6240   20.0532 H   0  0  0  0  0  0
  -26.7218  -32.5403   23.1006 H   0  0  0  0  0  0
  -24.9887  -33.9590   25.0220 H   0  0  0  0  0  0
  -22.7273  -31.2968   21.3827 H   0  0  0  0  0  0
  -23.3746  -35.9623   23.3305 H   0  0  0  0  0  0
  -24.3550  -36.8949   22.2053 H   0  0  0  0  0  0
  -23.7232  -37.6457   23.6711 H   0  0  0  0  0  0
  -26.1194  -31.5160   20.5977 H   0  0  0  0  0  0
  -26.8504  -30.8135   22.0125 H   0  0  0  0  0  0
  -28.1316  -28.9400   21.2057 H   0  0  0  0  0  0
  -25.9989  -25.8779   19.0352 H   0  0  0  0  0  0
  -23.9884  -27.2636   19.0419 H   0  0  0  0  0  0
  -23.7750  -30.5544   19.3972 H   0  0  0  0  0  0
  -22.7659  -29.2181   19.8767 H   0  0  0  0  0  0
  -25.1288  -36.1929   25.0806 H   0  0  0  0  0  0
  -21.0008  -28.3403   24.1402 H   0  0  0  0  0  0
  -20.5823  -26.2341   23.3652 H   0  0  0  0  0  0
  -21.6627  -26.7564   22.1124 H   0  0  0  0  0  0
  -19.6919  -25.6349   21.1243 H   0  0  0  0  0  0
  -19.6673  -27.3269   20.6828 H   0  0  0  0  0  0
  -17.4221  -26.6814   21.4043 H   0  0  0  0  0  0
  -18.0279  -26.0074   22.9018 H   0  0  0  0  0  0
  -19.7977  -30.7338   24.2189 H   0  0  0  0  0  0
  -17.5063  -31.6274   24.5262 H   0  0  0  0  0  0
  -15.5371  -30.3021   23.7677 H   0  0  0  0  0  0
  -15.8730  -28.0899   22.7010 H   0  0  0  0  0  0
  -24.5735  -30.7275   25.7682 H   0  0  0  0  0  0
  -24.8894  -32.3032   26.4801 H   0  0  0  0  0  0
  -25.7851  -30.8946   27.0217 H   0  0  0  0  0  0
  -26.2994  -29.6706   24.1203 H   0  0  0  0  0  0
  -27.3984  -29.7313   25.4755 H   0  0  0  0  0  0
  -27.8857  -30.4236   23.9515 H   0  0  0  0  0  0
  -27.2524  -33.3729   26.1958 H   0  0  0  0  0  0
  -28.3799  -32.6948   25.0339 H   0  0  0  0  0  0
  -28.0616  -31.8629   26.5481 H   0  0  0  0  0  0
  -28.2556  -38.0122   24.7554 H   0  0  0  0  0  0
  -28.1145  -36.2644   24.6226 H   0  0  0  0  0  0
  -27.2308  -37.1348   25.8853 H   0  0  0  0  0  0
  -20.9495  -29.8715   21.6767 H   0  0  0  0  0  0
  -26.0194  -38.2862   24.1414 H   0  0  0  0  0  0
  -32.5452  -16.8648   20.2857 H   0  0  0  0  0  0
  -33.3539  -19.0797   20.0446 H   0  0  0  0  0  0
  -28.4805  -18.4082   20.5930 H   0  0  0  0  0  0
  -30.0785  -24.4783   23.0434 H   0  0  0  0  0  0
  -31.6779  -23.8007   22.8119 H   0  0  0  0  0  0
  -31.5885  -24.0133   20.4206 H   0  0  0  0  0  0
  -30.8026  -25.4963   20.9257 H   0  0  0  0  0  0
  -29.2560  -22.3015   22.9802 H   0  0  0  0  0  0
  -30.7620  -21.6748   22.3293 H   0  0  0  0  0  0
  -29.6067  -23.8367   19.2050 H   0  0  0  0  0  0
  -27.9303  -24.8864   21.5897 H   0  0  0  0  0  0
  -27.3565  -24.5310   19.9930 H   0  0  0  0  0  0
  -28.9753  -15.7944   20.8285 H   0  0  0  0  0  0
  -28.2701  -20.4090   18.6015 H   0  0  0  0  0  0
  -27.8991  -22.0723   18.9124 H   0  0  0  0  0  0
  1 25  1  0  0  0
  1 30  2  0  0  0
  1 84  1  0  0  0
  2  3  1  0  0  0
  2 25  1  0  0  0
  2 87  1  0  0  0
  2 88  1  0  0  0
  3  4  1  0  0  0
  3 89  1  0  0  0
  3 90  1  0  0  0
  4  5  1  0  0  0
  4 91  1  0  0  0
  4 92  1  0  0  0
  5  6  1  0  0  0
  5 26  1  0  0  0
  5 93  1  0  0  0
  6 25  1  0  0  0
  6 94  1  0  0  0
  6 95  1  0  0  0
  7  8  2  0  0  0
  7 26  1  0  0  0
  7 29  1  0  0  0
  8  9  1  0  0  0
  8 22  1  0  0  0
  9 10  1  0  0  0
  9 27  2  0  0  0
 10 11  2  0  0  0
 10 15  1  0  0  0
 11 12  1  0  0  0
 11 96  1  0  0  0
 12 13  2  0  0  0
 12 97  1  0  0  0
 13 14  1  0  0  0
 13 31  1  0  0  0
 14 15  2  0  0  0
 14 98  1  0  0  0
 15 99  1  0  0  0
 16 17  2  0  0  0
 16 21  1  0  0  0
 16 31  1  0  0  0
 17 18  1  0  0  0
 17100  1  0  0  0
 18 19  2  0  0  0
 18101  1  0  0  0
 19 20  1  0  0  0
 19 24  1  0  0  0
 20 21  2  0  0  0
 20102  1  0  0  0
 21 23  1  0  0  0
 22 28  1  0  0  0
 22 32  2  0  0  0
 26 27  1  0  0  0
 28103  1  0  0  0
 28104  1  0  0  0
 29105  1  0  0  0
 29106  1  0  0  0
 33 34  1  0  0  0
 33 66  1  0  0  0
 33 70  2  0  0  0
 34 36  1  0  0  0
 34 59  1  0  0  0
 34107  1  0  0  0
 35 44  2  0  0  0
 35 45  1  0  0  0
 35 68  1  0  0  0
 36 56  1  0  0  0
 36108  1  0  0  0
 37 39  1  0  0  0
 37 47  1  0  0  0
 37 66  1  0  0  0
 37109  1  0  0  0
 38 43  2  0  0  0
 38 46  1  0  0  0
 38 47  1  0  0  0
 39 64  1  0  0  0
 39 67  2  0  0  0
 40 52  1  0  0  0
 40 53  2  0  0  0
 40 58  1  0  0  0
 41110  1  0  0  0
 41111  1  0  0  0
 41112  1  0  0  0
 41 48  1  0  0  0
 42 43  1  0  0  0
 42 66  1  0  0  0
 42113  1  0  0  0
 42114  1  0  0  0
 43 44  1  0  0  0
 44115  1  0  0  0
 45 46  2  0  0  0
 45116  1  0  0  0
 46117  1  0  0  0
 47118  1  0  0  0
 47119  1  0  0  0
 48 56  1  0  0  0
 48 65  1  0  0  0
 48120  1  0  0  0
 49 50  1  0  0  0
 49 53  1  0  0  0
 49 64  1  0  0  0
 49121  1  0  0  0
 50 51  1  0  0  0
 50122  1  0  0  0
 50123  1  0  0  0
 51 52  1  0  0  0
 51124  1  0  0  0
 51125  1  0  0  0
 52126  1  0  0  0
 52127  1  0  0  0
 53 54  1  0  0  0
 54 55  2  0  0  0
 54128  1  0  0  0
 55 57  1  0  0  0
 55129  1  0  0  0
 56 69  2  0  0  0
 57 58  2  0  0  0
 57130  1  0  0  0
 58131  1  0  0  0
 59 60  1  0  0  0
 59 61  1  0  0  0
 59 62  1  0  0  0
 60132  1  0  0  0
 60133  1  0  0  0
 60134  1  0  0  0
 61135  1  0  0  0
 61136  1  0  0  0
 61137  1  0  0  0
 62138  1  0  0  0
 62139  1  0  0  0
 62140  1  0  0  0
 63 65  1  0  0  0
 63141  1  0  0  0
 63142  1  0  0  0
 63143  1  0  0  0
 64144  1  0  0  0
 65145  1  0  0  0
 68 82  1  0  0  0
 71 72  2  0  0  0
 71 75  1  0  0  0
 71146  1  0  0  0
 72 76  1  0  0  0
 72147  1  0  0  0
 73 74  1  0  0  0
 73 75  2  0  0  0
 73148  1  0  0  0
 74 76  2  0  0  0
 74 77  1  0  0  0
 75 84  1  0  0  0
 76 86  1  0  0  0
 77 83  1  0  0  0
 77 85  2  0  0  0
 78 79  1  0  0  0
 78 80  1  0  0  0
 78149  1  0  0  0
 78150  1  0  0  0
 79 81  1  0  0  0
 79151  1  0  0  0
 79152  1  0  0  0
 80 83  1  0  0  0
 80153  1  0  0  0
 80154  1  0  0  0
 81 82  1  0  0  0
 81 83  1  0  0  0
 81155  1  0  0  0
 82156  1  0  0  0
 82157  1  0  0  0
 84158  1  0  0  0
 85159  1  0  0  0
 85160  1  0  0  0
M  CHG  1  85   1
M  ISO  4   1 100  68 101  82 101  84 100
M  END
> <chiral flag>
0

> <version>
0

> <s_m_source_file>
/data/baiqing/PycharmProjects/Reinvent-master-3.2/result/LINK_invent/BTK/process_docking_weight1_custom_product_contain_oxygen_bond_distance_aromatic_linkinvent_7_9_3/rearranged_h_0150.sdf

> <i_m_source_file_index>
75

> <r_mmod_Potential_Energy-OPLS-2005>
152.714950561523

> <r_mmod_Stretch_Energy-OPLS-2005>
143.180023193359

> <r_mmod_Bend_Energy-OPLS-2005>
209.473327636719

> <r_mmod_Torsional_Energy-OPLS-2005>
337.572998046875

> <r_mmod_Improper_Torsional_Energy-OPLS-2005>
8.10782814025879

> <r_mmod_Van_der_Waal_Energy-OPLS-2005>
145.871719360352

> <r_mmod_Electrostatic_Energy-OPLS-2005>
-372.732055664062

> <r_mmod_Solvation_Energy-OPLS-2005>
-400.142547607422

> <b_mmod_Minimization_Converged-OPLS-2005>
0

> <r_mmod_RMS_Derivative-OPLS-2005>
5.67268514633179

$$$$
75
                    3D
 Structure written by MMmdl.
159168  0  0  1  0            999 V2000
  -30.5759  -14.7513   20.4264 C   0  0  0  0  0  0
  -30.4346  -12.4556   19.4641 C   0  0  0  0  0  0
  -29.5028  -12.5112   18.2308 C   0  0  0  0  0  0
  -28.0297  -12.3406   18.6473 C   0  0  0  0  0  0
  -27.6413  -13.2348   19.8554 C   0  0  2  0  0  0
  -28.6860  -13.1354   20.9865 C   0  0  0  0  0  0
  -25.2484  -13.8214   20.5726 C   0  0  0  0  0  0
  -24.1788  -13.0432   20.9206 C   0  0  0  0  0  0
  -24.6387  -11.6930   20.8740 C   0  0  0  0  0  0
  -23.9063  -10.4299   21.0396 C   0  0  0  0  0  0
  -24.3625   -9.4230   21.9163 C   0  0  0  0  0  0
  -23.6317   -8.2262   22.0744 C   0  0  0  0  0  0
  -22.4288   -8.0313   21.3541 C   0  0  0  0  0  0
  -21.9911   -9.0272   20.4626 C   0  0  0  0  0  0
  -22.7240  -10.2154   20.3030 C   0  0  0  0  0  0
  -21.6865   -6.0754   22.5285 C   0  0  0  0  0  0
  -21.4019   -6.5648   23.8225 C   0  0  0  0  0  0
  -21.3651   -5.6798   24.9170 C   0  0  0  0  0  0
  -21.6048   -4.3057   24.7233 C   0  0  0  0  0  0
  -21.8811   -3.8155   23.4345 C   0  0  0  0  0  0
  -21.9201   -4.6974   22.3412 C   0  0  0  0  0  0
  -22.7799  -13.5201   21.1886 C   0  0  0  0  0  0
  -22.1672   -4.2165   21.0990 F   0  0  0  0  0  0
  -21.5632   -3.4542   25.7737 F   0  0  0  0  0  0
  -29.9881  -13.5041   20.4125 N   0  0  0  0  0  0
  -26.2935  -12.9442   20.3320 N   0  0  0  0  0  0
  -25.9324  -11.6578   20.5757 N   0  0  0  0  0  0
  -22.0457  -12.8145   22.0408 N   0  0  0  0  0  0
  -25.4168  -15.1953   20.4234 N   0  0  0  0  0  0
  -31.7548  -14.8747   20.0760 O   0  0  0  0  0  0
  -21.6647   -6.8914   21.4263 O   0  0  0  0  0  0
  -22.3475  -14.5488   20.6730 O   0  0  0  0  0  0
  -24.6344  -31.8533   23.1991 C   0  0  0  0  0  0
  -25.9164  -32.4743   23.8337 C   0  0  1  0  0  0
  -27.2064  -27.2329   20.1139 C   0  0  0  0  0  0
  -25.5953  -33.8557   24.2238 N   0  0  0  0  0  0
  -23.4312  -30.4774   21.5462 C   0  0  2  0  0  0
  -24.8746  -28.9291   20.1055 C   0  0  0  0  0  0
  -22.7528  -29.4571   22.4924 C   0  0  0  0  0  0
  -18.0291  -28.1392   22.8490 C   0  0  0  0  0  0
  -24.1489  -36.7276   23.2641 C   0  0  0  0  0  0
  -25.9822  -30.7502   21.3893 C   0  0  0  0  0  0
  -26.0502  -29.3768   20.7201 C   0  0  0  0  0  0
  -27.2160  -28.5405   20.7170 C   0  0  0  0  0  0
  -26.0077  -26.8714   19.4534 C   0  0  0  0  0  0
  -24.8597  -27.6847   19.4620 C   0  0  0  0  0  0
  -23.6500  -29.8223   20.1594 C   0  0  0  0  0  0
  -25.4120  -36.3073   24.0308 C   0  0  1  0  0  0
  -20.5896  -28.3698   23.1277 C   0  0  2  0  0  0
  -20.6784  -26.9414   22.5418 C   0  0  0  0  0  0
  -19.5754  -26.6380   21.5233 C   0  0  0  0  0  0
  -18.1936  -26.7931   22.1629 C   0  0  0  0  0  0
  -19.1549  -28.8870   23.2863 C   0  0  0  0  0  0
  -18.9460  -30.1482   23.8861 C   0  0  0  0  0  0
  -17.6460  -30.6603   24.0563 C   0  0  0  0  0  0
  -25.9057  -34.9442   23.5067 C   0  0  0  0  0  0
  -16.5356  -29.9083   23.6350 C   0  0  0  0  0  0
  -16.7278  -28.6506   23.0365 C   0  0  0  0  0  0
  -26.4515  -31.6607   25.0768 C   0  0  0  0  0  0
  -25.3718  -31.3753   26.1480 C   0  0  0  0  0  0
  -27.0406  -30.3029   24.6305 C   0  0  0  0  0  0
  -27.6053  -32.4379   25.7555 C   0  0  0  0  0  0
  -27.5569  -37.1794   24.8461 C   0  0  0  0  0  0
  -21.4235  -29.3028   22.3661 N   0  0  0  0  0  0
  -26.4291  -37.3772   23.9391 N   0  0  0  0  0  0
  -24.7020  -31.0451   22.0995 N   0  0  0  0  0  0
  -23.4213  -28.8100   23.3029 O   0  0  0  0  0  0
  -28.2831  -26.3056   20.1916 O   0  0  0  0  0  0
  -26.5646  -34.8921   22.4648 O   0  0  0  0  0  0
  -23.5483  -32.1376   23.7260 O   0  0  0  0  0  0
  -29.4184  -18.4108   20.7392 C   0  0  0  0  0  0
  -29.4356  -19.6027   19.8573 C   0  0  0  0  0  0
  -29.7770  -19.1894   18.5823 C   0  0  0  0  0  0
  -29.7964  -17.1673   20.1851 C   0  0  0  0  0  0
  -28.4328  -22.9142   21.6306 C   0  0  0  0  0  0
  -28.8579  -21.4122   21.6372 C   0  0  0  0  0  0
  -28.9143  -22.2359   19.4357 C   0  0  0  0  0  0
  -28.9509  -23.5702   20.3271 C   0  0  2  0  0  0
  -29.8316  -19.9682   17.3034 C   0  0  0  0  0  0
  -30.4114  -24.0253   20.5092 C   0  0  0  0  0  0
  -28.0685  -24.8524   19.8115 C   0  0  0  0  0  0
  -29.1195  -20.9952   20.2618 N   0  0  0  0  0  0
  -29.7808  -15.8580   20.7095 N   0  0  0  0  0  0
  -30.1913  -17.4746   18.5101 S   0  0  0  0  0  0
  -31.4708  -12.5941   19.1477 H   0  0  0  0  0  0
  -30.3946  -11.4753   19.9391 H   0  0  0  0  0  0
  -29.7746  -11.7346   17.5131 H   0  0  0  0  0  0
  -29.6281  -13.4665   17.7161 H   0  0  0  0  0  0
  -27.8815  -11.2897   18.9033 H   0  0  0  0  0  0
  -27.3733  -12.5388   17.8004 H   0  0  0  0  0  0
  -27.6404  -14.2637   19.4924 H   0  0  0  0  0  0
  -28.7154  -12.1175   21.3801 H   0  0  0  0  0  0
  -28.4202  -13.7799   21.8249 H   0  0  0  0  0  0
  -25.2777   -9.5735   22.4710 H   0  0  0  0  0  0
  -24.0061   -7.4656   22.7446 H   0  0  0  0  0  0
  -21.0861   -8.8799   19.8906 H   0  0  0  0  0  0
  -22.3720  -10.9699   19.6143 H   0  0  0  0  0  0
  -21.2004   -7.6162   23.9745 H   0  0  0  0  0  0
  -21.1473   -6.0507   25.9088 H   0  0  0  0  0  0
  -22.0581   -2.7613   23.2854 H   0  0  0  0  0  0
  -22.4111  -11.9835   22.4794 H   0  0  0  0  0  0
  -21.1059  -13.1129   22.2606 H   0  0  0  0  0  0
  -24.6520  -15.8469   20.5624 H   0  0  0  0  0  0
  -26.2651  -15.6414   20.0997 H   0  0  0  0  0  0
  -26.7219  -32.5354   23.1064 H   0  0  0  0  0  0
  -25.0121  -33.9705   25.0396 H   0  0  0  0  0  0
  -22.7256  -31.2993   21.4055 H   0  0  0  0  0  0
  -23.3778  -35.9579   23.3309 H   0  0  0  0  0  0
  -24.3554  -36.8922   22.2054 H   0  0  0  0  0  0
  -23.7226  -37.6449   23.6703 H   0  0  0  0  0  0
  -26.1360  -31.5135   20.6263 H   0  0  0  0  0  0
  -26.8520  -30.7835   22.0342 H   0  0  0  0  0  0
  -28.1144  -28.8736   21.2159 H   0  0  0  0  0  0
  -25.9109  -25.9335   18.9286 H   0  0  0  0  0  0
  -23.9605  -27.3482   18.9640 H   0  0  0  0  0  0
  -23.7765  -30.6047   19.4105 H   0  0  0  0  0  0
  -22.7648  -29.2660   19.8501 H   0  0  0  0  0  0
  -25.1301  -36.1906   25.0797 H   0  0  0  0  0  0
  -20.9944  -28.3284   24.1415 H   0  0  0  0  0  0
  -20.5725  -26.2290   23.3609 H   0  0  0  0  0  0
  -21.6642  -26.7462   22.1194 H   0  0  0  0  0  0
  -19.6908  -25.6290   21.1263 H   0  0  0  0  0  0
  -19.6697  -27.3188   20.6765 H   0  0  0  0  0  0
  -17.4198  -26.6719   21.4031 H   0  0  0  0  0  0
  -18.0292  -26.0071   22.9010 H   0  0  0  0  0  0
  -19.7941  -30.7323   24.2191 H   0  0  0  0  0  0
  -17.5014  -31.6270   24.5191 H   0  0  0  0  0  0
  -15.5349  -30.2972   23.7701 H   0  0  0  0  0  0
  -15.8682  -28.0823   22.7083 H   0  0  0  0  0  0
  -24.5913  -30.7081   25.7811 H   0  0  0  0  0  0
  -24.8890  -32.2919   26.4882 H   0  0  0  0  0  0
  -25.8019  -30.8956   27.0290 H   0  0  0  0  0  0
  -26.3032  -29.6755   24.1290 H   0  0  0  0  0  0
  -27.4044  -29.7312   25.4858 H   0  0  0  0  0  0
  -27.8920  -30.4318   23.9616 H   0  0  0  0  0  0
  -27.2648  -33.3704   26.2081 H   0  0  0  0  0  0
  -28.3896  -32.6909   25.0407 H   0  0  0  0  0  0
  -28.0699  -31.8553   26.5525 H   0  0  0  0  0  0
  -28.2582  -38.0108   24.7543 H   0  0  0  0  0  0
  -28.1089  -36.2634   24.6276 H   0  0  0  0  0  0
  -27.2280  -37.1408   25.8867 H   0  0  0  0  0  0
  -20.9420  -29.8729   21.6849 H   0  0  0  0  0  0
  -26.0173  -38.2828   24.1460 H   0  0  0  0  0  0
  -29.1089  -18.5112   21.7688 H   0  0  0  0  0  0
  -28.7723  -23.4369   22.5261 H   0  0  0  0  0  0
  -27.3428  -22.9593   21.6437 H   0  0  0  0  0  0
  -28.0770  -20.7952   22.0849 H   0  0  0  0  0  0
  -29.7595  -21.2752   22.2338 H   0  0  0  0  0  0
  -29.6433  -22.2969   18.6292 H   0  0  0  0  0  0
  -27.9328  -22.1444   18.9674 H   0  0  0  0  0  0
  -28.9869  -20.6497   17.2115 H   0  0  0  0  0  0
  -29.7805  -19.3020   16.4411 H   0  0  0  0  0  0
  -30.7570  -20.5390   17.2292 H   0  0  0  0  0  0
  -31.0522  -23.2128   20.8570 H   0  0  0  0  0  0
  -30.4772  -24.8326   21.2403 H   0  0  0  0  0  0
  -30.8244  -24.3963   19.5702 H   0  0  0  0  0  0
  -27.0440  -24.5785   20.0592 H   0  0  0  0  0  0
  -28.1160  -24.8386   18.7218 H   0  0  0  0  0  0
  -28.9234  -15.6121   21.1819 H   0  0  0  0  0  0
  1 25  1  0  0  0
  1 30  2  0  0  0
  1 83  1  0  0  0
  2  3  1  0  0  0
  2 25  1  0  0  0
  2 85  1  0  0  0
  2 86  1  0  0  0
  3  4  1  0  0  0
  3 87  1  0  0  0
  3 88  1  0  0  0
  4  5  1  0  0  0
  4 89  1  0  0  0
  4 90  1  0  0  0
  5  6  1  0  0  0
  5 26  1  0  0  0
  5 91  1  0  0  0
  6 25  1  0  0  0
  6 92  1  0  0  0
  6 93  1  0  0  0
  7  8  2  0  0  0
  7 26  1  0  0  0
  7 29  1  0  0  0
  8  9  1  0  0  0
  8 22  1  0  0  0
  9 10  1  0  0  0
  9 27  2  0  0  0
 10 11  2  0  0  0
 10 15  1  0  0  0
 11 12  1  0  0  0
 11 94  1  0  0  0
 12 13  2  0  0  0
 12 95  1  0  0  0
 13 14  1  0  0  0
 13 31  1  0  0  0
 14 15  2  0  0  0
 14 96  1  0  0  0
 15 97  1  0  0  0
 16 17  2  0  0  0
 16 21  1  0  0  0
 16 31  1  0  0  0
 17 18  1  0  0  0
 17 98  1  0  0  0
 18 19  2  0  0  0
 18 99  1  0  0  0
 19 20  1  0  0  0
 19 24  1  0  0  0
 20 21  2  0  0  0
 20100  1  0  0  0
 21 23  1  0  0  0
 22 28  1  0  0  0
 22 32  2  0  0  0
 26 27  1  0  0  0
 28101  1  0  0  0
 28102  1  0  0  0
 29103  1  0  0  0
 29104  1  0  0  0
 33 34  1  0  0  0
 33 66  1  0  0  0
 33 70  2  0  0  0
 34 36  1  0  0  0
 34 59  1  0  0  0
 34105  1  0  0  0
 35 44  2  0  0  0
 35 45  1  0  0  0
 35 68  1  0  0  0
 36 56  1  0  0  0
 36106  1  0  0  0
 37 39  1  0  0  0
 37 47  1  0  0  0
 37 66  1  0  0  0
 37107  1  0  0  0
 38 43  2  0  0  0
 38 46  1  0  0  0
 38 47  1  0  0  0
 39 64  1  0  0  0
 39 67  2  0  0  0
 40 52  1  0  0  0
 40 53  2  0  0  0
 40 58  1  0  0  0
 41108  1  0  0  0
 41109  1  0  0  0
 41110  1  0  0  0
 41 48  1  0  0  0
 42 43  1  0  0  0
 42 66  1  0  0  0
 42111  1  0  0  0
 42112  1  0  0  0
 43 44  1  0  0  0
 44113  1  0  0  0
 45 46  2  0  0  0
 45114  1  0  0  0
 46115  1  0  0  0
 47116  1  0  0  0
 47117  1  0  0  0
 48 56  1  0  0  0
 48 65  1  0  0  0
 48118  1  0  0  0
 49 50  1  0  0  0
 49 53  1  0  0  0
 49 64  1  0  0  0
 49119  1  0  0  0
 50 51  1  0  0  0
 50120  1  0  0  0
 50121  1  0  0  0
 51 52  1  0  0  0
 51122  1  0  0  0
 51123  1  0  0  0
 52124  1  0  0  0
 52125  1  0  0  0
 53 54  1  0  0  0
 54 55  2  0  0  0
 54126  1  0  0  0
 55 57  1  0  0  0
 55127  1  0  0  0
 56 69  2  0  0  0
 57 58  2  0  0  0
 57128  1  0  0  0
 58129  1  0  0  0
 59 60  1  0  0  0
 59 61  1  0  0  0
 59 62  1  0  0  0
 60130  1  0  0  0
 60131  1  0  0  0
 60132  1  0  0  0
 61133  1  0  0  0
 61134  1  0  0  0
 61135  1  0  0  0
 62136  1  0  0  0
 62137  1  0  0  0
 62138  1  0  0  0
 63 65  1  0  0  0
 63139  1  0  0  0
 63140  1  0  0  0
 63141  1  0  0  0
 64142  1  0  0  0
 65143  1  0  0  0
 68 81  1  0  0  0
 71 72  1  0  0  0
 71 74  2  0  0  0
 71144  1  0  0  0
 72 73  2  0  0  0
 72 82  1  0  0  0
 73 79  1  0  0  0
 73 84  1  0  0  0
 74 83  1  0  0  0
 74 84  1  0  0  0
 75 76  1  0  0  0
 75 78  1  0  0  0
 75145  1  0  0  0
 75146  1  0  0  0
 76 82  1  0  0  0
 76147  1  0  0  0
 76148  1  0  0  0
 77 78  1  0  0  0
 77 82  1  0  0  0
 77149  1  0  0  0
 77150  1  0  0  0
 78 80  1  0  0  0
 78 81  1  0  0  0
 79151  1  0  0  0
 79152  1  0  0  0
 79153  1  0  0  0
 80154  1  0  0  0
 80155  1  0  0  0
 80156  1  0  0  0
 81157  1  0  0  0
 81158  1  0  0  0
 83159  1  0  0  0
M  ISO  4   1 100  68 101  81 101  83 100
M  END
> <chiral flag>
0

> <version>
0

> <s_m_source_file>
/data/baiqing/PycharmProjects/Reinvent-master-3.2/result/LINK_invent/BTK/process_docking_weight1_custom_product_contain_oxygen_bond_distance_aromatic_linkinvent_7_9_3/rearranged_h_0150.sdf

> <i_m_source_file_index>
76

> <r_mmod_Potential_Energy-OPLS-2005>
269.645904541016

> <r_mmod_Stretch_Energy-OPLS-2005>
126.69799041748

> <r_mmod_Bend_Energy-OPLS-2005>
204.927642822266

> <r_mmod_Torsional_Energy-OPLS-2005>
307.078430175781

> <r_mmod_Improper_Torsional_Energy-OPLS-2005>
4.16758632659912

> <r_mmod_Van_der_Waal_Energy-OPLS-2005>
117.788497924805

> <r_mmod_Electrostatic_Energy-OPLS-2005>
-363.017730712891

> <r_mmod_Solvation_Energy-OPLS-2005>
-225.325744628906

> <b_mmod_Minimization_Converged-OPLS-2005>
0

> <r_mmod_RMS_Derivative-OPLS-2005>
3.39905858039856

$$$$
76
                    3D
 Structure written by MMmdl.
153162  0  0  1  0            999 V2000
  -30.7087  -14.4766   20.5741 C   0  0  0  0  0  0
  -30.4197  -12.3115   19.4196 C   0  0  0  0  0  0
  -29.4920  -12.5105   18.2021 C   0  0  0  0  0  0
  -28.0121  -12.3731   18.6174 C   0  0  0  0  0  0
  -27.6592  -13.2133   19.8742 C   0  0  2  0  0  0
  -28.7021  -13.0004   20.9933 C   0  0  0  0  0  0
  -25.2567  -13.8166   20.5725 C   0  0  0  0  0  0
  -24.1813  -13.0434   20.9189 C   0  0  0  0  0  0
  -24.6375  -11.6904   20.8732 C   0  0  0  0  0  0
  -23.9053  -10.4289   21.0407 C   0  0  0  0  0  0
  -24.3600   -9.4204   21.9179 C   0  0  0  0  0  0
  -23.6280   -8.2242   22.0757 C   0  0  0  0  0  0
  -22.4253   -8.0294   21.3551 C   0  0  0  0  0  0
  -21.9890   -9.0268   20.4660 C   0  0  0  0  0  0
  -22.7220  -10.2144   20.3058 C   0  0  0  0  0  0
  -21.6849   -6.0735   22.5281 C   0  0  0  0  0  0
  -21.4028   -6.5643   23.8222 C   0  0  0  0  0  0
  -21.3653   -5.6797   24.9188 C   0  0  0  0  0  0
  -21.6029   -4.3053   24.7224 C   0  0  0  0  0  0
  -21.8817   -3.8146   23.4351 C   0  0  0  0  0  0
  -21.9198   -4.6962   22.3410 C   0  0  0  0  0  0
  -22.7834  -13.5249   21.1850 C   0  0  0  0  0  0
  -22.1667   -4.2150   21.0983 F   0  0  0  0  0  0
  -21.5613   -3.4533   25.7744 F   0  0  0  0  0  0
  -30.0326  -13.3013   20.4380 N   0  0  0  0  0  0
  -26.3002  -12.9360   20.3387 N   0  0  0  0  0  0
  -25.9308  -11.6501   20.5749 N   0  0  0  0  0  0
  -22.0466  -12.8265   22.0416 N   0  0  0  0  0  0
  -25.4266  -15.1889   20.4181 N   0  0  0  0  0  0
  -31.8205  -14.6686   20.0686 O   0  0  0  0  0  0
  -21.6628   -6.8886   21.4241 O   0  0  0  0  0  0
  -22.3523  -14.5556   20.6684 O   0  0  0  0  0  0
  -24.6178  -31.8658   23.2072 C   0  0  0  0  0  0
  -25.9059  -32.4811   23.8374 C   0  0  1  0  0  0
  -27.2339  -27.4158   20.0999 C   0  0  0  0  0  0
  -25.5903  -33.8610   24.2311 N   0  0  0  0  0  0
  -23.4069  -30.4882   21.5493 C   0  0  2  0  0  0
  -24.8546  -28.9507   20.1132 C   0  0  0  0  0  0
  -22.7422  -29.4650   22.4985 C   0  0  0  0  0  0
  -18.0282  -28.1366   22.8489 C   0  0  0  0  0  0
  -24.1491  -36.7315   23.2634 C   0  0  0  0  0  0
  -25.9376  -30.8265   21.3625 C   0  0  0  0  0  0
  -26.0164  -29.4586   20.7094 C   0  0  0  0  0  0
  -27.2126  -28.6997   20.6973 C   0  0  0  0  0  0
  -26.0588  -26.9280   19.4924 C   0  0  0  0  0  0
  -24.8713  -27.6857   19.5000 C   0  0  0  0  0  0
  -23.6161  -29.8193   20.1638 C   0  0  0  0  0  0
  -25.4110  -36.3106   24.0333 C   0  0  1  0  0  0
  -20.5869  -28.3658   23.1316 C   0  0  2  0  0  0
  -20.6769  -26.9393   22.5422 C   0  0  0  0  0  0
  -19.5750  -26.6374   21.5210 C   0  0  0  0  0  0
  -18.1927  -26.7915   22.1621 C   0  0  0  0  0  0
  -19.1531  -28.8833   23.2898 C   0  0  0  0  0  0
  -18.9457  -30.1433   23.8905 C   0  0  0  0  0  0
  -17.6455  -30.6576   24.0558 C   0  0  0  0  0  0
  -25.9039  -34.9471   23.5119 C   0  0  0  0  0  0
  -16.5351  -29.9073   23.6320 C   0  0  0  0  0  0
  -16.7265  -28.6495   23.0348 C   0  0  0  0  0  0
  -26.4482  -31.6587   25.0702 C   0  0  0  0  0  0
  -25.3748  -31.3728   26.1454 C   0  0  0  0  0  0
  -27.0290  -30.3018   24.6079 C   0  0  0  0  0  0
  -27.6068  -32.4287   25.7462 C   0  0  0  0  0  0
  -27.5582  -37.1806   24.8463 C   0  0  0  0  0  0
  -21.4153  -29.3026   22.3726 N   0  0  0  0  0  0
  -26.4294  -37.3791   23.9411 N   0  0  0  0  0  0
  -24.6724  -31.0740   22.0978 N   0  0  0  0  0  0
  -23.4194  -28.8184   23.3032 O   0  0  0  0  0  0
  -28.3649  -26.6234   20.1074 O   0  0  0  0  0  0
  -26.5601  -34.8925   22.4682 O   0  0  0  0  0  0
  -23.5366  -32.1422   23.7449 O   0  0  0  0  0  0
  -29.3322  -19.2702   21.0591 C   0  0  0  0  0  0
  -28.9274  -21.6694   20.8630 C   0  0  0  0  0  0
  -28.8837  -24.1709   20.4054 C   0  0  0  0  0  0
  -30.2883  -17.4213   22.5982 C   0  0  0  0  0  0
  -30.3325  -15.8858   22.5292 C   0  0  0  0  0  0
  -29.6886  -16.7310   20.3916 C   0  0  0  0  0  0
  -29.3619  -17.7991   21.4533 C   0  0  2  0  0  0
  -28.2621  -25.4725   20.9816 C   0  0  0  0  0  0
  -30.3162  -19.9155   20.4047 N   0  0  0  0  0  0
  -30.0775  -21.2936   20.2754 N   0  0  0  0  0  0
  -30.0227  -15.4986   21.1436 N   0  0  0  0  0  0
  -28.4887  -23.0247   21.0063 N   0  0  0  0  0  0
  -29.6726  -24.2174   19.4558 O   0  0  0  0  0  0
  -28.0148  -20.3345   21.5680 S   0  0  0  0  0  0
  -31.4663  -12.4011   19.1232 H   0  0  0  0  0  0
  -30.3112  -11.3040   19.8247 H   0  0  0  0  0  0
  -29.7261  -11.7834   17.4231 H   0  0  0  0  0  0
  -29.6608  -13.4952   17.7627 H   0  0  0  0  0  0
  -27.8205  -11.3166   18.8122 H   0  0  0  0  0  0
  -27.3614  -12.6504   17.7866 H   0  0  0  0  0  0
  -27.7000  -14.2605   19.5746 H   0  0  0  0  0  0
  -28.6769  -11.9687   21.3452 H   0  0  0  0  0  0
  -28.4645  -13.6153   21.8619 H   0  0  0  0  0  0
  -25.2760   -9.5671   22.4741 H   0  0  0  0  0  0
  -24.0003   -7.4622   22.7450 H   0  0  0  0  0  0
  -21.0827   -8.8778   19.8967 H   0  0  0  0  0  0
  -22.3683  -10.9678   19.6163 H   0  0  0  0  0  0
  -21.2035   -7.6154   23.9714 H   0  0  0  0  0  0
  -21.1474   -6.0533   25.9082 H   0  0  0  0  0  0
  -22.0596   -2.7605   23.2846 H   0  0  0  0  0  0
  -22.4091  -11.9974   22.4885 H   0  0  0  0  0  0
  -21.1079  -13.1292   22.2598 H   0  0  0  0  0  0
  -24.6558  -15.8390   20.5225 H   0  0  0  0  0  0
  -26.2836  -15.6354   20.1182 H   0  0  0  0  0  0
  -26.7136  -32.5519   23.1141 H   0  0  0  0  0  0
  -25.0064  -33.9772   25.0462 H   0  0  0  0  0  0
  -22.6958  -31.3048   21.4085 H   0  0  0  0  0  0
  -23.3745  -35.9654   23.3306 H   0  0  0  0  0  0
  -24.3591  -36.8922   22.2047 H   0  0  0  0  0  0
  -23.7251  -37.6524   23.6649 H   0  0  0  0  0  0
  -26.0504  -31.5895   20.5908 H   0  0  0  0  0  0
  -26.8257  -30.8833   21.9806 H   0  0  0  0  0  0
  -28.1092  -29.0842   21.1629 H   0  0  0  0  0  0
  -26.0605  -25.9559   19.0196 H   0  0  0  0  0  0
  -23.9804  -27.2890   19.0340 H   0  0  0  0  0  0
  -23.7241  -30.5943   19.4038 H   0  0  0  0  0  0
  -22.7394  -29.2397   19.8692 H   0  0  0  0  0  0
  -25.1282  -36.1972   25.0826 H   0  0  0  0  0  0
  -20.9951  -28.3221   24.1435 H   0  0  0  0  0  0
  -20.5673  -26.2257   23.3607 H   0  0  0  0  0  0
  -21.6649  -26.7440   22.1212 H   0  0  0  0  0  0
  -19.6916  -25.6283   21.1243 H   0  0  0  0  0  0
  -19.6687  -27.3186   20.6745 H   0  0  0  0  0  0
  -17.4193  -26.6649   21.4028 H   0  0  0  0  0  0
  -18.0334  -26.0058   22.9025 H   0  0  0  0  0  0
  -19.7936  -30.7254   24.2273 H   0  0  0  0  0  0
  -17.5018  -31.6260   24.5148 H   0  0  0  0  0  0
  -15.5357  -30.2983   23.7639 H   0  0  0  0  0  0
  -15.8664  -28.0818   22.7056 H   0  0  0  0  0  0
  -24.5872  -30.7130   25.7801 H   0  0  0  0  0  0
  -24.8997  -32.2902   26.4935 H   0  0  0  0  0  0
  -25.8079  -30.8856   27.0193 H   0  0  0  0  0  0
  -26.2817  -29.6788   24.1142 H   0  0  0  0  0  0
  -27.4068  -29.7254   25.4536 H   0  0  0  0  0  0
  -27.8662  -30.4333   23.9216 H   0  0  0  0  0  0
  -27.2710  -33.3586   26.2066 H   0  0  0  0  0  0
  -28.3865  -32.6835   25.0272 H   0  0  0  0  0  0
  -28.0741  -31.8378   26.5351 H   0  0  0  0  0  0
  -28.2608  -38.0097   24.7510 H   0  0  0  0  0  0
  -28.1071  -36.2629   24.6284 H   0  0  0  0  0  0
  -27.2309  -37.1458   25.8869 H   0  0  0  0  0  0
  -20.9301  -29.8749   21.6949 H   0  0  0  0  0  0
  -26.0184  -38.2872   24.1400 H   0  0  0  0  0  0
  -31.2883  -17.8214   22.4149 H   0  0  0  0  0  0
  -29.9495  -17.7928   23.5662 H   0  0  0  0  0  0
  -29.5775  -15.4504   23.1856 H   0  0  0  0  0  0
  -31.3040  -15.5145   22.8642 H   0  0  0  0  0  0
  -30.5531  -17.0436   19.7996 H   0  0  0  0  0  0
  -28.8562  -16.5719   19.7037 H   0  0  0  0  0  0
  -28.3493  -17.5708   21.7937 H   0  0  0  0  0  0
  -28.7907  -25.7144   21.9044 H   0  0  0  0  0  0
  -27.2290  -25.2676   21.2705 H   0  0  0  0  0  0
  -27.7724  -23.1507   21.7051 H   0  0  0  0  0  0
  1 25  1  0  0  0
  1 30  2  0  0  0
  1 81  1  0  0  0
  2  3  1  0  0  0
  2 25  1  0  0  0
  2 85  1  0  0  0
  2 86  1  0  0  0
  3  4  1  0  0  0
  3 87  1  0  0  0
  3 88  1  0  0  0
  4  5  1  0  0  0
  4 89  1  0  0  0
  4 90  1  0  0  0
  5  6  1  0  0  0
  5 26  1  0  0  0
  5 91  1  0  0  0
  6 25  1  0  0  0
  6 92  1  0  0  0
  6 93  1  0  0  0
  7  8  2  0  0  0
  7 26  1  0  0  0
  7 29  1  0  0  0
  8  9  1  0  0  0
  8 22  1  0  0  0
  9 10  1  0  0  0
  9 27  2  0  0  0
 10 11  2  0  0  0
 10 15  1  0  0  0
 11 12  1  0  0  0
 11 94  1  0  0  0
 12 13  2  0  0  0
 12 95  1  0  0  0
 13 14  1  0  0  0
 13 31  1  0  0  0
 14 15  2  0  0  0
 14 96  1  0  0  0
 15 97  1  0  0  0
 16 17  2  0  0  0
 16 21  1  0  0  0
 16 31  1  0  0  0
 17 18  1  0  0  0
 17 98  1  0  0  0
 18 19  2  0  0  0
 18 99  1  0  0  0
 19 20  1  0  0  0
 19 24  1  0  0  0
 20 21  2  0  0  0
 20100  1  0  0  0
 21 23  1  0  0  0
 22 28  1  0  0  0
 22 32  2  0  0  0
 26 27  1  0  0  0
 28101  1  0  0  0
 28102  1  0  0  0
 29103  1  0  0  0
 29104  1  0  0  0
 33 34  1  0  0  0
 33 66  1  0  0  0
 33 70  2  0  0  0
 34 36  1  0  0  0
 34 59  1  0  0  0
 34105  1  0  0  0
 35 44  2  0  0  0
 35 45  1  0  0  0
 35 68  1  0  0  0
 36 56  1  0  0  0
 36106  1  0  0  0
 37 39  1  0  0  0
 37 47  1  0  0  0
 37 66  1  0  0  0
 37107  1  0  0  0
 38 43  2  0  0  0
 38 46  1  0  0  0
 38 47  1  0  0  0
 39 64  1  0  0  0
 39 67  2  0  0  0
 40 52  1  0  0  0
 40 53  2  0  0  0
 40 58  1  0  0  0
 41108  1  0  0  0
 41109  1  0  0  0
 41110  1  0  0  0
 41 48  1  0  0  0
 42 43  1  0  0  0
 42 66  1  0  0  0
 42111  1  0  0  0
 42112  1  0  0  0
 43 44  1  0  0  0
 44113  1  0  0  0
 45 46  2  0  0  0
 45114  1  0  0  0
 46115  1  0  0  0
 47116  1  0  0  0
 47117  1  0  0  0
 48 56  1  0  0  0
 48 65  1  0  0  0
 48118  1  0  0  0
 49 50  1  0  0  0
 49 53  1  0  0  0
 49 64  1  0  0  0
 49119  1  0  0  0
 50 51  1  0  0  0
 50120  1  0  0  0
 50121  1  0  0  0
 51 52  1  0  0  0
 51122  1  0  0  0
 51123  1  0  0  0
 52124  1  0  0  0
 52125  1  0  0  0
 53 54  1  0  0  0
 54 55  2  0  0  0
 54126  1  0  0  0
 55 57  1  0  0  0
 55127  1  0  0  0
 56 69  2  0  0  0
 57 58  2  0  0  0
 57128  1  0  0  0
 58129  1  0  0  0
 59 60  1  0  0  0
 59 61  1  0  0  0
 59 62  1  0  0  0
 60130  1  0  0  0
 60131  1  0  0  0
 60132  1  0  0  0
 61133  1  0  0  0
 61134  1  0  0  0
 61135  1  0  0  0
 62136  1  0  0  0
 62137  1  0  0  0
 62138  1  0  0  0
 63 65  1  0  0  0
 63139  1  0  0  0
 63140  1  0  0  0
 63141  1  0  0  0
 64142  1  0  0  0
 65143  1  0  0  0
 68 78  1  0  0  0
 71 79  2  0  0  0
 71 84  1  0  0  0
 71 77  1  0  0  0
 72 80  2  0  0  0
 72 82  1  0  0  0
 72 84  1  0  0  0
 73 78  1  0  0  0
 73 82  1  0  0  0
 73 83  2  0  0  0
 74 75  1  0  0  0
 74 77  1  0  0  0
 74144  1  0  0  0
 74145  1  0  0  0
 75 81  1  0  0  0
 75146  1  0  0  0
 75147  1  0  0  0
 76 77  1  0  0  0
 76 81  1  0  0  0
 76148  1  0  0  0
 76149  1  0  0  0
 77150  1  0  0  0
 78151  1  0  0  0
 78152  1  0  0  0
 79 80  1  0  0  0
 82153  1  0  0  0
M  ISO  4   1 100  68 101  78 101  81 100
M  END
> <chiral flag>
0

> <version>
0

> <s_m_source_file>
/data/baiqing/PycharmProjects/Reinvent-master-3.2/result/LINK_invent/BTK/process_docking_weight1_custom_product_contain_oxygen_bond_distance_aromatic_linkinvent_7_9_3/rearranged_h_0150.sdf

> <i_m_source_file_index>
77

> <r_mmod_Potential_Energy-OPLS-2005>
60.040885925293

> <r_mmod_Stretch_Energy-OPLS-2005>
42.2280349731445

> <r_mmod_Bend_Energy-OPLS-2005>
137.812637329102

> <r_mmod_Torsional_Energy-OPLS-2005>
325.672698974609

> <r_mmod_Improper_Torsional_Energy-OPLS-2005>
7.72881603240967

> <r_mmod_Van_der_Waal_Energy-OPLS-2005>
117.34651184082

> <r_mmod_Electrostatic_Energy-OPLS-2005>
-318.742828369141

> <r_mmod_Solvation_Energy-OPLS-2005>
-266.646789550781

> <b_mmod_Minimization_Converged-OPLS-2005>
0

> <r_mmod_RMS_Derivative-OPLS-2005>
2.50449347496033

$$$$
77
                    3D
 Structure written by MMmdl.
155164  0  0  1  0            999 V2000
  -30.6847  -14.5551   20.5368 C   0  0  0  0  0  0
  -30.4230  -12.3478   19.4427 C   0  0  0  0  0  0
  -29.4980  -12.4990   18.2167 C   0  0  0  0  0  0
  -28.0215  -12.3499   18.6314 C   0  0  0  0  0  0
  -27.6551  -13.2150   19.8678 C   0  0  2  0  0  0
  -28.6987  -13.0533   20.9961 C   0  0  0  0  0  0
  -25.2580  -13.8173   20.5703 C   0  0  0  0  0  0
  -24.1838  -13.0437   20.9182 C   0  0  0  0  0  0
  -24.6402  -11.6910   20.8743 C   0  0  0  0  0  0
  -23.9070  -10.4295   21.0403 C   0  0  0  0  0  0
  -24.3620   -9.4214   21.9184 C   0  0  0  0  0  0
  -23.6293   -8.2251   22.0755 C   0  0  0  0  0  0
  -22.4276   -8.0289   21.3544 C   0  0  0  0  0  0
  -21.9916   -9.0263   20.4646 C   0  0  0  0  0  0
  -22.7244  -10.2139   20.3055 C   0  0  0  0  0  0
  -21.6855   -6.0743   22.5282 C   0  0  0  0  0  0
  -21.4012   -6.5644   23.8216 C   0  0  0  0  0  0
  -21.3659   -5.6796   24.9178 C   0  0  0  0  0  0
  -21.6044   -4.3058   24.7228 C   0  0  0  0  0  0
  -21.8818   -3.8153   23.4349 C   0  0  0  0  0  0
  -21.9194   -4.6971   22.3406 C   0  0  0  0  0  0
  -22.7864  -13.5235   21.1845 C   0  0  0  0  0  0
  -22.1663   -4.2158   21.0983 F   0  0  0  0  0  0
  -21.5630   -3.4542   25.7740 F   0  0  0  0  0  0
  -30.0197  -13.3655   20.4310 N   0  0  0  0  0  0
  -26.3007  -12.9353   20.3358 N   0  0  0  0  0  0
  -25.9334  -11.6506   20.5781 N   0  0  0  0  0  0
  -22.0508  -12.8222   22.0396 N   0  0  0  0  0  0
  -25.4308  -15.1889   20.4142 N   0  0  0  0  0  0
  -31.8333  -14.6916   20.1022 O   0  0  0  0  0  0
  -21.6639   -6.8886   21.4244 O   0  0  0  0  0  0
  -22.3557  -14.5551   20.6709 O   0  0  0  0  0  0
  -24.6211  -31.8634   23.2058 C   0  0  0  0  0  0
  -25.9084  -32.4793   23.8371 C   0  0  1  0  0  0
  -27.2300  -27.3721   20.1066 C   0  0  0  0  0  0
  -25.5924  -33.8592   24.2305 N   0  0  0  0  0  0
  -23.4119  -30.4876   21.5473 C   0  0  2  0  0  0
  -24.8586  -28.9515   20.1102 C   0  0  0  0  0  0
  -22.7444  -29.4643   22.4956 C   0  0  0  0  0  0
  -18.0283  -28.1372   22.8488 C   0  0  0  0  0  0
  -24.1489  -36.7306   23.2637 C   0  0  0  0  0  0
  -25.9475  -30.8127   21.3672 C   0  0  0  0  0  0
  -26.0240  -29.4435   20.7111 C   0  0  0  0  0  0
  -27.2122  -28.6639   20.7022 C   0  0  0  0  0  0
  -26.0417  -26.9197   19.4850 C   0  0  0  0  0  0
  -24.8668  -27.6925   19.4902 C   0  0  0  0  0  0
  -23.6231  -29.8236   20.1614 C   0  0  0  0  0  0
  -25.4108  -36.3091   24.0333 C   0  0  1  0  0  0
  -20.5876  -28.3672   23.1296 C   0  0  2  0  0  0
  -20.6771  -26.9401   22.5411 C   0  0  0  0  0  0
  -19.5750  -26.6381   21.5206 C   0  0  0  0  0  0
  -18.1928  -26.7917   22.1622 C   0  0  0  0  0  0
  -19.1531  -28.8837   23.2889 C   0  0  0  0  0  0
  -18.9458  -30.1437   23.8909 C   0  0  0  0  0  0
  -17.6462  -30.6580   24.0558 C   0  0  0  0  0  0
  -25.9044  -34.9459   23.5115 C   0  0  0  0  0  0
  -16.5353  -29.9082   23.6321 C   0  0  0  0  0  0
  -16.7272  -28.6495   23.0350 C   0  0  0  0  0  0
  -26.4494  -31.6577   25.0710 C   0  0  0  0  0  0
  -25.3748  -31.3696   26.1444 C   0  0  0  0  0  0
  -27.0323  -30.3013   24.6109 C   0  0  0  0  0  0
  -27.6070  -32.4288   25.7482 C   0  0  0  0  0  0
  -27.5577  -37.1801   24.8462 C   0  0  0  0  0  0
  -21.4165  -29.3037   22.3697 N   0  0  0  0  0  0
  -26.4288  -37.3779   23.9408 N   0  0  0  0  0  0
  -24.6788  -31.0693   22.0982 N   0  0  0  0  0  0
  -23.4187  -28.8182   23.3020 O   0  0  0  0  0  0
  -28.3716  -26.5718   20.1551 O   0  0  0  0  0  0
  -26.5603  -34.8919   22.4674 O   0  0  0  0  0  0
  -23.5388  -32.1409   23.7416 O   0  0  0  0  0  0
  -29.8485  -18.6279   23.1712 C   0  0  0  0  0  0
  -29.7859  -20.0021   22.8378 C   0  0  0  0  0  0
  -29.6945  -19.4580   20.4546 C   0  0  0  0  0  0
  -29.8463  -17.6809   22.1332 C   0  0  0  0  0  0
  -29.7822  -18.0795   20.8133 C   0  0  0  0  0  0
  -29.6982  -20.4468   21.4905 C   0  0  0  0  0  0
  -29.1804  -22.6752   20.3327 C   0  0  0  0  0  0
  -29.9274  -16.1705   22.2419 C   0  0  0  0  0  0
  -29.8488  -16.8351   19.9399 C   0  0  0  0  0  0
  -29.3778  -24.2218   20.4820 C   0  0  0  0  0  0
  -28.1944  -25.1278   19.9970 C   0  0  0  0  0  0
  -29.9350  -15.6520   20.8545 N   0  0  0  0  0  0
  -29.7087  -21.8803   21.2968 N   0  0  0  0  0  0
  -28.5756  -22.2235   19.3574 O   0  0  0  0  0  0
  -31.4676  -12.4448   19.1427 H   0  0  0  0  0  0
  -30.3300  -11.3500   19.8733 H   0  0  0  0  0  0
  -29.7480  -11.7525   17.4615 H   0  0  0  0  0  0
  -29.6553  -13.4722   17.7486 H   0  0  0  0  0  0
  -27.8490  -11.2964   18.8545 H   0  0  0  0  0  0
  -27.3661  -12.5912   17.7937 H   0  0  0  0  0  0
  -27.6804  -14.2540   19.5394 H   0  0  0  0  0  0
  -28.6914  -12.0343   21.3850 H   0  0  0  0  0  0
  -28.4543  -13.6975   21.8413 H   0  0  0  0  0  0
  -25.2764   -9.5690   22.4761 H   0  0  0  0  0  0
  -24.0004   -7.4642   22.7477 H   0  0  0  0  0  0
  -21.0848   -8.8782   19.8950 H   0  0  0  0  0  0
  -22.3705  -10.9681   19.6169 H   0  0  0  0  0  0
  -21.1999   -7.6151   23.9721 H   0  0  0  0  0  0
  -21.1483   -6.0527   25.9079 H   0  0  0  0  0  0
  -22.0594   -2.7617   23.2849 H   0  0  0  0  0  0
  -22.4116  -11.9864   22.4756 H   0  0  0  0  0  0
  -21.1134  -13.1259   22.2618 H   0  0  0  0  0  0
  -24.6688  -15.8476   20.5324 H   0  0  0  0  0  0
  -26.2967  -15.6310   20.1315 H   0  0  0  0  0  0
  -26.7152  -32.5496   23.1130 H   0  0  0  0  0  0
  -25.0071  -33.9742   25.0448 H   0  0  0  0  0  0
  -22.7039  -31.3070   21.4065 H   0  0  0  0  0  0
  -23.3747  -35.9643   23.3294 H   0  0  0  0  0  0
  -24.3596  -36.8925   22.2053 H   0  0  0  0  0  0
  -23.7242  -37.6510   23.6661 H   0  0  0  0  0  0
  -26.0648  -31.5776   20.5981 H   0  0  0  0  0  0
  -26.8334  -30.8670   21.9880 H   0  0  0  0  0  0
  -28.1074  -29.0367   21.1792 H   0  0  0  0  0  0
  -25.9931  -25.9594   18.9930 H   0  0  0  0  0  0
  -23.9748  -27.3098   19.0143 H   0  0  0  0  0  0
  -23.7351  -30.5994   19.4034 H   0  0  0  0  0  0
  -22.7461  -29.2464   19.8634 H   0  0  0  0  0  0
  -25.1281  -36.1951   25.0826 H   0  0  0  0  0  0
  -20.9973  -28.3242   24.1412 H   0  0  0  0  0  0
  -20.5672  -26.2281   23.3602 H   0  0  0  0  0  0
  -21.6640  -26.7434   22.1204 H   0  0  0  0  0  0
  -19.6917  -25.6296   21.1225 H   0  0  0  0  0  0
  -19.6687  -27.3196   20.6737 H   0  0  0  0  0  0
  -17.4195  -26.6662   21.4026 H   0  0  0  0  0  0
  -18.0336  -26.0054   22.9016 H   0  0  0  0  0  0
  -19.7934  -30.7240   24.2300 H   0  0  0  0  0  0
  -17.5017  -31.6263   24.5148 H   0  0  0  0  0  0
  -15.5353  -30.2988   23.7631 H   0  0  0  0  0  0
  -15.8673  -28.0813   22.7067 H   0  0  0  0  0  0
  -24.5936  -30.7027   25.7775 H   0  0  0  0  0  0
  -24.8926  -32.2854   26.4875 H   0  0  0  0  0  0
  -25.8085  -30.8877   27.0215 H   0  0  0  0  0  0
  -26.2864  -29.6769   24.1170 H   0  0  0  0  0  0
  -27.4090  -29.7255   25.4574 H   0  0  0  0  0  0
  -27.8710  -30.4319   23.9262 H   0  0  0  0  0  0
  -27.2705  -33.3599   26.2056 H   0  0  0  0  0  0
  -28.3893  -32.6816   25.0311 H   0  0  0  0  0  0
  -28.0723  -31.8403   26.5399 H   0  0  0  0  0  0
  -28.2579  -38.0109   24.7513 H   0  0  0  0  0  0
  -28.1085  -36.2640   24.6280 H   0  0  0  0  0  0
  -27.2304  -37.1436   25.8867 H   0  0  0  0  0  0
  -20.9331  -29.8767   21.6920 H   0  0  0  0  0  0
  -26.0176  -38.2855   24.1415 H   0  0  0  0  0  0
  -29.9110  -18.3158   24.2049 H   0  0  0  0  0  0
  -29.8084  -20.7240   23.6430 H   0  0  0  0  0  0
  -29.6569  -19.7469   19.4137 H   0  0  0  0  0  0
  -29.0654  -15.7870   22.7883 H   0  0  0  0  0  0
  -30.8308  -15.8866   22.7851 H   0  0  0  0  0  0
  -30.7101  -16.9022   19.2728 H   0  0  0  0  0  0
  -28.9523  -16.7609   19.3236 H   0  0  0  0  0  0
  -30.2786  -24.4926   19.9309 H   0  0  0  0  0  0
  -29.5861  -24.4500   21.5275 H   0  0  0  0  0  0
  -27.3059  -24.8117   20.5472 H   0  0  0  0  0  0
  -28.0071  -24.9179   18.9432 H   0  0  0  0  0  0
  -30.1191  -22.3996   22.0611 H   0  0  0  0  0  0
  1 25  1  0  0  0
  1 30  2  0  0  0
  1 82  1  0  0  0
  2  3  1  0  0  0
  2 25  1  0  0  0
  2 85  1  0  0  0
  2 86  1  0  0  0
  3  4  1  0  0  0
  3 87  1  0  0  0
  3 88  1  0  0  0
  4  5  1  0  0  0
  4 89  1  0  0  0
  4 90  1  0  0  0
  5  6  1  0  0  0
  5 26  1  0  0  0
  5 91  1  0  0  0
  6 25  1  0  0  0
  6 92  1  0  0  0
  6 93  1  0  0  0
  7  8  2  0  0  0
  7 26  1  0  0  0
  7 29  1  0  0  0
  8  9  1  0  0  0
  8 22  1  0  0  0
  9 10  1  0  0  0
  9 27  2  0  0  0
 10 11  2  0  0  0
 10 15  1  0  0  0
 11 12  1  0  0  0
 11 94  1  0  0  0
 12 13  2  0  0  0
 12 95  1  0  0  0
 13 14  1  0  0  0
 13 31  1  0  0  0
 14 15  2  0  0  0
 14 96  1  0  0  0
 15 97  1  0  0  0
 16 17  2  0  0  0
 16 21  1  0  0  0
 16 31  1  0  0  0
 17 18  1  0  0  0
 17 98  1  0  0  0
 18 19  2  0  0  0
 18 99  1  0  0  0
 19 20  1  0  0  0
 19 24  1  0  0  0
 20 21  2  0  0  0
 20100  1  0  0  0
 21 23  1  0  0  0
 22 28  1  0  0  0
 22 32  2  0  0  0
 26 27  1  0  0  0
 28101  1  0  0  0
 28102  1  0  0  0
 29103  1  0  0  0
 29104  1  0  0  0
 33 34  1  0  0  0
 33 66  1  0  0  0
 33 70  2  0  0  0
 34 36  1  0  0  0
 34 59  1  0  0  0
 34105  1  0  0  0
 35 44  2  0  0  0
 35 45  1  0  0  0
 35 68  1  0  0  0
 36 56  1  0  0  0
 36106  1  0  0  0
 37 39  1  0  0  0
 37 47  1  0  0  0
 37 66  1  0  0  0
 37107  1  0  0  0
 38 43  2  0  0  0
 38 46  1  0  0  0
 38 47  1  0  0  0
 39 64  1  0  0  0
 39 67  2  0  0  0
 40 52  1  0  0  0
 40 53  2  0  0  0
 40 58  1  0  0  0
 41108  1  0  0  0
 41109  1  0  0  0
 41110  1  0  0  0
 41 48  1  0  0  0
 42 43  1  0  0  0
 42 66  1  0  0  0
 42111  1  0  0  0
 42112  1  0  0  0
 43 44  1  0  0  0
 44113  1  0  0  0
 45 46  2  0  0  0
 45114  1  0  0  0
 46115  1  0  0  0
 47116  1  0  0  0
 47117  1  0  0  0
 48 56  1  0  0  0
 48 65  1  0  0  0
 48118  1  0  0  0
 49 50  1  0  0  0
 49 53  1  0  0  0
 49 64  1  0  0  0
 49119  1  0  0  0
 50 51  1  0  0  0
 50120  1  0  0  0
 50121  1  0  0  0
 51 52  1  0  0  0
 51122  1  0  0  0
 51123  1  0  0  0
 52124  1  0  0  0
 52125  1  0  0  0
 53 54  1  0  0  0
 54 55  2  0  0  0
 54126  1  0  0  0
 55 57  1  0  0  0
 55127  1  0  0  0
 56 69  2  0  0  0
 57 58  2  0  0  0
 57128  1  0  0  0
 58129  1  0  0  0
 59 60  1  0  0  0
 59 61  1  0  0  0
 59 62  1  0  0  0
 60130  1  0  0  0
 60131  1  0  0  0
 60132  1  0  0  0
 61133  1  0  0  0
 61134  1  0  0  0
 61135  1  0  0  0
 62136  1  0  0  0
 62137  1  0  0  0
 62138  1  0  0  0
 63 65  1  0  0  0
 63139  1  0  0  0
 63140  1  0  0  0
 63141  1  0  0  0
 64142  1  0  0  0
 65143  1  0  0  0
 68 81  1  0  0  0
 71 72  2  0  0  0
 71 74  1  0  0  0
 71144  1  0  0  0
 72 76  1  0  0  0
 72145  1  0  0  0
 73 75  1  0  0  0
 73 76  2  0  0  0
 73146  1  0  0  0
 74 75  2  0  0  0
 74 78  1  0  0  0
 75 79  1  0  0  0
 76 83  1  0  0  0
 77 80  1  0  0  0
 77 83  1  0  0  0
 77 84  2  0  0  0
 78 82  1  0  0  0
 78147  1  0  0  0
 78148  1  0  0  0
 79 82  1  0  0  0
 79149  1  0  0  0
 79150  1  0  0  0
 80 81  1  0  0  0
 80151  1  0  0  0
 80152  1  0  0  0
 81153  1  0  0  0
 81154  1  0  0  0
 83155  1  0  0  0
M  ISO  4   1 100  68 101  81 101  82 100
M  END
> <chiral flag>
0

> <version>
0

> <s_m_source_file>
/data/baiqing/PycharmProjects/Reinvent-master-3.2/result/LINK_invent/BTK/process_docking_weight1_custom_product_contain_oxygen_bond_distance_aromatic_linkinvent_7_9_3/rearranged_h_0150.sdf

> <i_m_source_file_index>
78

> <r_mmod_Potential_Energy-OPLS-2005>
76.6350250244141

> <r_mmod_Stretch_Energy-OPLS-2005>
57.9999046325684

> <r_mmod_Bend_Energy-OPLS-2005>
158.010787963867

> <r_mmod_Torsional_Energy-OPLS-2005>
271.28125

> <r_mmod_Improper_Torsional_Energy-OPLS-2005>
11.0378513336182

> <r_mmod_Van_der_Waal_Energy-OPLS-2005>
141.791290283203

> <r_mmod_Electrostatic_Energy-OPLS-2005>
-367.747192382812

> <r_mmod_Solvation_Energy-OPLS-2005>
-222.971466064453

> <b_mmod_Minimization_Converged-OPLS-2005>
0

> <r_mmod_RMS_Derivative-OPLS-2005>
0.930823445320129

$$$$
78
                    3D
 Structure written by MMmdl.
159167  0  0  1  0            999 V2000
  -30.6388  -14.5335   20.5090 C   0  0  0  0  0  0
  -30.4306  -12.3107   19.4491 C   0  0  0  0  0  0
  -29.5045  -12.4495   18.2208 C   0  0  0  0  0  0
  -28.0212  -12.3308   18.6296 C   0  0  0  0  0  0
  -27.6575  -13.1951   19.8676 C   0  0  2  0  0  0
  -28.6975  -13.0007   20.9945 C   0  0  0  0  0  0
  -25.2592  -13.8135   20.5663 C   0  0  0  0  0  0
  -24.1833  -13.0427   20.9178 C   0  0  0  0  0  0
  -24.6374  -11.6889   20.8749 C   0  0  0  0  0  0
  -23.9036  -10.4281   21.0402 C   0  0  0  0  0  0
  -24.3604   -9.4194   21.9168 C   0  0  0  0  0  0
  -23.6287   -8.2230   22.0746 C   0  0  0  0  0  0
  -22.4276   -8.0262   21.3532 C   0  0  0  0  0  0
  -21.9894   -9.0234   20.4637 C   0  0  0  0  0  0
  -22.7217  -10.2121   20.3040 C   0  0  0  0  0  0
  -21.6853   -6.0724   22.5266 C   0  0  0  0  0  0
  -21.4010   -6.5630   23.8201 C   0  0  0  0  0  0
  -21.3669   -5.6793   24.9165 C   0  0  0  0  0  0
  -21.6038   -4.3046   24.7213 C   0  0  0  0  0  0
  -21.8825   -3.8137   23.4342 C   0  0  0  0  0  0
  -21.9192   -4.6955   22.3395 C   0  0  0  0  0  0
  -22.7866  -13.5230   21.1851 C   0  0  0  0  0  0
  -22.1653   -4.2134   21.0972 F   0  0  0  0  0  0
  -21.5650   -3.4533   25.7730 F   0  0  0  0  0  0
  -30.0232  -13.3185   20.4410 N   0  0  0  0  0  0
  -26.2998  -12.9272   20.3329 N   0  0  0  0  0  0
  -25.9291  -11.6454   20.5780 N   0  0  0  0  0  0
  -22.0509  -12.8227   22.0412 N   0  0  0  0  0  0
  -25.4365  -15.1848   20.4075 N   0  0  0  0  0  0
  -31.7796  -14.7285   20.0771 O   0  0  0  0  0  0
  -21.6635   -6.8870   21.4237 O   0  0  0  0  0  0
  -22.3541  -14.5530   20.6689 O   0  0  0  0  0  0
  -24.6146  -31.8667   23.2078 C   0  0  0  0  0  0
  -25.9027  -32.4820   23.8386 C   0  0  1  0  0  0
  -27.2444  -27.4170   20.0921 C   0  0  0  0  0  0
  -25.5875  -33.8623   24.2307 N   0  0  0  0  0  0
  -23.4046  -30.4867   21.5491 C   0  0  2  0  0  0
  -24.8537  -28.9499   20.1110 C   0  0  0  0  0  0
  -22.7407  -29.4647   22.4997 C   0  0  0  0  0  0
  -18.0274  -28.1382   22.8502 C   0  0  0  0  0  0
  -24.1484  -36.7313   23.2643 C   0  0  0  0  0  0
  -25.9332  -30.8256   21.3642 C   0  0  0  0  0  0
  -26.0117  -29.4574   20.7120 C   0  0  0  0  0  0
  -27.2033  -28.6962   20.7034 C   0  0  0  0  0  0
  -26.0648  -26.9263   19.4887 C   0  0  0  0  0  0
  -24.8759  -27.6843   19.4995 C   0  0  0  0  0  0
  -23.6132  -29.8154   20.1642 C   0  0  0  0  0  0
  -25.4109  -36.3119   24.0341 C   0  0  1  0  0  0
  -20.5865  -28.3666   23.1334 C   0  0  2  0  0  0
  -20.6759  -26.9406   22.5429 C   0  0  0  0  0  0
  -19.5736  -26.6388   21.5225 C   0  0  0  0  0  0
  -18.1915  -26.7931   22.1633 C   0  0  0  0  0  0
  -19.1521  -28.8837   23.2917 C   0  0  0  0  0  0
  -18.9443  -30.1440   23.8929 C   0  0  0  0  0  0
  -17.6446  -30.6589   24.0567 C   0  0  0  0  0  0
  -25.9037  -34.9478   23.5126 C   0  0  0  0  0  0
  -16.5337  -29.9090   23.6323 C   0  0  0  0  0  0
  -16.7263  -28.6507   23.0351 C   0  0  0  0  0  0
  -26.4447  -31.6613   25.0720 C   0  0  0  0  0  0
  -25.3691  -31.3730   26.1455 C   0  0  0  0  0  0
  -27.0271  -30.3052   24.6111 C   0  0  0  0  0  0
  -27.6042  -32.4328   25.7454 C   0  0  0  0  0  0
  -27.5590  -37.1803   24.8463 C   0  0  0  0  0  0
  -21.4137  -29.3021   22.3725 N   0  0  0  0  0  0
  -26.4297  -37.3801   23.9414 N   0  0  0  0  0  0
  -24.6692  -31.0745   22.0989 N   0  0  0  0  0  0
  -23.4167  -28.8209   23.3065 O   0  0  0  0  0  0
  -28.4301  -26.7012   20.1345 O   0  0  0  0  0  0
  -26.5610  -34.8935   22.4698 O   0  0  0  0  0  0
  -23.5330  -32.1433   23.7448 O   0  0  0  0  0  0
  -29.8749  -18.0760   21.1577 C   0  0  0  0  0  0
  -29.7475  -16.8553   20.4035 C   0  0  0  0  0  0
  -29.5799  -19.2116   20.4240 C   0  0  0  0  0  0
  -29.3513  -17.0658   19.1042 C   0  0  0  0  0  0
  -28.3368  -24.1843   20.1118 C   0  0  0  0  0  0
  -30.5974  -23.2605   20.7058 C   0  0  0  0  0  0
  -29.6340  -22.7960   18.4158 C   0  0  0  0  0  0
  -28.6297  -25.5066   19.3443 C   0  0  0  0  0  0
  -28.6693  -21.5917   20.4038 C   0  0  0  0  0  0
  -29.3005  -22.9560   19.9154 C   0  0  0  0  0  0
  -29.0754  -16.1398   18.1045 N   0  0  0  0  0  0
  -29.8692  -15.5418   20.9753 N   0  0  0  0  0  0
  -29.6409  -20.5614   20.8377 N   0  0  0  0  0  0
  -27.3629  -24.1147   20.8678 O   0  0  0  0  0  0
  -29.1395  -18.7753   18.7851 S   0  0  0  0  0  0
  -31.4768  -12.4129   19.1559 H   0  0  0  0  0  0
  -30.3386  -11.3126   19.8809 H   0  0  0  0  0  0
  -29.7435  -11.6691   17.4972 H   0  0  0  0  0  0
  -29.6839  -13.3962   17.7138 H   0  0  0  0  0  0
  -27.8365  -11.2813   18.8599 H   0  0  0  0  0  0
  -27.3698  -12.5691   17.7876 H   0  0  0  0  0  0
  -27.6912  -14.2354   19.5481 H   0  0  0  0  0  0
  -28.6862  -11.9675   21.3452 H   0  0  0  0  0  0
  -28.4512  -13.6081   21.8677 H   0  0  0  0  0  0
  -25.2747   -9.5687   22.4737 H   0  0  0  0  0  0
  -24.0000   -7.4626   22.7465 H   0  0  0  0  0  0
  -21.0815   -8.8740   19.8948 H   0  0  0  0  0  0
  -22.3647  -10.9660   19.6154 H   0  0  0  0  0  0
  -21.1991   -7.6128   23.9704 H   0  0  0  0  0  0
  -21.1496   -6.0506   25.9071 H   0  0  0  0  0  0
  -22.0599   -2.7590   23.2832 H   0  0  0  0  0  0
  -22.4118  -11.9887   22.4800 H   0  0  0  0  0  0
  -21.1126  -13.1255   22.2626 H   0  0  0  0  0  0
  -24.6755  -15.8458   20.5166 H   0  0  0  0  0  0
  -26.2855  -15.6122   20.0588 H   0  0  0  0  0  0
  -26.7093  -32.5526   23.1150 H   0  0  0  0  0  0
  -24.9989  -33.9785   25.0425 H   0  0  0  0  0  0
  -22.6950  -31.3045   21.4085 H   0  0  0  0  0  0
  -23.3757  -35.9634   23.3297 H   0  0  0  0  0  0
  -24.3590  -36.8930   22.2061 H   0  0  0  0  0  0
  -23.7212  -37.6506   23.6659 H   0  0  0  0  0  0
  -26.0444  -31.5928   20.5963 H   0  0  0  0  0  0
  -26.8207  -30.8819   21.9832 H   0  0  0  0  0  0
  -28.0952  -29.0863   21.1737 H   0  0  0  0  0  0
  -26.0355  -25.9513   19.0245 H   0  0  0  0  0  0
  -23.9856  -27.2834   19.0351 H   0  0  0  0  0  0
  -23.7129  -30.5884   19.4017 H   0  0  0  0  0  0
  -22.7378  -29.2314   19.8747 H   0  0  0  0  0  0
  -25.1284  -36.1991   25.0834 H   0  0  0  0  0  0
  -20.9961  -28.3223   24.1455 H   0  0  0  0  0  0
  -20.5681  -26.2264   23.3608 H   0  0  0  0  0  0
  -21.6625  -26.7461   22.1204 H   0  0  0  0  0  0
  -19.6897  -25.6300   21.1244 H   0  0  0  0  0  0
  -19.6680  -27.3206   20.6760 H   0  0  0  0  0  0
  -17.4192  -26.6699   21.4026 H   0  0  0  0  0  0
  -18.0306  -26.0067   22.9021 H   0  0  0  0  0  0
  -19.7915  -30.7248   24.2321 H   0  0  0  0  0  0
  -17.5000  -31.6281   24.5147 H   0  0  0  0  0  0
  -15.5337  -30.3003   23.7628 H   0  0  0  0  0  0
  -15.8664  -28.0833   22.7054 H   0  0  0  0  0  0
  -24.5870  -30.7079   25.7775 H   0  0  0  0  0  0
  -24.8861  -32.2882   26.4891 H   0  0  0  0  0  0
  -25.8010  -30.8898   27.0225 H   0  0  0  0  0  0
  -26.2817  -29.6825   24.1147 H   0  0  0  0  0  0
  -27.4009  -29.7291   25.4587 H   0  0  0  0  0  0
  -27.8669  -30.4368   23.9281 H   0  0  0  0  0  0
  -27.2690  -33.3623   26.2071 H   0  0  0  0  0  0
  -28.3805  -32.6898   25.0232 H   0  0  0  0  0  0
  -28.0765  -31.8428   26.5319 H   0  0  0  0  0  0
  -28.2608  -38.0101   24.7530 H   0  0  0  0  0  0
  -28.1081  -36.2638   24.6258 H   0  0  0  0  0  0
  -27.2318  -37.1416   25.8867 H   0  0  0  0  0  0
  -20.9302  -29.8704   21.6913 H   0  0  0  0  0  0
  -26.0193  -38.2880   24.1422 H   0  0  0  0  0  0
  -30.1562  -18.0747   22.2006 H   0  0  0  0  0  0
  -31.0460  -24.2110   20.4154 H   0  0  0  0  0  0
  -31.3607  -22.5004   20.5381 H   0  0  0  0  0  0
  -30.4077  -23.3031   21.7794 H   0  0  0  0  0  0
  -30.2301  -23.6217   18.0273 H   0  0  0  0  0  0
  -28.7307  -22.7288   17.8078 H   0  0  0  0  0  0
  -30.2081  -21.8860   18.2430 H   0  0  0  0  0  0
  -28.0660  -25.5368   18.4121 H   0  0  0  0  0  0
  -29.6799  -25.5038   19.0557 H   0  0  0  0  0  0
  -28.0124  -21.1956   19.6279 H   0  0  0  0  0  0
  -28.0149  -21.7701   21.2586 H   0  0  0  0  0  0
  -29.1435  -15.1353   18.2047 H   0  0  0  0  0  0
  -28.8490  -16.4201   17.1554 H   0  0  0  0  0  0
  -29.0424  -15.2246   21.4560 H   0  0  0  0  0  0
  -30.1835  -20.8094   21.6599 H   0  0  0  0  0  0
  1 25  1  0  0  0
  1 30  2  0  0  0
  1 82  1  0  0  0
  2  3  1  0  0  0
  2 25  1  0  0  0
  2 86  1  0  0  0
  2 87  1  0  0  0
  3  4  1  0  0  0
  3 88  1  0  0  0
  3 89  1  0  0  0
  4  5  1  0  0  0
  4 90  1  0  0  0
  4 91  1  0  0  0
  5  6  1  0  0  0
  5 26  1  0  0  0
  5 92  1  0  0  0
  6 25  1  0  0  0
  6 93  1  0  0  0
  6 94  1  0  0  0
  7  8  2  0  0  0
  7 26  1  0  0  0
  7 29  1  0  0  0
  8  9  1  0  0  0
  8 22  1  0  0  0
  9 10  1  0  0  0
  9 27  2  0  0  0
 10 11  2  0  0  0
 10 15  1  0  0  0
 11 12  1  0  0  0
 11 95  1  0  0  0
 12 13  2  0  0  0
 12 96  1  0  0  0
 13 14  1  0  0  0
 13 31  1  0  0  0
 14 15  2  0  0  0
 14 97  1  0  0  0
 15 98  1  0  0  0
 16 17  2  0  0  0
 16 21  1  0  0  0
 16 31  1  0  0  0
 17 18  1  0  0  0
 17 99  1  0  0  0
 18 19  2  0  0  0
 18100  1  0  0  0
 19 20  1  0  0  0
 19 24  1  0  0  0
 20 21  2  0  0  0
 20101  1  0  0  0
 21 23  1  0  0  0
 22 28  1  0  0  0
 22 32  2  0  0  0
 26 27  1  0  0  0
 28102  1  0  0  0
 28103  1  0  0  0
 29104  1  0  0  0
 29105  1  0  0  0
 33 34  1  0  0  0
 33 66  1  0  0  0
 33 70  2  0  0  0
 34 36  1  0  0  0
 34 59  1  0  0  0
 34106  1  0  0  0
 35 44  2  0  0  0
 35 45  1  0  0  0
 35 68  1  0  0  0
 36 56  1  0  0  0
 36107  1  0  0  0
 37 39  1  0  0  0
 37 47  1  0  0  0
 37 66  1  0  0  0
 37108  1  0  0  0
 38 43  2  0  0  0
 38 46  1  0  0  0
 38 47  1  0  0  0
 39 64  1  0  0  0
 39 67  2  0  0  0
 40 52  1  0  0  0
 40 53  2  0  0  0
 40 58  1  0  0  0
 41109  1  0  0  0
 41110  1  0  0  0
 41111  1  0  0  0
 41 48  1  0  0  0
 42 43  1  0  0  0
 42 66  1  0  0  0
 42112  1  0  0  0
 42113  1  0  0  0
 43 44  1  0  0  0
 44114  1  0  0  0
 45 46  2  0  0  0
 45115  1  0  0  0
 46116  1  0  0  0
 47117  1  0  0  0
 47118  1  0  0  0
 48 56  1  0  0  0
 48 65  1  0  0  0
 48119  1  0  0  0
 49 50  1  0  0  0
 49 53  1  0  0  0
 49 64  1  0  0  0
 49120  1  0  0  0
 50 51  1  0  0  0
 50121  1  0  0  0
 50122  1  0  0  0
 51 52  1  0  0  0
 51123  1  0  0  0
 51124  1  0  0  0
 52125  1  0  0  0
 52126  1  0  0  0
 53 54  1  0  0  0
 54 55  2  0  0  0
 54127  1  0  0  0
 55 57  1  0  0  0
 55128  1  0  0  0
 56 69  2  0  0  0
 57 58  2  0  0  0
 57129  1  0  0  0
 58130  1  0  0  0
 59 60  1  0  0  0
 59 61  1  0  0  0
 59 62  1  0  0  0
 60131  1  0  0  0
 60132  1  0  0  0
 60133  1  0  0  0
 61134  1  0  0  0
 61135  1  0  0  0
 61136  1  0  0  0
 62137  1  0  0  0
 62138  1  0  0  0
 62139  1  0  0  0
 63 65  1  0  0  0
 63140  1  0  0  0
 63141  1  0  0  0
 63142  1  0  0  0
 64143  1  0  0  0
 65144  1  0  0  0
 68 78  1  0  0  0
 71 72  1  0  0  0
 71 73  2  0  0  0
 71145  1  0  0  0
 72 74  2  0  0  0
 72 82  1  0  0  0
 73 83  1  0  0  0
 73 85  1  0  0  0
 74 81  1  0  0  0
 74 85  1  0  0  0
 75 78  1  0  0  0
 75 80  1  0  0  0
 75 84  2  0  0  0
 76146  1  0  0  0
 76147  1  0  0  0
 76148  1  0  0  0
 76 80  1  0  0  0
 77 80  1  0  0  0
 77149  1  0  0  0
 77150  1  0  0  0
 77151  1  0  0  0
 78152  1  0  0  0
 78153  1  0  0  0
 79 80  1  0  0  0
 79 83  1  0  0  0
 79154  1  0  0  0
 79155  1  0  0  0
 81156  1  0  0  0
 81157  1  0  0  0
 82158  1  0  0  0
 83159  1  0  0  0
M  ISO  4   1 100  68 101  78 101  82 100
M  END
> <chiral flag>
0

> <version>
0

> <s_m_source_file>
/data/baiqing/PycharmProjects/Reinvent-master-3.2/result/LINK_invent/BTK/process_docking_weight1_custom_product_contain_oxygen_bond_distance_aromatic_linkinvent_7_9_3/rearranged_h_0150.sdf

> <i_m_source_file_index>
79

> <r_mmod_Potential_Energy-OPLS-2005>
22.5472354888916

> <r_mmod_Stretch_Energy-OPLS-2005>
47.8441696166992

> <r_mmod_Bend_Energy-OPLS-2005>
125.360702514648

> <r_mmod_Torsional_Energy-OPLS-2005>
270.547821044922

> <r_mmod_Improper_Torsional_Energy-OPLS-2005>
6.58434152603149

> <r_mmod_Van_der_Waal_Energy-OPLS-2005>
128.916976928711

> <r_mmod_Electrostatic_Energy-OPLS-2005>
-340.657073974609

> <r_mmod_Solvation_Energy-OPLS-2005>
-236.785095214844

> <b_mmod_Minimization_Converged-OPLS-2005>
0

> <r_mmod_RMS_Derivative-OPLS-2005>
2.52942657470703

$$$$
79
                    3D
 Structure written by MMmdl.
161170  0  0  1  0            999 V2000
  -30.7181  -14.4558   20.6215 C   0  0  0  0  0  0
  -30.4304  -12.3118   19.4275 C   0  0  0  0  0  0
  -29.5032  -12.5073   18.2109 C   0  0  0  0  0  0
  -28.0244  -12.3605   18.6210 C   0  0  0  0  0  0
  -27.6664  -13.2023   19.8747 C   0  0  2  0  0  0
  -28.7026  -12.9807   20.9995 C   0  0  0  0  0  0
  -25.2604  -13.8147   20.5641 C   0  0  0  0  0  0
  -24.1847  -13.0439   20.9145 C   0  0  0  0  0  0
  -24.6388  -11.6902   20.8711 C   0  0  0  0  0  0
  -23.9054  -10.4294   21.0396 C   0  0  0  0  0  0
  -24.3606   -9.4220   21.9188 C   0  0  0  0  0  0
  -23.6275   -8.2263   22.0764 C   0  0  0  0  0  0
  -22.4259   -8.0294   21.3553 C   0  0  0  0  0  0
  -21.9884   -9.0265   20.4653 C   0  0  0  0  0  0
  -22.7219  -10.2141   20.3059 C   0  0  0  0  0  0
  -21.6850   -6.0735   22.5276 C   0  0  0  0  0  0
  -21.4014   -6.5633   23.8210 C   0  0  0  0  0  0
  -21.3654   -5.6785   24.9167 C   0  0  0  0  0  0
  -21.6047   -4.3048   24.7218 C   0  0  0  0  0  0
  -21.8826   -3.8141   23.4335 C   0  0  0  0  0  0
  -21.9188   -4.6963   22.3391 C   0  0  0  0  0  0
  -22.7875  -13.5259   21.1793 C   0  0  0  0  0  0
  -22.1667   -4.2159   21.0970 F   0  0  0  0  0  0
  -21.5620   -3.4532   25.7728 F   0  0  0  0  0  0
  -30.0409  -13.2843   20.4615 N   0  0  0  0  0  0
  -26.3037  -12.9307   20.3324 N   0  0  0  0  0  0
  -25.9308  -11.6477   20.5735 N   0  0  0  0  0  0
  -22.0504  -12.8291   22.0377 N   0  0  0  0  0  0
  -25.4358  -15.1865   20.4080 N   0  0  0  0  0  0
  -31.8004  -14.6808   20.0719 O   0  0  0  0  0  0
  -21.6642   -6.8878   21.4237 O   0  0  0  0  0  0
  -22.3583  -14.5575   20.6643 O   0  0  0  0  0  0
  -24.6166  -31.8661   23.2082 C   0  0  0  0  0  0
  -25.9060  -32.4804   23.8378 C   0  0  1  0  0  0
  -27.2280  -27.4166   20.1028 C   0  0  0  0  0  0
  -25.5909  -33.8602   24.2301 N   0  0  0  0  0  0
  -23.4061  -30.4900   21.5484 C   0  0  2  0  0  0
  -24.8536  -28.9560   20.1097 C   0  0  0  0  0  0
  -22.7416  -29.4665   22.4970 C   0  0  0  0  0  0
  -18.0274  -28.1403   22.8484 C   0  0  0  0  0  0
  -24.1488  -36.7320   23.2632 C   0  0  0  0  0  0
  -25.9369  -30.8265   21.3634 C   0  0  0  0  0  0
  -26.0156  -29.4608   20.7088 C   0  0  0  0  0  0
  -27.2102  -28.6995   20.7012 C   0  0  0  0  0  0
  -26.0535  -26.9375   19.4842 C   0  0  0  0  0  0
  -24.8684  -27.6952   19.4904 C   0  0  0  0  0  0
  -23.6150  -29.8235   20.1624 C   0  0  0  0  0  0
  -25.4106  -36.3093   24.0323 C   0  0  1  0  0  0
  -20.5864  -28.3695   23.1304 C   0  0  2  0  0  0
  -20.6775  -26.9431   22.5411 C   0  0  0  0  0  0
  -19.5756  -26.6403   21.5212 C   0  0  0  0  0  0
  -18.1933  -26.7945   22.1623 C   0  0  0  0  0  0
  -19.1522  -28.8864   23.2893 C   0  0  0  0  0  0
  -18.9454  -30.1468   23.8908 C   0  0  0  0  0  0
  -17.6456  -30.6600   24.0574 C   0  0  0  0  0  0
  -25.9040  -34.9462   23.5107 C   0  0  0  0  0  0
  -16.5348  -29.9106   23.6334 C   0  0  0  0  0  0
  -16.7262  -28.6529   23.0342 C   0  0  0  0  0  0
  -26.4482  -31.6593   25.0718 C   0  0  0  0  0  0
  -25.3753  -31.3730   26.1477 C   0  0  0  0  0  0
  -27.0291  -30.3013   24.6119 C   0  0  0  0  0  0
  -27.6055  -32.4322   25.7474 C   0  0  0  0  0  0
  -27.5578  -37.1802   24.8458 C   0  0  0  0  0  0
  -21.4140  -29.3050   22.3697 N   0  0  0  0  0  0
  -26.4286  -37.3782   23.9407 N   0  0  0  0  0  0
  -24.6717  -31.0748   22.0987 N   0  0  0  0  0  0
  -23.4178  -28.8205   23.3020 O   0  0  0  0  0  0
  -28.3493  -26.6114   20.1350 O   0  0  0  0  0  0
  -26.5603  -34.8922   22.4670 O   0  0  0  0  0  0
  -23.5355  -32.1415   23.7471 O   0  0  0  0  0  0
  -29.8986  -17.6869   20.4149 C   0  0  0  0  0  0
  -31.1633  -17.3711   22.3675 C   0  0  0  0  0  0
  -30.4051  -16.7741   21.3944 C   0  0  0  0  0  0
  -30.3414  -18.9804   20.6015 C   0  0  0  0  0  0
  -30.1749  -20.1135   19.6906 C   0  0  0  0  0  0
  -29.1557  -23.7358   19.2750 C   0  0  0  0  0  0
  -28.8183  -23.0588   21.6244 C   0  0  0  0  0  0
  -30.1076  -22.5303   19.0668 C   0  0  0  0  0  0
  -29.7687  -21.8486   21.4554 C   0  0  0  0  0  0
  -29.1619  -24.2658   20.7187 C   0  0  0  0  0  0
  -28.1700  -25.4419   20.9669 C   0  0  0  0  0  0
  -29.9271  -21.4182   20.0467 N   0  0  0  0  0  0
  -30.1102  -15.3817   21.3891 N   0  0  0  0  0  0
  -30.3109  -19.8026   18.3893 N   0  3  0  0  0  0
  -30.4492  -24.7342   21.0791 O   0  0  0  0  0  0
  -31.3447  -19.0784   22.0406 S   0  0  0  0  0  0
  -31.4749  -12.4164   19.1265 H   0  0  0  0  0  0
  -30.3402  -11.2976   19.8204 H   0  0  0  0  0  0
  -29.7478  -11.7805   17.4350 H   0  0  0  0  0  0
  -29.6700  -13.4914   17.7705 H   0  0  0  0  0  0
  -27.8408  -11.3042   18.8213 H   0  0  0  0  0  0
  -27.3757  -12.6286   17.7872 H   0  0  0  0  0  0
  -27.7155  -14.2492   19.5745 H   0  0  0  0  0  0
  -28.6776  -11.9436   21.3386 H   0  0  0  0  0  0
  -28.4475  -13.5752   21.8764 H   0  0  0  0  0  0
  -25.2763   -9.5692   22.4747 H   0  0  0  0  0  0
  -23.9984   -7.4647   22.7476 H   0  0  0  0  0  0
  -21.0817   -8.8781   19.8960 H   0  0  0  0  0  0
  -22.3680  -10.9675   19.6163 H   0  0  0  0  0  0
  -21.2030   -7.6144   23.9705 H   0  0  0  0  0  0
  -21.1462   -6.0522   25.9068 H   0  0  0  0  0  0
  -22.0608   -2.7604   23.2835 H   0  0  0  0  0  0
  -22.4104  -11.9960   22.4784 H   0  0  0  0  0  0
  -21.1123  -13.1349   22.2555 H   0  0  0  0  0  0
  -24.6702  -15.8436   20.5083 H   0  0  0  0  0  0
  -26.2916  -15.6225   20.0878 H   0  0  0  0  0  0
  -26.7131  -32.5503   23.1140 H   0  0  0  0  0  0
  -25.0056  -33.9759   25.0442 H   0  0  0  0  0  0
  -22.6961  -31.3078   21.4089 H   0  0  0  0  0  0
  -23.3730  -35.9673   23.3292 H   0  0  0  0  0  0
  -24.3583  -36.8947   22.2049 H   0  0  0  0  0  0
  -23.7268  -37.6534   23.6655 H   0  0  0  0  0  0
  -26.0501  -31.5909   20.5934 H   0  0  0  0  0  0
  -26.8244  -30.8796   21.9821 H   0  0  0  0  0  0
  -28.1053  -29.0782   21.1747 H   0  0  0  0  0  0
  -26.0498  -25.9663   19.0102 H   0  0  0  0  0  0
  -23.9769  -27.3021   19.0213 H   0  0  0  0  0  0
  -23.7205  -30.5994   19.4027 H   0  0  0  0  0  0
  -22.7382  -29.2432   19.8686 H   0  0  0  0  0  0
  -25.1281  -36.1943   25.0813 H   0  0  0  0  0  0
  -20.9956  -28.3277   24.1426 H   0  0  0  0  0  0
  -20.5704  -26.2303   23.3599 H   0  0  0  0  0  0
  -21.6646  -26.7498   22.1192 H   0  0  0  0  0  0
  -19.6925  -25.6315   21.1246 H   0  0  0  0  0  0
  -19.6696  -27.3211   20.6742 H   0  0  0  0  0  0
  -17.4197  -26.6676   21.4034 H   0  0  0  0  0  0
  -18.0351  -26.0095   22.9031 H   0  0  0  0  0  0
  -19.7931  -30.7286   24.2276 H   0  0  0  0  0  0
  -17.5016  -31.6276   24.5183 H   0  0  0  0  0  0
  -15.5354  -30.3019   23.7655 H   0  0  0  0  0  0
  -15.8659  -28.0862   22.7041 H   0  0  0  0  0  0
  -24.5910  -30.7083   25.7842 H   0  0  0  0  0  0
  -24.8971  -32.2900   26.4926 H   0  0  0  0  0  0
  -25.8115  -30.8907   27.0231 H   0  0  0  0  0  0
  -26.2822  -29.6784   24.1175 H   0  0  0  0  0  0
  -27.4031  -29.7249   25.4592 H   0  0  0  0  0  0
  -27.8684  -30.4288   23.9277 H   0  0  0  0  0  0
  -27.2664  -33.3624   26.2041 H   0  0  0  0  0  0
  -28.3865  -32.6876   25.0304 H   0  0  0  0  0  0
  -28.0715  -31.8459   26.5399 H   0  0  0  0  0  0
  -28.2586  -38.0108   24.7507 H   0  0  0  0  0  0
  -28.1082  -36.2639   24.6264 H   0  0  0  0  0  0
  -27.2301  -37.1441   25.8864 H   0  0  0  0  0  0
  -20.9301  -29.8740   21.6888 H   0  0  0  0  0  0
  -26.0166  -38.2852   24.1428 H   0  0  0  0  0  0
  -29.2741  -17.3667   19.5933 H   0  0  0  0  0  0
  -31.6481  -16.9300   23.2310 H   0  0  0  0  0  0
  -28.1420  -23.4449   18.9947 H   0  0  0  0  0  0
  -29.4337  -24.5356   18.5874 H   0  0  0  0  0  0
  -28.8247  -23.3653   22.6712 H   0  0  0  0  0  0
  -27.7974  -22.7297   21.4219 H   0  0  0  0  0  0
  -31.1442  -22.8610   19.1383 H   0  0  0  0  0  0
  -29.9710  -22.1814   18.0455 H   0  0  0  0  0  0
  -29.3686  -21.0241   22.0425 H   0  0  0  0  0  0
  -30.7538  -22.0838   21.8578 H   0  0  0  0  0  0
  -28.2360  -25.7592   22.0092 H   0  0  0  0  0  0
  -27.1632  -25.0376   20.8490 H   0  0  0  0  0  0
  -29.2538  -15.0900   21.8348 H   0  0  0  0  0  0
  -30.5390  -18.8589   18.1157 H   0  0  0  0  0  0
  -30.2133  -20.4905   17.6603 H   0  0  0  0  0  0
  -30.5498  -25.5985   20.6918 H   0  0  0  0  0  0
  1 25  1  0  0  0
  1 30  2  0  0  0
  1 83  1  0  0  0
  2  3  1  0  0  0
  2 25  1  0  0  0
  2 87  1  0  0  0
  2 88  1  0  0  0
  3  4  1  0  0  0
  3 89  1  0  0  0
  3 90  1  0  0  0
  4  5  1  0  0  0
  4 91  1  0  0  0
  4 92  1  0  0  0
  5  6  1  0  0  0
  5 26  1  0  0  0
  5 93  1  0  0  0
  6 25  1  0  0  0
  6 94  1  0  0  0
  6 95  1  0  0  0
  7  8  2  0  0  0
  7 26  1  0  0  0
  7 29  1  0  0  0
  8  9  1  0  0  0
  8 22  1  0  0  0
  9 10  1  0  0  0
  9 27  2  0  0  0
 10 11  2  0  0  0
 10 15  1  0  0  0
 11 12  1  0  0  0
 11 96  1  0  0  0
 12 13  2  0  0  0
 12 97  1  0  0  0
 13 14  1  0  0  0
 13 31  1  0  0  0
 14 15  2  0  0  0
 14 98  1  0  0  0
 15 99  1  0  0  0
 16 17  2  0  0  0
 16 21  1  0  0  0
 16 31  1  0  0  0
 17 18  1  0  0  0
 17100  1  0  0  0
 18 19  2  0  0  0
 18101  1  0  0  0
 19 20  1  0  0  0
 19 24  1  0  0  0
 20 21  2  0  0  0
 20102  1  0  0  0
 21 23  1  0  0  0
 22 28  1  0  0  0
 22 32  2  0  0  0
 26 27  1  0  0  0
 28103  1  0  0  0
 28104  1  0  0  0
 29105  1  0  0  0
 29106  1  0  0  0
 33 34  1  0  0  0
 33 66  1  0  0  0
 33 70  2  0  0  0
 34 36  1  0  0  0
 34 59  1  0  0  0
 34107  1  0  0  0
 35 44  2  0  0  0
 35 45  1  0  0  0
 35 68  1  0  0  0
 36 56  1  0  0  0
 36108  1  0  0  0
 37 39  1  0  0  0
 37 47  1  0  0  0
 37 66  1  0  0  0
 37109  1  0  0  0
 38 43  2  0  0  0
 38 46  1  0  0  0
 38 47  1  0  0  0
 39 64  1  0  0  0
 39 67  2  0  0  0
 40 52  1  0  0  0
 40 53  2  0  0  0
 40 58  1  0  0  0
 41110  1  0  0  0
 41111  1  0  0  0
 41112  1  0  0  0
 41 48  1  0  0  0
 42 43  1  0  0  0
 42 66  1  0  0  0
 42113  1  0  0  0
 42114  1  0  0  0
 43 44  1  0  0  0
 44115  1  0  0  0
 45 46  2  0  0  0
 45116  1  0  0  0
 46117  1  0  0  0
 47118  1  0  0  0
 47119  1  0  0  0
 48 56  1  0  0  0
 48 65  1  0  0  0
 48120  1  0  0  0
 49 50  1  0  0  0
 49 53  1  0  0  0
 49 64  1  0  0  0
 49121  1  0  0  0
 50 51  1  0  0  0
 50122  1  0  0  0
 50123  1  0  0  0
 51 52  1  0  0  0
 51124  1  0  0  0
 51125  1  0  0  0
 52126  1  0  0  0
 52127  1  0  0  0
 53 54  1  0  0  0
 54 55  2  0  0  0
 54128  1  0  0  0
 55 57  1  0  0  0
 55129  1  0  0  0
 56 69  2  0  0  0
 57 58  2  0  0  0
 57130  1  0  0  0
 58131  1  0  0  0
 59 60  1  0  0  0
 59 61  1  0  0  0
 59 62  1  0  0  0
 60132  1  0  0  0
 60133  1  0  0  0
 60134  1  0  0  0
 61135  1  0  0  0
 61136  1  0  0  0
 61137  1  0  0  0
 62138  1  0  0  0
 62139  1  0  0  0
 62140  1  0  0  0
 63 65  1  0  0  0
 63141  1  0  0  0
 63142  1  0  0  0
 63143  1  0  0  0
 64144  1  0  0  0
 65145  1  0  0  0
 68 81  1  0  0  0
 71 73  1  0  0  0
 71 74  2  0  0  0
 71146  1  0  0  0
 72 73  2  0  0  0
 72 86  1  0  0  0
 72147  1  0  0  0
 73 83  1  0  0  0
 74 75  1  0  0  0
 74 86  1  0  0  0
 75 82  1  0  0  0
 75 84  2  0  0  0
 76 78  1  0  0  0
 76 80  1  0  0  0
 76148  1  0  0  0
 76149  1  0  0  0
 77 79  1  0  0  0
 77 80  1  0  0  0
 77150  1  0  0  0
 77151  1  0  0  0
 78 82  1  0  0  0
 78152  1  0  0  0
 78153  1  0  0  0
 79 82  1  0  0  0
 79154  1  0  0  0
 79155  1  0  0  0
 80 81  1  0  0  0
 80 85  1  0  0  0
 81156  1  0  0  0
 81157  1  0  0  0
 83158  1  0  0  0
 84159  1  0  0  0
 84160  1  0  0  0
 85161  1  0  0  0
M  CHG  1  84   1
M  ISO  4   1 100  68 101  81 101  83 100
M  END
> <chiral flag>
0

> <version>
0

> <s_m_source_file>
/data/baiqing/PycharmProjects/Reinvent-master-3.2/result/LINK_invent/BTK/process_docking_weight1_custom_product_contain_oxygen_bond_distance_aromatic_linkinvent_7_9_3/rearranged_h_0150.sdf

> <i_m_source_file_index>
80

> <r_mmod_Potential_Energy-OPLS-2005>
-115.187713623047

> <r_mmod_Stretch_Energy-OPLS-2005>
41.5954742431641

> <r_mmod_Bend_Energy-OPLS-2005>
107.410888671875

> <r_mmod_Torsional_Energy-OPLS-2005>
313.849212646484

> <r_mmod_Improper_Torsional_Energy-OPLS-2005>
3.64178204536438

> <r_mmod_Van_der_Waal_Energy-OPLS-2005>
143.225524902344

> <r_mmod_Electrostatic_Energy-OPLS-2005>
-293.645812988281

> <r_mmod_Solvation_Energy-OPLS-2005>
-445.484802246094

> <b_mmod_Minimization_Converged-OPLS-2005>
0

> <r_mmod_RMS_Derivative-OPLS-2005>
1.9974536895752

$$$$
80
                    3D
 Structure written by MMmdl.
155164  0  0  1  0            999 V2000
  -30.6809  -14.7172   20.4731 C   0  0  0  0  0  0
  -30.4146  -12.4455   19.4672 C   0  0  0  0  0  0
  -29.4989  -12.5056   18.2284 C   0  0  0  0  0  0
  -28.0281  -12.3338   18.6480 C   0  0  0  0  0  0
  -27.6375  -13.2404   19.8462 C   0  0  2  0  0  0
  -28.6869  -13.2005   20.9789 C   0  0  0  0  0  0
  -25.2484  -13.8221   20.5722 C   0  0  0  0  0  0
  -24.1785  -13.0442   20.9224 C   0  0  0  0  0  0
  -24.6393  -11.6927   20.8759 C   0  0  0  0  0  0
  -23.9074  -10.4295   21.0412 C   0  0  0  0  0  0
  -24.3630   -9.4212   21.9185 C   0  0  0  0  0  0
  -23.6302   -8.2249   22.0761 C   0  0  0  0  0  0
  -22.4288   -8.0282   21.3545 C   0  0  0  0  0  0
  -21.9919   -9.0255   20.4649 C   0  0  0  0  0  0
  -22.7248  -10.2134   20.3055 C   0  0  0  0  0  0
  -21.6855   -6.0737   22.5281 C   0  0  0  0  0  0
  -21.4009   -6.5636   23.8212 C   0  0  0  0  0  0
  -21.3659   -5.6790   24.9175 C   0  0  0  0  0  0
  -21.6049   -4.3053   24.7225 C   0  0  0  0  0  0
  -21.8822   -3.8146   23.4346 C   0  0  0  0  0  0
  -21.9190   -4.6964   22.3402 C   0  0  0  0  0  0
  -22.7803  -13.5212   21.1869 C   0  0  0  0  0  0
  -22.1663   -4.2148   21.0982 F   0  0  0  0  0  0
  -21.5630   -3.4540   25.7739 F   0  0  0  0  0  0
  -29.9868  -13.5307   20.3827 N   0  0  0  0  0  0
  -26.2921  -12.9446   20.3299 N   0  0  0  0  0  0
  -25.9327  -11.6575   20.5767 N   0  0  0  0  0  0
  -22.0458  -12.8200   22.0434 N   0  0  0  0  0  0
  -25.4159  -15.1949   20.4156 N   0  0  0  0  0  0
  -31.8726  -14.7114   20.1709 O   0  0  0  0  0  0
  -21.6645   -6.8883   21.4245 O   0  0  0  0  0  0
  -22.3486  -14.5514   20.6713 O   0  0  0  0  0  0
  -24.6298  -31.8569   23.1996 C   0  0  0  0  0  0
  -25.9129  -32.4764   23.8343 C   0  0  1  0  0  0
  -27.2167  -27.2754   20.1348 C   0  0  0  0  0  0
  -25.5936  -33.8569   24.2272 N   0  0  0  0  0  0
  -23.4262  -30.4793   21.5425 C   0  0  2  0  0  0
  -24.8744  -28.9282   20.1116 C   0  0  0  0  0  0
  -22.7492  -29.4611   22.4916 C   0  0  0  0  0  0
  -18.0292  -28.1388   22.8494 C   0  0  0  0  0  0
  -24.1490  -36.7276   23.2640 C   0  0  0  0  0  0
  -25.9711  -30.7746   21.3782 C   0  0  0  0  0  0
  -26.0454  -29.3976   20.7218 C   0  0  0  0  0  0
  -27.2231  -28.5845   20.7210 C   0  0  0  0  0  0
  -26.0298  -26.8756   19.4853 C   0  0  0  0  0  0
  -24.8709  -27.6747   19.4816 C   0  0  0  0  0  0
  -23.6442  -29.8133   20.1587 C   0  0  0  0  0  0
  -25.4117  -36.3074   24.0329 C   0  0  1  0  0  0
  -20.5893  -28.3700   23.1275 C   0  0  2  0  0  0
  -20.6779  -26.9417   22.5414 C   0  0  0  0  0  0
  -19.5753  -26.6385   21.5217 C   0  0  0  0  0  0
  -18.1933  -26.7934   22.1625 C   0  0  0  0  0  0
  -19.1546  -28.8859   23.2880 C   0  0  0  0  0  0
  -18.9467  -30.1458   23.8899 C   0  0  0  0  0  0
  -17.6467  -30.6593   24.0564 C   0  0  0  0  0  0
  -25.9056  -34.9445   23.5100 C   0  0  0  0  0  0
  -16.5358  -29.9089   23.6335 C   0  0  0  0  0  0
  -16.7278  -28.6504   23.0366 C   0  0  0  0  0  0
  -26.4502  -31.6582   25.0721 C   0  0  0  0  0  0
  -25.3730  -31.3731   26.1443 C   0  0  0  0  0  0
  -27.0334  -30.2991   24.6205 C   0  0  0  0  0  0
  -27.6060  -32.4320   25.7496 C   0  0  0  0  0  0
  -27.5586  -37.1790   24.8466 C   0  0  0  0  0  0
  -21.4201  -29.3045   22.3656 N   0  0  0  0  0  0
  -26.4292  -37.3775   23.9414 N   0  0  0  0  0  0
  -24.6944  -31.0545   22.0966 N   0  0  0  0  0  0
  -23.4196  -28.8159   23.3020 O   0  0  0  0  0  0
  -28.2959  -26.3686   20.1697 O   0  0  0  0  0  0
  -26.5628  -34.8917   22.4670 O   0  0  0  0  0  0
  -23.5451  -32.1390   23.7295 O   0  0  0  0  0  0
  -30.1198  -20.8183   19.4926 C   0  0  0  0  0  0
  -30.5834  -19.4462   19.6004 C   0  0  0  0  0  0
  -29.9407  -18.6691   20.5453 C   0  0  0  0  0  0
  -29.1598  -21.2111   20.4030 C   0  0  0  0  0  0
  -28.8507  -23.7431   20.1529 C   0  0  0  0  0  0
  -31.7908  -18.9424   18.8563 C   0  0  0  0  0  0
  -32.5075  -17.7564   19.5473 C   0  0  0  0  0  0
  -32.0578  -17.4812   21.0051 C   0  0  0  0  0  0
  -30.5205  -17.3147   21.1121 C   0  0  2  0  0  0
  -28.0047  -24.9889   20.6941 C   0  0  0  0  0  0
  -28.5847  -22.4703   20.6391 N   0  0  0  0  0  0
  -30.0088  -15.9111   20.7259 N   0  0  0  0  0  0
  -29.7284  -23.9428   19.3085 O   0  0  0  0  0  0
  -28.7581  -19.7386   21.3486 S   0  0  0  0  0  0
  -31.4581  -12.5346   19.1600 H   0  0  0  0  0  0
  -30.3343  -11.4762   19.9623 H   0  0  0  0  0  0
  -29.7763  -11.7320   17.5113 H   0  0  0  0  0  0
  -29.6303  -13.4608   17.7167 H   0  0  0  0  0  0
  -27.8855  -11.2867   18.9165 H   0  0  0  0  0  0
  -27.3683  -12.5240   17.8010 H   0  0  0  0  0  0
  -27.6236  -14.2586   19.4568 H   0  0  0  0  0  0
  -28.7191  -12.2162   21.4481 H   0  0  0  0  0  0
  -28.4301  -13.9089   21.7677 H   0  0  0  0  0  0
  -25.2777   -9.5684   22.4760 H   0  0  0  0  0  0
  -24.0007   -7.4640   22.7482 H   0  0  0  0  0  0
  -21.0850   -8.8769   19.8958 H   0  0  0  0  0  0
  -22.3701  -10.9672   19.6166 H   0  0  0  0  0  0
  -21.2002   -7.6144   23.9707 H   0  0  0  0  0  0
  -21.1477   -6.0528   25.9075 H   0  0  0  0  0  0
  -22.0602   -2.7606   23.2850 H   0  0  0  0  0  0
  -22.4074  -11.9857   22.4812 H   0  0  0  0  0  0
  -21.1078  -13.1224   22.2640 H   0  0  0  0  0  0
  -24.6490  -15.8484   20.5297 H   0  0  0  0  0  0
  -26.2612  -15.6354   20.0762 H   0  0  0  0  0  0
  -26.7198  -32.5427   23.1085 H   0  0  0  0  0  0
  -25.0087  -33.9719   25.0420 H   0  0  0  0  0  0
  -22.7221  -31.3008   21.3961 H   0  0  0  0  0  0
  -23.3749  -35.9616   23.3347 H   0  0  0  0  0  0
  -24.3565  -36.8849   22.2043 H   0  0  0  0  0  0
  -23.7256  -37.6497   23.6629 H   0  0  0  0  0  0
  -26.1083  -31.5359   20.6091 H   0  0  0  0  0  0
  -26.8490  -30.8234   22.0109 H   0  0  0  0  0  0
  -28.1200  -28.9368   21.2117 H   0  0  0  0  0  0
  -25.9846  -25.9181   18.9859 H   0  0  0  0  0  0
  -23.9770  -27.3128   18.9925 H   0  0  0  0  0  0
  -23.7669  -30.5901   19.4029 H   0  0  0  0  0  0
  -22.7636  -29.2446   19.8536 H   0  0  0  0  0  0
  -25.1298  -36.1924   25.0823 H   0  0  0  0  0  0
  -20.9992  -28.3283   24.1392 H   0  0  0  0  0  0
  -20.5690  -26.2309   23.3618 H   0  0  0  0  0  0
  -21.6645  -26.7445   22.1200 H   0  0  0  0  0  0
  -19.6915  -25.6297   21.1248 H   0  0  0  0  0  0
  -19.6694  -27.3198   20.6753 H   0  0  0  0  0  0
  -17.4205  -26.6702   21.4022 H   0  0  0  0  0  0
  -18.0320  -26.0069   22.9014 H   0  0  0  0  0  0
  -19.7940  -30.7274   24.2275 H   0  0  0  0  0  0
  -17.5021  -31.6277   24.5160 H   0  0  0  0  0  0
  -15.5358  -30.2993   23.7652 H   0  0  0  0  0  0
  -15.8682  -28.0814   22.7093 H   0  0  0  0  0  0
  -24.5910  -30.7077   25.7773 H   0  0  0  0  0  0
  -24.8918  -32.2900   26.4857 H   0  0  0  0  0  0
  -25.8049  -30.8917   27.0224 H   0  0  0  0  0  0
  -26.2898  -29.6744   24.1241 H   0  0  0  0  0  0
  -27.4013  -29.7257   25.4723 H   0  0  0  0  0  0
  -27.8787  -30.4253   23.9438 H   0  0  0  0  0  0
  -27.2667  -33.3627   26.2059 H   0  0  0  0  0  0
  -28.3874  -32.6871   25.0324 H   0  0  0  0  0  0
  -28.0719  -31.8452   26.5422 H   0  0  0  0  0  0
  -28.2591  -38.0100   24.7529 H   0  0  0  0  0  0
  -28.1093  -36.2631   24.6267 H   0  0  0  0  0  0
  -27.2307  -37.1414   25.8870 H   0  0  0  0  0  0
  -20.9385  -29.8746   21.6842 H   0  0  0  0  0  0
  -26.0172  -38.2843   24.1441 H   0  0  0  0  0  0
  -30.5809  -21.4957   18.7867 H   0  0  0  0  0  0
  -32.5074  -19.7574   18.7424 H   0  0  0  0  0  0
  -31.5168  -18.6609   17.8384 H   0  0  0  0  0  0
  -33.5868  -17.9084   19.5105 H   0  0  0  0  0  0
  -32.3261  -16.8661   18.9471 H   0  0  0  0  0  0
  -32.3535  -18.3397   21.6118 H   0  0  0  0  0  0
  -32.6032  -16.6490   21.4475 H   0  0  0  0  0  0
  -30.3107  -17.3366   22.1824 H   0  0  0  0  0  0
  -28.1675  -25.0306   21.7712 H   0  0  0  0  0  0
  -26.9548  -24.7236   20.5825 H   0  0  0  0  0  0
  -27.8484  -22.4618   21.3330 H   0  0  0  0  0  0
  -29.0126  -15.7971   20.8344 H   0  0  0  0  0  0
  1 25  1  0  0  0
  1 30  2  0  0  0
  1 82  1  0  0  0
  2  3  1  0  0  0
  2 25  1  0  0  0
  2 85  1  0  0  0
  2 86  1  0  0  0
  3  4  1  0  0  0
  3 87  1  0  0  0
  3 88  1  0  0  0
  4  5  1  0  0  0
  4 89  1  0  0  0
  4 90  1  0  0  0
  5  6  1  0  0  0
  5 26  1  0  0  0
  5 91  1  0  0  0
  6 25  1  0  0  0
  6 92  1  0  0  0
  6 93  1  0  0  0
  7  8  2  0  0  0
  7 26  1  0  0  0
  7 29  1  0  0  0
  8  9  1  0  0  0
  8 22  1  0  0  0
  9 10  1  0  0  0
  9 27  2  0  0  0
 10 11  2  0  0  0
 10 15  1  0  0  0
 11 12  1  0  0  0
 11 94  1  0  0  0
 12 13  2  0  0  0
 12 95  1  0  0  0
 13 14  1  0  0  0
 13 31  1  0  0  0
 14 15  2  0  0  0
 14 96  1  0  0  0
 15 97  1  0  0  0
 16 17  2  0  0  0
 16 21  1  0  0  0
 16 31  1  0  0  0
 17 18  1  0  0  0
 17 98  1  0  0  0
 18 19  2  0  0  0
 18 99  1  0  0  0
 19 20  1  0  0  0
 19 24  1  0  0  0
 20 21  2  0  0  0
 20100  1  0  0  0
 21 23  1  0  0  0
 22 28  1  0  0  0
 22 32  2  0  0  0
 26 27  1  0  0  0
 28101  1  0  0  0
 28102  1  0  0  0
 29103  1  0  0  0
 29104  1  0  0  0
 33 34  1  0  0  0
 33 66  1  0  0  0
 33 70  2  0  0  0
 34 36  1  0  0  0
 34 59  1  0  0  0
 34105  1  0  0  0
 35 44  2  0  0  0
 35 45  1  0  0  0
 35 68  1  0  0  0
 36 56  1  0  0  0
 36106  1  0  0  0
 37 39  1  0  0  0
 37 47  1  0  0  0
 37 66  1  0  0  0
 37107  1  0  0  0
 38 43  2  0  0  0
 38 46  1  0  0  0
 38 47  1  0  0  0
 39 64  1  0  0  0
 39 67  2  0  0  0
 40 52  1  0  0  0
 40 53  2  0  0  0
 40 58  1  0  0  0
 41108  1  0  0  0
 41109  1  0  0  0
 41110  1  0  0  0
 41 48  1  0  0  0
 42 43  1  0  0  0
 42 66  1  0  0  0
 42111  1  0  0  0
 42112  1  0  0  0
 43 44  1  0  0  0
 44113  1  0  0  0
 45 46  2  0  0  0
 45114  1  0  0  0
 46115  1  0  0  0
 47116  1  0  0  0
 47117  1  0  0  0
 48 56  1  0  0  0
 48 65  1  0  0  0
 48118  1  0  0  0
 49 50  1  0  0  0
 49 53  1  0  0  0
 49 64  1  0  0  0
 49119  1  0  0  0
 50 51  1  0  0  0
 50120  1  0  0  0
 50121  1  0  0  0
 51 52  1  0  0  0
 51122  1  0  0  0
 51123  1  0  0  0
 52124  1  0  0  0
 52125  1  0  0  0
 53 54  1  0  0  0
 54 55  2  0  0  0
 54126  1  0  0  0
 55 57  1  0  0  0
 55127  1  0  0  0
 56 69  2  0  0  0
 57 58  2  0  0  0
 57128  1  0  0  0
 58129  1  0  0  0
 59 60  1  0  0  0
 59 61  1  0  0  0
 59 62  1  0  0  0
 60130  1  0  0  0
 60131  1  0  0  0
 60132  1  0  0  0
 61133  1  0  0  0
 61134  1  0  0  0
 61135  1  0  0  0
 62136  1  0  0  0
 62137  1  0  0  0
 62138  1  0  0  0
 63 65  1  0  0  0
 63139  1  0  0  0
 63140  1  0  0  0
 63141  1  0  0  0
 64142  1  0  0  0
 65143  1  0  0  0
 68 80  1  0  0  0
 71 72  1  0  0  0
 71 74  2  0  0  0
 71144  1  0  0  0
 72 73  2  0  0  0
 72 76  1  0  0  0
 73 79  1  0  0  0
 73 84  1  0  0  0
 74 81  1  0  0  0
 74 84  1  0  0  0
 75 80  1  0  0  0
 75 81  1  0  0  0
 75 83  2  0  0  0
 76 77  1  0  0  0
 76145  1  0  0  0
 76146  1  0  0  0
 77 78  1  0  0  0
 77147  1  0  0  0
 77148  1  0  0  0
 78 79  1  0  0  0
 78149  1  0  0  0
 78150  1  0  0  0
 79 82  1  0  0  0
 79151  1  0  0  0
 80152  1  0  0  0
 80153  1  0  0  0
 81154  1  0  0  0
 82155  1  0  0  0
M  ISO  4   1 100  68 101  80 101  82 100
M  END
> <chiral flag>
0

> <version>
0

> <s_m_source_file>
/data/baiqing/PycharmProjects/Reinvent-master-3.2/result/LINK_invent/BTK/process_docking_weight1_custom_product_contain_oxygen_bond_distance_aromatic_linkinvent_7_9_3/rearranged_h_0150.sdf

> <i_m_source_file_index>
81

> <r_mmod_Potential_Energy-OPLS-2005>
131.524169921875

> <r_mmod_Stretch_Energy-OPLS-2005>
111.305511474609

> <r_mmod_Bend_Energy-OPLS-2005>
194.935974121094

> <r_mmod_Torsional_Energy-OPLS-2005>
242.854034423828

> <r_mmod_Improper_Torsional_Energy-OPLS-2005>
8.58299827575684

> <r_mmod_Van_der_Waal_Energy-OPLS-2005>
132.806030273438

> <r_mmod_Electrostatic_Energy-OPLS-2005>
-402.405517578125

> <r_mmod_Solvation_Energy-OPLS-2005>
-236.348510742188

> <b_mmod_Minimization_Converged-OPLS-2005>
0

> <r_mmod_RMS_Derivative-OPLS-2005>
1.11445069313049

$$$$
81
                    3D
 Structure written by MMmdl.
153161  0  0  1  0            999 V2000
  -30.6199  -14.6323   20.4947 C   0  0  0  0  0  0
  -30.4384  -12.3848   19.4520 C   0  0  0  0  0  0
  -29.5062  -12.5039   18.2253 C   0  0  0  0  0  0
  -28.0293  -12.3421   18.6396 C   0  0  0  0  0  0
  -27.6540  -13.2151   19.8673 C   0  0  2  0  0  0
  -28.6998  -13.0636   20.9955 C   0  0  0  0  0  0
  -25.2561  -13.8171   20.5707 C   0  0  0  0  0  0
  -24.1811  -13.0428   20.9145 C   0  0  0  0  0  0
  -24.6388  -11.6904   20.8716 C   0  0  0  0  0  0
  -23.9056  -10.4287   21.0392 C   0  0  0  0  0  0
  -24.3614   -9.4209   21.9173 C   0  0  0  0  0  0
  -23.6293   -8.2243   22.0751 C   0  0  0  0  0  0
  -22.4274   -8.0277   21.3542 C   0  0  0  0  0  0
  -21.9906   -9.0249   20.4642 C   0  0  0  0  0  0
  -22.7232  -10.2127   20.3043 C   0  0  0  0  0  0
  -21.6850   -6.0733   22.5278 C   0  0  0  0  0  0
  -21.4012   -6.5640   23.8213 C   0  0  0  0  0  0
  -21.3659   -5.6792   24.9176 C   0  0  0  0  0  0
  -21.6044   -4.3054   24.7225 C   0  0  0  0  0  0
  -21.8820   -3.8146   23.4345 C   0  0  0  0  0  0
  -21.9197   -4.6962   22.3402 C   0  0  0  0  0  0
  -22.7841  -13.5223   21.1833 C   0  0  0  0  0  0
  -22.1661   -4.2148   21.0977 F   0  0  0  0  0  0
  -21.5633   -3.4534   25.7738 F   0  0  0  0  0  0
  -30.0166  -13.4039   20.4325 N   0  0  0  0  0  0
  -26.3000  -12.9353   20.3368 N   0  0  0  0  0  0
  -25.9322  -11.6503   20.5775 N   0  0  0  0  0  0
  -22.0501  -12.8210   22.0406 N   0  0  0  0  0  0
  -25.4269  -15.1901   20.4257 N   0  0  0  0  0  0
  -31.7800  -14.7992   20.1064 O   0  0  0  0  0  0
  -21.6636   -6.8874   21.4239 O   0  0  0  0  0  0
  -22.3515  -14.5532   20.6704 O   0  0  0  0  0  0
  -24.6246  -31.8601   23.2041 C   0  0  0  0  0  0
  -25.9100  -32.4783   23.8364 C   0  0  1  0  0  0
  -27.2239  -27.3340   20.1184 C   0  0  0  0  0  0
  -25.5922  -33.8585   24.2296 N   0  0  0  0  0  0
  -23.4182  -30.4839   21.5461 C   0  0  2  0  0  0
  -24.8655  -28.9406   20.1122 C   0  0  0  0  0  0
  -22.7471  -29.4621   22.4943 C   0  0  0  0  0  0
  -18.0282  -28.1380   22.8497 C   0  0  0  0  0  0
  -24.1480  -36.7276   23.2636 C   0  0  0  0  0  0
  -25.9583  -30.7962   21.3731 C   0  0  0  0  0  0
  -26.0337  -29.4243   20.7158 C   0  0  0  0  0  0
  -27.2191  -28.6327   20.7092 C   0  0  0  0  0  0
  -26.0395  -26.9039   19.4818 C   0  0  0  0  0  0
  -24.8689  -27.6853   19.4854 C   0  0  0  0  0  0
  -23.6317  -29.8174   20.1615 C   0  0  0  0  0  0
  -25.4105  -36.3083   24.0337 C   0  0  1  0  0  0
  -20.5883  -28.3675   23.1289 C   0  0  2  0  0  0
  -20.6768  -26.9400   22.5413 C   0  0  0  0  0  0
  -19.5742  -26.6381   21.5217 C   0  0  0  0  0  0
  -18.1923  -26.7930   22.1628 C   0  0  0  0  0  0
  -19.1537  -28.8846   23.2888 C   0  0  0  0  0  0
  -18.9462  -30.1452   23.8901 C   0  0  0  0  0  0
  -17.6464  -30.6586   24.0571 C   0  0  0  0  0  0
  -25.9045  -34.9456   23.5114 C   0  0  0  0  0  0
  -16.5351  -29.9088   23.6339 C   0  0  0  0  0  0
  -16.7272  -28.6503   23.0361 C   0  0  0  0  0  0
  -26.4495  -31.6590   25.0725 C   0  0  0  0  0  0
  -25.3744  -31.3730   26.1460 C   0  0  0  0  0  0
  -27.0323  -30.3018   24.6159 C   0  0  0  0  0  0
  -27.6065  -32.4313   25.7489 C   0  0  0  0  0  0
  -27.5583  -37.1775   24.8460 C   0  0  0  0  0  0
  -21.4184  -29.3032   22.3690 N   0  0  0  0  0  0
  -26.4276  -37.3786   23.9435 N   0  0  0  0  0  0
  -24.6857  -31.0628   22.0982 N   0  0  0  0  0  0
  -23.4206  -28.8156   23.3009 O   0  0  0  0  0  0
  -28.3306  -26.4796   20.1448 O   0  0  0  0  0  0
  -26.5608  -34.8925   22.4678 O   0  0  0  0  0  0
  -23.5413  -32.1381   23.7383 O   0  0  0  0  0  0
  -28.7270  -19.3151   20.9975 C   0  0  0  0  0  0
  -30.8754  -17.8241   19.9650 C   0  0  0  0  0  0
  -28.7971  -17.8990   21.1850 C   0  0  0  0  0  0
  -29.7339  -20.0242   20.2909 C   0  0  0  0  0  0
  -29.8695  -17.1169   20.6723 C   0  0  0  0  0  0
  -30.8055  -19.2367   19.7824 C   0  0  0  0  0  0
  -29.0204  -23.9626   20.1090 C   0  0  0  0  0  0
  -28.7705  -22.4669   20.5663 C   0  0  0  0  0  0
  -28.0608  -25.1027   20.6207 C   0  0  0  0  0  0
  -27.7813  -17.2491   21.8904 N   0  0  0  0  0  0
  -29.8106  -15.6688   20.8670 N   0  0  0  0  0  0
  -29.7335  -21.4416   20.0556 N   0  0  0  0  0  0
  -29.9659  -24.2206   19.3537 O   0  0  0  0  0  0
  -31.7938  -19.8549   19.0895 F   0  0  0  0  0  0
  -31.4799  -12.5087   19.1504 H   0  0  0  0  0  0
  -30.3719  -11.3883   19.8920 H   0  0  0  0  0  0
  -29.7695  -11.7537   17.4782 H   0  0  0  0  0  0
  -29.6474  -13.4741   17.7472 H   0  0  0  0  0  0
  -27.8686  -11.2896   18.8755 H   0  0  0  0  0  0
  -27.3723  -12.5667   17.7987 H   0  0  0  0  0  0
  -27.6728  -14.2512   19.5271 H   0  0  0  0  0  0
  -28.7085  -12.0412   21.3755 H   0  0  0  0  0  0
  -28.4471  -13.6932   21.8503 H   0  0  0  0  0  0
  -25.2760   -9.5690   22.4742 H   0  0  0  0  0  0
  -24.0005   -7.4637   22.7468 H   0  0  0  0  0  0
  -21.0835   -8.8760   19.8947 H   0  0  0  0  0  0
  -22.3688  -10.9660   19.6146 H   0  0  0  0  0  0
  -21.1995   -7.6148   23.9716 H   0  0  0  0  0  0
  -21.1479   -6.0520   25.9079 H   0  0  0  0  0  0
  -22.0599   -2.7609   23.2844 H   0  0  0  0  0  0
  -22.4125  -11.9863   22.4769 H   0  0  0  0  0  0
  -21.1128  -13.1234   22.2645 H   0  0  0  0  0  0
  -24.6715  -15.8414   20.6058 H   0  0  0  0  0  0
  -26.3233  -15.6556   20.3326 H   0  0  0  0  0  0
  -26.7171  -32.5460   23.1117 H   0  0  0  0  0  0
  -25.0104  -33.9739   25.0464 H   0  0  0  0  0  0
  -22.7112  -31.3039   21.4033 H   0  0  0  0  0  0
  -23.3767  -35.9578   23.3268 H   0  0  0  0  0  0
  -24.3586  -36.8924   22.2057 H   0  0  0  0  0  0
  -23.7191  -37.6457   23.6666 H   0  0  0  0  0  0
  -26.0890  -31.5608   20.6060 H   0  0  0  0  0  0
  -26.8397  -30.8437   22.0015 H   0  0  0  0  0  0
  -28.1158  -28.9999   21.1889 H   0  0  0  0  0  0
  -26.0067  -25.9495   18.9765 H   0  0  0  0  0  0
  -23.9761  -27.3128   19.0027 H   0  0  0  0  0  0
  -23.7470  -30.5927   19.4029 H   0  0  0  0  0  0
  -22.7533  -29.2421   19.8626 H   0  0  0  0  0  0
  -25.1281  -36.1924   25.0827 H   0  0  0  0  0  0
  -20.9977  -28.3232   24.1408 H   0  0  0  0  0  0
  -20.5660  -26.2282   23.3607 H   0  0  0  0  0  0
  -21.6633  -26.7419   22.1201 H   0  0  0  0  0  0
  -19.6897  -25.6294   21.1236 H   0  0  0  0  0  0
  -19.6685  -27.3203   20.6758 H   0  0  0  0  0  0
  -17.4193  -26.6689   21.4028 H   0  0  0  0  0  0
  -18.0316  -26.0075   22.9022 H   0  0  0  0  0  0
  -19.7940  -30.7269   24.2263 H   0  0  0  0  0  0
  -17.5021  -31.6270   24.5163 H   0  0  0  0  0  0
  -15.5354  -30.2989   23.7666 H   0  0  0  0  0  0
  -15.8671  -28.0826   22.7068 H   0  0  0  0  0  0
  -24.5909  -30.7087   25.7798 H   0  0  0  0  0  0
  -24.8950  -32.2900   26.4893 H   0  0  0  0  0  0
  -25.8082  -30.8904   27.0227 H   0  0  0  0  0  0
  -26.2882  -29.6770   24.1206 H   0  0  0  0  0  0
  -27.4057  -29.7265   25.4639 H   0  0  0  0  0  0
  -27.8739  -30.4315   23.9354 H   0  0  0  0  0  0
  -27.2699  -33.3634   26.2038 H   0  0  0  0  0  0
  -28.3888  -32.6831   25.0318 H   0  0  0  0  0  0
  -28.0710  -31.8445   26.5425 H   0  0  0  0  0  0
  -28.2557  -38.0117   24.7581 H   0  0  0  0  0  0
  -28.1123  -36.2654   24.6185 H   0  0  0  0  0  0
  -27.2322  -37.1295   25.8864 H   0  0  0  0  0  0
  -20.9349  -29.8773   21.6924 H   0  0  0  0  0  0
  -26.0153  -38.2846   24.1500 H   0  0  0  0  0  0
  -27.8870  -19.8610   21.4002 H   0  0  0  0  0  0
  -31.7122  -17.2957   19.5346 H   0  0  0  0  0  0
  -27.7598  -22.1909   20.2635 H   0  0  0  0  0  0
  -28.7824  -22.4473   21.6570 H   0  0  0  0  0  0
  -28.1236  -25.1156   21.7085 H   0  0  0  0  0  0
  -27.0450  -24.7847   20.3924 H   0  0  0  0  0  0
  -27.0947  -17.8493   22.3346 H   0  0  0  0  0  0
  -28.0841  -16.5289   22.5359 H   0  0  0  0  0  0
  -28.9135  -15.3691   21.2161 H   0  0  0  0  0  0
  -30.5151  -21.8166   19.5208 H   0  0  0  0  0  0
  1 25  1  0  0  0
  1 30  2  0  0  0
  1 81  1  0  0  0
  2  3  1  0  0  0
  2 25  1  0  0  0
  2 85  1  0  0  0
  2 86  1  0  0  0
  3  4  1  0  0  0
  3 87  1  0  0  0
  3 88  1  0  0  0
  4  5  1  0  0  0
  4 89  1  0  0  0
  4 90  1  0  0  0
  5  6  1  0  0  0
  5 26  1  0  0  0
  5 91  1  0  0  0
  6 25  1  0  0  0
  6 92  1  0  0  0
  6 93  1  0  0  0
  7  8  2  0  0  0
  7 26  1  0  0  0
  7 29  1  0  0  0
  8  9  1  0  0  0
  8 22  1  0  0  0
  9 10  1  0  0  0
  9 27  2  0  0  0
 10 11  2  0  0  0
 10 15  1  0  0  0
 11 12  1  0  0  0
 11 94  1  0  0  0
 12 13  2  0  0  0
 12 95  1  0  0  0
 13 14  1  0  0  0
 13 31  1  0  0  0
 14 15  2  0  0  0
 14 96  1  0  0  0
 15 97  1  0  0  0
 16 17  2  0  0  0
 16 21  1  0  0  0
 16 31  1  0  0  0
 17 18  1  0  0  0
 17 98  1  0  0  0
 18 19  2  0  0  0
 18 99  1  0  0  0
 19 20  1  0  0  0
 19 24  1  0  0  0
 20 21  2  0  0  0
 20100  1  0  0  0
 21 23  1  0  0  0
 22 28  1  0  0  0
 22 32  2  0  0  0
 26 27  1  0  0  0
 28101  1  0  0  0
 28102  1  0  0  0
 29103  1  0  0  0
 29104  1  0  0  0
 33 34  1  0  0  0
 33 66  1  0  0  0
 33 70  2  0  0  0
 34 36  1  0  0  0
 34 59  1  0  0  0
 34105  1  0  0  0
 35 44  2  0  0  0
 35 45  1  0  0  0
 35 68  1  0  0  0
 36 56  1  0  0  0
 36106  1  0  0  0
 37 39  1  0  0  0
 37 47  1  0  0  0
 37 66  1  0  0  0
 37107  1  0  0  0
 38 43  2  0  0  0
 38 46  1  0  0  0
 38 47  1  0  0  0
 39 64  1  0  0  0
 39 67  2  0  0  0
 40 52  1  0  0  0
 40 53  2  0  0  0
 40 58  1  0  0  0
 41108  1  0  0  0
 41109  1  0  0  0
 41110  1  0  0  0
 41 48  1  0  0  0
 42 43  1  0  0  0
 42 66  1  0  0  0
 42111  1  0  0  0
 42112  1  0  0  0
 43 44  1  0  0  0
 44113  1  0  0  0
 45 46  2  0  0  0
 45114  1  0  0  0
 46115  1  0  0  0
 47116  1  0  0  0
 47117  1  0  0  0
 48 56  1  0  0  0
 48 65  1  0  0  0
 48118  1  0  0  0
 49 50  1  0  0  0
 49 53  1  0  0  0
 49 64  1  0  0  0
 49119  1  0  0  0
 50 51  1  0  0  0
 50120  1  0  0  0
 50121  1  0  0  0
 51 52  1  0  0  0
 51122  1  0  0  0
 51123  1  0  0  0
 52124  1  0  0  0
 52125  1  0  0  0
 53 54  1  0  0  0
 54 55  2  0  0  0
 54126  1  0  0  0
 55 57  1  0  0  0
 55127  1  0  0  0
 56 69  2  0  0  0
 57 58  2  0  0  0
 57128  1  0  0  0
 58129  1  0  0  0
 59 60  1  0  0  0
 59 61  1  0  0  0
 59 62  1  0  0  0
 60130  1  0  0  0
 60131  1  0  0  0
 60132  1  0  0  0
 61133  1  0  0  0
 61134  1  0  0  0
 61135  1  0  0  0
 62136  1  0  0  0
 62137  1  0  0  0
 62138  1  0  0  0
 63 65  1  0  0  0
 63139  1  0  0  0
 63140  1  0  0  0
 63141  1  0  0  0
 64142  1  0  0  0
 65143  1  0  0  0
 68 79  1  0  0  0
 71 73  2  0  0  0
 71 74  1  0  0  0
 71144  1  0  0  0
 72 75  2  0  0  0
 72 76  1  0  0  0
 72145  1  0  0  0
 73 75  1  0  0  0
 73 80  1  0  0  0
 74 76  2  0  0  0
 74 82  1  0  0  0
 75 81  1  0  0  0
 76 84  1  0  0  0
 77 78  1  0  0  0
 77 79  1  0  0  0
 77 83  2  0  0  0
 78 82  1  0  0  0
 78146  1  0  0  0
 78147  1  0  0  0
 79148  1  0  0  0
 79149  1  0  0  0
 80150  1  0  0  0
 80151  1  0  0  0
 81152  1  0  0  0
 82153  1  0  0  0
M  ISO  4   1 100  68 101  79 101  81 100
M  END
> <chiral flag>
0

> <version>
0

> <s_m_source_file>
/data/baiqing/PycharmProjects/Reinvent-master-3.2/result/LINK_invent/BTK/process_docking_weight1_custom_product_contain_oxygen_bond_distance_aromatic_linkinvent_7_9_3/rearranged_h_0150.sdf

> <i_m_source_file_index>
82

> <r_mmod_Potential_Energy-OPLS-2005>
4.71949577331543

> <r_mmod_Stretch_Energy-OPLS-2005>
73.4637832641602

> <r_mmod_Bend_Energy-OPLS-2005>
143.488342285156

> <r_mmod_Torsional_Energy-OPLS-2005>
222.983261108398

> <r_mmod_Improper_Torsional_Energy-OPLS-2005>
8.89084815979004

> <r_mmod_Van_der_Waal_Energy-OPLS-2005>
144.835037231445

> <r_mmod_Electrostatic_Energy-OPLS-2005>
-393.775634765625

> <r_mmod_Solvation_Energy-OPLS-2005>
-240.286392211914

> <b_mmod_Minimization_Converged-OPLS-2005>
0

> <r_mmod_RMS_Derivative-OPLS-2005>
1.00108897686005

$$$$
82
                    3D
 Structure written by MMmdl.
166174  0  0  1  0            999 V2000
  -30.4950  -15.0552   20.4107 C   0  0  0  0  0  0
  -30.4481  -12.6578   19.5423 C   0  0  0  0  0  0
  -29.5445  -12.5909   18.2878 C   0  0  0  0  0  0
  -28.0699  -12.3750   18.6729 C   0  0  0  0  0  0
  -27.6346  -13.2760   19.8583 C   0  0  2  0  0  0
  -28.6706  -13.3173   21.0025 C   0  0  0  0  0  0
  -25.2455  -13.8313   20.5787 C   0  0  0  0  0  0
  -24.1766  -13.0506   20.9255 C   0  0  0  0  0  0
  -24.6417  -11.7000   20.8763 C   0  0  0  0  0  0
  -23.9104  -10.4338   21.0351 C   0  0  0  0  0  0
  -24.3640   -9.4252   21.9136 C   0  0  0  0  0  0
  -23.6326   -8.2278   22.0723 C   0  0  0  0  0  0
  -22.4305   -8.0299   21.3530 C   0  0  0  0  0  0
  -21.9928   -9.0259   20.4634 C   0  0  0  0  0  0
  -22.7250  -10.2144   20.3031 C   0  0  0  0  0  0
  -21.6876   -6.0744   22.5265 C   0  0  0  0  0  0
  -21.4027   -6.5625   23.8212 C   0  0  0  0  0  0
  -21.3672   -5.6765   24.9172 C   0  0  0  0  0  0
  -21.6048   -4.3036   24.7197 C   0  0  0  0  0  0
  -21.8817   -3.8129   23.4328 C   0  0  0  0  0  0
  -21.9206   -4.6963   22.3392 C   0  0  0  0  0  0
  -22.7763  -13.5219   21.1861 C   0  0  0  0  0  0
  -22.1666   -4.2159   21.0973 F   0  0  0  0  0  0
  -21.5626   -3.4516   25.7705 F   0  0  0  0  0  0
  -29.9421  -13.7623   20.4167 N   0  0  0  0  0  0
  -26.2910  -12.9584   20.3318 N   0  0  0  0  0  0
  -25.9380  -11.6691   20.5771 N   0  0  0  0  0  0
  -22.0412  -12.8225   22.0442 N   0  0  0  0  0  0
  -25.4118  -15.2045   20.4231 N   0  0  0  0  0  0
  -31.6784  -15.1272   20.0602 O   0  0  0  0  0  0
  -21.6677   -6.8888   21.4235 O   0  0  0  0  0  0
  -22.3439  -14.5503   20.6696 O   0  0  0  0  0  0
  -24.6404  -31.8407   23.1931 C   0  0  0  0  0  0
  -25.9167  -32.4679   23.8295 C   0  0  1  0  0  0
  -27.2135  -27.0790   20.1867 C   0  0  0  0  0  0
  -25.5920  -33.8486   24.2199 N   0  0  0  0  0  0
  -23.4522  -30.4607   21.5305 C   0  0  2  0  0  0
  -24.9161  -28.8867   20.1050 C   0  0  0  0  0  0
  -22.7601  -29.4510   22.4798 C   0  0  0  0  0  0
  -18.0322  -28.1402   22.8484 C   0  0  0  0  0  0
  -24.1501  -36.7267   23.2647 C   0  0  0  0  0  0
  -26.0116  -30.6906   21.4157 C   0  0  0  0  0  0
  -26.0818  -29.2941   20.7677 C   0  0  0  0  0  0
  -27.2266  -28.4000   20.8081 C   0  0  0  0  0  0
  -26.0559  -26.8333   19.4182 C   0  0  0  0  0  0
  -24.9247  -27.6761   19.4002 C   0  0  0  0  0  0
  -23.6889  -29.7860   20.1489 C   0  0  0  0  0  0
  -25.4132  -36.3052   24.0327 C   0  0  1  0  0  0
  -20.5940  -28.3733   23.1243 C   0  0  2  0  0  0
  -20.6799  -26.9427   22.5398 C   0  0  0  0  0  0
  -19.5761  -26.6399   21.5210 C   0  0  0  0  0  0
  -18.1947  -26.7944   22.1618 C   0  0  0  0  0  0
  -19.1582  -28.8891   23.2861 C   0  0  0  0  0  0
  -18.9489  -30.1488   23.8893 C   0  0  0  0  0  0
  -17.6479  -30.6602   24.0565 C   0  0  0  0  0  0
  -25.9055  -34.9407   23.5083 C   0  0  0  0  0  0
  -16.5374  -29.9089   23.6339 C   0  0  0  0  0  0
  -16.7300  -28.6506   23.0356 C   0  0  0  0  0  0
  -26.4486  -31.6572   25.0751 C   0  0  0  0  0  0
  -25.3650  -31.3781   26.1426 C   0  0  0  0  0  0
  -27.0353  -30.2968   24.6371 C   0  0  0  0  0  0
  -27.6033  -32.4326   25.7530 C   0  0  0  0  0  0
  -27.5594  -37.1798   24.8460 C   0  0  0  0  0  0
  -21.4286  -29.3046   22.3604 N   0  0  0  0  0  0
  -26.4314  -37.3747   23.9392 N   0  0  0  0  0  0
  -24.7198  -31.0212   22.1014 N   0  0  0  0  0  0
  -23.4229  -28.8020   23.2917 O   0  0  0  0  0  0
  -28.2448  -26.0442   20.1854 O   0  0  0  0  0  0
  -26.5647  -34.8897   22.4654 O   0  0  0  0  0  0
  -23.5524  -32.1312   23.7151 O   0  0  0  0  0  0
  -30.2103  -18.3634   19.2840 C   0  0  0  0  0  0
  -29.9662  -19.8356   19.1347 C   0  0  0  0  0  0
  -29.7399  -17.6653   20.3933 C   0  0  0  0  0  0
  -29.2922  -20.4929   20.2016 C   0  0  0  0  0  0
  -28.8763  -23.2445   20.0458 C   0  0  0  0  0  0
  -28.4291  -23.5924   23.1883 C   0  0  0  0  0  0
  -31.0304  -19.5952   16.7800 C   0  0  0  0  0  0
  -31.5292  -21.5497   18.1259 C   0  0  0  0  0  0
  -29.1658  -21.1291   17.1253 C   0  0  0  0  0  0
  -26.5934  -24.1520   20.7767 C   0  0  0  0  0  0
  -28.6066  -24.7609   22.1957 C   0  0  0  0  0  0
  -30.4033  -20.5333   17.8373 C   0  0  0  0  0  0
  -28.0807  -24.5564   20.7474 C   0  0  2  0  0  0
  -28.8156  -21.8624   20.5031 N   0  0  0  0  0  0
  -29.7131  -16.2337   20.7046 N   0  0  0  0  0  0
  -29.5200  -23.5639   19.0507 O   0  0  0  0  0  0
  -28.9689  -19.0534   21.3185 S   0  0  0  0  0  0
  -31.4831  -12.8237   19.2432 H   0  0  0  0  0  0
  -30.4510  -11.7092   20.0806 H   0  0  0  0  0  0
  -29.8840  -11.8068   17.6098 H   0  0  0  0  0  0
  -29.6368  -13.5326   17.7399 H   0  0  0  0  0  0
  -27.9292  -11.3236   18.9281 H   0  0  0  0  0  0
  -27.4347  -12.5755   17.8091 H   0  0  0  0  0  0
  -27.5975  -14.2889   19.4559 H   0  0  0  0  0  0
  -28.7696  -12.3458   21.4890 H   0  0  0  0  0  0
  -28.3504  -14.0187   21.7736 H   0  0  0  0  0  0
  -25.2772   -9.5752   22.4730 H   0  0  0  0  0  0
  -24.0053   -7.4659   22.7421 H   0  0  0  0  0  0
  -21.0861   -8.8758   19.8931 H   0  0  0  0  0  0
  -22.3666  -10.9677   19.6160 H   0  0  0  0  0  0
  -21.2024   -7.6130   23.9733 H   0  0  0  0  0  0
  -21.1505   -6.0484   25.9080 H   0  0  0  0  0  0
  -22.0599   -2.7596   23.2817 H   0  0  0  0  0  0
  -22.4000  -11.9899   22.4838 H   0  0  0  0  0  0
  -21.1005  -13.1200   22.2594 H   0  0  0  0  0  0
  -24.6383  -15.8571   20.4985 H   0  0  0  0  0  0
  -26.2606  -15.6320   20.0718 H   0  0  0  0  0  0
  -26.7210  -32.5259   23.0982 H   0  0  0  0  0  0
  -25.0045  -33.9558   25.0354 H   0  0  0  0  0  0
  -22.7572  -31.2893   21.3720 H   0  0  0  0  0  0
  -23.3792  -35.9560   23.3262 H   0  0  0  0  0  0
  -24.3619  -36.8928   22.2072 H   0  0  0  0  0  0
  -23.7204  -37.6440   23.6688 H   0  0  0  0  0  0
  -26.1774  -31.4428   20.6423 H   0  0  0  0  0  0
  -26.8768  -30.7444   22.0639 H   0  0  0  0  0  0
  -28.0974  -28.7014   21.3757 H   0  0  0  0  0  0
  -26.0211  -25.9485   18.8053 H   0  0  0  0  0  0
  -24.0673  -27.4027   18.8045 H   0  0  0  0  0  0
  -23.8151  -30.5545   19.3861 H   0  0  0  0  0  0
  -22.8094  -29.2145   19.8470 H   0  0  0  0  0  0
  -25.1320  -36.1900   25.0819 H   0  0  0  0  0  0
  -21.0032  -28.3292   24.1367 H   0  0  0  0  0  0
  -20.5723  -26.2297   23.3583 H   0  0  0  0  0  0
  -21.6649  -26.7416   22.1156 H   0  0  0  0  0  0
  -19.6896  -25.6318   21.1219 H   0  0  0  0  0  0
  -19.6727  -27.3227   20.6755 H   0  0  0  0  0  0
  -17.4210  -26.6720   21.4029 H   0  0  0  0  0  0
  -18.0364  -26.0102   22.9030 H   0  0  0  0  0  0
  -19.7969  -30.7324   24.2242 H   0  0  0  0  0  0
  -17.5026  -31.6282   24.5176 H   0  0  0  0  0  0
  -15.5369  -30.2957   23.7727 H   0  0  0  0  0  0
  -15.8689  -28.0829   22.7048 H   0  0  0  0  0  0
  -24.5818  -30.7141   25.7748 H   0  0  0  0  0  0
  -24.8844  -32.2969   26.4811 H   0  0  0  0  0  0
  -25.7891  -30.8976   27.0252 H   0  0  0  0  0  0
  -26.2981  -29.6707   24.1324 H   0  0  0  0  0  0
  -27.3904  -29.7266   25.4967 H   0  0  0  0  0  0
  -27.8927  -30.4241   23.9749 H   0  0  0  0  0  0
  -27.2650  -33.3668   26.2019 H   0  0  0  0  0  0
  -28.3880  -32.6778   25.0361 H   0  0  0  0  0  0
  -28.0610  -31.8477   26.5512 H   0  0  0  0  0  0
  -28.2580  -38.0131   24.7525 H   0  0  0  0  0  0
  -28.1124  -36.2652   24.6267 H   0  0  0  0  0  0
  -27.2307  -37.1407   25.8863 H   0  0  0  0  0  0
  -20.9508  -29.8783   21.6817 H   0  0  0  0  0  0
  -26.0207  -38.2828   24.1390 H   0  0  0  0  0  0
  -30.6987  -17.8030   18.4997 H   0  0  0  0  0  0
  -29.0577  -22.7325   22.9479 H   0  0  0  0  0  0
  -27.3867  -23.2745   23.2510 H   0  0  0  0  0  0
  -28.7122  -23.9143   24.1893 H   0  0  0  0  0  0
  -31.9295  -19.1023   17.1514 H   0  0  0  0  0  0
  -31.3332  -20.1628   15.8959 H   0  0  0  0  0  0
  -30.3374  -18.8290   16.4344 H   0  0  0  0  0  0
  -32.4757  -21.0475   18.3261 H   0  0  0  0  0  0
  -31.3517  -22.1601   19.0031 H   0  0  0  0  0  0
  -31.7060  -22.2093   17.2760 H   0  0  0  0  0  0
  -28.5324  -20.3315   16.7322 H   0  0  0  0  0  0
  -29.4437  -21.7540   16.2763 H   0  0  0  0  0  0
  -28.5168  -21.7110   17.7715 H   0  0  0  0  0  0
  -26.4250  -23.1695   21.2136 H   0  0  0  0  0  0
  -26.1952  -24.0803   19.7672 H   0  0  0  0  0  0
  -25.9972  -24.8521   21.3590 H   0  0  0  0  0  0
  -29.6600  -25.0463   22.1600 H   0  0  0  0  0  0
  -28.0939  -25.6250   22.6229 H   0  0  0  0  0  0
  -28.2477  -21.8631   21.3392 H   0  0  0  0  0  0
  -28.8878  -15.9754   21.2286 H   0  0  0  0  0  0
  1 25  1  0  0  0
  1 30  2  0  0  0
  1 85  1  0  0  0
  2  3  1  0  0  0
  2 25  1  0  0  0
  2 88  1  0  0  0
  2 89  1  0  0  0
  3  4  1  0  0  0
  3 90  1  0  0  0
  3 91  1  0  0  0
  4  5  1  0  0  0
  4 92  1  0  0  0
  4 93  1  0  0  0
  5  6  1  0  0  0
  5 26  1  0  0  0
  5 94  1  0  0  0
  6 25  1  0  0  0
  6 95  1  0  0  0
  6 96  1  0  0  0
  7  8  2  0  0  0
  7 26  1  0  0  0
  7 29  1  0  0  0
  8  9  1  0  0  0
  8 22  1  0  0  0
  9 10  1  0  0  0
  9 27  2  0  0  0
 10 11  2  0  0  0
 10 15  1  0  0  0
 11 12  1  0  0  0
 11 97  1  0  0  0
 12 13  2  0  0  0
 12 98  1  0  0  0
 13 14  1  0  0  0
 13 31  1  0  0  0
 14 15  2  0  0  0
 14 99  1  0  0  0
 15100  1  0  0  0
 16 17  2  0  0  0
 16 21  1  0  0  0
 16 31  1  0  0  0
 17 18  1  0  0  0
 17101  1  0  0  0
 18 19  2  0  0  0
 18102  1  0  0  0
 19 20  1  0  0  0
 19 24  1  0  0  0
 20 21  2  0  0  0
 20103  1  0  0  0
 21 23  1  0  0  0
 22 28  1  0  0  0
 22 32  2  0  0  0
 26 27  1  0  0  0
 28104  1  0  0  0
 28105  1  0  0  0
 29106  1  0  0  0
 29107  1  0  0  0
 33 34  1  0  0  0
 33 66  1  0  0  0
 33 70  2  0  0  0
 34 36  1  0  0  0
 34 59  1  0  0  0
 34108  1  0  0  0
 35 44  2  0  0  0
 35 45  1  0  0  0
 35 68  1  0  0  0
 36 56  1  0  0  0
 36109  1  0  0  0
 37 39  1  0  0  0
 37 47  1  0  0  0
 37 66  1  0  0  0
 37110  1  0  0  0
 38 43  2  0  0  0
 38 46  1  0  0  0
 38 47  1  0  0  0
 39 64  1  0  0  0
 39 67  2  0  0  0
 40 52  1  0  0  0
 40 53  2  0  0  0
 40 58  1  0  0  0
 41111  1  0  0  0
 41112  1  0  0  0
 41113  1  0  0  0
 41 48  1  0  0  0
 42 43  1  0  0  0
 42 66  1  0  0  0
 42114  1  0  0  0
 42115  1  0  0  0
 43 44  1  0  0  0
 44116  1  0  0  0
 45 46  2  0  0  0
 45117  1  0  0  0
 46118  1  0  0  0
 47119  1  0  0  0
 47120  1  0  0  0
 48 56  1  0  0  0
 48 65  1  0  0  0
 48121  1  0  0  0
 49 50  1  0  0  0
 49 53  1  0  0  0
 49 64  1  0  0  0
 49122  1  0  0  0
 50 51  1  0  0  0
 50123  1  0  0  0
 50124  1  0  0  0
 51 52  1  0  0  0
 51125  1  0  0  0
 51126  1  0  0  0
 52127  1  0  0  0
 52128  1  0  0  0
 53 54  1  0  0  0
 54 55  2  0  0  0
 54129  1  0  0  0
 55 57  1  0  0  0
 55130  1  0  0  0
 56 69  2  0  0  0
 57 58  2  0  0  0
 57131  1  0  0  0
 58132  1  0  0  0
 59 60  1  0  0  0
 59 61  1  0  0  0
 59 62  1  0  0  0
 60133  1  0  0  0
 60134  1  0  0  0
 60135  1  0  0  0
 61136  1  0  0  0
 61137  1  0  0  0
 61138  1  0  0  0
 62139  1  0  0  0
 62140  1  0  0  0
 62141  1  0  0  0
 63 65  1  0  0  0
 63142  1  0  0  0
 63143  1  0  0  0
 63144  1  0  0  0
 64145  1  0  0  0
 65146  1  0  0  0
 68 83  1  0  0  0
 71 72  1  0  0  0
 71 73  2  0  0  0
 71147  1  0  0  0
 72 74  2  0  0  0
 72 82  1  0  0  0
 73 85  1  0  0  0
 73 87  1  0  0  0
 74 84  1  0  0  0
 74 87  1  0  0  0
 75 84  1  0  0  0
 75 86  2  0  0  0
 75 83  1  0  0  0
 76 81  1  0  0  0
 76148  1  0  0  0
 76149  1  0  0  0
 76150  1  0  0  0
 77151  1  0  0  0
 77152  1  0  0  0
 77153  1  0  0  0
 77 82  1  0  0  0
 78 82  1  0  0  0
 78154  1  0  0  0
 78155  1  0  0  0
 78156  1  0  0  0
 79 82  1  0  0  0
 79157  1  0  0  0
 79158  1  0  0  0
 79159  1  0  0  0
 80160  1  0  0  0
 80161  1  0  0  0
 80162  1  0  0  0
 80 83  1  0  0  0
 81 83  1  0  0  0
 81163  1  0  0  0
 81164  1  0  0  0
 84165  1  0  0  0
 85166  1  0  0  0
M  ISO  4   1 100  68 101  83 101  85 100
M  END
> <chiral flag>
0

> <version>
0

> <s_m_source_file>
/data/baiqing/PycharmProjects/Reinvent-master-3.2/result/LINK_invent/BTK/process_docking_weight1_custom_product_contain_oxygen_bond_distance_aromatic_linkinvent_7_9_3/rearranged_h_0150.sdf

> <i_m_source_file_index>
83

> <r_mmod_Potential_Energy-OPLS-2005>
743.233764648438

> <r_mmod_Stretch_Energy-OPLS-2005>
323.830383300781

> <r_mmod_Bend_Energy-OPLS-2005>
353.708404541016

> <r_mmod_Torsional_Energy-OPLS-2005>
272.23876953125

> <r_mmod_Improper_Torsional_Energy-OPLS-2005>
3.34788465499878

> <r_mmod_Van_der_Waal_Energy-OPLS-2005>
130.604934692383

> <r_mmod_Electrostatic_Energy-OPLS-2005>
-382.959014892578

> <r_mmod_Solvation_Energy-OPLS-2005>
-220.514007568359

> <b_mmod_Minimization_Converged-OPLS-2005>
0

> <r_mmod_RMS_Derivative-OPLS-2005>
6.34464645385742

$$$$
83
                    3D
 Structure written by MMmdl.
167176  0  0  1  0            999 V2000
  -30.6600  -14.4998   20.5402 C   0  0  0  0  0  0
  -30.4297  -12.3180   19.4279 C   0  0  0  0  0  0
  -29.5033  -12.5078   18.2088 C   0  0  0  0  0  0
  -28.0178  -12.3745   18.6101 C   0  0  0  0  0  0
  -27.6566  -13.2087   19.8689 C   0  0  2  0  0  0
  -28.6961  -12.9906   20.9910 C   0  0  0  0  0  0
  -25.2554  -13.8168   20.5660 C   0  0  0  0  0  0
  -24.1819  -13.0431   20.9183 C   0  0  0  0  0  0
  -24.6377  -11.6901   20.8736 C   0  0  0  0  0  0
  -23.9050  -10.4286   21.0410 C   0  0  0  0  0  0
  -24.3610   -9.4197   21.9170 C   0  0  0  0  0  0
  -23.6291   -8.2228   22.0736 C   0  0  0  0  0  0
  -22.4267   -8.0271   21.3542 C   0  0  0  0  0  0
  -21.9901   -9.0241   20.4635 C   0  0  0  0  0  0
  -22.7233  -10.2123   20.3046 C   0  0  0  0  0  0
  -21.6845   -6.0720   22.5277 C   0  0  0  0  0  0
  -21.4009   -6.5623   23.8217 C   0  0  0  0  0  0
  -21.3665   -5.6780   24.9177 C   0  0  0  0  0  0
  -21.6038   -4.3041   24.7224 C   0  0  0  0  0  0
  -21.8817   -3.8132   23.4349 C   0  0  0  0  0  0
  -21.9194   -4.6949   22.3407 C   0  0  0  0  0  0
  -22.7844  -13.5212   21.1839 C   0  0  0  0  0  0
  -22.1656   -4.2128   21.0980 F   0  0  0  0  0  0
  -21.5641   -3.4531   25.7744 F   0  0  0  0  0  0
  -30.0256  -13.3032   20.4423 N   0  0  0  0  0  0
  -26.2983  -12.9338   20.3300 N   0  0  0  0  0  0
  -25.9300  -11.6501   20.5728 N   0  0  0  0  0  0
  -22.0473  -12.8236   22.0427 N   0  0  0  0  0  0
  -25.4265  -15.1898   20.4104 N   0  0  0  0  0  0
  -31.8303  -14.6612   20.1789 O   0  0  0  0  0  0
  -21.6632   -6.8876   21.4244 O   0  0  0  0  0  0
  -22.3534  -14.5518   20.6670 O   0  0  0  0  0  0
  -24.6147  -31.8707   23.2070 C   0  0  0  0  0  0
  -25.9035  -32.4837   23.8380 C   0  0  1  0  0  0
  -27.2313  -27.4297   20.0893 C   0  0  0  0  0  0
  -25.5902  -33.8634   24.2304 N   0  0  0  0  0  0
  -23.4029  -30.4944   21.5500 C   0  0  2  0  0  0
  -24.8474  -28.9637   20.1093 C   0  0  0  0  0  0
  -22.7411  -29.4679   22.4975 C   0  0  0  0  0  0
  -18.0271  -28.1398   22.8494 C   0  0  0  0  0  0
  -24.1496  -36.7314   23.2646 C   0  0  0  0  0  0
  -25.9356  -30.8326   21.3639 C   0  0  0  0  0  0
  -26.0099  -29.4681   20.7062 C   0  0  0  0  0  0
  -27.2046  -28.7102   20.6911 C   0  0  0  0  0  0
  -26.0507  -26.9523   19.4718 C   0  0  0  0  0  0
  -24.8642  -27.7056   19.4865 C   0  0  0  0  0  0
  -23.6082  -29.8292   20.1636 C   0  0  0  0  0  0
  -25.4125  -36.3124   24.0331 C   0  0  1  0  0  0
  -20.5864  -28.3684   23.1319 C   0  0  2  0  0  0
  -20.6762  -26.9418   22.5427 C   0  0  0  0  0  0
  -19.5735  -26.6390   21.5225 C   0  0  0  0  0  0
  -18.1907  -26.7945   22.1629 C   0  0  0  0  0  0
  -19.1522  -28.8851   23.2898 C   0  0  0  0  0  0
  -18.9461  -30.1458   23.8901 C   0  0  0  0  0  0
  -17.6459  -30.6598   24.0580 C   0  0  0  0  0  0
  -25.9051  -34.9493   23.5117 C   0  0  0  0  0  0
  -16.5348  -29.9111   23.6328 C   0  0  0  0  0  0
  -16.7257  -28.6534   23.0341 C   0  0  0  0  0  0
  -26.4445  -31.6635   25.0723 C   0  0  0  0  0  0
  -25.3687  -31.3797   26.1456 C   0  0  0  0  0  0
  -27.0281  -30.3067   24.6145 C   0  0  0  0  0  0
  -27.6015  -32.4372   25.7488 C   0  0  0  0  0  0
  -27.5586  -37.1810   24.8461 C   0  0  0  0  0  0
  -21.4140  -29.3050   22.3722 N   0  0  0  0  0  0
  -26.4305  -37.3810   23.9404 N   0  0  0  0  0  0
  -24.6694  -31.0801   22.0966 N   0  0  0  0  0  0
  -23.4177  -28.8211   23.3005 O   0  0  0  0  0  0
  -28.3930  -26.6789   20.1236 O   0  0  0  0  0  0
  -26.5634  -34.8942   22.4693 O   0  0  0  0  0  0
  -23.5337  -32.1472   23.7445 O   0  0  0  0  0  0
  -30.5066  -19.1096   20.0658 C   0  0  0  0  0  0
  -30.7452  -17.7017   19.8534 C   0  0  0  0  0  0
  -29.5402  -19.3950   20.9906 C   0  0  0  0  0  0
  -29.9895  -16.8997   20.7100 C   0  0  0  0  0  0
  -29.2549  -24.5181   20.9636 C   0  0  0  0  0  0
  -33.3118  -17.6896   17.0351 C   0  0  0  0  0  0
  -31.9314  -18.1021   17.5588 C   0  0  0  0  0  0
  -34.0069  -16.9758   18.2087 C   0  0  0  0  0  0
  -31.7037  -17.2045   18.7838 C   0  0  1  0  0  0
  -27.3861  -23.0760   22.0051 C   0  0  0  0  0  0
  -28.2383  -25.2447   20.0570 C   0  0  0  0  0  0
  -29.3021  -21.9118   20.7389 C   0  0  0  0  0  0
  -28.8748  -23.1439   21.5994 C   0  0  1  0  0  0
  -29.8608  -15.5391   20.8723 N   0  0  0  0  0  0
  -29.0143  -20.6282   21.4085 N   0  0  0  0  0  0
  -33.0430  -16.9340   19.3210 N   0  3  0  0  0  0
  -30.3649  -25.0254   21.1758 O   0  0  0  0  0  0
  -29.5530  -23.0288   22.7465 F   0  0  0  0  0  0
  -28.9427  -17.9166   21.6908 S   0  0  0  0  0  0
  -31.4737  -12.4323   19.1292 H   0  0  0  0  0  0
  -30.3414  -11.3052   19.8245 H   0  0  0  0  0  0
  -29.7501  -11.7761   17.4386 H   0  0  0  0  0  0
  -29.6785  -13.4891   17.7636 H   0  0  0  0  0  0
  -27.8192  -11.3197   18.7982 H   0  0  0  0  0  0
  -27.3773  -12.6594   17.7740 H   0  0  0  0  0  0
  -27.6943  -14.2565   19.5706 H   0  0  0  0  0  0
  -28.6712  -11.9511   21.3206 H   0  0  0  0  0  0
  -28.4567  -13.5883   21.8718 H   0  0  0  0  0  0
  -25.2752   -9.5665   22.4752 H   0  0  0  0  0  0
  -23.9990   -7.4610   22.7451 H   0  0  0  0  0  0
  -21.0824   -8.8751   19.8954 H   0  0  0  0  0  0
  -22.3677  -10.9648   19.6154 H   0  0  0  0  0  0
  -21.1986   -7.6127   23.9715 H   0  0  0  0  0  0
  -21.1502   -6.0504   25.9081 H   0  0  0  0  0  0
  -22.0601   -2.7588   23.2855 H   0  0  0  0  0  0
  -22.4058  -11.9921   22.4884 H   0  0  0  0  0  0
  -21.1068  -13.1256   22.2569 H   0  0  0  0  0  0
  -24.6564  -15.8408   20.5222 H   0  0  0  0  0  0
  -26.2746  -15.6348   20.0821 H   0  0  0  0  0  0
  -26.7134  -32.5546   23.1168 H   0  0  0  0  0  0
  -25.0004  -33.9829   25.0413 H   0  0  0  0  0  0
  -22.6911  -31.3101   21.4107 H   0  0  0  0  0  0
  -23.3757  -35.9646   23.3321 H   0  0  0  0  0  0
  -24.3571  -36.8911   22.2052 H   0  0  0  0  0  0
  -23.7232  -37.6517   23.6656 H   0  0  0  0  0  0
  -26.0612  -31.6002   20.5979 H   0  0  0  0  0  0
  -26.8205  -30.8779   21.9885 H   0  0  0  0  0  0
  -28.1003  -29.0937   21.1594 H   0  0  0  0  0  0
  -26.0260  -25.9994   18.9634 H   0  0  0  0  0  0
  -23.9764  -27.3126   19.0101 H   0  0  0  0  0  0
  -23.7129  -30.6049   19.4041 H   0  0  0  0  0  0
  -22.7306  -29.2493   19.8708 H   0  0  0  0  0  0
  -25.1299  -36.1985   25.0820 H   0  0  0  0  0  0
  -20.9972  -28.3267   24.1433 H   0  0  0  0  0  0
  -20.5668  -26.2302   23.3621 H   0  0  0  0  0  0
  -21.6632  -26.7468   22.1210 H   0  0  0  0  0  0
  -19.6889  -25.6300   21.1243 H   0  0  0  0  0  0
  -19.6664  -27.3221   20.6767 H   0  0  0  0  0  0
  -17.4180  -26.6702   21.4023 H   0  0  0  0  0  0
  -18.0293  -26.0100   22.9040 H   0  0  0  0  0  0
  -19.7938  -30.7278   24.2259 H   0  0  0  0  0  0
  -17.5026  -31.6268   24.5207 H   0  0  0  0  0  0
  -15.5358  -30.3023   23.7647 H   0  0  0  0  0  0
  -15.8659  -28.0861   22.7050 H   0  0  0  0  0  0
  -24.5815  -30.7208   25.7773 H   0  0  0  0  0  0
  -24.8942  -32.2998   26.4886 H   0  0  0  0  0  0
  -25.7985  -30.8940   27.0220 H   0  0  0  0  0  0
  -26.2864  -29.6839   24.1140 H   0  0  0  0  0  0
  -27.3963  -29.7294   25.4629 H   0  0  0  0  0  0
  -27.8724  -30.4357   23.9371 H   0  0  0  0  0  0
  -27.2617  -33.3660   26.2082 H   0  0  0  0  0  0
  -28.3812  -32.6958   25.0313 H   0  0  0  0  0  0
  -28.0708  -31.8499   26.5387 H   0  0  0  0  0  0
  -28.2618  -38.0101   24.7517 H   0  0  0  0  0  0
  -28.1069  -36.2622   24.6286 H   0  0  0  0  0  0
  -27.2302  -37.1463   25.8870 H   0  0  0  0  0  0
  -20.9291  -29.8786   21.6965 H   0  0  0  0  0  0
  -26.0182  -38.2889   24.1401 H   0  0  0  0  0  0
  -31.0240  -19.8809   19.5172 H   0  0  0  0  0  0
  -33.8837  -18.5562   16.6977 H   0  0  0  0  0  0
  -33.2195  -17.0143   16.1826 H   0  0  0  0  0  0
  -31.1418  -17.9872   16.8160 H   0  0  0  0  0  0
  -31.9838  -19.1546   17.8197 H   0  0  0  0  0  0
  -34.9218  -17.4797   18.5225 H   0  0  0  0  0  0
  -34.2744  -15.9579   17.9242 H   0  0  0  0  0  0
  -31.3298  -16.2656   18.3754 H   0  0  0  0  0  0
  -26.7348  -22.9321   21.1421 H   0  0  0  0  0  0
  -27.0618  -23.9844   22.5144 H   0  0  0  0  0  0
  -27.1985  -22.2504   22.6894 H   0  0  0  0  0  0
  -27.2393  -24.9527   20.3709 H   0  0  0  0  0  0
  -28.3721  -24.9156   19.0268 H   0  0  0  0  0  0
  -30.3692  -21.9796   20.5203 H   0  0  0  0  0  0
  -28.7853  -21.9414   19.7779 H   0  0  0  0  0  0
  -28.9721  -15.2433   21.2492 H   0  0  0  0  0  0
  -28.3077  -20.6712   22.1375 H   0  0  0  0  0  0
  -33.2865  -17.6216   20.0144 H   0  0  0  0  0  0
  -33.0092  -16.0148   19.7549 H   0  0  0  0  0  0
  1 25  1  0  0  0
  1 30  2  0  0  0
  1 84  1  0  0  0
  2  3  1  0  0  0
  2 25  1  0  0  0
  2 90  1  0  0  0
  2 91  1  0  0  0
  3  4  1  0  0  0
  3 92  1  0  0  0
  3 93  1  0  0  0
  4  5  1  0  0  0
  4 94  1  0  0  0
  4 95  1  0  0  0
  5  6  1  0  0  0
  5 26  1  0  0  0
  5 96  1  0  0  0
  6 25  1  0  0  0
  6 97  1  0  0  0
  6 98  1  0  0  0
  7  8  2  0  0  0
  7 26  1  0  0  0
  7 29  1  0  0  0
  8  9  1  0  0  0
  8 22  1  0  0  0
  9 10  1  0  0  0
  9 27  2  0  0  0
 10 11  2  0  0  0
 10 15  1  0  0  0
 11 12  1  0  0  0
 11 99  1  0  0  0
 12 13  2  0  0  0
 12100  1  0  0  0
 13 14  1  0  0  0
 13 31  1  0  0  0
 14 15  2  0  0  0
 14101  1  0  0  0
 15102  1  0  0  0
 16 17  2  0  0  0
 16 21  1  0  0  0
 16 31  1  0  0  0
 17 18  1  0  0  0
 17103  1  0  0  0
 18 19  2  0  0  0
 18104  1  0  0  0
 19 20  1  0  0  0
 19 24  1  0  0  0
 20 21  2  0  0  0
 20105  1  0  0  0
 21 23  1  0  0  0
 22 28  1  0  0  0
 22 32  2  0  0  0
 26 27  1  0  0  0
 28106  1  0  0  0
 28107  1  0  0  0
 29108  1  0  0  0
 29109  1  0  0  0
 33 34  1  0  0  0
 33 66  1  0  0  0
 33 70  2  0  0  0
 34 36  1  0  0  0
 34 59  1  0  0  0
 34110  1  0  0  0
 35 44  2  0  0  0
 35 45  1  0  0  0
 35 68  1  0  0  0
 36 56  1  0  0  0
 36111  1  0  0  0
 37 39  1  0  0  0
 37 47  1  0  0  0
 37 66  1  0  0  0
 37112  1  0  0  0
 38 43  2  0  0  0
 38 46  1  0  0  0
 38 47  1  0  0  0
 39 64  1  0  0  0
 39 67  2  0  0  0
 40 52  1  0  0  0
 40 53  2  0  0  0
 40 58  1  0  0  0
 41113  1  0  0  0
 41114  1  0  0  0
 41115  1  0  0  0
 41 48  1  0  0  0
 42 43  1  0  0  0
 42 66  1  0  0  0
 42116  1  0  0  0
 42117  1  0  0  0
 43 44  1  0  0  0
 44118  1  0  0  0
 45 46  2  0  0  0
 45119  1  0  0  0
 46120  1  0  0  0
 47121  1  0  0  0
 47122  1  0  0  0
 48 56  1  0  0  0
 48 65  1  0  0  0
 48123  1  0  0  0
 49 50  1  0  0  0
 49 53  1  0  0  0
 49 64  1  0  0  0
 49124  1  0  0  0
 50 51  1  0  0  0
 50125  1  0  0  0
 50126  1  0  0  0
 51 52  1  0  0  0
 51127  1  0  0  0
 51128  1  0  0  0
 52129  1  0  0  0
 52130  1  0  0  0
 53 54  1  0  0  0
 54 55  2  0  0  0
 54131  1  0  0  0
 55 57  1  0  0  0
 55132  1  0  0  0
 56 69  2  0  0  0
 57 58  2  0  0  0
 57133  1  0  0  0
 58134  1  0  0  0
 59 60  1  0  0  0
 59 61  1  0  0  0
 59 62  1  0  0  0
 60135  1  0  0  0
 60136  1  0  0  0
 60137  1  0  0  0
 61138  1  0  0  0
 61139  1  0  0  0
 61140  1  0  0  0
 62141  1  0  0  0
 62142  1  0  0  0
 62143  1  0  0  0
 63 65  1  0  0  0
 63144  1  0  0  0
 63145  1  0  0  0
 63146  1  0  0  0
 64147  1  0  0  0
 65148  1  0  0  0
 68 81  1  0  0  0
 71 72  1  0  0  0
 71 73  2  0  0  0
 71149  1  0  0  0
 72 74  2  0  0  0
 72 79  1  0  0  0
 73 85  1  0  0  0
 73 89  1  0  0  0
 74 84  1  0  0  0
 74 89  1  0  0  0
 75 81  1  0  0  0
 75 83  1  0  0  0
 75 87  2  0  0  0
 76 77  1  0  0  0
 76 78  1  0  0  0
 76150  1  0  0  0
 76151  1  0  0  0
 77 79  1  0  0  0
 77152  1  0  0  0
 77153  1  0  0  0
 78 86  1  0  0  0
 78154  1  0  0  0
 78155  1  0  0  0
 79 86  1  0  0  0
 79156  1  0  0  0
 80157  1  0  0  0
 80158  1  0  0  0
 80159  1  0  0  0
 80 83  1  0  0  0
 81160  1  0  0  0
 81161  1  0  0  0
 82 83  1  0  0  0
 82 85  1  0  0  0
 82162  1  0  0  0
 82163  1  0  0  0
 83 88  1  0  0  0
 84164  1  0  0  0
 85165  1  0  0  0
 86166  1  0  0  0
 86167  1  0  0  0
M  CHG  1  86   1
M  ISO  4   1 100  68 101  81 101  84 100
M  END
> <chiral flag>
0

> <version>
0

> <s_m_source_file>
/data/baiqing/PycharmProjects/Reinvent-master-3.2/result/LINK_invent/BTK/process_docking_weight1_custom_product_contain_oxygen_bond_distance_aromatic_linkinvent_7_9_3/rearranged_h_0150.sdf

> <i_m_source_file_index>
84

> <r_mmod_Potential_Energy-OPLS-2005>
-70.9161911010742

> <r_mmod_Stretch_Energy-OPLS-2005>
43.4403381347656

> <r_mmod_Bend_Energy-OPLS-2005>
143.250274658203

> <r_mmod_Torsional_Energy-OPLS-2005>
308.984313964844

> <r_mmod_Improper_Torsional_Energy-OPLS-2005>
4.83126163482666

> <r_mmod_Van_der_Waal_Energy-OPLS-2005>
142.733245849609

> <r_mmod_Electrostatic_Energy-OPLS-2005>
-288.424285888672

> <r_mmod_Solvation_Energy-OPLS-2005>
-443.47509765625

> <b_mmod_Minimization_Converged-OPLS-2005>
0

> <r_mmod_RMS_Derivative-OPLS-2005>
2.86651349067688

$$$$
84
                    3D
 Structure written by MMmdl.
150158  0  0  1  0            999 V2000
  -30.5893  -14.7698   20.4213 C   0  0  0  0  0  0
  -30.4341  -12.4622   19.4738 C   0  0  0  0  0  0
  -29.5133  -12.5036   18.2344 C   0  0  0  0  0  0
  -28.0368  -12.3279   18.6443 C   0  0  0  0  0  0
  -27.6383  -13.2317   19.8425 C   0  0  2  0  0  0
  -28.6836  -13.1751   20.9775 C   0  0  0  0  0  0
  -25.2488  -13.8199   20.5693 C   0  0  0  0  0  0
  -24.1785  -13.0435   20.9203 C   0  0  0  0  0  0
  -24.6387  -11.6916   20.8750 C   0  0  0  0  0  0
  -23.9060  -10.4286   21.0406 C   0  0  0  0  0  0
  -24.3621   -9.4198   21.9170 C   0  0  0  0  0  0
  -23.6297   -8.2234   22.0739 C   0  0  0  0  0  0
  -22.4269   -8.0272   21.3531 C   0  0  0  0  0  0
  -21.9896   -9.0245   20.4629 C   0  0  0  0  0  0
  -22.7229  -10.2125   20.3045 C   0  0  0  0  0  0
  -21.6852   -6.0729   22.5273 C   0  0  0  0  0  0
  -21.4019   -6.5631   23.8211 C   0  0  0  0  0  0
  -21.3667   -5.6782   24.9165 C   0  0  0  0  0  0
  -21.6050   -4.3046   24.7213 C   0  0  0  0  0  0
  -21.8818   -3.8135   23.4332 C   0  0  0  0  0  0
  -21.9188   -4.6954   22.3390 C   0  0  0  0  0  0
  -22.7805  -13.5219   21.1856 C   0  0  0  0  0  0
  -22.1654   -4.2150   21.0970 F   0  0  0  0  0  0
  -21.5629   -3.4519   25.7722 F   0  0  0  0  0  0
  -29.9816  -13.5333   20.3900 N   0  0  0  0  0  0
  -26.2914  -12.9409   20.3245 N   0  0  0  0  0  0
  -25.9309  -11.6554   20.5731 N   0  0  0  0  0  0
  -22.0440  -12.8236   22.0423 N   0  0  0  0  0  0
  -25.4149  -15.1928   20.4143 N   0  0  0  0  0  0
  -31.7905  -14.8628   20.1494 O   0  0  0  0  0  0
  -21.6636   -6.8871   21.4232 O   0  0  0  0  0  0
  -22.3488  -14.5505   20.6660 O   0  0  0  0  0  0
  -24.6314  -31.8549   23.1946 C   0  0  0  0  0  0
  -25.9137  -32.4747   23.8307 C   0  0  1  0  0  0
  -27.2285  -27.2592   20.1273 C   0  0  0  0  0  0
  -25.5921  -33.8542   24.2255 N   0  0  0  0  0  0
  -23.4282  -30.4749   21.5392 C   0  0  2  0  0  0
  -24.8764  -28.9111   20.1157 C   0  0  0  0  0  0
  -22.7499  -29.4600   22.4912 C   0  0  0  0  0  0
  -18.0286  -28.1376   22.8497 C   0  0  0  0  0  0
  -24.1492  -36.7295   23.2640 C   0  0  0  0  0  0
  -25.9737  -30.7661   21.3725 C   0  0  0  0  0  0
  -26.0482  -29.3858   20.7188 C   0  0  0  0  0  0
  -27.2292  -28.5750   20.7054 C   0  0  0  0  0  0
  -26.0326  -26.8443   19.5065 C   0  0  0  0  0  0
  -24.8736  -27.6485   19.5000 C   0  0  0  0  0  0
  -23.6473  -29.8003   20.1578 C   0  0  0  0  0  0
  -25.4111  -36.3057   24.0330 C   0  0  1  0  0  0
  -20.5892  -28.3692   23.1281 C   0  0  2  0  0  0
  -20.6785  -26.9412   22.5418 C   0  0  0  0  0  0
  -19.5755  -26.6378   21.5232 C   0  0  0  0  0  0
  -18.1933  -26.7920   22.1640 C   0  0  0  0  0  0
  -19.1545  -28.8855   23.2890 C   0  0  0  0  0  0
  -18.9460  -30.1454   23.8903 C   0  0  0  0  0  0
  -17.6461  -30.6586   24.0564 C   0  0  0  0  0  0
  -25.9049  -34.9424   23.5103 C   0  0  0  0  0  0
  -16.5349  -29.9089   23.6312 C   0  0  0  0  0  0
  -16.7280  -28.6500   23.0358 C   0  0  0  0  0  0
  -26.4488  -31.6565   25.0701 C   0  0  0  0  0  0
  -25.3700  -31.3751   26.1421 C   0  0  0  0  0  0
  -27.0325  -30.2973   24.6189 C   0  0  0  0  0  0
  -27.6027  -32.4308   25.7489 C   0  0  0  0  0  0
  -27.5573  -37.1809   24.8460 C   0  0  0  0  0  0
  -21.4208  -29.3041   22.3667 N   0  0  0  0  0  0
  -26.4289  -37.3752   23.9397 N   0  0  0  0  0  0
  -24.6974  -31.0502   22.0926 N   0  0  0  0  0  0
  -23.4201  -28.8144   23.3015 O   0  0  0  0  0  0
  -28.3452  -26.3926   20.1140 O   0  0  0  0  0  0
  -26.5644  -34.8902   22.4681 O   0  0  0  0  0  0
  -23.5467  -32.1382   23.7243 O   0  0  0  0  0  0
  -29.0601  -18.4129   20.0683 C   0  0  0  0  0  0
  -31.2697  -17.9314   20.6364 C   0  0  0  0  0  0
  -30.0418  -17.3613   20.4033 C   0  0  0  0  0  0
  -29.5382  -19.7410   20.0412 C   0  0  0  0  0  0
  -28.9118  -21.0516   19.5969 C   0  0  0  0  0  0
  -28.7133  -23.7209   19.5677 C   0  0  0  0  0  0
  -28.2147  -24.9421   20.5152 C   0  0  0  0  0  0
  -28.1452  -20.9730   18.5001 N   0  0  0  0  0  0
  -29.7721  -15.8958   20.5181 N   0  0  0  0  0  0
  -29.0694  -22.3252   20.1495 N   0  3  0  0  0  0
  -31.2371  -19.6922   20.4728 S   0  0  0  0  0  0
  -31.4777  -12.5869   19.1761 H   0  0  0  0  0  0
  -30.3821  -11.4898   19.9658 H   0  0  0  0  0  0
  -29.8040  -11.7278   17.5247 H   0  0  0  0  0  0
  -29.6373  -13.4576   17.7189 H   0  0  0  0  0  0
  -27.8916  -11.2801   18.9126 H   0  0  0  0  0  0
  -27.3856  -12.5178   17.7914 H   0  0  0  0  0  0
  -27.6260  -14.2498   19.4533 H   0  0  0  0  0  0
  -28.7212  -12.1784   21.4232 H   0  0  0  0  0  0
  -28.4165  -13.8624   21.7817 H   0  0  0  0  0  0
  -25.2763   -9.5686   22.4733 H   0  0  0  0  0  0
  -24.0004   -7.4633   22.7463 H   0  0  0  0  0  0
  -21.0822   -8.8759   19.8950 H   0  0  0  0  0  0
  -22.3677  -10.9657   19.6148 H   0  0  0  0  0  0
  -21.2019   -7.6140   23.9715 H   0  0  0  0  0  0
  -21.1491   -6.0505   25.9079 H   0  0  0  0  0  0
  -22.0595   -2.7595   23.2821 H   0  0  0  0  0  0
  -22.4047  -11.9954   22.4912 H   0  0  0  0  0  0
  -21.1027  -13.1253   22.2567 H   0  0  0  0  0  0
  -24.6425  -15.8399   20.5321 H   0  0  0  0  0  0
  -26.2525  -15.6381   20.0642 H   0  0  0  0  0  0
  -26.7204  -32.5404   23.1044 H   0  0  0  0  0  0
  -24.9984  -33.9675   25.0343 H   0  0  0  0  0  0
  -22.7260  -31.2983   21.3881 H   0  0  0  0  0  0
  -23.3732  -35.9652   23.3309 H   0  0  0  0  0  0
  -24.3575  -36.8909   22.2051 H   0  0  0  0  0  0
  -23.7280  -37.6513   23.6667 H   0  0  0  0  0  0
  -26.1101  -31.5252   20.6006 H   0  0  0  0  0  0
  -26.8539  -30.8179   22.0006 H   0  0  0  0  0  0
  -28.1319  -28.9421   21.1738 H   0  0  0  0  0  0
  -25.9896  -25.8777   19.0244 H   0  0  0  0  0  0
  -23.9756  -27.2806   19.0228 H   0  0  0  0  0  0
  -23.7729  -30.5739   19.3993 H   0  0  0  0  0  0
  -22.7656  -29.2323   19.8557 H   0  0  0  0  0  0
  -25.1294  -36.1894   25.0827 H   0  0  0  0  0  0
  -21.0005  -28.3272   24.1398 H   0  0  0  0  0  0
  -20.5702  -26.2301   23.3627 H   0  0  0  0  0  0
  -21.6652  -26.7444   22.1201 H   0  0  0  0  0  0
  -19.6914  -25.6292   21.1260 H   0  0  0  0  0  0
  -19.6685  -27.3195   20.6775 H   0  0  0  0  0  0
  -17.4215  -26.6682   21.4034 H   0  0  0  0  0  0
  -18.0318  -26.0054   22.9028 H   0  0  0  0  0  0
  -19.7935  -30.7282   24.2269 H   0  0  0  0  0  0
  -17.5009  -31.6264   24.5177 H   0  0  0  0  0  0
  -15.5352  -30.3009   23.7621 H   0  0  0  0  0  0
  -15.8676  -28.0832   22.7068 H   0  0  0  0  0  0
  -24.5848  -30.7128   25.7760 H   0  0  0  0  0  0
  -24.8926  -32.2947   26.4830 H   0  0  0  0  0  0
  -25.8003  -30.8932   27.0207 H   0  0  0  0  0  0
  -26.2913  -29.6730   24.1189 H   0  0  0  0  0  0
  -27.3967  -29.7222   25.4712 H   0  0  0  0  0  0
  -27.8802  -30.4241   23.9450 H   0  0  0  0  0  0
  -27.2608  -33.3596   26.2071 H   0  0  0  0  0  0
  -28.3841  -32.6897   25.0332 H   0  0  0  0  0  0
  -28.0682  -31.8432   26.5411 H   0  0  0  0  0  0
  -28.2597  -38.0096   24.7467 H   0  0  0  0  0  0
  -28.1064  -36.2625   24.6329 H   0  0  0  0  0  0
  -27.2291  -37.1501   25.8863 H   0  0  0  0  0  0
  -20.9393  -29.8767   21.6875 H   0  0  0  0  0  0
  -26.0164  -38.2829   24.1370 H   0  0  0  0  0  0
  -28.0383  -18.1604   19.8226 H   0  0  0  0  0  0
  -32.1992  -17.4396   20.9003 H   0  0  0  0  0  0
  -29.6175  -24.0549   19.0566 H   0  0  0  0  0  0
  -27.9726  -23.5935   18.7795 H   0  0  0  0  0  0
  -28.7528  -24.8574   21.4588 H   0  0  0  0  0  0
  -27.1789  -24.7399   20.7860 H   0  0  0  0  0  0
  -28.0556  -20.0996   18.0050 H   0  0  0  0  0  0
  -27.6725  -21.7688   18.1063 H   0  0  0  0  0  0
  -28.7982  -15.6589   20.6310 H   0  0  0  0  0  0
  -29.6437  -22.3612   20.9819 H   0  0  0  0  0  0
  1 25  1  0  0  0
  1 30  2  0  0  0
  1 79  1  0  0  0
  2  3  1  0  0  0
  2 25  1  0  0  0
  2 82  1  0  0  0
  2 83  1  0  0  0
  3  4  1  0  0  0
  3 84  1  0  0  0
  3 85  1  0  0  0
  4  5  1  0  0  0
  4 86  1  0  0  0
  4 87  1  0  0  0
  5  6  1  0  0  0
  5 26  1  0  0  0
  5 88  1  0  0  0
  6 25  1  0  0  0
  6 89  1  0  0  0
  6 90  1  0  0  0
  7  8  2  0  0  0
  7 26  1  0  0  0
  7 29  1  0  0  0
  8  9  1  0  0  0
  8 22  1  0  0  0
  9 10  1  0  0  0
  9 27  2  0  0  0
 10 11  2  0  0  0
 10 15  1  0  0  0
 11 12  1  0  0  0
 11 91  1  0  0  0
 12 13  2  0  0  0
 12 92  1  0  0  0
 13 14  1  0  0  0
 13 31  1  0  0  0
 14 15  2  0  0  0
 14 93  1  0  0  0
 15 94  1  0  0  0
 16 17  2  0  0  0
 16 21  1  0  0  0
 16 31  1  0  0  0
 17 18  1  0  0  0
 17 95  1  0  0  0
 18 19  2  0  0  0
 18 96  1  0  0  0
 19 20  1  0  0  0
 19 24  1  0  0  0
 20 21  2  0  0  0
 20 97  1  0  0  0
 21 23  1  0  0  0
 22 28  1  0  0  0
 22 32  2  0  0  0
 26 27  1  0  0  0
 28 98  1  0  0  0
 28 99  1  0  0  0
 29100  1  0  0  0
 29101  1  0  0  0
 33 34  1  0  0  0
 33 66  1  0  0  0
 33 70  2  0  0  0
 34 36  1  0  0  0
 34 59  1  0  0  0
 34102  1  0  0  0
 35 44  2  0  0  0
 35 45  1  0  0  0
 35 68  1  0  0  0
 36 56  1  0  0  0
 36103  1  0  0  0
 37 39  1  0  0  0
 37 47  1  0  0  0
 37 66  1  0  0  0
 37104  1  0  0  0
 38 43  2  0  0  0
 38 46  1  0  0  0
 38 47  1  0  0  0
 39 64  1  0  0  0
 39 67  2  0  0  0
 40 52  1  0  0  0
 40 53  2  0  0  0
 40 58  1  0  0  0
 41105  1  0  0  0
 41106  1  0  0  0
 41107  1  0  0  0
 41 48  1  0  0  0
 42 43  1  0  0  0
 42 66  1  0  0  0
 42108  1  0  0  0
 42109  1  0  0  0
 43 44  1  0  0  0
 44110  1  0  0  0
 45 46  2  0  0  0
 45111  1  0  0  0
 46112  1  0  0  0
 47113  1  0  0  0
 47114  1  0  0  0
 48 56  1  0  0  0
 48 65  1  0  0  0
 48115  1  0  0  0
 49 50  1  0  0  0
 49 53  1  0  0  0
 49 64  1  0  0  0
 49116  1  0  0  0
 50 51  1  0  0  0
 50117  1  0  0  0
 50118  1  0  0  0
 51 52  1  0  0  0
 51119  1  0  0  0
 51120  1  0  0  0
 52121  1  0  0  0
 52122  1  0  0  0
 53 54  1  0  0  0
 54 55  2  0  0  0
 54123  1  0  0  0
 55 57  1  0  0  0
 55124  1  0  0  0
 56 69  2  0  0  0
 57 58  2  0  0  0
 57125  1  0  0  0
 58126  1  0  0  0
 59 60  1  0  0  0
 59 61  1  0  0  0
 59 62  1  0  0  0
 60127  1  0  0  0
 60128  1  0  0  0
 60129  1  0  0  0
 61130  1  0  0  0
 61131  1  0  0  0
 61132  1  0  0  0
 62133  1  0  0  0
 62134  1  0  0  0
 62135  1  0  0  0
 63 65  1  0  0  0
 63136  1  0  0  0
 63137  1  0  0  0
 63138  1  0  0  0
 64139  1  0  0  0
 65140  1  0  0  0
 68 77  1  0  0  0
 71 73  1  0  0  0
 71 74  2  0  0  0
 71141  1  0  0  0
 72 73  2  0  0  0
 72 81  1  0  0  0
 72142  1  0  0  0
 73 79  1  0  0  0
 74 75  1  0  0  0
 74 81  1  0  0  0
 75 78  1  0  0  0
 75 80  2  0  0  0
 76 77  1  0  0  0
 76 80  1  0  0  0
 76143  1  0  0  0
 76144  1  0  0  0
 77145  1  0  0  0
 77146  1  0  0  0
 78147  1  0  0  0
 78148  1  0  0  0
 79149  1  0  0  0
 80150  1  0  0  0
M  CHG  1  80   1
M  ISO  4   1 100  68 101  77 101  79 100
M  END
> <chiral flag>
0

> <version>
0

> <s_m_source_file>
/data/baiqing/PycharmProjects/Reinvent-master-3.2/result/LINK_invent/BTK/process_docking_weight1_custom_product_contain_oxygen_bond_distance_aromatic_linkinvent_7_9_3/rearranged_h_0150.sdf

> <i_m_source_file_index>
85

> <r_mmod_Potential_Energy-OPLS-2005>
-14.7806043624878

> <r_mmod_Stretch_Energy-OPLS-2005>
124.751365661621

> <r_mmod_Bend_Energy-OPLS-2005>
169.005981445312

> <r_mmod_Torsional_Energy-OPLS-2005>
233.885437011719

> <r_mmod_Improper_Torsional_Energy-OPLS-2005>
6.45824813842773

> <r_mmod_Van_der_Waal_Energy-OPLS-2005>
115.915840148926

> <r_mmod_Electrostatic_Energy-OPLS-2005>
-284.307800292969

> <r_mmod_Solvation_Energy-OPLS-2005>
-469.910919189453

> <b_mmod_Minimization_Converged-OPLS-2005>
0

> <r_mmod_RMS_Derivative-OPLS-2005>
3.00025391578674

$$$$
85
                    3D
 Structure written by MMmdl.
160169  0  0  1  0            999 V2000
  -30.6755  -14.5914   20.4997 C   0  0  0  0  0  0
  -30.4204  -12.3641   19.4466 C   0  0  0  0  0  0
  -29.4989  -12.4964   18.2163 C   0  0  0  0  0  0
  -28.0211  -12.3490   18.6285 C   0  0  0  0  0  0
  -27.6481  -13.2219   19.8571 C   0  0  2  0  0  0
  -28.6941  -13.0892   20.9867 C   0  0  0  0  0  0
  -25.2532  -13.8178   20.5687 C   0  0  0  0  0  0
  -24.1809  -13.0434   20.9204 C   0  0  0  0  0  0
  -24.6385  -11.6916   20.8743 C   0  0  0  0  0  0
  -23.9051  -10.4291   21.0398 C   0  0  0  0  0  0
  -24.3604   -9.4206   21.9172 C   0  0  0  0  0  0
  -23.6280   -8.2238   22.0745 C   0  0  0  0  0  0
  -22.4264   -8.0267   21.3535 C   0  0  0  0  0  0
  -21.9899   -9.0240   20.4643 C   0  0  0  0  0  0
  -22.7225  -10.2123   20.3048 C   0  0  0  0  0  0
  -21.6850   -6.0721   22.5271 C   0  0  0  0  0  0
  -21.4017   -6.5630   23.8205 C   0  0  0  0  0  0
  -21.3665   -5.6784   24.9170 C   0  0  0  0  0  0
  -21.6045   -4.3044   24.7226 C   0  0  0  0  0  0
  -21.8819   -3.8136   23.4348 C   0  0  0  0  0  0
  -21.9194   -4.6948   22.3404 C   0  0  0  0  0  0
  -22.7828  -13.5219   21.1862 C   0  0  0  0  0  0
  -22.1656   -4.2130   21.0980 F   0  0  0  0  0  0
  -21.5637   -3.4537   25.7743 F   0  0  0  0  0  0
  -30.0099  -13.4004   20.4125 N   0  0  0  0  0  0
  -26.2959  -12.9374   20.3303 N   0  0  0  0  0  0
  -25.9311  -11.6526   20.5746 N   0  0  0  0  0  0
  -22.0470  -12.8213   22.0427 N   0  0  0  0  0  0
  -25.4227  -15.1904   20.4097 N   0  0  0  0  0  0
  -31.8554  -14.6821   20.1492 O   0  0  0  0  0  0
  -21.6633   -6.8863   21.4230 O   0  0  0  0  0  0
  -22.3510  -14.5515   20.6693 O   0  0  0  0  0  0
  -24.6221  -31.8615   23.2059 C   0  0  0  0  0  0
  -25.9088  -32.4800   23.8363 C   0  0  1  0  0  0
  -27.2195  -27.3563   20.1150 C   0  0  0  0  0  0
  -25.5916  -33.8598   24.2298 N   0  0  0  0  0  0
  -23.4133  -30.4853   21.5477 C   0  0  2  0  0  0
  -24.8612  -28.9496   20.1057 C   0  0  0  0  0  0
  -22.7434  -29.4618   22.4950 C   0  0  0  0  0  0
  -18.0280  -28.1378   22.8494 C   0  0  0  0  0  0
  -24.1484  -36.7288   23.2641 C   0  0  0  0  0  0
  -25.9501  -30.8061   21.3700 C   0  0  0  0  0  0
  -26.0272  -29.4364   20.7117 C   0  0  0  0  0  0
  -27.2134  -28.6504   20.7081 C   0  0  0  0  0  0
  -26.0412  -26.9184   19.4727 C   0  0  0  0  0  0
  -24.8687  -27.6960   19.4736 C   0  0  0  0  0  0
  -23.6239  -29.8210   20.1611 C   0  0  0  0  0  0
  -25.4112  -36.3098   24.0339 C   0  0  1  0  0  0
  -20.5874  -28.3662   23.1313 C   0  0  2  0  0  0
  -20.6763  -26.9392   22.5416 C   0  0  0  0  0  0
  -19.5755  -26.6380   21.5204 C   0  0  0  0  0  0
  -18.1934  -26.7929   22.1616 C   0  0  0  0  0  0
  -19.1530  -28.8834   23.2909 C   0  0  0  0  0  0
  -18.9458  -30.1433   23.8928 C   0  0  0  0  0  0
  -17.6460  -30.6589   24.0551 C   0  0  0  0  0  0
  -25.9042  -34.9465   23.5115 C   0  0  0  0  0  0
  -16.5348  -29.9084   23.6336 C   0  0  0  0  0  0
  -16.7265  -28.6492   23.0377 C   0  0  0  0  0  0
  -26.4488  -31.6606   25.0715 C   0  0  0  0  0  0
  -25.3733  -31.3720   26.1440 C   0  0  0  0  0  0
  -27.0324  -30.3050   24.6123 C   0  0  0  0  0  0
  -27.6072  -32.4303   25.7492 C   0  0  0  0  0  0
  -27.5582  -37.1803   24.8469 C   0  0  0  0  0  0
  -21.4151  -29.3026   22.3706 N   0  0  0  0  0  0
  -26.4294  -37.3787   23.9412 N   0  0  0  0  0  0
  -24.6804  -31.0659   22.0988 N   0  0  0  0  0  0
  -23.4177  -28.8147   23.3007 O   0  0  0  0  0  0
  -28.3168  -26.4986   20.1643 O   0  0  0  0  0  0
  -26.5591  -34.8925   22.4671 O   0  0  0  0  0  0
  -23.5398  -32.1369   23.7429 O   0  0  0  0  0  0
  -29.4985  -18.2455   20.5006 C   0  0  0  0  0  0
  -31.6243  -17.4880   21.1231 C   0  0  0  0  0  0
  -30.3526  -17.1020   20.7866 C   0  0  0  0  0  0
  -30.1439  -19.4816   20.5751 C   0  0  0  0  0  0
  -28.1476  -21.1902   20.2977 C   0  0  0  0  0  0
  -30.3711  -22.0621   21.0580 C   0  0  0  0  0  0
  -27.7174  -22.6407   20.7205 C   0  0  0  0  0  0
  -30.0672  -23.5139   20.5536 C   0  0  0  0  0  0
  -29.6781  -20.9261   20.2487 C   0  0  1  0  0  0
  -28.5802  -23.8336   20.1825 C   0  0  1  0  0  0
  -28.4195  -23.9021   18.6515 C   0  0  0  0  0  0
  -28.0584  -25.2017   20.8131 C   0  0  0  0  0  0
  -29.9286  -15.7082   20.7614 N   0  0  0  0  0  0
  -31.8138  -19.2184   21.0460 S   0  0  0  0  0  0
  -31.4655  -12.4580   19.1461 H   0  0  0  0  0  0
  -30.3260  -11.3728   19.8931 H   0  0  0  0  0  0
  -29.7550  -11.7421   17.4708 H   0  0  0  0  0  0
  -29.6548  -13.4650   17.7384 H   0  0  0  0  0  0
  -27.8494  -11.2972   18.8566 H   0  0  0  0  0  0
  -27.3687  -12.5858   17.7869 H   0  0  0  0  0  0
  -27.6630  -14.2544   19.5094 H   0  0  0  0  0  0
  -28.6966  -12.0761   21.3928 H   0  0  0  0  0  0
  -28.4540  -13.7501   21.8211 H   0  0  0  0  0  0
  -25.2749   -9.5682   22.4746 H   0  0  0  0  0  0
  -23.9992   -7.4632   22.7467 H   0  0  0  0  0  0
  -21.0831   -8.8754   19.8951 H   0  0  0  0  0  0
  -22.3676  -10.9653   19.6156 H   0  0  0  0  0  0
  -21.2001   -7.6138   23.9702 H   0  0  0  0  0  0
  -21.1492   -6.0519   25.9073 H   0  0  0  0  0  0
  -22.0595   -2.7596   23.2855 H   0  0  0  0  0  0
  -22.4084  -11.9892   22.4843 H   0  0  0  0  0  0
  -21.1072  -13.1222   22.2596 H   0  0  0  0  0  0
  -24.6543  -15.8436   20.5180 H   0  0  0  0  0  0
  -26.2643  -15.6300   20.0589 H   0  0  0  0  0  0
  -26.7154  -32.5476   23.1112 H   0  0  0  0  0  0
  -25.0100  -33.9744   25.0467 H   0  0  0  0  0  0
  -22.7065  -31.3067   21.4091 H   0  0  0  0  0  0
  -23.3757  -35.9611   23.3306 H   0  0  0  0  0  0
  -24.3575  -36.8886   22.2053 H   0  0  0  0  0  0
  -23.7222  -37.6491   23.6640 H   0  0  0  0  0  0
  -26.0748  -31.5726   20.6042 H   0  0  0  0  0  0
  -26.8326  -30.8536   21.9956 H   0  0  0  0  0  0
  -28.1084  -29.0129   21.1943 H   0  0  0  0  0  0
  -26.0197  -25.9539   18.9869 H   0  0  0  0  0  0
  -23.9770  -27.3233   18.9880 H   0  0  0  0  0  0
  -23.7306  -30.5960   19.4015 H   0  0  0  0  0  0
  -22.7460  -29.2433   19.8665 H   0  0  0  0  0  0
  -25.1302  -36.1955   25.0835 H   0  0  0  0  0  0
  -20.9983  -28.3221   24.1428 H   0  0  0  0  0  0
  -20.5657  -26.2255   23.3593 H   0  0  0  0  0  0
  -21.6638  -26.7427   22.1225 H   0  0  0  0  0  0
  -19.6912  -25.6290   21.1238 H   0  0  0  0  0  0
  -19.6722  -27.3182   20.6729 H   0  0  0  0  0  0
  -17.4201  -26.6675   21.4016 H   0  0  0  0  0  0
  -18.0344  -26.0065   22.9011 H   0  0  0  0  0  0
  -19.7931  -30.7231   24.2333 H   0  0  0  0  0  0
  -17.5021  -31.6292   24.5116 H   0  0  0  0  0  0
  -15.5354  -30.2995   23.7657 H   0  0  0  0  0  0
  -15.8659  -28.0801   22.7125 H   0  0  0  0  0  0
  -24.5946  -30.7031   25.7749 H   0  0  0  0  0  0
  -24.8874  -32.2866   26.4845 H   0  0  0  0  0  0
  -25.8060  -30.8917   27.0223 H   0  0  0  0  0  0
  -26.2876  -29.6813   24.1156 H   0  0  0  0  0  0
  -27.4064  -29.7301   25.4605 H   0  0  0  0  0  0
  -27.8726  -30.4368   23.9302 H   0  0  0  0  0  0
  -27.2733  -33.3615   26.2076 H   0  0  0  0  0  0
  -28.3895  -32.6817   25.0321 H   0  0  0  0  0  0
  -28.0709  -31.8395   26.5400 H   0  0  0  0  0  0
  -28.2618  -38.0087   24.7519 H   0  0  0  0  0  0
  -28.1066  -36.2619   24.6302 H   0  0  0  0  0  0
  -27.2289  -37.1456   25.8870 H   0  0  0  0  0  0
  -20.9299  -29.8744   21.6932 H   0  0  0  0  0  0
  -26.0184  -38.2868   24.1406 H   0  0  0  0  0  0
  -28.4616  -18.1252   20.2206 H   0  0  0  0  0  0
  -32.4749  -16.8751   21.4001 H   0  0  0  0  0  0
  -27.7145  -20.9374   19.3285 H   0  0  0  0  0  0
  -27.6886  -20.4989   21.0058 H   0  0  0  0  0  0
  -30.0817  -21.9712   22.1057 H   0  0  0  0  0  0
  -31.4542  -21.9433   21.0426 H   0  0  0  0  0  0
  -27.7316  -22.6851   21.8108 H   0  0  0  0  0  0
  -26.6705  -22.7897   20.4549 H   0  0  0  0  0  0
  -30.7061  -23.7228   19.6945 H   0  0  0  0  0  0
  -30.4154  -24.2050   21.3231 H   0  0  0  0  0  0
  -29.9789  -21.0997   19.2148 H   0  0  0  0  0  0
  -28.7349  -22.9777   18.1680 H   0  0  0  0  0  0
  -29.0176  -24.7077   18.2250 H   0  0  0  0  0  0
  -27.3833  -24.0816   18.3675 H   0  0  0  0  0  0
  -28.4466  -25.2841   21.8288 H   0  0  0  0  0  0
  -26.9865  -25.0839   20.9751 H   0  0  0  0  0  0
  -28.9411  -15.5413   20.8764 H   0  0  0  0  0  0
  1 25  1  0  0  0
  1 30  2  0  0  0
  1 83  1  0  0  0
  2  3  1  0  0  0
  2 25  1  0  0  0
  2 85  1  0  0  0
  2 86  1  0  0  0
  3  4  1  0  0  0
  3 87  1  0  0  0
  3 88  1  0  0  0
  4  5  1  0  0  0
  4 89  1  0  0  0
  4 90  1  0  0  0
  5  6  1  0  0  0
  5 26  1  0  0  0
  5 91  1  0  0  0
  6 25  1  0  0  0
  6 92  1  0  0  0
  6 93  1  0  0  0
  7  8  2  0  0  0
  7 26  1  0  0  0
  7 29  1  0  0  0
  8  9  1  0  0  0
  8 22  1  0  0  0
  9 10  1  0  0  0
  9 27  2  0  0  0
 10 11  2  0  0  0
 10 15  1  0  0  0
 11 12  1  0  0  0
 11 94  1  0  0  0
 12 13  2  0  0  0
 12 95  1  0  0  0
 13 14  1  0  0  0
 13 31  1  0  0  0
 14 15  2  0  0  0
 14 96  1  0  0  0
 15 97  1  0  0  0
 16 17  2  0  0  0
 16 21  1  0  0  0
 16 31  1  0  0  0
 17 18  1  0  0  0
 17 98  1  0  0  0
 18 19  2  0  0  0
 18 99  1  0  0  0
 19 20  1  0  0  0
 19 24  1  0  0  0
 20 21  2  0  0  0
 20100  1  0  0  0
 21 23  1  0  0  0
 22 28  1  0  0  0
 22 32  2  0  0  0
 26 27  1  0  0  0
 28101  1  0  0  0
 28102  1  0  0  0
 29103  1  0  0  0
 29104  1  0  0  0
 33 34  1  0  0  0
 33 66  1  0  0  0
 33 70  2  0  0  0
 34 36  1  0  0  0
 34 59  1  0  0  0
 34105  1  0  0  0
 35 44  2  0  0  0
 35 45  1  0  0  0
 35 68  1  0  0  0
 36 56  1  0  0  0
 36106  1  0  0  0
 37 39  1  0  0  0
 37 47  1  0  0  0
 37 66  1  0  0  0
 37107  1  0  0  0
 38 43  2  0  0  0
 38 46  1  0  0  0
 38 47  1  0  0  0
 39 64  1  0  0  0
 39 67  2  0  0  0
 40 52  1  0  0  0
 40 53  2  0  0  0
 40 58  1  0  0  0
 41108  1  0  0  0
 41109  1  0  0  0
 41110  1  0  0  0
 41 48  1  0  0  0
 42 43  1  0  0  0
 42 66  1  0  0  0
 42111  1  0  0  0
 42112  1  0  0  0
 43 44  1  0  0  0
 44113  1  0  0  0
 45 46  2  0  0  0
 45114  1  0  0  0
 46115  1  0  0  0
 47116  1  0  0  0
 47117  1  0  0  0
 48 56  1  0  0  0
 48 65  1  0  0  0
 48118  1  0  0  0
 49 50  1  0  0  0
 49 53  1  0  0  0
 49 64  1  0  0  0
 49119  1  0  0  0
 50 51  1  0  0  0
 50120  1  0  0  0
 50121  1  0  0  0
 51 52  1  0  0  0
 51122  1  0  0  0
 51123  1  0  0  0
 52124  1  0  0  0
 52125  1  0  0  0
 53 54  1  0  0  0
 54 55  2  0  0  0
 54126  1  0  0  0
 55 57  1  0  0  0
 55127  1  0  0  0
 56 69  2  0  0  0
 57 58  2  0  0  0
 57128  1  0  0  0
 58129  1  0  0  0
 59 60  1  0  0  0
 59 61  1  0  0  0
 59 62  1  0  0  0
 60130  1  0  0  0
 60131  1  0  0  0
 60132  1  0  0  0
 61133  1  0  0  0
 61134  1  0  0  0
 61135  1  0  0  0
 62136  1  0  0  0
 62137  1  0  0  0
 62138  1  0  0  0
 63 65  1  0  0  0
 63139  1  0  0  0
 63140  1  0  0  0
 63141  1  0  0  0
 64142  1  0  0  0
 65143  1  0  0  0
 68 82  1  0  0  0
 71 73  1  0  0  0
 71 74  2  0  0  0
 71144  1  0  0  0
 72 73  2  0  0  0
 72 84  1  0  0  0
 72145  1  0  0  0
 73 83  1  0  0  0
 74 84  1  0  0  0
 74 79  1  0  0  0
 75 77  1  0  0  0
 75 79  1  0  0  0
 75146  1  0  0  0
 75147  1  0  0  0
 76 78  1  0  0  0
 76 79  1  0  0  0
 76148  1  0  0  0
 76149  1  0  0  0
 77 80  1  0  0  0
 77150  1  0  0  0
 77151  1  0  0  0
 78 80  1  0  0  0
 78152  1  0  0  0
 78153  1  0  0  0
 79154  1  0  0  0
 80 81  1  0  0  0
 80 82  1  0  0  0
 81155  1  0  0  0
 81156  1  0  0  0
 81157  1  0  0  0
 82158  1  0  0  0
 82159  1  0  0  0
 83160  1  0  0  0
M  ISO  4   1 100  68 101  82 101  83 100
M  END
> <chiral flag>
0

> <version>
0

> <s_m_source_file>
/data/baiqing/PycharmProjects/Reinvent-master-3.2/result/LINK_invent/BTK/process_docking_weight1_custom_product_contain_oxygen_bond_distance_aromatic_linkinvent_7_9_3/rearranged_h_0150.sdf

> <i_m_source_file_index>
86

> <r_mmod_Potential_Energy-OPLS-2005>
103.862632751465

> <r_mmod_Stretch_Energy-OPLS-2005>
66.9832229614258

> <r_mmod_Bend_Energy-OPLS-2005>
133.743515014648

> <r_mmod_Torsional_Energy-OPLS-2005>
282.128051757812

> <r_mmod_Improper_Torsional_Energy-OPLS-2005>
5.4564208984375

> <r_mmod_Van_der_Waal_Energy-OPLS-2005>
138.193069458008

> <r_mmod_Electrostatic_Energy-OPLS-2005>
-362.938598632812

> <r_mmod_Solvation_Energy-OPLS-2005>
-198.611267089844

> <b_mmod_Minimization_Converged-OPLS-2005>
0

> <r_mmod_RMS_Derivative-OPLS-2005>
1.67776036262512

$$$$
86
                    3D
 Structure written by MMmdl.
161170  0  0  1  0            999 V2000
  -30.6338  -14.7165   20.4616 C   0  0  0  0  0  0
  -30.4237  -12.4336   19.4838 C   0  0  0  0  0  0
  -29.5088  -12.5006   18.2417 C   0  0  0  0  0  0
  -28.0357  -12.3236   18.6561 C   0  0  0  0  0  0
  -27.6413  -13.2295   19.8535 C   0  0  2  0  0  0
  -28.6832  -13.1673   20.9926 C   0  0  0  0  0  0
  -25.2507  -13.8193   20.5695 C   0  0  0  0  0  0
  -24.1797  -13.0436   20.9211 C   0  0  0  0  0  0
  -24.6379  -11.6913   20.8747 C   0  0  0  0  0  0
  -23.9058  -10.4293   21.0411 C   0  0  0  0  0  0
  -24.3608   -9.4208   21.9191 C   0  0  0  0  0  0
  -23.6285   -8.2248   22.0762 C   0  0  0  0  0  0
  -22.4274   -8.0281   21.3544 C   0  0  0  0  0  0
  -21.9906   -9.0253   20.4649 C   0  0  0  0  0  0
  -22.7230  -10.2136   20.3062 C   0  0  0  0  0  0
  -21.6857   -6.0739   22.5276 C   0  0  0  0  0  0
  -21.4015   -6.5638   23.8205 C   0  0  0  0  0  0
  -21.3662   -5.6795   24.9172 C   0  0  0  0  0  0
  -21.6046   -4.3054   24.7223 C   0  0  0  0  0  0
  -21.8818   -3.8146   23.4338 C   0  0  0  0  0  0
  -21.9186   -4.6967   22.3397 C   0  0  0  0  0  0
  -22.7819  -13.5230   21.1856 C   0  0  0  0  0  0
  -22.1659   -4.2147   21.0978 F   0  0  0  0  0  0
  -21.5630   -3.4542   25.7734 F   0  0  0  0  0  0
  -29.9893  -13.5020   20.4128 N   0  0  0  0  0  0
  -26.2926  -12.9394   20.3294 N   0  0  0  0  0  0
  -25.9308  -11.6542   20.5768 N   0  0  0  0  0  0
  -22.0460  -12.8226   22.0415 N   0  0  0  0  0  0
  -25.4199  -15.1912   20.4112 N   0  0  0  0  0  0
  -31.8174  -14.7943   20.1246 O   0  0  0  0  0  0
  -21.6640   -6.8879   21.4237 O   0  0  0  0  0  0
  -22.3511  -14.5537   20.6702 O   0  0  0  0  0  0
  -24.6310  -31.8562   23.2000 C   0  0  0  0  0  0
  -25.9145  -32.4752   23.8340 C   0  0  1  0  0  0
  -27.2147  -27.2578   20.1314 C   0  0  0  0  0  0
  -25.5945  -33.8556   24.2258 N   0  0  0  0  0  0
  -23.4277  -30.4809   21.5428 C   0  0  2  0  0  0
  -24.8748  -28.9340   20.1074 C   0  0  0  0  0  0
  -22.7509  -29.4595   22.4895 C   0  0  0  0  0  0
  -18.0300  -28.1381   22.8473 C   0  0  0  0  0  0
  -24.1497  -36.7314   23.2630 C   0  0  0  0  0  0
  -25.9743  -30.7674   21.3829 C   0  0  0  0  0  0
  -26.0446  -29.3895   20.7270 C   0  0  0  0  0  0
  -27.2137  -28.5613   20.7350 C   0  0  0  0  0  0
  -26.0247  -26.8866   19.4598 C   0  0  0  0  0  0
  -24.8710  -27.6909   19.4625 C   0  0  0  0  0  0
  -23.6462  -29.8213   20.1571 C   0  0  0  0  0  0
  -25.4115  -36.3075   24.0311 C   0  0  1  0  0  0
  -20.5910  -28.3694   23.1260 C   0  0  2  0  0  0
  -20.6793  -26.9408   22.5402 C   0  0  0  0  0  0
  -19.5764  -26.6371   21.5209 C   0  0  0  0  0  0
  -18.1944  -26.7922   22.1610 C   0  0  0  0  0  0
  -19.1556  -28.8848   23.2860 C   0  0  0  0  0  0
  -18.9474  -30.1452   23.8865 C   0  0  0  0  0  0
  -17.6468  -30.6571   24.0551 C   0  0  0  0  0  0
  -25.9053  -34.9433   23.5082 C   0  0  0  0  0  0
  -16.5356  -29.9062   23.6330 C   0  0  0  0  0  0
  -16.7287  -28.6493   23.0332 C   0  0  0  0  0  0
  -26.4504  -31.6584   25.0735 C   0  0  0  0  0  0
  -25.3714  -31.3746   26.1448 C   0  0  0  0  0  0
  -27.0357  -30.2989   24.6244 C   0  0  0  0  0  0
  -27.6053  -32.4329   25.7501 C   0  0  0  0  0  0
  -27.5590  -37.1805   24.8442 C   0  0  0  0  0  0
  -21.4220  -29.3038   22.3636 N   0  0  0  0  0  0
  -26.4291  -37.3772   23.9394 N   0  0  0  0  0  0
  -24.6965  -31.0522   22.0985 N   0  0  0  0  0  0
  -23.4224  -28.8129   23.2977 O   0  0  0  0  0  0
  -28.3067  -26.3573   20.2323 O   0  0  0  0  0  0
  -26.5618  -34.8903   22.4644 O   0  0  0  0  0  0
  -23.5452  -32.1386   23.7299 O   0  0  0  0  0  0
  -29.5461  -19.8329   19.8929 C   0  0  0  0  0  0
  -29.7109  -18.6485   20.7549 C   0  0  0  0  0  0
  -29.3965  -19.0052   22.0588 C   0  0  0  0  0  0
  -29.1804  -21.0467   20.4900 C   0  0  0  0  0  0
  -28.4093  -17.3030   24.7428 C   0  0  0  0  0  0
  -28.8772  -18.7250   24.4558 C   0  0  0  0  0  0
  -28.5944  -17.0203   23.2542 C   0  0  0  0  0  0
  -28.6013  -24.9407   18.3114 C   0  0  0  0  0  0
  -30.3244  -17.2772   20.2381 C   0  0  0  0  0  0
  -28.9365  -23.7079   20.5728 C   0  0  0  0  0  0
  -28.1896  -24.9209   19.7928 C   0  0  1  0  0  0
  -29.4698  -18.1868   23.2302 N   0  0  0  0  0  0
  -28.9472  -22.3502   19.8938 N   0  0  0  0  0  0
  -29.8913  -15.8707   20.6425 N   0  0  0  0  0  0
  -29.0072  -20.7401   22.1950 S   0  0  0  0  0  0
  -31.4687  -12.5362   19.1878 H   0  0  0  0  0  0
  -30.3465  -11.4584   19.9677 H   0  0  0  0  0  0
  -29.7890  -11.7308   17.5213 H   0  0  0  0  0  0
  -29.6367  -13.4587   17.7359 H   0  0  0  0  0  0
  -27.8975  -11.2762   18.9283 H   0  0  0  0  0  0
  -27.3755  -12.5053   17.8070 H   0  0  0  0  0  0
  -27.6367  -14.2492   19.4678 H   0  0  0  0  0  0
  -28.7096  -12.1734   21.4422 H   0  0  0  0  0  0
  -28.4220  -13.8589   21.7941 H   0  0  0  0  0  0
  -25.2748   -9.5697   22.4768 H   0  0  0  0  0  0
  -23.9989   -7.4651   22.7492 H   0  0  0  0  0  0
  -21.0834   -8.8769   19.8960 H   0  0  0  0  0  0
  -22.3675  -10.9675   19.6176 H   0  0  0  0  0  0
  -21.2013   -7.6148   23.9706 H   0  0  0  0  0  0
  -21.1491   -6.0528   25.9072 H   0  0  0  0  0  0
  -22.0595   -2.7607   23.2840 H   0  0  0  0  0  0
  -22.4068  -11.9883   22.4796 H   0  0  0  0  0  0
  -21.1082  -13.1273   22.2630 H   0  0  0  0  0  0
  -24.6452  -15.8395   20.5091 H   0  0  0  0  0  0
  -26.2571  -15.6289   20.0484 H   0  0  0  0  0  0
  -26.7210  -32.5398   23.1084 H   0  0  0  0  0  0
  -25.0091  -33.9681   25.0404 H   0  0  0  0  0  0
  -22.7226  -31.3016   21.3991 H   0  0  0  0  0  0
  -23.3750  -35.9659   23.3256 H   0  0  0  0  0  0
  -24.3607  -36.8999   22.2058 H   0  0  0  0  0  0
  -23.7271  -37.6503   23.6694 H   0  0  0  0  0  0
  -26.1109  -31.5255   20.6106 H   0  0  0  0  0  0
  -26.8532  -30.8190   22.0147 H   0  0  0  0  0  0
  -28.1039  -28.8987   21.2476 H   0  0  0  0  0  0
  -25.9380  -25.9549   18.9256 H   0  0  0  0  0  0
  -23.9796  -27.3425   18.9606 H   0  0  0  0  0  0
  -23.7743  -30.6003   19.4042 H   0  0  0  0  0  0
  -22.7645  -29.2574   19.8477 H   0  0  0  0  0  0
  -25.1304  -36.1916   25.0807 H   0  0  0  0  0  0
  -20.9993  -28.3279   24.1388 H   0  0  0  0  0  0
  -20.5719  -26.2285   23.3604 H   0  0  0  0  0  0
  -21.6655  -26.7440   22.1180 H   0  0  0  0  0  0
  -19.6920  -25.6282   21.1239 H   0  0  0  0  0  0
  -19.6710  -27.3169   20.6732 H   0  0  0  0  0  0
  -17.4221  -26.6674   21.4002 H   0  0  0  0  0  0
  -18.0330  -26.0065   22.9005 H   0  0  0  0  0  0
  -19.7948  -30.7284   24.2217 H   0  0  0  0  0  0
  -17.5017  -31.6247   24.5165 H   0  0  0  0  0  0
  -15.5350  -30.2943   23.7677 H   0  0  0  0  0  0
  -15.8698  -28.0810   22.7030 H   0  0  0  0  0  0
  -24.5905  -30.7063   25.7797 H   0  0  0  0  0  0
  -24.8862  -32.2904   26.4813 H   0  0  0  0  0  0
  -25.8024  -30.8980   27.0260 H   0  0  0  0  0  0
  -26.2946  -29.6708   24.1270 H   0  0  0  0  0  0
  -27.4025  -29.7284   25.4789 H   0  0  0  0  0  0
  -27.8834  -30.4247   23.9508 H   0  0  0  0  0  0
  -27.2682  -33.3668   26.2002 H   0  0  0  0  0  0
  -28.3899  -32.6822   25.0349 H   0  0  0  0  0  0
  -28.0667  -31.8495   26.5476 H   0  0  0  0  0  0
  -28.2559  -38.0151   24.7544 H   0  0  0  0  0  0
  -28.1151  -36.2678   24.6214 H   0  0  0  0  0  0
  -27.2311  -37.1391   25.8847 H   0  0  0  0  0  0
  -20.9392  -29.8794   21.6879 H   0  0  0  0  0  0
  -26.0172  -38.2841   24.1426 H   0  0  0  0  0  0
  -29.7492  -19.7476   18.8347 H   0  0  0  0  0  0
  -27.3763  -17.2326   25.0861 H   0  0  0  0  0  0
  -29.0914  -16.7407   25.3825 H   0  0  0  0  0  0
  -29.5979  -19.1181   25.1752 H   0  0  0  0  0  0
  -28.0307  -19.3976   24.3074 H   0  0  0  0  0  0
  -27.6798  -17.1424   22.6701 H   0  0  0  0  0  0
  -29.0896  -16.0671   23.0684 H   0  0  0  0  0  0
  -28.3149  -24.0225   17.7991 H   0  0  0  0  0  0
  -29.6794  -25.0625   18.2131 H   0  0  0  0  0  0
  -28.1293  -25.7646   17.7766 H   0  0  0  0  0  0
  -31.3957  -17.3298   20.4376 H   0  0  0  0  0  0
  -30.2613  -17.2792   19.1497 H   0  0  0  0  0  0
  -28.4989  -23.6059   21.5672 H   0  0  0  0  0  0
  -29.9750  -23.9973   20.7365 H   0  0  0  0  0  0
  -27.1476  -24.6157   19.8639 H   0  0  0  0  0  0
  -29.0154  -22.4090   18.8807 H   0  0  0  0  0  0
  -28.9170  -15.7485   20.8649 H   0  0  0  0  0  0
  1 25  1  0  0  0
  1 30  2  0  0  0
  1 84  1  0  0  0
  2  3  1  0  0  0
  2 25  1  0  0  0
  2 86  1  0  0  0
  2 87  1  0  0  0
  3  4  1  0  0  0
  3 88  1  0  0  0
  3 89  1  0  0  0
  4  5  1  0  0  0
  4 90  1  0  0  0
  4 91  1  0  0  0
  5  6  1  0  0  0
  5 26  1  0  0  0
  5 92  1  0  0  0
  6 25  1  0  0  0
  6 93  1  0  0  0
  6 94  1  0  0  0
  7  8  2  0  0  0
  7 26  1  0  0  0
  7 29  1  0  0  0
  8  9  1  0  0  0
  8 22  1  0  0  0
  9 10  1  0  0  0
  9 27  2  0  0  0
 10 11  2  0  0  0
 10 15  1  0  0  0
 11 12  1  0  0  0
 11 95  1  0  0  0
 12 13  2  0  0  0
 12 96  1  0  0  0
 13 14  1  0  0  0
 13 31  1  0  0  0
 14 15  2  0  0  0
 14 97  1  0  0  0
 15 98  1  0  0  0
 16 17  2  0  0  0
 16 21  1  0  0  0
 16 31  1  0  0  0
 17 18  1  0  0  0
 17 99  1  0  0  0
 18 19  2  0  0  0
 18100  1  0  0  0
 19 20  1  0  0  0
 19 24  1  0  0  0
 20 21  2  0  0  0
 20101  1  0  0  0
 21 23  1  0  0  0
 22 28  1  0  0  0
 22 32  2  0  0  0
 26 27  1  0  0  0
 28102  1  0  0  0
 28103  1  0  0  0
 29104  1  0  0  0
 29105  1  0  0  0
 33 34  1  0  0  0
 33 66  1  0  0  0
 33 70  2  0  0  0
 34 36  1  0  0  0
 34 59  1  0  0  0
 34106  1  0  0  0
 35 44  2  0  0  0
 35 45  1  0  0  0
 35 68  1  0  0  0
 36 56  1  0  0  0
 36107  1  0  0  0
 37 39  1  0  0  0
 37 47  1  0  0  0
 37 66  1  0  0  0
 37108  1  0  0  0
 38 43  2  0  0  0
 38 46  1  0  0  0
 38 47  1  0  0  0
 39 64  1  0  0  0
 39 67  2  0  0  0
 40 52  1  0  0  0
 40 53  2  0  0  0
 40 58  1  0  0  0
 41109  1  0  0  0
 41110  1  0  0  0
 41111  1  0  0  0
 41 48  1  0  0  0
 42 43  1  0  0  0
 42 66  1  0  0  0
 42112  1  0  0  0
 42113  1  0  0  0
 43 44  1  0  0  0
 44114  1  0  0  0
 45 46  2  0  0  0
 45115  1  0  0  0
 46116  1  0  0  0
 47117  1  0  0  0
 47118  1  0  0  0
 48 56  1  0  0  0
 48 65  1  0  0  0
 48119  1  0  0  0
 49 50  1  0  0  0
 49 53  1  0  0  0
 49 64  1  0  0  0
 49120  1  0  0  0
 50 51  1  0  0  0
 50121  1  0  0  0
 50122  1  0  0  0
 51 52  1  0  0  0
 51123  1  0  0  0
 51124  1  0  0  0
 52125  1  0  0  0
 52126  1  0  0  0
 53 54  1  0  0  0
 54 55  2  0  0  0
 54127  1  0  0  0
 55 57  1  0  0  0
 55128  1  0  0  0
 56 69  2  0  0  0
 57 58  2  0  0  0
 57129  1  0  0  0
 58130  1  0  0  0
 59 60  1  0  0  0
 59 61  1  0  0  0
 59 62  1  0  0  0
 60131  1  0  0  0
 60132  1  0  0  0
 60133  1  0  0  0
 61134  1  0  0  0
 61135  1  0  0  0
 61136  1  0  0  0
 62137  1  0  0  0
 62138  1  0  0  0
 62139  1  0  0  0
 63 65  1  0  0  0
 63140  1  0  0  0
 63141  1  0  0  0
 63142  1  0  0  0
 64143  1  0  0  0
 65144  1  0  0  0
 68 81  1  0  0  0
 71 72  1  0  0  0
 71 74  2  0  0  0
 71145  1  0  0  0
 72 73  2  0  0  0
 72 79  1  0  0  0
 73 82  1  0  0  0
 73 85  1  0  0  0
 74 83  1  0  0  0
 74 85  1  0  0  0
 75 76  1  0  0  0
 75 77  1  0  0  0
 75146  1  0  0  0
 75147  1  0  0  0
 76 82  1  0  0  0
 76148  1  0  0  0
 76149  1  0  0  0
 77 82  1  0  0  0
 77150  1  0  0  0
 77151  1  0  0  0
 78152  1  0  0  0
 78153  1  0  0  0
 78154  1  0  0  0
 78 81  1  0  0  0
 79 84  1  0  0  0
 79155  1  0  0  0
 79156  1  0  0  0
 80 81  1  0  0  0
 80 83  1  0  0  0
 80157  1  0  0  0
 80158  1  0  0  0
 81159  1  0  0  0
 83160  1  0  0  0
 84161  1  0  0  0
M  ISO  4   1 100  68 101  81 101  84 100
M  END
> <chiral flag>
0

> <version>
0

> <s_m_source_file>
/data/baiqing/PycharmProjects/Reinvent-master-3.2/result/LINK_invent/BTK/process_docking_weight1_custom_product_contain_oxygen_bond_distance_aromatic_linkinvent_7_9_3/rearranged_h_0150.sdf

> <i_m_source_file_index>
87

> <r_mmod_Potential_Energy-OPLS-2005>
165.404586791992

> <r_mmod_Stretch_Energy-OPLS-2005>
115.989715576172

> <r_mmod_Bend_Energy-OPLS-2005>
200.67919921875

> <r_mmod_Torsional_Energy-OPLS-2005>
242.998199462891

> <r_mmod_Improper_Torsional_Energy-OPLS-2005>
15.597056388855

> <r_mmod_Van_der_Waal_Energy-OPLS-2005>
126.943801879883

> <r_mmod_Electrostatic_Energy-OPLS-2005>
-374.203369140625

> <r_mmod_Solvation_Energy-OPLS-2005>
-245.482635498047

> <b_mmod_Minimization_Converged-OPLS-2005>
0

> <r_mmod_RMS_Derivative-OPLS-2005>
1.96047353744507

$$$$
87
                    3D
 Structure written by MMmdl.
161169  0  0  1  0            999 V2000
  -30.6646  -14.5796   20.5308 C   0  0  0  0  0  0
  -30.4288  -12.3654   19.4356 C   0  0  0  0  0  0
  -29.4987  -12.4955   18.2107 C   0  0  0  0  0  0
  -28.0211  -12.3432   18.6268 C   0  0  0  0  0  0
  -27.6500  -13.2125   19.8581 C   0  0  2  0  0  0
  -28.6973  -13.0619   20.9835 C   0  0  0  0  0  0
  -25.2546  -13.8164   20.5681 C   0  0  0  0  0  0
  -24.1809  -13.0441   20.9202 C   0  0  0  0  0  0
  -24.6358  -11.6911   20.8735 C   0  0  0  0  0  0
  -23.9017  -10.4301   21.0394 C   0  0  0  0  0  0
  -24.3578   -9.4222   21.9173 C   0  0  0  0  0  0
  -23.6277   -8.2241   22.0742 C   0  0  0  0  0  0
  -22.4261   -8.0261   21.3534 C   0  0  0  0  0  0
  -21.9879   -9.0228   20.4639 C   0  0  0  0  0  0
  -22.7185  -10.2123   20.3047 C   0  0  0  0  0  0
  -21.6861   -6.0704   22.5275 C   0  0  0  0  0  0
  -21.4014   -6.5617   23.8205 C   0  0  0  0  0  0
  -21.3669   -5.6772   24.9173 C   0  0  0  0  0  0
  -21.6045   -4.3032   24.7229 C   0  0  0  0  0  0
  -21.8823   -3.8119   23.4353 C   0  0  0  0  0  0
  -21.9196   -4.6929   22.3405 C   0  0  0  0  0  0
  -22.7837  -13.5252   21.1856 C   0  0  0  0  0  0
  -22.1665   -4.2120   21.0983 F   0  0  0  0  0  0
  -21.5640   -3.4521   25.7745 F   0  0  0  0  0  0
  -30.0117  -13.3857   20.4117 N   0  0  0  0  0  0
  -26.2964  -12.9338   20.3296 N   0  0  0  0  0  0
  -25.9282  -11.6499   20.5735 N   0  0  0  0  0  0
  -22.0454  -12.8262   22.0409 N   0  0  0  0  0  0
  -25.4249  -15.1883   20.4079 N   0  0  0  0  0  0
  -31.8409  -14.7149   20.1850 O   0  0  0  0  0  0
  -21.6643   -6.8844   21.4234 O   0  0  0  0  0  0
  -22.3534  -14.5554   20.6690 O   0  0  0  0  0  0
  -24.6201  -31.8654   23.2070 C   0  0  0  0  0  0
  -25.9079  -32.4804   23.8384 C   0  0  1  0  0  0
  -27.2338  -27.3728   20.1235 C   0  0  0  0  0  0
  -25.5908  -33.8595   24.2306 N   0  0  0  0  0  0
  -23.4137  -30.4878   21.5469 C   0  0  2  0  0  0
  -24.8652  -28.9415   20.1242 C   0  0  0  0  0  0
  -22.7450  -29.4672   22.4968 C   0  0  0  0  0  0
  -18.0298  -28.1326   22.8552 C   0  0  0  0  0  0
  -24.1492  -36.7307   23.2636 C   0  0  0  0  0  0
  -25.9488  -30.8067   21.3767 C   0  0  0  0  0  0
  -26.0272  -29.4316   20.7376 C   0  0  0  0  0  0
  -27.2142  -28.6506   20.7467 C   0  0  0  0  0  0
  -26.0628  -26.9251   19.4833 C   0  0  0  0  0  0
  -24.8786  -27.6856   19.4965 C   0  0  0  0  0  0
  -23.6307  -29.8168   20.1643 C   0  0  0  0  0  0
  -25.4113  -36.3091   24.0337 C   0  0  1  0  0  0
  -20.5907  -28.3664   23.1263 C   0  0  2  0  0  0
  -20.6853  -26.9438   22.5254 C   0  0  0  0  0  0
  -19.5685  -26.6342   21.5243 C   0  0  0  0  0  0
  -18.1958  -26.7799   22.1848 C   0  0  0  0  0  0
  -19.1554  -28.8822   23.2881 C   0  0  0  0  0  0
  -18.9482  -30.1449   23.8846 C   0  0  0  0  0  0
  -17.6483  -30.6564   24.0530 C   0  0  0  0  0  0
  -25.9042  -34.9462   23.5118 C   0  0  0  0  0  0
  -16.5364  -29.9042   23.6337 C   0  0  0  0  0  0
  -16.7283  -28.6448   23.0396 C   0  0  0  0  0  0
  -26.4474  -31.6588   25.0734 C   0  0  0  0  0  0
  -25.3730  -31.3708   26.1473 C   0  0  0  0  0  0
  -27.0296  -30.3018   24.6147 C   0  0  0  0  0  0
  -27.6049  -32.4296   25.7496 C   0  0  0  0  0  0
  -27.5578  -37.1812   24.8462 C   0  0  0  0  0  0
  -21.4166  -29.3086   22.3707 N   0  0  0  0  0  0
  -26.4291  -37.3782   23.9404 N   0  0  0  0  0  0
  -24.6788  -31.0708   22.1005 N   0  0  0  0  0  0
  -23.4193  -28.8194   23.3020 O   0  0  0  0  0  0
  -28.3600  -26.5711   20.0111 O   0  0  0  0  0  0
  -26.5607  -34.8919   22.4684 O   0  0  0  0  0  0
  -23.5383  -32.1436   23.7429 O   0  0  0  0  0  0
  -29.6777  -18.1784   20.5787 C   0  0  0  0  0  0
  -31.0648  -19.6450   21.9510 C   0  0  0  0  0  0
  -31.3059  -17.2131   22.1183 C   0  0  0  0  0  0
  -30.0663  -19.5072   20.9620 C   0  0  0  0  0  0
  -30.3019  -17.0148   21.1428 C   0  0  0  0  0  0
  -31.6776  -18.5124   22.5198 C   0  0  0  0  0  0
  -29.5580  -20.7480   20.2942 C   0  0  0  0  0  0
  -28.9676  -23.2450   20.4447 C   0  0  0  0  0  0
  -28.9347  -24.0018   22.8768 C   0  0  0  0  0  0
  -26.8890  -24.2343   21.4500 C   0  0  0  0  0  0
  -28.8495  -25.8444   21.1656 C   0  0  0  0  0  0
  -28.4253  -24.3316   21.4504 C   0  0  0  0  0  0
  -29.8863  -15.6666   20.8051 N   0  0  0  0  0  0
  -29.2695  -21.9050   20.9735 N   0  0  0  0  0  0
  -29.4481  -20.7001   18.9645 N   0  3  0  0  0  0
  -29.0829  -23.4901   19.2393 O   0  0  0  0  0  0
  -32.6404  -18.6764   23.4598 F   0  0  0  0  0  0
  -31.4702  -12.4800   19.1334 H   0  0  0  0  0  0
  -30.3524  -11.3689   19.8739 H   0  0  0  0  0  0
  -29.7532  -11.7452   17.4611 H   0  0  0  0  0  0
  -29.6504  -13.4637   17.7330 H   0  0  0  0  0  0
  -27.8535  -11.2899   18.8540 H   0  0  0  0  0  0
  -27.3658  -12.5808   17.7878 H   0  0  0  0  0  0
  -27.6691  -14.2484   19.5186 H   0  0  0  0  0  0
  -28.6995  -12.0409   21.3704 H   0  0  0  0  0  0
  -28.4552  -13.7036   21.8325 H   0  0  0  0  0  0
  -25.2713   -9.5725   22.4751 H   0  0  0  0  0  0
  -23.9997   -7.4638   22.7456 H   0  0  0  0  0  0
  -21.0810   -8.8718   19.8951 H   0  0  0  0  0  0
  -22.3613  -10.9643   19.6155 H   0  0  0  0  0  0
  -21.1996   -7.6127   23.9704 H   0  0  0  0  0  0
  -21.1498   -6.0501   25.9078 H   0  0  0  0  0  0
  -22.0594   -2.7579   23.2859 H   0  0  0  0  0  0
  -22.4055  -11.9946   22.4847 H   0  0  0  0  0  0
  -21.1051  -13.1266   22.2557 H   0  0  0  0  0  0
  -24.6474  -15.8337   20.4977 H   0  0  0  0  0  0
  -26.2567  -15.6243   20.0322 H   0  0  0  0  0  0
  -26.7157  -32.5513   23.1146 H   0  0  0  0  0  0
  -25.0054  -33.9745   25.0449 H   0  0  0  0  0  0
  -22.7046  -31.3055   21.4012 H   0  0  0  0  0  0
  -23.3741  -35.9653   23.3294 H   0  0  0  0  0  0
  -24.3587  -36.8923   22.2048 H   0  0  0  0  0  0
  -23.7261  -37.6519   23.6648 H   0  0  0  0  0  0
  -26.0754  -31.5626   20.5998 H   0  0  0  0  0  0
  -26.8316  -30.8646   22.0016 H   0  0  0  0  0  0
  -28.1111  -29.0293   21.2164 H   0  0  0  0  0  0
  -26.0682  -25.9793   18.9624 H   0  0  0  0  0  0
  -23.9917  -27.3064   19.0078 H   0  0  0  0  0  0
  -23.7469  -30.5883   19.4025 H   0  0  0  0  0  0
  -22.7553  -29.2374   19.8644 H   0  0  0  0  0  0
  -25.1295  -36.1948   25.0833 H   0  0  0  0  0  0
  -21.0030  -28.3161   24.1368 H   0  0  0  0  0  0
  -20.6078  -26.2201   23.3387 H   0  0  0  0  0  0
  -21.6629  -26.7645   22.0772 H   0  0  0  0  0  0
  -19.6848  -25.6247   21.1279 H   0  0  0  0  0  0
  -19.6441  -27.3130   20.6738 H   0  0  0  0  0  0
  -17.4095  -26.6277   21.4431 H   0  0  0  0  0  0
  -18.0664  -26.0052   22.9420 H   0  0  0  0  0  0
  -19.7959  -30.7315   24.2137 H   0  0  0  0  0  0
  -17.5028  -31.6280   24.5064 H   0  0  0  0  0  0
  -15.5359  -30.2931   23.7680 H   0  0  0  0  0  0
  -15.8687  -28.0734   22.7149 H   0  0  0  0  0  0
  -24.5925  -30.7021   25.7801 H   0  0  0  0  0  0
  -24.8912  -32.2875   26.4886 H   0  0  0  0  0  0
  -25.8102  -30.8905   27.0242 H   0  0  0  0  0  0
  -26.2849  -29.6786   24.1176 H   0  0  0  0  0  0
  -27.3997  -29.7242   25.4626 H   0  0  0  0  0  0
  -27.8715  -30.4283   23.9343 H   0  0  0  0  0  0
  -27.2662  -33.3584   26.2088 H   0  0  0  0  0  0
  -28.3852  -32.6868   25.0318 H   0  0  0  0  0  0
  -28.0715  -31.8416   26.5403 H   0  0  0  0  0  0
  -28.2600  -38.0101   24.7509 H   0  0  0  0  0  0
  -28.1078  -36.2643   24.6295 H   0  0  0  0  0  0
  -27.2306  -37.1464   25.8867 H   0  0  0  0  0  0
  -20.9308  -29.8817   21.6947 H   0  0  0  0  0  0
  -26.0175  -38.2859   24.1397 H   0  0  0  0  0  0
  -28.9128  -18.0537   19.8247 H   0  0  0  0  0  0
  -31.4042  -20.6230   22.2620 H   0  0  0  0  0  0
  -31.7905  -16.3715   22.5885 H   0  0  0  0  0  0
  -28.5468  -23.0571   23.2566 H   0  0  0  0  0  0
  -28.6273  -24.7625   23.5964 H   0  0  0  0  0  0
  -30.0258  -23.9564   22.9124 H   0  0  0  0  0  0
  -26.5476  -23.2766   21.8446 H   0  0  0  0  0  0
  -26.4897  -24.3241   20.4402 H   0  0  0  0  0  0
  -26.4371  -25.0216   22.0550 H   0  0  0  0  0  0
  -29.9374  -25.8835   21.1018 H   0  0  0  0  0  0
  -28.6074  -26.4472   22.0433 H   0  0  0  0  0  0
  -28.8942  -15.4912   20.8170 H   0  0  0  0  0  0
  -29.2170  -21.7382   21.9654 H   0  0  0  0  0  0
  -29.7378  -19.8775   18.4598 H   0  0  0  0  0  0
  -29.2235  -21.5485   18.4607 H   0  0  0  0  0  0
  1 25  1  0  0  0
  1 30  2  0  0  0
  1 83  1  0  0  0
  2  3  1  0  0  0
  2 25  1  0  0  0
  2 88  1  0  0  0
  2 89  1  0  0  0
  3  4  1  0  0  0
  3 90  1  0  0  0
  3 91  1  0  0  0
  4  5  1  0  0  0
  4 92  1  0  0  0
  4 93  1  0  0  0
  5  6  1  0  0  0
  5 26  1  0  0  0
  5 94  1  0  0  0
  6 25  1  0  0  0
  6 95  1  0  0  0
  6 96  1  0  0  0
  7  8  2  0  0  0
  7 26  1  0  0  0
  7 29  1  0  0  0
  8  9  1  0  0  0
  8 22  1  0  0  0
  9 10  1  0  0  0
  9 27  2  0  0  0
 10 11  2  0  0  0
 10 15  1  0  0  0
 11 12  1  0  0  0
 11 97  1  0  0  0
 12 13  2  0  0  0
 12 98  1  0  0  0
 13 14  1  0  0  0
 13 31  1  0  0  0
 14 15  2  0  0  0
 14 99  1  0  0  0
 15100  1  0  0  0
 16 17  2  0  0  0
 16 21  1  0  0  0
 16 31  1  0  0  0
 17 18  1  0  0  0
 17101  1  0  0  0
 18 19  2  0  0  0
 18102  1  0  0  0
 19 20  1  0  0  0
 19 24  1  0  0  0
 20 21  2  0  0  0
 20103  1  0  0  0
 21 23  1  0  0  0
 22 28  1  0  0  0
 22 32  2  0  0  0
 26 27  1  0  0  0
 28104  1  0  0  0
 28105  1  0  0  0
 29106  1  0  0  0
 29107  1  0  0  0
 33 34  1  0  0  0
 33 66  1  0  0  0
 33 70  2  0  0  0
 34 36  1  0  0  0
 34 59  1  0  0  0
 34108  1  0  0  0
 35 44  2  0  0  0
 35 45  1  0  0  0
 35 68  1  0  0  0
 36 56  1  0  0  0
 36109  1  0  0  0
 37 39  1  0  0  0
 37 47  1  0  0  0
 37 66  1  0  0  0
 37110  1  0  0  0
 38 43  2  0  0  0
 38 46  1  0  0  0
 38 47  1  0  0  0
 39 64  1  0  0  0
 39 67  2  0  0  0
 40 52  1  0  0  0
 40 53  2  0  0  0
 40 58  1  0  0  0
 41111  1  0  0  0
 41112  1  0  0  0
 41113  1  0  0  0
 41 48  1  0  0  0
 42 43  1  0  0  0
 42 66  1  0  0  0
 42114  1  0  0  0
 42115  1  0  0  0
 43 44  1  0  0  0
 44116  1  0  0  0
 45 46  2  0  0  0
 45117  1  0  0  0
 46118  1  0  0  0
 47119  1  0  0  0
 47120  1  0  0  0
 48 56  1  0  0  0
 48 65  1  0  0  0
 48121  1  0  0  0
 49 50  1  0  0  0
 49 53  1  0  0  0
 49 64  1  0  0  0
 49122  1  0  0  0
 50 51  1  0  0  0
 50123  1  0  0  0
 50124  1  0  0  0
 51 52  1  0  0  0
 51125  1  0  0  0
 51126  1  0  0  0
 52127  1  0  0  0
 52128  1  0  0  0
 53 54  1  0  0  0
 54 55  2  0  0  0
 54129  1  0  0  0
 55 57  1  0  0  0
 55130  1  0  0  0
 56 69  2  0  0  0
 57 58  2  0  0  0
 57131  1  0  0  0
 58132  1  0  0  0
 59 60  1  0  0  0
 59 61  1  0  0  0
 59 62  1  0  0  0
 60133  1  0  0  0
 60134  1  0  0  0
 60135  1  0  0  0
 61136  1  0  0  0
 61137  1  0  0  0
 61138  1  0  0  0
 62139  1  0  0  0
 62140  1  0  0  0
 62141  1  0  0  0
 63 65  1  0  0  0
 63142  1  0  0  0
 63143  1  0  0  0
 63144  1  0  0  0
 64145  1  0  0  0
 65146  1  0  0  0
 68 81  1  0  0  0
 71 74  2  0  0  0
 71 75  1  0  0  0
 71147  1  0  0  0
 72 74  1  0  0  0
 72 76  2  0  0  0
 72148  1  0  0  0
 73 75  2  0  0  0
 73 76  1  0  0  0
 73149  1  0  0  0
 74 77  1  0  0  0
 75 83  1  0  0  0
 76 87  1  0  0  0
 77 84  1  0  0  0
 77 85  2  0  0  0
 78 82  1  0  0  0
 78 84  1  0  0  0
 78 86  2  0  0  0
 79150  1  0  0  0
 79151  1  0  0  0
 79152  1  0  0  0
 79 82  1  0  0  0
 80 82  1  0  0  0
 80153  1  0  0  0
 80154  1  0  0  0
 80155  1  0  0  0
 81 82  1  0  0  0
 81156  1  0  0  0
 81157  1  0  0  0
 83158  1  0  0  0
 84159  1  0  0  0
 85160  1  0  0  0
 85161  1  0  0  0
M  CHG  1  85   1
M  ISO  4   1 100  68 101  81 101  83 100
M  END
> <chiral flag>
0

> <version>
0

> <s_m_source_file>
/data/baiqing/PycharmProjects/Reinvent-master-3.2/result/LINK_invent/BTK/process_docking_weight1_custom_product_contain_oxygen_bond_distance_aromatic_linkinvent_7_9_3/rearranged_h_0150.sdf

> <i_m_source_file_index>
88

> <r_mmod_Potential_Energy-OPLS-2005>
-279.459655761719

> <r_mmod_Stretch_Energy-OPLS-2005>
63.6990966796875

> <r_mmod_Bend_Energy-OPLS-2005>
138.486587524414

> <r_mmod_Torsional_Energy-OPLS-2005>
263.847900390625

> <r_mmod_Improper_Torsional_Energy-OPLS-2005>
7.2907075881958

> <r_mmod_Van_der_Waal_Energy-OPLS-2005>
150.032348632812

> <r_mmod_Electrostatic_Energy-OPLS-2005>
-477.115478515625

> <r_mmod_Solvation_Energy-OPLS-2005>
-456.060089111328

> <b_mmod_Minimization_Converged-OPLS-2005>
0

> <r_mmod_RMS_Derivative-OPLS-2005>
2.39535284042358

$$$$
88
                    3D
 Structure written by MMmdl.
159168  0  0  1  0            999 V2000
  -30.5998  -14.7108   20.5112 C   0  0  0  0  0  0
  -30.4470  -12.4422   19.4706 C   0  0  0  0  0  0
  -29.5168  -12.5232   18.2383 C   0  0  0  0  0  0
  -28.0411  -12.3456   18.6487 C   0  0  0  0  0  0
  -27.6549  -13.2233   19.8684 C   0  0  2  0  0  0
  -28.6976  -13.1033   21.0029 C   0  0  0  0  0  0
  -25.2555  -13.8164   20.5684 C   0  0  0  0  0  0
  -24.1827  -13.0420   20.9163 C   0  0  0  0  0  0
  -24.6406  -11.6900   20.8728 C   0  0  0  0  0  0
  -23.9077  -10.4279   21.0401 C   0  0  0  0  0  0
  -24.3619   -9.4191   21.9183 C   0  0  0  0  0  0
  -23.6277   -8.2237   22.0766 C   0  0  0  0  0  0
  -22.4264   -8.0286   21.3551 C   0  0  0  0  0  0
  -21.9900   -9.0264   20.4656 C   0  0  0  0  0  0
  -22.7244  -10.2129   20.3058 C   0  0  0  0  0  0
  -21.6850   -6.0729   22.5279 C   0  0  0  0  0  0
  -21.4023   -6.5640   23.8212 C   0  0  0  0  0  0
  -21.3654   -5.6791   24.9173 C   0  0  0  0  0  0
  -21.6040   -4.3055   24.7225 C   0  0  0  0  0  0
  -21.8820   -3.8146   23.4349 C   0  0  0  0  0  0
  -21.9190   -4.6956   22.3401 C   0  0  0  0  0  0
  -22.7855  -13.5222   21.1824 C   0  0  0  0  0  0
  -22.1657   -4.2140   21.0978 F   0  0  0  0  0  0
  -21.5619   -3.4541   25.7734 F   0  0  0  0  0  0
  -30.0087  -13.4686   20.4446 N   0  0  0  0  0  0
  -26.3007  -12.9366   20.3343 N   0  0  0  0  0  0
  -25.9344  -11.6516   20.5764 N   0  0  0  0  0  0
  -22.0493  -12.8231   22.0386 N   0  0  0  0  0  0
  -25.4245  -15.1886   20.4125 N   0  0  0  0  0  0
  -31.7426  -14.8845   20.0769 O   0  0  0  0  0  0
  -21.6643   -6.8878   21.4241 O   0  0  0  0  0  0
  -22.3547  -14.5530   20.6667 O   0  0  0  0  0  0
  -24.6308  -31.8575   23.2010 C   0  0  0  0  0  0
  -25.9136  -32.4772   23.8359 C   0  0  1  0  0  0
  -27.2237  -27.2733   20.1310 C   0  0  0  0  0  0
  -25.5935  -33.8575   24.2292 N   0  0  0  0  0  0
  -23.4285  -30.4814   21.5440 C   0  0  2  0  0  0
  -24.8770  -28.9359   20.1111 C   0  0  0  0  0  0
  -22.7514  -29.4617   22.4908 C   0  0  0  0  0  0
  -18.0300  -28.1402   22.8487 C   0  0  0  0  0  0
  -24.1488  -36.7288   23.2640 C   0  0  0  0  0  0
  -25.9742  -30.7755   21.3817 C   0  0  0  0  0  0
  -26.0489  -29.3995   20.7227 C   0  0  0  0  0  0
  -27.2240  -28.5819   20.7217 C   0  0  0  0  0  0
  -26.0248  -26.8828   19.4847 C   0  0  0  0  0  0
  -24.8701  -27.6837   19.4822 C   0  0  0  0  0  0
  -23.6489  -29.8218   20.1582 C   0  0  0  0  0  0
  -25.4114  -36.3085   24.0336 C   0  0  1  0  0  0
  -20.5903  -28.3716   23.1264 C   0  0  2  0  0  0
  -20.6798  -26.9432   22.5412 C   0  0  0  0  0  0
  -19.5773  -26.6394   21.5221 C   0  0  0  0  0  0
  -18.1948  -26.7941   22.1626 C   0  0  0  0  0  0
  -19.1553  -28.8874   23.2867 C   0  0  0  0  0  0
  -18.9470  -30.1469   23.8895 C   0  0  0  0  0  0
  -17.6472  -30.6597   24.0565 C   0  0  0  0  0  0
  -25.9050  -34.9449   23.5117 C   0  0  0  0  0  0
  -16.5361  -29.9098   23.6334 C   0  0  0  0  0  0
  -16.7284  -28.6515   23.0349 C   0  0  0  0  0  0
  -26.4509  -31.6573   25.0734 C   0  0  0  0  0  0
  -25.3733  -31.3713   26.1454 C   0  0  0  0  0  0
  -27.0369  -30.2994   24.6205 C   0  0  0  0  0  0
  -27.6075  -32.4299   25.7500 C   0  0  0  0  0  0
  -27.5581  -37.1806   24.8467 C   0  0  0  0  0  0
  -21.4218  -29.3056   22.3648 N   0  0  0  0  0  0
  -26.4297  -37.3778   23.9403 N   0  0  0  0  0  0
  -24.6972  -31.0550   22.0987 N   0  0  0  0  0  0
  -23.4208  -28.8151   23.3011 O   0  0  0  0  0  0
  -28.3157  -26.3732   20.2033 O   0  0  0  0  0  0
  -26.5615  -34.8917   22.4682 O   0  0  0  0  0  0
  -23.5455  -32.1397   23.7296 O   0  0  0  0  0  0
  -28.8190  -17.5134   19.5937 C   0  0  0  0  0  0
  -28.5917  -18.9404   19.5304 C   0  0  0  0  0  0
  -29.2925  -19.7376   20.4240 C   0  0  0  0  0  0
  -29.6750  -17.0790   20.5812 C   0  0  0  0  0  0
  -27.5917  -19.4207   18.5777 C   0  0  0  0  0  0
  -29.3993  -23.3346   21.7569 C   0  0  0  0  0  0
  -29.9353  -21.8689   21.7515 C   0  0  0  0  0  0
  -28.6118  -22.2409   19.8156 C   0  0  0  0  0  0
  -29.0600  -23.6892   20.2960 C   0  0  1  0  0  0
  -28.0296  -24.9098   20.0287 C   0  0  0  0  0  0
  -29.3094  -21.1907   20.6187 N   0  0  0  0  0  0
  -27.7320  -19.1582   17.2737 N   0  0  0  0  0  0
  -29.8331  -15.7492   20.9997 N   0  0  0  0  0  0
  -26.4945  -20.0568   19.0041 N   0  3  0  0  0  0
  -30.2525  -18.5703   21.4069 S   0  0  0  0  0  0
  -31.4857  -12.5827   19.1662 H   0  0  0  0  0  0
  -30.4043  -11.4498   19.9219 H   0  0  0  0  0  0
  -29.7936  -11.7626   17.5059 H   0  0  0  0  0  0
  -29.6483  -13.4877   17.7442 H   0  0  0  0  0  0
  -27.8925  -11.2928   18.8930 H   0  0  0  0  0  0
  -27.3851  -12.5595   17.8032 H   0  0  0  0  0  0
  -27.6654  -14.2553   19.5158 H   0  0  0  0  0  0
  -28.7235  -12.0852   21.3946 H   0  0  0  0  0  0
  -28.4261  -13.7378   21.8477 H   0  0  0  0  0  0
  -25.2758   -9.5668   22.4765 H   0  0  0  0  0  0
  -23.9976   -7.4638   22.7502 H   0  0  0  0  0  0
  -21.0820   -8.8792   19.8970 H   0  0  0  0  0  0
  -22.3699  -10.9678   19.6176 H   0  0  0  0  0  0
  -21.2037   -7.6150   23.9709 H   0  0  0  0  0  0
  -21.1469   -6.0527   25.9071 H   0  0  0  0  0  0
  -22.0602   -2.7606   23.2855 H   0  0  0  0  0  0
  -22.4089  -11.9886   22.4788 H   0  0  0  0  0  0
  -21.1131  -13.1305   22.2603 H   0  0  0  0  0  0
  -24.6560  -15.8394   20.5352 H   0  0  0  0  0  0
  -26.2757  -15.6361   20.1014 H   0  0  0  0  0  0
  -26.7205  -32.5430   23.1106 H   0  0  0  0  0  0
  -25.0088  -33.9712   25.0443 H   0  0  0  0  0  0
  -22.7244  -31.3033   21.3997 H   0  0  0  0  0  0
  -23.3757  -35.9613   23.3309 H   0  0  0  0  0  0
  -24.3581  -36.8903   22.2052 H   0  0  0  0  0  0
  -23.7229  -37.6491   23.6655 H   0  0  0  0  0  0
  -26.1109  -31.5407   20.6160 H   0  0  0  0  0  0
  -26.8536  -30.8241   22.0130 H   0  0  0  0  0  0
  -28.1196  -28.9307   21.2164 H   0  0  0  0  0  0
  -25.9378  -25.9321   18.9822 H   0  0  0  0  0  0
  -23.9756  -27.3234   18.9934 H   0  0  0  0  0  0
  -23.7747  -30.6034   19.4080 H   0  0  0  0  0  0
  -22.7680  -29.2587   19.8467 H   0  0  0  0  0  0
  -25.1289  -36.1959   25.0829 H   0  0  0  0  0  0
  -20.9988  -28.3310   24.1383 H   0  0  0  0  0  0
  -20.5723  -26.2326   23.3615 H   0  0  0  0  0  0
  -21.6662  -26.7477   22.1185 H   0  0  0  0  0  0
  -19.6939  -25.6303   21.1252 H   0  0  0  0  0  0
  -19.6709  -27.3203   20.6743 H   0  0  0  0  0  0
  -17.4216  -26.6680   21.4022 H   0  0  0  0  0  0
  -18.0345  -26.0085   22.9023 H   0  0  0  0  0  0
  -19.7942  -30.7285   24.2259 H   0  0  0  0  0  0
  -17.5023  -31.6271   24.5174 H   0  0  0  0  0  0
  -15.5359  -30.2998   23.7659 H   0  0  0  0  0  0
  -15.8680  -28.0832   22.7064 H   0  0  0  0  0  0
  -24.5912  -30.7056   25.7778 H   0  0  0  0  0  0
  -24.8913  -32.2874   26.4865 H   0  0  0  0  0  0
  -25.8048  -30.8898   27.0235 H   0  0  0  0  0  0
  -26.2960  -29.6725   24.1227 H   0  0  0  0  0  0
  -27.4068  -29.7259   25.4711 H   0  0  0  0  0  0
  -27.8825  -30.4275   23.9446 H   0  0  0  0  0  0
  -27.2701  -33.3601   26.2074 H   0  0  0  0  0  0
  -28.3888  -32.6848   25.0331 H   0  0  0  0  0  0
  -28.0739  -31.8421   26.5413 H   0  0  0  0  0  0
  -28.2608  -38.0095   24.7511 H   0  0  0  0  0  0
  -28.1076  -36.2629   24.6309 H   0  0  0  0  0  0
  -27.2298  -37.1469   25.8871 H   0  0  0  0  0  0
  -20.9409  -29.8762   21.6834 H   0  0  0  0  0  0
  -26.0190  -38.2862   24.1401 H   0  0  0  0  0  0
  -28.2627  -16.8515   18.9464 H   0  0  0  0  0  0
  -30.1173  -24.0294   22.1955 H   0  0  0  0  0  0
  -28.4907  -23.3870   22.3596 H   0  0  0  0  0  0
  -29.7145  -21.3687   22.6961 H   0  0  0  0  0  0
  -31.0190  -21.8624   21.6186 H   0  0  0  0  0  0
  -28.7862  -22.1103   18.7469 H   0  0  0  0  0  0
  -27.5396  -22.1563   19.9873 H   0  0  0  0  0  0
  -29.9917  -23.9260   19.7818 H   0  0  0  0  0  0
  -27.1323  -24.6795   20.6055 H   0  0  0  0  0  0
  -27.7504  -24.7970   18.9809 H   0  0  0  0  0  0
  -27.0718  -19.4451   16.5704 H   0  0  0  0  0  0
  -28.5557  -18.6719   16.9548 H   0  0  0  0  0  0
  -29.0077  -15.3807   21.4482 H   0  0  0  0  0  0
  -26.3615  -20.1838   19.9969 H   0  0  0  0  0  0
  -25.7613  -20.3749   18.3910 H   0  0  0  0  0  0
  1 25  1  0  0  0
  1 30  2  0  0  0
  1 83  1  0  0  0
  2  3  1  0  0  0
  2 25  1  0  0  0
  2 86  1  0  0  0
  2 87  1  0  0  0
  3  4  1  0  0  0
  3 88  1  0  0  0
  3 89  1  0  0  0
  4  5  1  0  0  0
  4 90  1  0  0  0
  4 91  1  0  0  0
  5  6  1  0  0  0
  5 26  1  0  0  0
  5 92  1  0  0  0
  6 25  1  0  0  0
  6 93  1  0  0  0
  6 94  1  0  0  0
  7  8  2  0  0  0
  7 26  1  0  0  0
  7 29  1  0  0  0
  8  9  1  0  0  0
  8 22  1  0  0  0
  9 10  1  0  0  0
  9 27  2  0  0  0
 10 11  2  0  0  0
 10 15  1  0  0  0
 11 12  1  0  0  0
 11 95  1  0  0  0
 12 13  2  0  0  0
 12 96  1  0  0  0
 13 14  1  0  0  0
 13 31  1  0  0  0
 14 15  2  0  0  0
 14 97  1  0  0  0
 15 98  1  0  0  0
 16 17  2  0  0  0
 16 21  1  0  0  0
 16 31  1  0  0  0
 17 18  1  0  0  0
 17 99  1  0  0  0
 18 19  2  0  0  0
 18100  1  0  0  0
 19 20  1  0  0  0
 19 24  1  0  0  0
 20 21  2  0  0  0
 20101  1  0  0  0
 21 23  1  0  0  0
 22 28  1  0  0  0
 22 32  2  0  0  0
 26 27  1  0  0  0
 28102  1  0  0  0
 28103  1  0  0  0
 29104  1  0  0  0
 29105  1  0  0  0
 33 34  1  0  0  0
 33 66  1  0  0  0
 33 70  2  0  0  0
 34 36  1  0  0  0
 34 59  1  0  0  0
 34106  1  0  0  0
 35 44  2  0  0  0
 35 45  1  0  0  0
 35 68  1  0  0  0
 36 56  1  0  0  0
 36107  1  0  0  0
 37 39  1  0  0  0
 37 47  1  0  0  0
 37 66  1  0  0  0
 37108  1  0  0  0
 38 43  2  0  0  0
 38 46  1  0  0  0
 38 47  1  0  0  0
 39 64  1  0  0  0
 39 67  2  0  0  0
 40 52  1  0  0  0
 40 53  2  0  0  0
 40 58  1  0  0  0
 41109  1  0  0  0
 41110  1  0  0  0
 41111  1  0  0  0
 41 48  1  0  0  0
 42 43  1  0  0  0
 42 66  1  0  0  0
 42112  1  0  0  0
 42113  1  0  0  0
 43 44  1  0  0  0
 44114  1  0  0  0
 45 46  2  0  0  0
 45115  1  0  0  0
 46116  1  0  0  0
 47117  1  0  0  0
 47118  1  0  0  0
 48 56  1  0  0  0
 48 65  1  0  0  0
 48119  1  0  0  0
 49 50  1  0  0  0
 49 53  1  0  0  0
 49 64  1  0  0  0
 49120  1  0  0  0
 50 51  1  0  0  0
 50121  1  0  0  0
 50122  1  0  0  0
 51 52  1  0  0  0
 51123  1  0  0  0
 51124  1  0  0  0
 52125  1  0  0  0
 52126  1  0  0  0
 53 54  1  0  0  0
 54 55  2  0  0  0
 54127  1  0  0  0
 55 57  1  0  0  0
 55128  1  0  0  0
 56 69  2  0  0  0
 57 58  2  0  0  0
 57129  1  0  0  0
 58130  1  0  0  0
 59 60  1  0  0  0
 59 61  1  0  0  0
 59 62  1  0  0  0
 60131  1  0  0  0
 60132  1  0  0  0
 60133  1  0  0  0
 61134  1  0  0  0
 61135  1  0  0  0
 61136  1  0  0  0
 62137  1  0  0  0
 62138  1  0  0  0
 62139  1  0  0  0
 63 65  1  0  0  0
 63140  1  0  0  0
 63141  1  0  0  0
 63142  1  0  0  0
 64143  1  0  0  0
 65144  1  0  0  0
 68 80  1  0  0  0
 71 72  1  0  0  0
 71 74  2  0  0  0
 71145  1  0  0  0
 72 73  2  0  0  0
 72 75  1  0  0  0
 73 81  1  0  0  0
 73 85  1  0  0  0
 74 83  1  0  0  0
 74 85  1  0  0  0
 75 82  1  0  0  0
 75 84  2  0  0  0
 76 77  1  0  0  0
 76 79  1  0  0  0
 76146  1  0  0  0
 76147  1  0  0  0
 77 81  1  0  0  0
 77148  1  0  0  0
 77149  1  0  0  0
 78 79  1  0  0  0
 78 81  1  0  0  0
 78150  1  0  0  0
 78151  1  0  0  0
 79 80  1  0  0  0
 79152  1  0  0  0
 80153  1  0  0  0
 80154  1  0  0  0
 82155  1  0  0  0
 82156  1  0  0  0
 83157  1  0  0  0
 84158  1  0  0  0
 84159  1  0  0  0
M  CHG  1  84   1
M  ISO  4   1 100  68 101  80 101  83 100
M  END
> <chiral flag>
0

> <version>
0

> <s_m_source_file>
/data/baiqing/PycharmProjects/Reinvent-master-3.2/result/LINK_invent/BTK/process_docking_weight1_custom_product_contain_oxygen_bond_distance_aromatic_linkinvent_7_9_3/rearranged_h_0150.sdf

> <i_m_source_file_index>
89

> <r_mmod_Potential_Energy-OPLS-2005>
69.2423934936523

> <r_mmod_Stretch_Energy-OPLS-2005>
103.555999755859

> <r_mmod_Bend_Energy-OPLS-2005>
210.36279296875

> <r_mmod_Torsional_Energy-OPLS-2005>
306.089233398438

> <r_mmod_Improper_Torsional_Energy-OPLS-2005>
6.43278789520264

> <r_mmod_Van_der_Waal_Energy-OPLS-2005>
114.685333251953

> <r_mmod_Electrostatic_Energy-OPLS-2005>
-213.849594116211

> <r_mmod_Solvation_Energy-OPLS-2005>
-532.530395507812

> <b_mmod_Minimization_Converged-OPLS-2005>
0

> <r_mmod_RMS_Derivative-OPLS-2005>
2.12814950942993

$$$$
89
                    3D
 Structure written by MMmdl.
157165  0  0  1  0            999 V2000
  -30.7208  -14.5531   20.4822 C   0  0  0  0  0  0
  -30.4026  -12.3305   19.4632 C   0  0  0  0  0  0
  -29.4986  -12.4851   18.2244 C   0  0  0  0  0  0
  -28.0194  -12.3470   18.6283 C   0  0  0  0  0  0
  -27.6457  -13.2302   19.8495 C   0  0  2  0  0  0
  -28.6863  -13.1224   20.9832 C   0  0  0  0  0  0
  -25.2527  -13.8211   20.5685 C   0  0  0  0  0  0
  -24.1807  -13.0454   20.9180 C   0  0  0  0  0  0
  -24.6393  -11.6931   20.8727 C   0  0  0  0  0  0
  -23.9072  -10.4302   21.0401 C   0  0  0  0  0  0
  -24.3625   -9.4215   21.9179 C   0  0  0  0  0  0
  -23.6301   -8.2249   22.0745 C   0  0  0  0  0  0
  -22.4282   -8.0286   21.3540 C   0  0  0  0  0  0
  -21.9920   -9.0256   20.4640 C   0  0  0  0  0  0
  -22.7244  -10.2136   20.3051 C   0  0  0  0  0  0
  -21.6853   -6.0742   22.5277 C   0  0  0  0  0  0
  -21.4014   -6.5643   23.8210 C   0  0  0  0  0  0
  -21.3661   -5.6793   24.9172 C   0  0  0  0  0  0
  -21.6047   -4.3056   24.7220 C   0  0  0  0  0  0
  -21.8820   -3.8149   23.4339 C   0  0  0  0  0  0
  -21.9193   -4.6970   22.3398 C   0  0  0  0  0  0
  -22.7833  -13.5232   21.1858 C   0  0  0  0  0  0
  -22.1662   -4.2158   21.0975 F   0  0  0  0  0  0
  -21.5630   -3.4534   25.7728 F   0  0  0  0  0  0
  -30.0140  -13.3859   20.4182 N   0  0  0  0  0  0
  -26.2955  -12.9420   20.3271 N   0  0  0  0  0  0
  -25.9320  -11.6558   20.5730 N   0  0  0  0  0  0
  -22.0493  -12.8212   22.0420 N   0  0  0  0  0  0
  -25.4256  -15.1933   20.4140 N   0  0  0  0  0  0
  -31.9122  -14.5481   20.1603 O   0  0  0  0  0  0
  -21.6642   -6.8886   21.4240 O   0  0  0  0  0  0
  -22.3515  -14.5545   20.6722 O   0  0  0  0  0  0
  -24.6194  -31.8651   23.2087 C   0  0  0  0  0  0
  -25.9072  -32.4806   23.8392 C   0  0  1  0  0  0
  -27.2177  -27.3819   20.1107 C   0  0  0  0  0  0
  -25.5928  -33.8612   24.2326 N   0  0  0  0  0  0
  -23.4091  -30.4911   21.5492 C   0  0  2  0  0  0
  -24.8523  -28.9513   20.1181 C   0  0  0  0  0  0
  -22.7426  -29.4656   22.4956 C   0  0  0  0  0  0
  -18.0287  -28.1374   22.8495 C   0  0  0  0  0  0
  -24.1484  -36.7309   23.2630 C   0  0  0  0  0  0
  -25.9436  -30.8156   21.3695 C   0  0  0  0  0  0
  -26.0173  -29.4447   20.7197 C   0  0  0  0  0  0
  -27.2068  -28.6698   20.7087 C   0  0  0  0  0  0
  -26.0380  -26.9268   19.4897 C   0  0  0  0  0  0
  -24.8600  -27.6936   19.4966 C   0  0  0  0  0  0
  -23.6194  -29.8257   20.1644 C   0  0  0  0  0  0
  -25.4106  -36.3106   24.0331 C   0  0  1  0  0  0
  -20.5880  -28.3671   23.1303 C   0  0  2  0  0  0
  -20.6774  -26.9399   22.5416 C   0  0  0  0  0  0
  -19.5750  -26.6381   21.5218 C   0  0  0  0  0  0
  -18.1931  -26.7924   22.1630 C   0  0  0  0  0  0
  -19.1541  -28.8838   23.2895 C   0  0  0  0  0  0
  -18.9462  -30.1447   23.8895 C   0  0  0  0  0  0
  -17.6462  -30.6576   24.0572 C   0  0  0  0  0  0
  -25.9038  -34.9472   23.5123 C   0  0  0  0  0  0
  -16.5355  -29.9079   23.6323 C   0  0  0  0  0  0
  -16.7278  -28.6501   23.0341 C   0  0  0  0  0  0
  -26.4486  -31.6582   25.0727 C   0  0  0  0  0  0
  -25.3741  -31.3702   26.1466 C   0  0  0  0  0  0
  -27.0313  -30.3013   24.6130 C   0  0  0  0  0  0
  -27.6064  -32.4294   25.7493 C   0  0  0  0  0  0
  -27.5576  -37.1814   24.8466 C   0  0  0  0  0  0
  -21.4153  -29.3043   22.3698 N   0  0  0  0  0  0
  -26.4285  -37.3797   23.9411 N   0  0  0  0  0  0
  -24.6761  -31.0726   22.0998 N   0  0  0  0  0  0
  -23.4181  -28.8184   23.3006 O   0  0  0  0  0  0
  -28.3578  -26.5935   20.0888 O   0  0  0  0  0  0
  -26.5589  -34.8920   22.4676 O   0  0  0  0  0  0
  -23.5371  -32.1409   23.7458 O   0  0  0  0  0  0
  -29.2979  -19.0674   20.3458 C   0  0  0  0  0  0
  -30.2055  -18.1528   19.6831 C   0  0  0  0  0  0
  -29.4947  -20.4091   20.0124 C   0  0  0  0  0  0
  -31.0895  -18.8169   18.8548 C   0  0  0  0  0  0
  -30.2886  -16.6424   19.7642 C   0  0  0  0  0  0
  -29.1577  -22.8281   20.2951 C   0  0  0  0  0  0
  -26.6828  -23.4197   20.1739 C   0  0  0  0  0  0
  -28.3478  -24.2604   18.4521 C   0  0  0  0  0  0
  -28.3073  -25.3080   20.7836 C   0  0  0  0  0  0
  -28.1179  -23.9629   19.9519 C   0  0  0  0  0  0
  -30.0143  -15.7637   20.6801 N   0  0  0  0  0  0
  -32.1134  -18.3423   18.0333 N   0  0  0  0  0  0
  -28.7543  -21.5239   20.3419 N   0  0  0  0  0  0
  -30.3317  -23.1414   20.5115 O   0  0  0  0  0  0
  -30.8379  -20.5332   18.8918 S   0  0  0  0  0  0
  -31.4517  -12.3768   19.1680 H   0  0  0  0  0  0
  -30.2692  -11.3465   19.9158 H   0  0  0  0  0  0
  -29.7519  -11.7320   17.4769 H   0  0  0  0  0  0
  -29.6677  -13.4558   17.7555 H   0  0  0  0  0  0
  -27.8433  -11.2965   18.8637 H   0  0  0  0  0  0
  -27.3727  -12.5807   17.7814 H   0  0  0  0  0  0
  -27.6594  -14.2620   19.4973 H   0  0  0  0  0  0
  -28.6645  -12.1300   21.4356 H   0  0  0  0  0  0
  -28.4545  -13.8280   21.7831 H   0  0  0  0  0  0
  -25.2773   -9.5689   22.4750 H   0  0  0  0  0  0
  -24.0011   -7.4640   22.7461 H   0  0  0  0  0  0
  -21.0853   -8.8779   19.8941 H   0  0  0  0  0  0
  -22.3711  -10.9676   19.6157 H   0  0  0  0  0  0
  -21.2004   -7.6151   23.9719 H   0  0  0  0  0  0
  -21.1485   -6.0518   25.9077 H   0  0  0  0  0  0
  -22.0598   -2.7612   23.2831 H   0  0  0  0  0  0
  -22.4121  -11.9874   22.4801 H   0  0  0  0  0  0
  -21.1109  -13.1223   22.2633 H   0  0  0  0  0  0
  -24.6707  -15.8588   20.5402 H   0  0  0  0  0  0
  -26.2995  -15.6278   20.1431 H   0  0  0  0  0  0
  -26.7139  -32.5492   23.1147 H   0  0  0  0  0  0
  -25.0124  -33.9772   25.0510 H   0  0  0  0  0  0
  -22.7014  -31.3100   21.4062 H   0  0  0  0  0  0
  -23.3739  -35.9654   23.3304 H   0  0  0  0  0  0
  -24.3565  -36.8914   22.2041 H   0  0  0  0  0  0
  -23.7232  -37.6513   23.6640 H   0  0  0  0  0  0
  -26.0615  -31.5767   20.5971 H   0  0  0  0  0  0
  -26.8311  -30.8696   21.9883 H   0  0  0  0  0  0
  -28.1064  -29.0472   21.1730 H   0  0  0  0  0  0
  -26.0137  -25.9833   18.9757 H   0  0  0  0  0  0
  -23.9698  -27.3129   19.0150 H   0  0  0  0  0  0
  -23.7368  -30.6007   19.4061 H   0  0  0  0  0  0
  -22.7415  -29.2504   19.8636 H   0  0  0  0  0  0
  -25.1282  -36.1967   25.0823 H   0  0  0  0  0  0
  -20.9992  -28.3241   24.1417 H   0  0  0  0  0  0
  -20.5679  -26.2278   23.3607 H   0  0  0  0  0  0
  -21.6636  -26.7425   22.1204 H   0  0  0  0  0  0
  -19.6898  -25.6299   21.1226 H   0  0  0  0  0  0
  -19.6683  -27.3209   20.6761 H   0  0  0  0  0  0
  -17.4201  -26.6693   21.4029 H   0  0  0  0  0  0
  -18.0309  -26.0066   22.9021 H   0  0  0  0  0  0
  -19.7941  -30.7278   24.2247 H   0  0  0  0  0  0
  -17.5016  -31.6249   24.5186 H   0  0  0  0  0  0
  -15.5354  -30.2983   23.7634 H   0  0  0  0  0  0
  -15.8686  -28.0821   22.7041 H   0  0  0  0  0  0
  -24.5942  -30.7016   25.7800 H   0  0  0  0  0  0
  -24.8909  -32.2858   26.4897 H   0  0  0  0  0  0
  -25.8094  -30.8880   27.0226 H   0  0  0  0  0  0
  -26.2861  -29.6776   24.1176 H   0  0  0  0  0  0
  -27.4038  -29.7252   25.4613 H   0  0  0  0  0  0
  -27.8722  -30.4304   23.9308 H   0  0  0  0  0  0
  -27.2694  -33.3603   26.2071 H   0  0  0  0  0  0
  -28.3872  -32.6846   25.0313 H   0  0  0  0  0  0
  -28.0727  -31.8398   26.5404 H   0  0  0  0  0  0
  -28.2611  -38.0098   24.7504 H   0  0  0  0  0  0
  -28.1056  -36.2634   24.6301 H   0  0  0  0  0  0
  -27.2292  -37.1462   25.8866 H   0  0  0  0  0  0
  -20.9307  -29.8792   21.6945 H   0  0  0  0  0  0
  -26.0175  -38.2874   24.1414 H   0  0  0  0  0  0
  -28.5273  -18.7034   21.0099 H   0  0  0  0  0  0
  -30.7404  -16.2752   18.8341 H   0  0  0  0  0  0
  -26.4386  -22.6155   19.4786 H   0  0  0  0  0  0
  -25.9194  -24.1799   20.0423 H   0  0  0  0  0  0
  -26.5545  -23.0398   21.1890 H   0  0  0  0  0  0
  -28.2862  -23.3524   17.8496 H   0  0  0  0  0  0
  -29.3347  -24.6945   18.2832 H   0  0  0  0  0  0
  -27.6218  -24.9588   18.0445 H   0  0  0  0  0  0
  -29.2447  -25.2646   21.3373 H   0  0  0  0  0  0
  -27.5505  -25.3595   21.5687 H   0  0  0  0  0  0
  -32.3970  -17.3722   17.9347 H   0  0  0  0  0  0
  -32.6801  -18.9628   17.4609 H   0  0  0  0  0  0
  -27.7555  -21.3836   20.4116 H   0  0  0  0  0  0
  1 25  1  0  0  0
  1 30  2  0  0  0
  1 81  1  0  0  0
  2  3  1  0  0  0
  2 25  1  0  0  0
  2 86  1  0  0  0
  2 87  1  0  0  0
  3  4  1  0  0  0
  3 88  1  0  0  0
  3 89  1  0  0  0
  4  5  1  0  0  0
  4 90  1  0  0  0
  4 91  1  0  0  0
  5  6  1  0  0  0
  5 26  1  0  0  0
  5 92  1  0  0  0
  6 25  1  0  0  0
  6 93  1  0  0  0
  6 94  1  0  0  0
  7  8  2  0  0  0
  7 26  1  0  0  0
  7 29  1  0  0  0
  8  9  1  0  0  0
  8 22  1  0  0  0
  9 10  1  0  0  0
  9 27  2  0  0  0
 10 11  2  0  0  0
 10 15  1  0  0  0
 11 12  1  0  0  0
 11 95  1  0  0  0
 12 13  2  0  0  0
 12 96  1  0  0  0
 13 14  1  0  0  0
 13 31  1  0  0  0
 14 15  2  0  0  0
 14 97  1  0  0  0
 15 98  1  0  0  0
 16 17  2  0  0  0
 16 21  1  0  0  0
 16 31  1  0  0  0
 17 18  1  0  0  0
 17 99  1  0  0  0
 18 19  2  0  0  0
 18100  1  0  0  0
 19 20  1  0  0  0
 19 24  1  0  0  0
 20 21  2  0  0  0
 20101  1  0  0  0
 21 23  1  0  0  0
 22 28  1  0  0  0
 22 32  2  0  0  0
 26 27  1  0  0  0
 28102  1  0  0  0
 28103  1  0  0  0
 29104  1  0  0  0
 29105  1  0  0  0
 33 34  1  0  0  0
 33 66  1  0  0  0
 33 70  2  0  0  0
 34 36  1  0  0  0
 34 59  1  0  0  0
 34106  1  0  0  0
 35 44  2  0  0  0
 35 45  1  0  0  0
 35 68  1  0  0  0
 36 56  1  0  0  0
 36107  1  0  0  0
 37 39  1  0  0  0
 37 47  1  0  0  0
 37 66  1  0  0  0
 37108  1  0  0  0
 38 43  2  0  0  0
 38 46  1  0  0  0
 38 47  1  0  0  0
 39 64  1  0  0  0
 39 67  2  0  0  0
 40 52  1  0  0  0
 40 53  2  0  0  0
 40 58  1  0  0  0
 41109  1  0  0  0
 41110  1  0  0  0
 41111  1  0  0  0
 41 48  1  0  0  0
 42 43  1  0  0  0
 42 66  1  0  0  0
 42112  1  0  0  0
 42113  1  0  0  0
 43 44  1  0  0  0
 44114  1  0  0  0
 45 46  2  0  0  0
 45115  1  0  0  0
 46116  1  0  0  0
 47117  1  0  0  0
 47118  1  0  0  0
 48 56  1  0  0  0
 48 65  1  0  0  0
 48119  1  0  0  0
 49 50  1  0  0  0
 49 53  1  0  0  0
 49 64  1  0  0  0
 49120  1  0  0  0
 50 51  1  0  0  0
 50121  1  0  0  0
 50122  1  0  0  0
 51 52  1  0  0  0
 51123  1  0  0  0
 51124  1  0  0  0
 52125  1  0  0  0
 52126  1  0  0  0
 53 54  1  0  0  0
 54 55  2  0  0  0
 54127  1  0  0  0
 55 57  1  0  0  0
 55128  1  0  0  0
 56 69  2  0  0  0
 57 58  2  0  0  0
 57129  1  0  0  0
 58130  1  0  0  0
 59 60  1  0  0  0
 59 61  1  0  0  0
 59 62  1  0  0  0
 60131  1  0  0  0
 60132  1  0  0  0
 60133  1  0  0  0
 61134  1  0  0  0
 61135  1  0  0  0
 61136  1  0  0  0
 62137  1  0  0  0
 62138  1  0  0  0
 62139  1  0  0  0
 63 65  1  0  0  0
 63140  1  0  0  0
 63141  1  0  0  0
 63142  1  0  0  0
 64143  1  0  0  0
 65144  1  0  0  0
 68 79  1  0  0  0
 71 72  1  0  0  0
 71 73  2  0  0  0
 71145  1  0  0  0
 72 74  2  0  0  0
 72 75  1  0  0  0
 73 83  1  0  0  0
 73 85  1  0  0  0
 74 82  1  0  0  0
 74 85  1  0  0  0
 75 81  2  0  0  0
 75146  1  0  0  0
 76 80  1  0  0  0
 76 83  1  0  0  0
 76 84  2  0  0  0
 77147  1  0  0  0
 77148  1  0  0  0
 77149  1  0  0  0
 77 80  1  0  0  0
 78 80  1  0  0  0
 78150  1  0  0  0
 78151  1  0  0  0
 78152  1  0  0  0
 79 80  1  0  0  0
 79153  1  0  0  0
 79154  1  0  0  0
 82155  1  0  0  0
 82156  1  0  0  0
 83157  1  0  0  0
M  ISO  4   1 100  68 101  79 101  81 100
M  END
> <chiral flag>
0

> <version>
0

> <s_m_source_file>
/data/baiqing/PycharmProjects/Reinvent-master-3.2/result/LINK_invent/BTK/process_docking_weight1_custom_product_contain_oxygen_bond_distance_aromatic_linkinvent_7_9_3/rearranged_h_0150.sdf

> <i_m_source_file_index>
90

> <r_mmod_Potential_Energy-OPLS-2005>
118.49284362793

> <r_mmod_Stretch_Energy-OPLS-2005>
61.9084434509277

> <r_mmod_Bend_Energy-OPLS-2005>
143.576354980469

> <r_mmod_Torsional_Energy-OPLS-2005>
257.294494628906

> <r_mmod_Improper_Torsional_Energy-OPLS-2005>
6.37191486358643

> <r_mmod_Van_der_Waal_Energy-OPLS-2005>
155.537734985352

> <r_mmod_Electrostatic_Energy-OPLS-2005>
-319.982147216797

> <r_mmod_Solvation_Energy-OPLS-2005>
-218.858551025391

> <b_mmod_Minimization_Converged-OPLS-2005>
0

> <r_mmod_RMS_Derivative-OPLS-2005>
1.31791591644287

$$$$
90
                    3D
 Structure written by MMmdl.
153162  0  0  1  0            999 V2000
  -30.5550  -14.7986   20.4696 C   0  0  0  0  0  0
  -30.4473  -12.4934   19.4778 C   0  0  0  0  0  0
  -29.5197  -12.5201   18.2399 C   0  0  0  0  0  0
  -28.0446  -12.3287   18.6496 C   0  0  0  0  0  0
  -27.6410  -13.2265   19.8482 C   0  0  2  0  0  0
  -28.6836  -13.1631   20.9865 C   0  0  0  0  0  0
  -25.2512  -13.8177   20.5693 C   0  0  0  0  0  0
  -24.1800  -13.0430   20.9207 C   0  0  0  0  0  0
  -24.6385  -11.6900   20.8731 C   0  0  0  0  0  0
  -23.9079  -10.4278   21.0412 C   0  0  0  0  0  0
  -24.3632   -9.4188   21.9193 C   0  0  0  0  0  0
  -23.6297   -8.2229   22.0764 C   0  0  0  0  0  0
  -22.4276   -8.0283   21.3551 C   0  0  0  0  0  0
  -21.9913   -9.0257   20.4653 C   0  0  0  0  0  0
  -22.7247  -10.2128   20.3066 C   0  0  0  0  0  0
  -21.6855   -6.0738   22.5286 C   0  0  0  0  0  0
  -21.4008   -6.5636   23.8221 C   0  0  0  0  0  0
  -21.3662   -5.6787   24.9180 C   0  0  0  0  0  0
  -21.6050   -4.3051   24.7224 C   0  0  0  0  0  0
  -21.8819   -3.8146   23.4340 C   0  0  0  0  0  0
  -21.9185   -4.6967   22.3398 C   0  0  0  0  0  0
  -22.7819  -13.5224   21.1867 C   0  0  0  0  0  0
  -22.1656   -4.2154   21.0978 F   0  0  0  0  0  0
  -21.5639   -3.4534   25.7732 F   0  0  0  0  0  0
  -29.9803  -13.5452   20.4116 N   0  0  0  0  0  0
  -26.2923  -12.9369   20.3236 N   0  0  0  0  0  0
  -25.9308  -11.6518   20.5706 N   0  0  0  0  0  0
  -22.0460  -12.8226   22.0433 N   0  0  0  0  0  0
  -25.4192  -15.1916   20.4116 N   0  0  0  0  0  0
  -31.7470  -14.9324   20.1671 O   0  0  0  0  0  0
  -21.6638   -6.8882   21.4248 O   0  0  0  0  0  0
  -22.3516  -14.5537   20.6708 O   0  0  0  0  0  0
  -24.6328  -31.8543   23.1972 C   0  0  0  0  0  0
  -25.9143  -32.4748   23.8334 C   0  0  1  0  0  0
  -27.2173  -27.2363   20.1570 C   0  0  0  0  0  0
  -25.5942  -33.8548   24.2258 N   0  0  0  0  0  0
  -23.4324  -30.4733   21.5405 C   0  0  2  0  0  0
  -24.8794  -28.9051   20.1262 C   0  0  0  0  0  0
  -22.7529  -29.4592   22.4918 C   0  0  0  0  0  0
  -18.0317  -28.1380   22.8494 C   0  0  0  0  0  0
  -24.1489  -36.7278   23.2642 C   0  0  0  0  0  0
  -25.9794  -30.7558   21.3843 C   0  0  0  0  0  0
  -26.0502  -29.3702   20.7400 C   0  0  0  0  0  0
  -27.2248  -28.5483   20.7427 C   0  0  0  0  0  0
  -26.0294  -26.8393   19.5143 C   0  0  0  0  0  0
  -24.8732  -27.6459   19.5049 C   0  0  0  0  0  0
  -23.6558  -29.8013   20.1601 C   0  0  0  0  0  0
  -25.4114  -36.3064   24.0332 C   0  0  1  0  0  0
  -20.5922  -28.3699   23.1252 C   0  0  2  0  0  0
  -20.6804  -26.9405   22.5417 C   0  0  0  0  0  0
  -19.5777  -26.6359   21.5227 C   0  0  0  0  0  0
  -18.1968  -26.7906   22.1667 C   0  0  0  0  0  0
  -19.1575  -28.8854   23.2867 C   0  0  0  0  0  0
  -18.9503  -30.1451   23.8879 C   0  0  0  0  0  0
  -17.6505  -30.6582   24.0565 C   0  0  0  0  0  0
  -25.9056  -34.9432   23.5097 C   0  0  0  0  0  0
  -16.5396  -29.9077   23.6340 C   0  0  0  0  0  0
  -16.7311  -28.6495   23.0358 C   0  0  0  0  0  0
  -26.4490  -31.6578   25.0735 C   0  0  0  0  0  0
  -25.3704  -31.3751   26.1466 C   0  0  0  0  0  0
  -27.0342  -30.2992   24.6231 C   0  0  0  0  0  0
  -27.6040  -32.4324   25.7508 C   0  0  0  0  0  0
  -27.5587  -37.1789   24.8461 C   0  0  0  0  0  0
  -21.4238  -29.3044   22.3650 N   0  0  0  0  0  0
  -26.4286  -37.3766   23.9415 N   0  0  0  0  0  0
  -24.7005  -31.0473   22.0965 N   0  0  0  0  0  0
  -23.4224  -28.8152   23.3043 O   0  0  0  0  0  0
  -28.3209  -26.3586   20.0839 O   0  0  0  0  0  0
  -26.5629  -34.8906   22.4666 O   0  0  0  0  0  0
  -23.5456  -32.1395   23.7224 O   0  0  0  0  0  0
  -28.8712  -18.3157   20.4814 C   0  0  0  0  0  0
  -29.3662  -19.7147   20.5127 C   0  0  0  0  0  0
  -29.8347  -17.2920   20.6101 C   0  0  0  0  0  0
  -26.7879  -23.3210   20.1770 C   0  0  0  0  0  0
  -28.0720  -23.6314   20.4199 C   0  0  0  0  0  0
  -26.2869  -21.9177   19.8796 C   0  0  0  0  0  0
  -29.1051  -22.4091   20.4851 C   0  0  0  0  0  0
  -27.3865  -20.8913   19.5200 C   0  0  0  0  0  0
  -28.4307  -25.1140   20.9251 C   0  0  0  0  0  0
  -30.6695  -19.7656   20.6944 N   0  0  0  0  0  0
  -28.5896  -20.9742   20.3549 N   0  0  0  0  0  0
  -29.6939  -15.8838   20.6533 N   0  0  0  0  0  0
  -31.3269  -18.1859   20.7769 S   0  0  0  0  0  0
  -31.4852  -12.6503   19.1784 H   0  0  0  0  0  0
  -30.4199  -11.5183   19.9660 H   0  0  0  0  0  0
  -29.8124  -11.7446   17.5301 H   0  0  0  0  0  0
  -29.6332  -13.4723   17.7179 H   0  0  0  0  0  0
  -27.9125  -11.2789   18.9134 H   0  0  0  0  0  0
  -27.3858  -12.5131   17.7991 H   0  0  0  0  0  0
  -27.6319  -14.2449   19.4590 H   0  0  0  0  0  0
  -28.7356  -12.1619   21.4160 H   0  0  0  0  0  0
  -28.4052  -13.8306   21.8040 H   0  0  0  0  0  0
  -25.2781   -9.5661   22.4772 H   0  0  0  0  0  0
  -24.0001   -7.4630   22.7492 H   0  0  0  0  0  0
  -21.0837   -8.8778   19.8976 H   0  0  0  0  0  0
  -22.3707  -10.9675   19.6183 H   0  0  0  0  0  0
  -21.1999   -7.6146   23.9730 H   0  0  0  0  0  0
  -21.1494   -6.0507   25.9087 H   0  0  0  0  0  0
  -22.0597   -2.7610   23.2832 H   0  0  0  0  0  0
  -22.4049  -11.9872   22.4810 H   0  0  0  0  0  0
  -21.1103  -13.1294   22.2688 H   0  0  0  0  0  0
  -24.6412  -15.8328   20.5219 H   0  0  0  0  0  0
  -26.2468  -15.6365   20.0377 H   0  0  0  0  0  0
  -26.7220  -32.5392   23.1082 H   0  0  0  0  0  0
  -25.0081  -33.9676   25.0402 H   0  0  0  0  0  0
  -22.7309  -31.2959   21.3902 H   0  0  0  0  0  0
  -23.3754  -35.9606   23.3276 H   0  0  0  0  0  0
  -24.3585  -36.8926   22.2062 H   0  0  0  0  0  0
  -23.7226  -37.6469   23.6671 H   0  0  0  0  0  0
  -26.1194  -31.5072   20.6064 H   0  0  0  0  0  0
  -26.8553  -30.8095   22.0189 H   0  0  0  0  0  0
  -28.1273  -28.9063   21.2168 H   0  0  0  0  0  0
  -25.9945  -25.8855   19.0089 H   0  0  0  0  0  0
  -23.9802  -27.2844   19.0148 H   0  0  0  0  0  0
  -23.7998  -30.5749   19.4055 H   0  0  0  0  0  0
  -22.7705  -29.2441   19.8474 H   0  0  0  0  0  0
  -25.1284  -36.1917   25.0821 H   0  0  0  0  0  0
  -21.0001  -28.3264   24.1380 H   0  0  0  0  0  0
  -20.5687  -26.2331   23.3654 H   0  0  0  0  0  0
  -21.6676  -26.7410   22.1222 H   0  0  0  0  0  0
  -19.6921  -25.6255   21.1294 H   0  0  0  0  0  0
  -19.6707  -27.3141   20.6736 H   0  0  0  0  0  0
  -17.4227  -26.6604   21.4086 H   0  0  0  0  0  0
  -18.0398  -26.0080   22.9106 H   0  0  0  0  0  0
  -19.7989  -30.7263   24.2228 H   0  0  0  0  0  0
  -17.5080  -31.6258   24.5171 H   0  0  0  0  0  0
  -15.5400  -30.2983   23.7669 H   0  0  0  0  0  0
  -15.8719  -28.0823   22.7059 H   0  0  0  0  0  0
  -24.5870  -30.7103   25.7813 H   0  0  0  0  0  0
  -24.8902  -32.2928   26.4868 H   0  0  0  0  0  0
  -25.8014  -30.8961   27.0265 H   0  0  0  0  0  0
  -26.2940  -29.6750   24.1217 H   0  0  0  0  0  0
  -27.3987  -29.7244   25.4752 H   0  0  0  0  0  0
  -27.8826  -30.4275   23.9508 H   0  0  0  0  0  0
  -27.2642  -33.3626   26.2071 H   0  0  0  0  0  0
  -28.3847  -32.6885   25.0334 H   0  0  0  0  0  0
  -28.0709  -31.8470   26.5441 H   0  0  0  0  0  0
  -28.2577  -38.0113   24.7531 H   0  0  0  0  0  0
  -28.1109  -36.2641   24.6245 H   0  0  0  0  0  0
  -27.2309  -37.1394   25.8865 H   0  0  0  0  0  0
  -20.9428  -29.8816   21.6889 H   0  0  0  0  0  0
  -26.0167  -38.2836   24.1429 H   0  0  0  0  0  0
  -27.8177  -18.1093   20.3665 H   0  0  0  0  0  0
  -26.0265  -24.0825   20.2636 H   0  0  0  0  0  0
  -25.5611  -21.9690   19.0668 H   0  0  0  0  0  0
  -25.7369  -21.5782   20.7576 H   0  0  0  0  0  0
  -29.6350  -22.4793   21.4349 H   0  0  0  0  0  0
  -29.8521  -22.5779   19.7090 H   0  0  0  0  0  0
  -27.6958  -21.0470   18.4844 H   0  0  0  0  0  0
  -26.9423  -19.8972   19.5465 H   0  0  0  0  0  0
  -29.4789  -25.0717   21.2211 H   0  0  0  0  0  0
  -27.8911  -25.2837   21.8583 H   0  0  0  0  0  0
  -28.7480  -15.5776   20.8137 H   0  0  0  0  0  0
  1 25  1  0  0  0
  1 30  2  0  0  0
  1 82  1  0  0  0
  2  3  1  0  0  0
  2 25  1  0  0  0
  2 84  1  0  0  0
  2 85  1  0  0  0
  3  4  1  0  0  0
  3 86  1  0  0  0
  3 87  1  0  0  0
  4  5  1  0  0  0
  4 88  1  0  0  0
  4 89  1  0  0  0
  5  6  1  0  0  0
  5 26  1  0  0  0
  5 90  1  0  0  0
  6 25  1  0  0  0
  6 91  1  0  0  0
  6 92  1  0  0  0
  7  8  2  0  0  0
  7 26  1  0  0  0
  7 29  1  0  0  0
  8  9  1  0  0  0
  8 22  1  0  0  0
  9 10  1  0  0  0
  9 27  2  0  0  0
 10 11  2  0  0  0
 10 15  1  0  0  0
 11 12  1  0  0  0
 11 93  1  0  0  0
 12 13  2  0  0  0
 12 94  1  0  0  0
 13 14  1  0  0  0
 13 31  1  0  0  0
 14 15  2  0  0  0
 14 95  1  0  0  0
 15 96  1  0  0  0
 16 17  2  0  0  0
 16 21  1  0  0  0
 16 31  1  0  0  0
 17 18  1  0  0  0
 17 97  1  0  0  0
 18 19  2  0  0  0
 18 98  1  0  0  0
 19 20  1  0  0  0
 19 24  1  0  0  0
 20 21  2  0  0  0
 20 99  1  0  0  0
 21 23  1  0  0  0
 22 28  1  0  0  0
 22 32  2  0  0  0
 26 27  1  0  0  0
 28100  1  0  0  0
 28101  1  0  0  0
 29102  1  0  0  0
 29103  1  0  0  0
 33 34  1  0  0  0
 33 66  1  0  0  0
 33 70  2  0  0  0
 34 36  1  0  0  0
 34 59  1  0  0  0
 34104  1  0  0  0
 35 44  2  0  0  0
 35 45  1  0  0  0
 35 68  1  0  0  0
 36 56  1  0  0  0
 36105  1  0  0  0
 37 39  1  0  0  0
 37 47  1  0  0  0
 37 66  1  0  0  0
 37106  1  0  0  0
 38 43  2  0  0  0
 38 46  1  0  0  0
 38 47  1  0  0  0
 39 64  1  0  0  0
 39 67  2  0  0  0
 40 52  1  0  0  0
 40 53  2  0  0  0
 40 58  1  0  0  0
 41107  1  0  0  0
 41108  1  0  0  0
 41109  1  0  0  0
 41 48  1  0  0  0
 42 43  1  0  0  0
 42 66  1  0  0  0
 42110  1  0  0  0
 42111  1  0  0  0
 43 44  1  0  0  0
 44112  1  0  0  0
 45 46  2  0  0  0
 45113  1  0  0  0
 46114  1  0  0  0
 47115  1  0  0  0
 47116  1  0  0  0
 48 56  1  0  0  0
 48 65  1  0  0  0
 48117  1  0  0  0
 49 50  1  0  0  0
 49 53  1  0  0  0
 49 64  1  0  0  0
 49118  1  0  0  0
 50 51  1  0  0  0
 50119  1  0  0  0
 50120  1  0  0  0
 51 52  1  0  0  0
 51121  1  0  0  0
 51122  1  0  0  0
 52123  1  0  0  0
 52124  1  0  0  0
 53 54  1  0  0  0
 54 55  2  0  0  0
 54125  1  0  0  0
 55 57  1  0  0  0
 55126  1  0  0  0
 56 69  2  0  0  0
 57 58  2  0  0  0
 57127  1  0  0  0
 58128  1  0  0  0
 59 60  1  0  0  0
 59 61  1  0  0  0
 59 62  1  0  0  0
 60129  1  0  0  0
 60130  1  0  0  0
 60131  1  0  0  0
 61132  1  0  0  0
 61133  1  0  0  0
 61134  1  0  0  0
 62135  1  0  0  0
 62136  1  0  0  0
 62137  1  0  0  0
 63 65  1  0  0  0
 63138  1  0  0  0
 63139  1  0  0  0
 63140  1  0  0  0
 64141  1  0  0  0
 65142  1  0  0  0
 68 79  1  0  0  0
 71 72  1  0  0  0
 71 73  2  0  0  0
 71143  1  0  0  0
 72 80  2  0  0  0
 72 81  1  0  0  0
 73 82  1  0  0  0
 73 83  1  0  0  0
 74 75  2  0  0  0
 74 76  1  0  0  0
 74144  1  0  0  0
 75 77  1  0  0  0
 75 79  1  0  0  0
 76 78  1  0  0  0
 76145  1  0  0  0
 76146  1  0  0  0
 77 81  1  0  0  0
 77147  1  0  0  0
 77148  1  0  0  0
 78 81  1  0  0  0
 78149  1  0  0  0
 78150  1  0  0  0
 79151  1  0  0  0
 79152  1  0  0  0
 80 83  1  0  0  0
 82153  1  0  0  0
M  ISO  4   1 100  68 101  79 101  82 100
M  END
> <chiral flag>
0

> <version>
0

> <s_m_source_file>
/data/baiqing/PycharmProjects/Reinvent-master-3.2/result/LINK_invent/BTK/process_docking_weight1_custom_product_contain_oxygen_bond_distance_aromatic_linkinvent_7_9_3/rearranged_h_0150.sdf

> <i_m_source_file_index>
91

> <r_mmod_Potential_Energy-OPLS-2005>
156.043991088867

> <r_mmod_Stretch_Energy-OPLS-2005>
133.397079467773

> <r_mmod_Bend_Energy-OPLS-2005>
189.307159423828

> <r_mmod_Torsional_Energy-OPLS-2005>
235.589172363281

> <r_mmod_Improper_Torsional_Energy-OPLS-2005>
7.4668869972229

> <r_mmod_Van_der_Waal_Energy-OPLS-2005>
116.255592346191

> <r_mmod_Electrostatic_Energy-OPLS-2005>
-387.562744140625

> <r_mmod_Solvation_Energy-OPLS-2005>
-240.657165527344

> <b_mmod_Minimization_Converged-OPLS-2005>
0

> <r_mmod_RMS_Derivative-OPLS-2005>
2.55229544639587

$$$$
91
                    3D
 Structure written by MMmdl.
161170  0  0  1  0            999 V2000
  -30.6195  -14.7336   20.4295 C   0  0  0  0  0  0
  -30.4286  -12.4377   19.4855 C   0  0  0  0  0  0
  -29.5138  -12.5053   18.2422 C   0  0  0  0  0  0
  -28.0385  -12.3357   18.6511 C   0  0  0  0  0  0
  -27.6445  -13.2348   19.8529 C   0  0  2  0  0  0
  -28.6869  -13.1689   20.9923 C   0  0  0  0  0  0
  -25.2516  -13.8203   20.5700 C   0  0  0  0  0  0
  -24.1800  -13.0446   20.9192 C   0  0  0  0  0  0
  -24.6396  -11.6924   20.8734 C   0  0  0  0  0  0
  -23.9080  -10.4295   21.0403 C   0  0  0  0  0  0
  -24.3627   -9.4210   21.9176 C   0  0  0  0  0  0
  -23.6299   -8.2253   22.0756 C   0  0  0  0  0  0
  -22.4279   -8.0293   21.3553 C   0  0  0  0  0  0
  -21.9911   -9.0263   20.4654 C   0  0  0  0  0  0
  -22.7250  -10.2136   20.3055 C   0  0  0  0  0  0
  -21.6853   -6.0736   22.5274 C   0  0  0  0  0  0
  -21.4019   -6.5637   23.8209 C   0  0  0  0  0  0
  -21.3658   -5.6791   24.9171 C   0  0  0  0  0  0
  -21.6042   -4.3053   24.7219 C   0  0  0  0  0  0
  -21.8819   -3.8146   23.4341 C   0  0  0  0  0  0
  -21.9194   -4.6965   22.3399 C   0  0  0  0  0  0
  -22.7821  -13.5230   21.1854 C   0  0  0  0  0  0
  -22.1662   -4.2154   21.0979 F   0  0  0  0  0  0
  -21.5626   -3.4532   25.7729 F   0  0  0  0  0  0
  -29.9948  -13.5063   20.4172 N   0  0  0  0  0  0
  -26.2954  -12.9419   20.3287 N   0  0  0  0  0  0
  -25.9329  -11.6558   20.5744 N   0  0  0  0  0  0
  -22.0476  -12.8218   22.0413 N   0  0  0  0  0  0
  -25.4207  -15.1930   20.4132 N   0  0  0  0  0  0
  -31.8027  -14.8170   20.0889 O   0  0  0  0  0  0
  -21.6647   -6.8886   21.4240 O   0  0  0  0  0  0
  -22.3504  -14.5533   20.6702 O   0  0  0  0  0  0
  -24.6329  -31.8547   23.1994 C   0  0  0  0  0  0
  -25.9153  -32.4754   23.8336 C   0  0  1  0  0  0
  -27.2136  -27.2530   20.1158 C   0  0  0  0  0  0
  -25.5939  -33.8553   24.2258 N   0  0  0  0  0  0
  -23.4292  -30.4794   21.5436 C   0  0  2  0  0  0
  -24.8747  -28.9313   20.1072 C   0  0  0  0  0  0
  -22.7511  -29.4595   22.4909 C   0  0  0  0  0  0
  -18.0300  -28.1394   22.8477 C   0  0  0  0  0  0
  -24.1490  -36.7285   23.2640 C   0  0  0  0  0  0
  -25.9778  -30.7632   21.3830 C   0  0  0  0  0  0
  -26.0483  -29.3867   20.7212 C   0  0  0  0  0  0
  -27.2190  -28.5589   20.7182 C   0  0  0  0  0  0
  -26.0175  -26.8803   19.4583 C   0  0  0  0  0  0
  -24.8651  -27.6861   19.4664 C   0  0  0  0  0  0
  -23.6464  -29.8186   20.1581 C   0  0  0  0  0  0
  -25.4116  -36.3066   24.0326 C   0  0  1  0  0  0
  -20.5902  -28.3699   23.1260 C   0  0  2  0  0  0
  -20.6781  -26.9413   22.5404 C   0  0  0  0  0  0
  -19.5753  -26.6382   21.5209 C   0  0  0  0  0  0
  -18.1936  -26.7935   22.1626 C   0  0  0  0  0  0
  -19.1552  -28.8865   23.2864 C   0  0  0  0  0  0
  -18.9472  -30.1464   23.8881 C   0  0  0  0  0  0
  -17.6466  -30.6585   24.0563 C   0  0  0  0  0  0
  -25.9056  -34.9440   23.5096 C   0  0  0  0  0  0
  -16.5361  -29.9080   23.6331 C   0  0  0  0  0  0
  -16.7284  -28.6506   23.0345 C   0  0  0  0  0  0
  -26.4511  -31.6579   25.0731 C   0  0  0  0  0  0
  -25.3723  -31.3750   26.1446 C   0  0  0  0  0  0
  -27.0361  -30.2982   24.6249 C   0  0  0  0  0  0
  -27.6058  -32.4328   25.7509 C   0  0  0  0  0  0
  -27.5574  -37.1807   24.8468 C   0  0  0  0  0  0
  -21.4219  -29.3043   22.3648 N   0  0  0  0  0  0
  -26.4296  -37.3754   23.9398 N   0  0  0  0  0  0
  -24.6993  -31.0506   22.0975 N   0  0  0  0  0  0
  -23.4212  -28.8127   23.2999 O   0  0  0  0  0  0
  -28.2957  -26.3366   20.1893 O   0  0  0  0  0  0
  -26.5621  -34.8910   22.4660 O   0  0  0  0  0  0
  -23.5477  -32.1377   23.7282 O   0  0  0  0  0  0
  -29.9562  -19.6206   18.4025 C   0  0  0  0  0  0
  -29.5378  -18.4999   20.5169 C   0  0  0  0  0  0
  -30.3757  -17.2138   18.6223 C   0  0  0  0  0  0
  -29.5384  -19.7460   19.7498 C   0  0  0  0  0  0
  -30.3733  -18.3916   17.8497 C   0  0  0  0  0  0
  -29.9520  -17.2054   19.9720 C   0  0  0  0  0  0
  -28.6968  -22.9956   21.6265 C   0  0  0  0  0  0
  -29.2017  -21.5163   21.6020 C   0  0  0  0  0  0
  -28.8895  -22.3034   19.3830 C   0  0  0  0  0  0
  -29.0204  -23.6373   20.2526 C   0  0  2  0  0  0
  -30.4827  -24.1150   20.2042 C   0  0  0  0  0  0
  -28.0685  -24.8888   19.8246 C   0  0  0  0  0  0
  -29.1491  -21.0770   20.2137 N   0  0  0  0  0  0
  -30.7784  -18.3377   16.5133 N   0  0  0  0  0  0
  -29.8702  -15.8828   20.6587 N   0  0  0  0  0  0
  -31.4731  -12.5402   19.1871 H   0  0  0  0  0  0
  -30.3538  -11.4616   19.9672 H   0  0  0  0  0  0
  -29.7940  -11.7329   17.5241 H   0  0  0  0  0  0
  -29.6488  -13.4616   17.7337 H   0  0  0  0  0  0
  -27.8899  -11.2861   18.9099 H   0  0  0  0  0  0
  -27.3860  -12.5357   17.8001 H   0  0  0  0  0  0
  -27.6408  -14.2568   19.4736 H   0  0  0  0  0  0
  -28.7117  -12.1732   21.4379 H   0  0  0  0  0  0
  -28.4240  -13.8585   21.7957 H   0  0  0  0  0  0
  -25.2771   -9.5670   22.4747 H   0  0  0  0  0  0
  -23.9998   -7.4635   22.7467 H   0  0  0  0  0  0
  -21.0843   -8.8785   19.8955 H   0  0  0  0  0  0
  -22.3717  -10.9668   19.6161 H   0  0  0  0  0  0
  -21.2022   -7.6142   23.9712 H   0  0  0  0  0  0
  -21.1477   -6.0523   25.9074 H   0  0  0  0  0  0
  -22.0601   -2.7608   23.2844 H   0  0  0  0  0  0
  -22.4097  -11.9886   22.4805 H   0  0  0  0  0  0
  -21.1090  -13.1235   22.2616 H   0  0  0  0  0  0
  -24.6550  -15.8478   20.5285 H   0  0  0  0  0  0
  -26.2715  -15.6330   20.0852 H   0  0  0  0  0  0
  -26.7215  -32.5397   23.1070 H   0  0  0  0  0  0
  -25.0073  -33.9680   25.0398 H   0  0  0  0  0  0
  -22.7264  -31.3025   21.4001 H   0  0  0  0  0  0
  -23.3737  -35.9634   23.3330 H   0  0  0  0  0  0
  -24.3569  -36.8877   22.2047 H   0  0  0  0  0  0
  -23.7270  -37.6507   23.6644 H   0  0  0  0  0  0
  -26.1230  -31.5256   20.6165 H   0  0  0  0  0  0
  -26.8531  -30.8081   22.0192 H   0  0  0  0  0  0
  -28.1138  -28.8987   21.2208 H   0  0  0  0  0  0
  -25.9300  -25.9401   18.9361 H   0  0  0  0  0  0
  -23.9694  -27.3362   18.9720 H   0  0  0  0  0  0
  -23.7706  -30.5971   19.4046 H   0  0  0  0  0  0
  -22.7643  -29.2540   19.8508 H   0  0  0  0  0  0
  -25.1302  -36.1919   25.0819 H   0  0  0  0  0  0
  -21.0000  -28.3281   24.1380 H   0  0  0  0  0  0
  -20.5676  -26.2305   23.3609 H   0  0  0  0  0  0
  -21.6649  -26.7428   22.1199 H   0  0  0  0  0  0
  -19.6908  -25.6290   21.1240 H   0  0  0  0  0  0
  -19.6688  -27.3189   20.6734 H   0  0  0  0  0  0
  -17.4199  -26.6675   21.4035 H   0  0  0  0  0  0
  -18.0341  -26.0085   22.9032 H   0  0  0  0  0  0
  -19.7947  -30.7292   24.2238 H   0  0  0  0  0  0
  -17.5018  -31.6263   24.5174 H   0  0  0  0  0  0
  -15.5357  -30.2975   23.7663 H   0  0  0  0  0  0
  -15.8689  -28.0822   22.7057 H   0  0  0  0  0  0
  -24.5889  -30.7107   25.7778 H   0  0  0  0  0  0
  -24.8927  -32.2932   26.4845 H   0  0  0  0  0  0
  -25.8022  -30.8940   27.0238 H   0  0  0  0  0  0
  -26.2953  -29.6721   24.1255 H   0  0  0  0  0  0
  -27.4002  -29.7257   25.4793 H   0  0  0  0  0  0
  -27.8852  -30.4240   23.9527 H   0  0  0  0  0  0
  -27.2656  -33.3636   26.2057 H   0  0  0  0  0  0
  -28.3876  -32.6873   25.0341 H   0  0  0  0  0  0
  -28.0709  -31.8472   26.5449 H   0  0  0  0  0  0
  -28.2615  -38.0077   24.7462 H   0  0  0  0  0  0
  -28.1048  -36.2608   24.6363 H   0  0  0  0  0  0
  -27.2285  -37.1540   25.8869 H   0  0  0  0  0  0
  -20.9407  -29.8773   21.6858 H   0  0  0  0  0  0
  -26.0184  -38.2839   24.1356 H   0  0  0  0  0  0
  -29.9721  -20.4834   17.7565 H   0  0  0  0  0  0
  -29.1957  -18.5325   21.5408 H   0  0  0  0  0  0
  -30.6802  -16.2902   18.1490 H   0  0  0  0  0  0
  -29.1141  -23.5592   22.4618 H   0  0  0  0  0  0
  -27.6153  -22.9834   21.7708 H   0  0  0  0  0  0
  -28.5974  -20.8802   22.2498 H   0  0  0  0  0  0
  -30.2339  -21.4602   21.9506 H   0  0  0  0  0  0
  -29.5499  -22.3673   18.5196 H   0  0  0  0  0  0
  -27.8746  -22.2272   18.9898 H   0  0  0  0  0  0
  -31.1776  -23.3170   20.4669 H   0  0  0  0  0  0
  -30.6506  -24.9424   20.8942 H   0  0  0  0  0  0
  -30.7456  -24.4632   19.2049 H   0  0  0  0  0  0
  -27.0720  -24.6023   20.1599 H   0  0  0  0  0  0
  -28.0235  -24.8786   18.7350 H   0  0  0  0  0  0
  -30.5286  -19.0993   15.8882 H   0  0  0  0  0  0
  -30.8162  -17.4389   16.0403 H   0  0  0  0  0  0
  -29.0192  -15.7248   21.1782 H   0  0  0  0  0  0
  1 25  1  0  0  0
  1 30  2  0  0  0
  1 85  1  0  0  0
  2  3  1  0  0  0
  2 25  1  0  0  0
  2 86  1  0  0  0
  2 87  1  0  0  0
  3  4  1  0  0  0
  3 88  1  0  0  0
  3 89  1  0  0  0
  4  5  1  0  0  0
  4 90  1  0  0  0
  4 91  1  0  0  0
  5  6  1  0  0  0
  5 26  1  0  0  0
  5 92  1  0  0  0
  6 25  1  0  0  0
  6 93  1  0  0  0
  6 94  1  0  0  0
  7  8  2  0  0  0
  7 26  1  0  0  0
  7 29  1  0  0  0
  8  9  1  0  0  0
  8 22  1  0  0  0
  9 10  1  0  0  0
  9 27  2  0  0  0
 10 11  2  0  0  0
 10 15  1  0  0  0
 11 12  1  0  0  0
 11 95  1  0  0  0
 12 13  2  0  0  0
 12 96  1  0  0  0
 13 14  1  0  0  0
 13 31  1  0  0  0
 14 15  2  0  0  0
 14 97  1  0  0  0
 15 98  1  0  0  0
 16 17  2  0  0  0
 16 21  1  0  0  0
 16 31  1  0  0  0
 17 18  1  0  0  0
 17 99  1  0  0  0
 18 19  2  0  0  0
 18100  1  0  0  0
 19 20  1  0  0  0
 19 24  1  0  0  0
 20 21  2  0  0  0
 20101  1  0  0  0
 21 23  1  0  0  0
 22 28  1  0  0  0
 22 32  2  0  0  0
 26 27  1  0  0  0
 28102  1  0  0  0
 28103  1  0  0  0
 29104  1  0  0  0
 29105  1  0  0  0
 33 34  1  0  0  0
 33 66  1  0  0  0
 33 70  2  0  0  0
 34 36  1  0  0  0
 34 59  1  0  0  0
 34106  1  0  0  0
 35 44  2  0  0  0
 35 45  1  0  0  0
 35 68  1  0  0  0
 36 56  1  0  0  0
 36107  1  0  0  0
 37 39  1  0  0  0
 37 47  1  0  0  0
 37 66  1  0  0  0
 37108  1  0  0  0
 38 43  2  0  0  0
 38 46  1  0  0  0
 38 47  1  0  0  0
 39 64  1  0  0  0
 39 67  2  0  0  0
 40 52  1  0  0  0
 40 53  2  0  0  0
 40 58  1  0  0  0
 41109  1  0  0  0
 41110  1  0  0  0
 41111  1  0  0  0
 41 48  1  0  0  0
 42 43  1  0  0  0
 42 66  1  0  0  0
 42112  1  0  0  0
 42113  1  0  0  0
 43 44  1  0  0  0
 44114  1  0  0  0
 45 46  2  0  0  0
 45115  1  0  0  0
 46116  1  0  0  0
 47117  1  0  0  0
 47118  1  0  0  0
 48 56  1  0  0  0
 48 65  1  0  0  0
 48119  1  0  0  0
 49 50  1  0  0  0
 49 53  1  0  0  0
 49 64  1  0  0  0
 49120  1  0  0  0
 50 51  1  0  0  0
 50121  1  0  0  0
 50122  1  0  0  0
 51 52  1  0  0  0
 51123  1  0  0  0
 51124  1  0  0  0
 52125  1  0  0  0
 52126  1  0  0  0
 53 54  1  0  0  0
 54 55  2  0  0  0
 54127  1  0  0  0
 55 57  1  0  0  0
 55128  1  0  0  0
 56 69  2  0  0  0
 57 58  2  0  0  0
 57129  1  0  0  0
 58130  1  0  0  0
 59 60  1  0  0  0
 59 61  1  0  0  0
 59 62  1  0  0  0
 60131  1  0  0  0
 60132  1  0  0  0
 60133  1  0  0  0
 61134  1  0  0  0
 61135  1  0  0  0
 61136  1  0  0  0
 62137  1  0  0  0
 62138  1  0  0  0
 62139  1  0  0  0
 63 65  1  0  0  0
 63140  1  0  0  0
 63141  1  0  0  0
 63142  1  0  0  0
 64143  1  0  0  0
 65144  1  0  0  0
 68 82  1  0  0  0
 71 74  2  0  0  0
 71 75  1  0  0  0
 71145  1  0  0  0
 72 74  1  0  0  0
 72 76  2  0  0  0
 72146  1  0  0  0
 73 75  2  0  0  0
 73 76  1  0  0  0
 73147  1  0  0  0
 74 83  1  0  0  0
 75 84  1  0  0  0
 76 85  1  0  0  0
 77 78  1  0  0  0
 77 80  1  0  0  0
 77148  1  0  0  0
 77149  1  0  0  0
 78 83  1  0  0  0
 78150  1  0  0  0
 78151  1  0  0  0
 79 80  1  0  0  0
 79 83  1  0  0  0
 79152  1  0  0  0
 79153  1  0  0  0
 80 81  1  0  0  0
 80 82  1  0  0  0
 81154  1  0  0  0
 81155  1  0  0  0
 81156  1  0  0  0
 82157  1  0  0  0
 82158  1  0  0  0
 84159  1  0  0  0
 84160  1  0  0  0
 85161  1  0  0  0
M  ISO  4   1 100  68 101  82 101  85 100
M  END
> <chiral flag>
0

> <version>
0

> <s_m_source_file>
/data/baiqing/PycharmProjects/Reinvent-master-3.2/result/LINK_invent/BTK/process_docking_weight1_custom_product_contain_oxygen_bond_distance_aromatic_linkinvent_7_9_3/rearranged_h_0150.sdf

> <i_m_source_file_index>
92

> <r_mmod_Potential_Energy-OPLS-2005>
350.068786621094

> <r_mmod_Stretch_Energy-OPLS-2005>
126.80046081543

> <r_mmod_Bend_Energy-OPLS-2005>
212.038696289062

> <r_mmod_Torsional_Energy-OPLS-2005>
301.58154296875

> <r_mmod_Improper_Torsional_Energy-OPLS-2005>
7.94876766204834

> <r_mmod_Van_der_Waal_Energy-OPLS-2005>
141.986694335938

> <r_mmod_Electrostatic_Energy-OPLS-2005>
-289.572143554688

> <r_mmod_Solvation_Energy-OPLS-2005>
-238.087997436523

> <b_mmod_Minimization_Converged-OPLS-2005>
0

> <r_mmod_RMS_Derivative-OPLS-2005>
1.45918798446655

$$$$
92
                    3D
 Structure written by MMmdl.
164174  0  0  1  0            999 V2000
  -30.7211  -14.4602   20.6072 C   0  0  0  0  0  0
  -30.4100  -12.3169   19.4156 C   0  0  0  0  0  0
  -29.4860  -12.5041   18.1985 C   0  0  0  0  0  0
  -28.0109  -12.3560   18.6158 C   0  0  0  0  0  0
  -27.6530  -13.2083   19.8635 C   0  0  2  0  0  0
  -28.6926  -13.0051   20.9865 C   0  0  0  0  0  0
  -25.2560  -13.8161   20.5664 C   0  0  0  0  0  0
  -24.1830  -13.0432   20.9180 C   0  0  0  0  0  0
  -24.6374  -11.6900   20.8725 C   0  0  0  0  0  0
  -23.9042  -10.4284   21.0396 C   0  0  0  0  0  0
  -24.3606   -9.4208   21.9178 C   0  0  0  0  0  0
  -23.6288   -8.2239   22.0748 C   0  0  0  0  0  0
  -22.4268   -8.0275   21.3544 C   0  0  0  0  0  0
  -21.9902   -9.0242   20.4646 C   0  0  0  0  0  0
  -22.7217  -10.2120   20.3056 C   0  0  0  0  0  0
  -21.6859   -6.0728   22.5282 C   0  0  0  0  0  0
  -21.4007   -6.5637   23.8213 C   0  0  0  0  0  0
  -21.3660   -5.6794   24.9179 C   0  0  0  0  0  0
  -21.6053   -4.3059   24.7230 C   0  0  0  0  0  0
  -21.8818   -3.8144   23.4357 C   0  0  0  0  0  0
  -21.9190   -4.6956   22.3409 C   0  0  0  0  0  0
  -22.7870  -13.5236   21.1869 C   0  0  0  0  0  0
  -22.1661   -4.2145   21.0988 F   0  0  0  0  0  0
  -21.5636   -3.4549   25.7743 F   0  0  0  0  0  0
  -30.0175  -13.3113   20.4268 N   0  0  0  0  0  0
  -26.2968  -12.9327   20.3303 N   0  0  0  0  0  0
  -25.9298  -11.6485   20.5733 N   0  0  0  0  0  0
  -22.0526  -12.8214   22.0422 N   0  0  0  0  0  0
  -25.4305  -15.1871   20.4100 N   0  0  0  0  0  0
  -31.8404  -14.6341   20.1172 O   0  0  0  0  0  0
  -21.6645   -6.8865   21.4241 O   0  0  0  0  0  0
  -22.3568  -14.5549   20.6725 O   0  0  0  0  0  0
  -24.6143  -31.8700   23.2130 C   0  0  0  0  0  0
  -25.9038  -32.4826   23.8419 C   0  0  1  0  0  0
  -27.2130  -27.4136   20.0838 C   0  0  0  0  0  0
  -25.5902  -33.8627   24.2342 N   0  0  0  0  0  0
  -23.4015  -30.4975   21.5536 C   0  0  2  0  0  0
  -24.8418  -28.9679   20.1092 C   0  0  0  0  0  0
  -22.7408  -29.4678   22.4981 C   0  0  0  0  0  0
  -18.0275  -28.1376   22.8494 C   0  0  0  0  0  0
  -24.1486  -36.7315   23.2642 C   0  0  0  0  0  0
  -25.9340  -30.8222   21.3763 C   0  0  0  0  0  0
  -26.0012  -29.4559   20.7227 C   0  0  0  0  0  0
  -27.1837  -28.6789   20.7213 C   0  0  0  0  0  0
  -26.0483  -26.9801   19.4155 C   0  0  0  0  0  0
  -24.8611  -27.7283   19.4542 C   0  0  0  0  0  0
  -23.6079  -29.8384   20.1644 C   0  0  0  0  0  0
  -25.4108  -36.3117   24.0339 C   0  0  1  0  0  0
  -20.5861  -28.3681   23.1320 C   0  0  2  0  0  0
  -20.6779  -26.9415   22.5424 C   0  0  0  0  0  0
  -19.5757  -26.6384   21.5225 C   0  0  0  0  0  0
  -18.1932  -26.7907   22.1643 C   0  0  0  0  0  0
  -19.1514  -28.8835   23.2905 C   0  0  0  0  0  0
  -18.9438  -30.1446   23.8908 C   0  0  0  0  0  0
  -17.6442  -30.6584   24.0556 C   0  0  0  0  0  0
  -25.9034  -34.9479   23.5139 C   0  0  0  0  0  0
  -16.5332  -29.9077   23.6328 C   0  0  0  0  0  0
  -16.7257  -28.6499   23.0352 C   0  0  0  0  0  0
  -26.4467  -31.6604   25.0747 C   0  0  0  0  0  0
  -25.3734  -31.3710   26.1493 C   0  0  0  0  0  0
  -27.0307  -30.3047   24.6145 C   0  0  0  0  0  0
  -27.6046  -32.4321   25.7497 C   0  0  0  0  0  0
  -27.5583  -37.1818   24.8470 C   0  0  0  0  0  0
  -21.4132  -29.3053   22.3727 N   0  0  0  0  0  0
  -26.4298  -37.3795   23.9410 N   0  0  0  0  0  0
  -24.6674  -31.0811   22.1031 N   0  0  0  0  0  0
  -23.4192  -28.8214   23.3002 O   0  0  0  0  0  0
  -28.3717  -26.6592   20.1376 O   0  0  0  0  0  0
  -26.5598  -34.8918   22.4704 O   0  0  0  0  0  0
  -23.5333  -32.1464   23.7521 O   0  0  0  0  0  0
  -29.6142  -20.6929   22.5404 C   0  0  0  0  0  0
  -30.7713  -20.0997   23.0667 C   0  0  0  0  0  0
  -29.0377  -18.5788   21.4643 C   0  0  0  0  0  0
  -31.8980  -16.4113   22.6004 C   0  0  0  0  0  0
  -30.1902  -17.9295   21.9904 C   0  0  0  0  0  0
  -28.7514  -19.9502   21.7145 C   0  0  0  0  0  0
  -30.7192  -16.5661   21.9062 C   0  0  0  0  0  0
  -31.0546  -18.7495   22.7957 C   0  0  0  0  0  0
  -27.4829  -20.5590   21.2667 C   0  0  0  0  0  0
  -26.2708  -23.8883   20.1409 C   0  0  0  0  0  0
  -26.0129  -22.4305   20.5445 C   0  0  0  0  0  0
  -28.3826  -22.7709   20.3183 C   0  0  0  0  0  0
  -27.7485  -24.1790   20.4643 C   0  0  1  0  0  0
  -28.4387  -25.3066   19.6160 C   0  0  0  0  0  0
  -27.3356  -21.8147   20.7420 N   0  0  0  0  0  0
  -30.0813  -15.4678   21.2411 N   0  0  0  0  0  0
  -26.3939  -19.7974   21.4468 N   0  3  0  0  0  0
  -27.9153  -24.5694   21.8150 O   0  0  0  0  0  0
  -32.4448  -17.8509   23.3900 S   0  0  0  0  0  0
  -31.4541  -12.4077   19.1142 H   0  0  0  0  0  0
  -30.3057  -11.3103   19.8241 H   0  0  0  0  0  0
  -29.7299  -11.7760   17.4237 H   0  0  0  0  0  0
  -29.6467  -13.4883   17.7572 H   0  0  0  0  0  0
  -27.8315  -11.2991   18.8178 H   0  0  0  0  0  0
  -27.3566  -12.6126   17.7819 H   0  0  0  0  0  0
  -27.6915  -14.2531   19.5524 H   0  0  0  0  0  0
  -28.6731  -11.9729   21.3414 H   0  0  0  0  0  0
  -28.4481  -13.6166   21.8551 H   0  0  0  0  0  0
  -25.2753   -9.5702   22.4747 H   0  0  0  0  0  0
  -24.0017   -7.4638   22.7465 H   0  0  0  0  0  0
  -21.0840   -8.8747   19.8951 H   0  0  0  0  0  0
  -22.3676  -10.9655   19.6169 H   0  0  0  0  0  0
  -21.1992   -7.6152   23.9712 H   0  0  0  0  0  0
  -21.1490   -6.0535   25.9081 H   0  0  0  0  0  0
  -22.0593   -2.7610   23.2863 H   0  0  0  0  0  0
  -22.4155  -11.9839   22.4738 H   0  0  0  0  0  0
  -21.1140  -13.1212   22.2645 H   0  0  0  0  0  0
  -24.6581  -15.8370   20.4995 H   0  0  0  0  0  0
  -26.2710  -15.6171   20.0467 H   0  0  0  0  0  0
  -26.7090  -32.5525   23.1160 H   0  0  0  0  0  0
  -25.0072  -33.9793   25.0498 H   0  0  0  0  0  0
  -22.6874  -31.3129   21.4195 H   0  0  0  0  0  0
  -23.3748  -35.9648   23.3313 H   0  0  0  0  0  0
  -24.3575  -36.8903   22.2053 H   0  0  0  0  0  0
  -23.7233  -37.6527   23.6637 H   0  0  0  0  0  0
  -26.0599  -31.5872   20.6090 H   0  0  0  0  0  0
  -26.8164  -30.8664   22.0022 H   0  0  0  0  0  0
  -28.0720  -29.0436   21.2182 H   0  0  0  0  0  0
  -26.0320  -26.0774   18.8321 H   0  0  0  0  0  0
  -23.9777  -27.3638   18.9476 H   0  0  0  0  0  0
  -23.7196  -30.6183   19.4103 H   0  0  0  0  0  0
  -22.7279  -29.2660   19.8638 H   0  0  0  0  0  0
  -25.1280  -36.1994   25.0829 H   0  0  0  0  0  0
  -20.9912  -28.3254   24.1458 H   0  0  0  0  0  0
  -20.5699  -26.2278   23.3609 H   0  0  0  0  0  0
  -21.6655  -26.7492   22.1207 H   0  0  0  0  0  0
  -19.6955  -25.6294   21.1266 H   0  0  0  0  0  0
  -19.6706  -27.3178   20.6732 H   0  0  0  0  0  0
  -17.4205  -26.6623   21.4051 H   0  0  0  0  0  0
  -18.0338  -26.0061   22.9050 H   0  0  0  0  0  0
  -19.7908  -30.7261   24.2290 H   0  0  0  0  0  0
  -17.5002  -31.6266   24.5143 H   0  0  0  0  0  0
  -15.5336  -30.3004   23.7634 H   0  0  0  0  0  0
  -15.8652  -28.0829   22.7062 H   0  0  0  0  0  0
  -24.5907  -30.7055   25.7833 H   0  0  0  0  0  0
  -24.8927  -32.2864   26.4947 H   0  0  0  0  0  0
  -25.8086  -30.8882   27.0248 H   0  0  0  0  0  0
  -26.2874  -29.6805   24.1176 H   0  0  0  0  0  0
  -27.4044  -29.7285   25.4618 H   0  0  0  0  0  0
  -27.8719  -30.4359   23.9337 H   0  0  0  0  0  0
  -27.2675  -33.3608   26.2109 H   0  0  0  0  0  0
  -28.3837  -32.6884   25.0312 H   0  0  0  0  0  0
  -28.0739  -31.8425   26.5374 H   0  0  0  0  0  0
  -28.2619  -38.0099   24.7503 H   0  0  0  0  0  0
  -28.1060  -36.2631   24.6313 H   0  0  0  0  0  0
  -27.2304  -37.1493   25.8876 H   0  0  0  0  0  0
  -20.9283  -29.8826   21.7004 H   0  0  0  0  0  0
  -26.0196  -38.2884   24.1380 H   0  0  0  0  0  0
  -29.3723  -21.7113   22.8136 H   0  0  0  0  0  0
  -31.4255  -20.6730   23.7089 H   0  0  0  0  0  0
  -28.3656  -17.9972   20.8525 H   0  0  0  0  0  0
  -32.4925  -15.5128   22.7139 H   0  0  0  0  0  0
  -25.5876  -24.5717   20.6468 H   0  0  0  0  0  0
  -26.0830  -23.9605   19.0696 H   0  0  0  0  0  0
  -25.4289  -21.9055   19.7884 H   0  0  0  0  0  0
  -25.4599  -22.3992   21.4826 H   0  0  0  0  0  0
  -29.3097  -22.6826   20.8772 H   0  0  0  0  0  0
  -28.6195  -22.5654   19.2730 H   0  0  0  0  0  0
  -28.1222  -25.2772   18.5725 H   0  0  0  0  0  0
  -29.5041  -25.0802   19.5816 H   0  0  0  0  0  0
  -29.0837  -15.3716   21.3586 H   0  0  0  0  0  0
  -25.4761  -20.0849   21.1515 H   0  0  0  0  0  0
  -26.4955  -18.9104   21.9166 H   0  0  0  0  0  0
  -27.9074  -25.5227   21.8120 H   0  0  0  0  0  0
  1 25  1  0  0  0
  1 30  2  0  0  0
  1 86  1  0  0  0
  2  3  1  0  0  0
  2 25  1  0  0  0
  2 90  1  0  0  0
  2 91  1  0  0  0
  3  4  1  0  0  0
  3 92  1  0  0  0
  3 93  1  0  0  0
  4  5  1  0  0  0
  4 94  1  0  0  0
  4 95  1  0  0  0
  5  6  1  0  0  0
  5 26  1  0  0  0
  5 96  1  0  0  0
  6 25  1  0  0  0
  6 97  1  0  0  0
  6 98  1  0  0  0
  7  8  2  0  0  0
  7 26  1  0  0  0
  7 29  1  0  0  0
  8  9  1  0  0  0
  8 22  1  0  0  0
  9 10  1  0  0  0
  9 27  2  0  0  0
 10 11  2  0  0  0
 10 15  1  0  0  0
 11 12  1  0  0  0
 11 99  1  0  0  0
 12 13  2  0  0  0
 12100  1  0  0  0
 13 14  1  0  0  0
 13 31  1  0  0  0
 14 15  2  0  0  0
 14101  1  0  0  0
 15102  1  0  0  0
 16 17  2  0  0  0
 16 21  1  0  0  0
 16 31  1  0  0  0
 17 18  1  0  0  0
 17103  1  0  0  0
 18 19  2  0  0  0
 18104  1  0  0  0
 19 20  1  0  0  0
 19 24  1  0  0  0
 20 21  2  0  0  0
 20105  1  0  0  0
 21 23  1  0  0  0
 22 28  1  0  0  0
 22 32  2  0  0  0
 26 27  1  0  0  0
 28106  1  0  0  0
 28107  1  0  0  0
 29108  1  0  0  0
 29109  1  0  0  0
 33 34  1  0  0  0
 33 66  1  0  0  0
 33 70  2  0  0  0
 34 36  1  0  0  0
 34 59  1  0  0  0
 34110  1  0  0  0
 35 44  2  0  0  0
 35 45  1  0  0  0
 35 68  1  0  0  0
 36 56  1  0  0  0
 36111  1  0  0  0
 37 39  1  0  0  0
 37 47  1  0  0  0
 37 66  1  0  0  0
 37112  1  0  0  0
 38 43  2  0  0  0
 38 46  1  0  0  0
 38 47  1  0  0  0
 39 64  1  0  0  0
 39 67  2  0  0  0
 40 52  1  0  0  0
 40 53  2  0  0  0
 40 58  1  0  0  0
 41113  1  0  0  0
 41114  1  0  0  0
 41115  1  0  0  0
 41 48  1  0  0  0
 42 43  1  0  0  0
 42 66  1  0  0  0
 42116  1  0  0  0
 42117  1  0  0  0
 43 44  1  0  0  0
 44118  1  0  0  0
 45 46  2  0  0  0
 45119  1  0  0  0
 46120  1  0  0  0
 47121  1  0  0  0
 47122  1  0  0  0
 48 56  1  0  0  0
 48 65  1  0  0  0
 48123  1  0  0  0
 49 50  1  0  0  0
 49 53  1  0  0  0
 49 64  1  0  0  0
 49124  1  0  0  0
 50 51  1  0  0  0
 50125  1  0  0  0
 50126  1  0  0  0
 51 52  1  0  0  0
 51127  1  0  0  0
 51128  1  0  0  0
 52129  1  0  0  0
 52130  1  0  0  0
 53 54  1  0  0  0
 54 55  2  0  0  0
 54131  1  0  0  0
 55 57  1  0  0  0
 55132  1  0  0  0
 56 69  2  0  0  0
 57 58  2  0  0  0
 57133  1  0  0  0
 58134  1  0  0  0
 59 60  1  0  0  0
 59 61  1  0  0  0
 59 62  1  0  0  0
 60135  1  0  0  0
 60136  1  0  0  0
 60137  1  0  0  0
 61138  1  0  0  0
 61139  1  0  0  0
 61140  1  0  0  0
 62141  1  0  0  0
 62142  1  0  0  0
 62143  1  0  0  0
 63 65  1  0  0  0
 63144  1  0  0  0
 63145  1  0  0  0
 63146  1  0  0  0
 64147  1  0  0  0
 65148  1  0  0  0
 68 84  1  0  0  0
 71 72  2  0  0  0
 71 76  1  0  0  0
 71149  1  0  0  0
 72 78  1  0  0  0
 72150  1  0  0  0
 73 75  1  0  0  0
 73 76  2  0  0  0
 73151  1  0  0  0
 74 77  2  0  0  0
 74 89  1  0  0  0
 74152  1  0  0  0
 75 77  1  0  0  0
 75 78  2  0  0  0
 76 79  1  0  0  0
 77 86  1  0  0  0
 78 89  1  0  0  0
 79 85  1  0  0  0
 79 87  2  0  0  0
 80 81  1  0  0  0
 80 83  1  0  0  0
 80153  1  0  0  0
 80154  1  0  0  0
 81 85  1  0  0  0
 81155  1  0  0  0
 81156  1  0  0  0
 82 83  1  0  0  0
 82 85  1  0  0  0
 82157  1  0  0  0
 82158  1  0  0  0
 83 84  1  0  0  0
 83 88  1  0  0  0
 84159  1  0  0  0
 84160  1  0  0  0
 86161  1  0  0  0
 87162  1  0  0  0
 87163  1  0  0  0
 88164  1  0  0  0
M  CHG  1  87   1
M  ISO  4   1 100  68 101  84 101  86 100
M  END
> <chiral flag>
0

> <version>
0

> <s_m_source_file>
/data/baiqing/PycharmProjects/Reinvent-master-3.2/result/LINK_invent/BTK/process_docking_weight1_custom_product_contain_oxygen_bond_distance_aromatic_linkinvent_7_9_3/rearranged_h_0150.sdf

> <i_m_source_file_index>
93

> <r_mmod_Potential_Energy-OPLS-2005>
-130.921920776367

> <r_mmod_Stretch_Energy-OPLS-2005>
43.1947174072266

> <r_mmod_Bend_Energy-OPLS-2005>
157.704315185547

> <r_mmod_Torsional_Energy-OPLS-2005>
330.032012939453

> <r_mmod_Improper_Torsional_Energy-OPLS-2005>
3.92871975898743

> <r_mmod_Van_der_Waal_Energy-OPLS-2005>
155.77734375

> <r_mmod_Electrostatic_Energy-OPLS-2005>
-368.829010009766

> <r_mmod_Solvation_Energy-OPLS-2005>
-469.519927978516

> <b_mmod_Minimization_Converged-OPLS-2005>
0

> <r_mmod_RMS_Derivative-OPLS-2005>
2.95965003967285

$$$$
93
                    3D
 Structure written by MMmdl.
151159  0  0  1  0            999 V2000
  -30.6252  -14.7457   20.4479 C   0  0  0  0  0  0
  -30.4301  -12.4515   19.4877 C   0  0  0  0  0  0
  -29.5143  -12.5110   18.2445 C   0  0  0  0  0  0
  -28.0399  -12.3354   18.6549 C   0  0  0  0  0  0
  -27.6442  -13.2362   19.8551 C   0  0  2  0  0  0
  -28.6872  -13.1798   20.9945 C   0  0  0  0  0  0
  -25.2525  -13.8205   20.5712 C   0  0  0  0  0  0
  -24.1817  -13.0446   20.9215 C   0  0  0  0  0  0
  -24.6407  -11.6924   20.8751 C   0  0  0  0  0  0
  -23.9084  -10.4293   21.0404 C   0  0  0  0  0  0
  -24.3631   -9.4208   21.9186 C   0  0  0  0  0  0
  -23.6304   -8.2247   22.0752 C   0  0  0  0  0  0
  -22.4285   -8.0284   21.3546 C   0  0  0  0  0  0
  -21.9923   -9.0257   20.4648 C   0  0  0  0  0  0
  -22.7255  -10.2135   20.3058 C   0  0  0  0  0  0
  -21.6856   -6.0741   22.5280 C   0  0  0  0  0  0
  -21.4013   -6.5642   23.8214 C   0  0  0  0  0  0
  -21.3661   -5.6794   24.9175 C   0  0  0  0  0  0
  -21.6048   -4.3057   24.7222 C   0  0  0  0  0  0
  -21.8819   -3.8150   23.4341 C   0  0  0  0  0  0
  -21.9193   -4.6969   22.3400 C   0  0  0  0  0  0
  -22.7834  -13.5226   21.1873 C   0  0  0  0  0  0
  -22.1665   -4.2157   21.0978 F   0  0  0  0  0  0
  -21.5627   -3.4538   25.7734 F   0  0  0  0  0  0
  -29.9934  -13.5209   20.4186 N   0  0  0  0  0  0
  -26.2957  -12.9424   20.3308 N   0  0  0  0  0  0
  -25.9342  -11.6556   20.5762 N   0  0  0  0  0  0
  -22.0479  -12.8210   22.0422 N   0  0  0  0  0  0
  -25.4203  -15.1933   20.4124 N   0  0  0  0  0  0
  -31.8030  -14.8269   20.0901 O   0  0  0  0  0  0
  -21.6645   -6.8885   21.4243 O   0  0  0  0  0  0
  -22.3518  -14.5529   20.6715 O   0  0  0  0  0  0
  -24.6335  -31.8548   23.2000 C   0  0  0  0  0  0
  -25.9149  -32.4760   23.8342 C   0  0  1  0  0  0
  -27.2126  -27.2502   20.1297 C   0  0  0  0  0  0
  -25.5935  -33.8564   24.2263 N   0  0  0  0  0  0
  -23.4310  -30.4801   21.5424 C   0  0  2  0  0  0
  -24.8801  -28.9357   20.1028 C   0  0  0  0  0  0
  -22.7514  -29.4598   22.4889 C   0  0  0  0  0  0
  -18.0299  -28.1397   22.8480 C   0  0  0  0  0  0
  -24.1489  -36.7282   23.2639 C   0  0  0  0  0  0
  -25.9797  -30.7651   21.3837 C   0  0  0  0  0  0
  -26.0526  -29.3888   20.7219 C   0  0  0  0  0  0
  -27.2223  -28.5581   20.7279 C   0  0  0  0  0  0
  -26.0271  -26.8918   19.4455 C   0  0  0  0  0  0
  -24.8744  -27.6963   19.4511 C   0  0  0  0  0  0
  -23.6504  -29.8210   20.1561 C   0  0  0  0  0  0
  -25.4118  -36.3077   24.0330 C   0  0  1  0  0  0
  -20.5904  -28.3706   23.1256 C   0  0  2  0  0  0
  -20.6789  -26.9420   22.5400 C   0  0  0  0  0  0
  -19.5760  -26.6390   21.5207 C   0  0  0  0  0  0
  -18.1939  -26.7940   22.1622 C   0  0  0  0  0  0
  -19.1555  -28.8869   23.2866 C   0  0  0  0  0  0
  -18.9473  -30.1468   23.8888 C   0  0  0  0  0  0
  -17.6469  -30.6592   24.0566 C   0  0  0  0  0  0
  -25.9058  -34.9446   23.5105 C   0  0  0  0  0  0
  -16.5361  -29.9088   23.6333 C   0  0  0  0  0  0
  -16.7285  -28.6510   23.0346 C   0  0  0  0  0  0
  -26.4505  -31.6587   25.0736 C   0  0  0  0  0  0
  -25.3713  -31.3726   26.1443 C   0  0  0  0  0  0
  -27.0346  -30.3007   24.6221 C   0  0  0  0  0  0
  -27.6068  -32.4314   25.7499 C   0  0  0  0  0  0
  -27.5583  -37.1801   24.8469 C   0  0  0  0  0  0
  -21.4221  -29.3053   22.3642 N   0  0  0  0  0  0
  -26.4295  -37.3777   23.9413 N   0  0  0  0  0  0
  -24.7006  -31.0505   22.0985 N   0  0  0  0  0  0
  -23.4212  -28.8124   23.2980 O   0  0  0  0  0  0
  -28.2609  -26.2956   20.2394 O   0  0  0  0  0  0
  -26.5624  -34.8919   22.4669 O   0  0  0  0  0  0
  -23.5478  -32.1363   23.7286 O   0  0  0  0  0  0
  -29.1399  -19.7856   19.9656 C   0  0  0  0  0  0
  -30.1468  -20.9190   21.7354 C   0  0  0  0  0  0
  -29.3332  -21.0803   20.6412 C   0  0  0  0  0  0
  -29.8231  -18.6782   20.5116 C   0  0  0  0  0  0
  -28.9955  -23.7000   20.5548 C   0  0  0  0  0  0
  -26.9618  -24.7092   21.6397 C   0  0  0  0  0  0
  -30.0902  -17.2375   19.9081 C   0  0  0  0  0  0
  -27.8660  -24.8331   20.3892 C   0  0  1  0  0  0
  -28.6892  -22.3704   20.2745 N   0  0  0  0  0  0
  -29.8702  -15.8990   20.6213 N   0  0  0  0  0  0
  -30.1174  -24.0346   20.9458 O   0  0  0  0  0  0
  -30.6746  -19.2443   21.9365 S   0  0  0  0  0  0
  -31.4750  -12.5557   19.1904 H   0  0  0  0  0  0
  -30.3583  -11.4764   19.9707 H   0  0  0  0  0  0
  -29.7973  -11.7393   17.5272 H   0  0  0  0  0  0
  -29.6444  -13.4664   17.7333 H   0  0  0  0  0  0
  -27.8969  -11.2865   18.9182 H   0  0  0  0  0  0
  -27.3838  -12.5260   17.8049 H   0  0  0  0  0  0
  -27.6364  -14.2569   19.4720 H   0  0  0  0  0  0
  -28.7177  -12.1873   21.4444 H   0  0  0  0  0  0
  -28.4236  -13.8719   21.7962 H   0  0  0  0  0  0
  -25.2773   -9.5680   22.4763 H   0  0  0  0  0  0
  -24.0013   -7.4631   22.7464 H   0  0  0  0  0  0
  -21.0855   -8.8775   19.8949 H   0  0  0  0  0  0
  -22.3713  -10.9675   19.6168 H   0  0  0  0  0  0
  -21.2004   -7.6149   23.9720 H   0  0  0  0  0  0
  -21.1489   -6.0522   25.9081 H   0  0  0  0  0  0
  -22.0598   -2.7613   23.2840 H   0  0  0  0  0  0
  -22.4093  -11.9876   22.4819 H   0  0  0  0  0  0
  -21.1090  -13.1223   22.2618 H   0  0  0  0  0  0
  -24.6500  -15.8444   20.5177 H   0  0  0  0  0  0
  -26.2660  -15.6336   20.0729 H   0  0  0  0  0  0
  -26.7218  -32.5407   23.1085 H   0  0  0  0  0  0
  -25.0091  -33.9694   25.0416 H   0  0  0  0  0  0
  -22.7294  -31.3047   21.3988 H   0  0  0  0  0  0
  -23.3761  -35.9607   23.3303 H   0  0  0  0  0  0
  -24.3581  -36.8899   22.2053 H   0  0  0  0  0  0
  -23.7231  -37.6483   23.6657 H   0  0  0  0  0  0
  -26.1219  -31.5269   20.6153 H   0  0  0  0  0  0
  -26.8567  -30.8117   22.0179 H   0  0  0  0  0  0
  -28.1104  -28.8888   21.2480 H   0  0  0  0  0  0
  -25.9479  -25.9534   18.9207 H   0  0  0  0  0  0
  -23.9826  -27.3511   18.9450 H   0  0  0  0  0  0
  -23.7737  -30.6003   19.4033 H   0  0  0  0  0  0
  -22.7690  -29.2550   19.8494 H   0  0  0  0  0  0
  -25.1302  -36.1931   25.0824 H   0  0  0  0  0  0
  -21.0009  -28.3288   24.1374 H   0  0  0  0  0  0
  -20.5685  -26.2312   23.3607 H   0  0  0  0  0  0
  -21.6652  -26.7435   22.1197 H   0  0  0  0  0  0
  -19.6918  -25.6297   21.1244 H   0  0  0  0  0  0
  -19.6705  -27.3193   20.6734 H   0  0  0  0  0  0
  -17.4208  -26.6680   21.4030 H   0  0  0  0  0  0
  -18.0349  -26.0086   22.9027 H   0  0  0  0  0  0
  -19.7945  -30.7288   24.2256 H   0  0  0  0  0  0
  -17.5020  -31.6270   24.5168 H   0  0  0  0  0  0
  -15.5360  -30.2987   23.7665 H   0  0  0  0  0  0
  -15.8686  -28.0832   22.7062 H   0  0  0  0  0  0
  -24.5926  -30.7038   25.7760 H   0  0  0  0  0  0
  -24.8855  -32.2878   26.4835 H   0  0  0  0  0  0
  -25.8022  -30.8933   27.0240 H   0  0  0  0  0  0
  -26.2928  -29.6760   24.1234 H   0  0  0  0  0  0
  -27.4015  -29.7275   25.4743 H   0  0  0  0  0  0
  -27.8814  -30.4293   23.9477 H   0  0  0  0  0  0
  -27.2712  -33.3643   26.2040 H   0  0  0  0  0  0
  -28.3893  -32.6817   25.0324 H   0  0  0  0  0  0
  -28.0711  -31.8447   26.5435 H   0  0  0  0  0  0
  -28.2605  -38.0094   24.7521 H   0  0  0  0  0  0
  -28.1074  -36.2629   24.6296 H   0  0  0  0  0  0
  -27.2297  -37.1448   25.8869 H   0  0  0  0  0  0
  -20.9405  -29.8791   21.6860 H   0  0  0  0  0  0
  -26.0178  -38.2856   24.1408 H   0  0  0  0  0  0
  -28.5443  -19.7225   19.0648 H   0  0  0  0  0  0
  -30.4678  -21.6685   22.4493 H   0  0  0  0  0  0
  -26.0269  -25.2572   21.5390 H   0  0  0  0  0  0
  -27.4697  -25.0933   22.5252 H   0  0  0  0  0  0
  -26.6863  -23.6732   21.8431 H   0  0  0  0  0  0
  -31.1240  -17.2454   19.5582 H   0  0  0  0  0  0
  -29.5083  -17.1607   18.9886 H   0  0  0  0  0  0
  -27.3181  -24.5173   19.5034 H   0  0  0  0  0  0
  -27.8077  -22.2675   19.7898 H   0  0  0  0  0  0
  -28.9350  -15.7470   20.9676 H   0  0  0  0  0  0
  1 25  1  0  0  0
  1 30  2  0  0  0
  1 80  1  0  0  0
  2  3  1  0  0  0
  2 25  1  0  0  0
  2 83  1  0  0  0
  2 84  1  0  0  0
  3  4  1  0  0  0
  3 85  1  0  0  0
  3 86  1  0  0  0
  4  5  1  0  0  0
  4 87  1  0  0  0
  4 88  1  0  0  0
  5  6  1  0  0  0
  5 26  1  0  0  0
  5 89  1  0  0  0
  6 25  1  0  0  0
  6 90  1  0  0  0
  6 91  1  0  0  0
  7  8  2  0  0  0
  7 26  1  0  0  0
  7 29  1  0  0  0
  8  9  1  0  0  0
  8 22  1  0  0  0
  9 10  1  0  0  0
  9 27  2  0  0  0
 10 11  2  0  0  0
 10 15  1  0  0  0
 11 12  1  0  0  0
 11 92  1  0  0  0
 12 13  2  0  0  0
 12 93  1  0  0  0
 13 14  1  0  0  0
 13 31  1  0  0  0
 14 15  2  0  0  0
 14 94  1  0  0  0
 15 95  1  0  0  0
 16 17  2  0  0  0
 16 21  1  0  0  0
 16 31  1  0  0  0
 17 18  1  0  0  0
 17 96  1  0  0  0
 18 19  2  0  0  0
 18 97  1  0  0  0
 19 20  1  0  0  0
 19 24  1  0  0  0
 20 21  2  0  0  0
 20 98  1  0  0  0
 21 23  1  0  0  0
 22 28  1  0  0  0
 22 32  2  0  0  0
 26 27  1  0  0  0
 28 99  1  0  0  0
 28100  1  0  0  0
 29101  1  0  0  0
 29102  1  0  0  0
 33 34  1  0  0  0
 33 66  1  0  0  0
 33 70  2  0  0  0
 34 36  1  0  0  0
 34 59  1  0  0  0
 34103  1  0  0  0
 35 44  2  0  0  0
 35 45  1  0  0  0
 35 68  1  0  0  0
 36 56  1  0  0  0
 36104  1  0  0  0
 37 39  1  0  0  0
 37 47  1  0  0  0
 37 66  1  0  0  0
 37105  1  0  0  0
 38 43  2  0  0  0
 38 46  1  0  0  0
 38 47  1  0  0  0
 39 64  1  0  0  0
 39 67  2  0  0  0
 40 52  1  0  0  0
 40 53  2  0  0  0
 40 58  1  0  0  0
 41106  1  0  0  0
 41107  1  0  0  0
 41108  1  0  0  0
 41 48  1  0  0  0
 42 43  1  0  0  0
 42 66  1  0  0  0
 42109  1  0  0  0
 42110  1  0  0  0
 43 44  1  0  0  0
 44111  1  0  0  0
 45 46  2  0  0  0
 45112  1  0  0  0
 46113  1  0  0  0
 47114  1  0  0  0
 47115  1  0  0  0
 48 56  1  0  0  0
 48 65  1  0  0  0
 48116  1  0  0  0
 49 50  1  0  0  0
 49 53  1  0  0  0
 49 64  1  0  0  0
 49117  1  0  0  0
 50 51  1  0  0  0
 50118  1  0  0  0
 50119  1  0  0  0
 51 52  1  0  0  0
 51120  1  0  0  0
 51121  1  0  0  0
 52122  1  0  0  0
 52123  1  0  0  0
 53 54  1  0  0  0
 54 55  2  0  0  0
 54124  1  0  0  0
 55 57  1  0  0  0
 55125  1  0  0  0
 56 69  2  0  0  0
 57 58  2  0  0  0
 57126  1  0  0  0
 58127  1  0  0  0
 59 60  1  0  0  0
 59 61  1  0  0  0
 59 62  1  0  0  0
 60128  1  0  0  0
 60129  1  0  0  0
 60130  1  0  0  0
 61131  1  0  0  0
 61132  1  0  0  0
 61133  1  0  0  0
 62134  1  0  0  0
 62135  1  0  0  0
 62136  1  0  0  0
 63 65  1  0  0  0
 63137  1  0  0  0
 63138  1  0  0  0
 63139  1  0  0  0
 64140  1  0  0  0
 65141  1  0  0  0
 68 78  1  0  0  0
 71 73  1  0  0  0
 71 74  2  0  0  0
 71142  1  0  0  0
 72 73  2  0  0  0
 72 82  1  0  0  0
 72143  1  0  0  0
 73 79  1  0  0  0
 74 77  1  0  0  0
 74 82  1  0  0  0
 75 78  1  0  0  0
 75 79  1  0  0  0
 75 81  2  0  0  0
 76144  1  0  0  0
 76145  1  0  0  0
 76146  1  0  0  0
 76 78  1  0  0  0
 77 80  1  0  0  0
 77147  1  0  0  0
 77148  1  0  0  0
 78149  1  0  0  0
 79150  1  0  0  0
 80151  1  0  0  0
M  ISO  4   1 100  68 101  78 101  80 100
M  END
> <chiral flag>
0

> <version>
0

> <s_m_source_file>
/data/baiqing/PycharmProjects/Reinvent-master-3.2/result/LINK_invent/BTK/process_docking_weight1_custom_product_contain_oxygen_bond_distance_aromatic_linkinvent_7_9_3/rearranged_h_0150.sdf

> <i_m_source_file_index>
94

> <r_mmod_Potential_Energy-OPLS-2005>
118.720016479492

> <r_mmod_Stretch_Energy-OPLS-2005>
125.505142211914

> <r_mmod_Bend_Energy-OPLS-2005>
173.698791503906

> <r_mmod_Torsional_Energy-OPLS-2005>
246.897399902344

> <r_mmod_Improper_Torsional_Energy-OPLS-2005>
8.99724864959717

> <r_mmod_Van_der_Waal_Energy-OPLS-2005>
123.588760375977

> <r_mmod_Electrostatic_Energy-OPLS-2005>
-407.076324462891

> <r_mmod_Solvation_Energy-OPLS-2005>
-248.999908447266

> <b_mmod_Minimization_Converged-OPLS-2005>
0

> <r_mmod_RMS_Derivative-OPLS-2005>
1.21321952342987

$$$$
94
                    3D
 Structure written by MMmdl.
153162  0  0  1  0            999 V2000
  -30.6826  -14.8151   20.4323 C   0  0  0  0  0  0
  -30.4094  -12.5146   19.4796 C   0  0  0  0  0  0
  -29.4986  -12.5061   18.2366 C   0  0  0  0  0  0
  -28.0344  -12.3107   18.6641 C   0  0  0  0  0  0
  -27.6242  -13.2466   19.8318 C   0  0  2  0  0  0
  -28.6740  -13.2864   20.9623 C   0  0  0  0  0  0
  -25.2426  -13.8212   20.5753 C   0  0  0  0  0  0
  -24.1753  -13.0421   20.9255 C   0  0  0  0  0  0
  -24.6385  -11.6919   20.8779 C   0  0  0  0  0  0
  -23.9090  -10.4286   21.0428 C   0  0  0  0  0  0
  -24.3633   -9.4199   21.9194 C   0  0  0  0  0  0
  -23.6291   -8.2248   22.0755 C   0  0  0  0  0  0
  -22.4278   -8.0300   21.3541 C   0  0  0  0  0  0
  -21.9932   -9.0284   20.4637 C   0  0  0  0  0  0
  -22.7272  -10.2146   20.3053 C   0  0  0  0  0  0
  -21.6847   -6.0761   22.5286 C   0  0  0  0  0  0
  -21.4025   -6.5652   23.8229 C   0  0  0  0  0  0
  -21.3647   -5.6786   24.9174 C   0  0  0  0  0  0
  -21.6029   -4.3057   24.7208 C   0  0  0  0  0  0
  -21.8811   -3.8165   23.4324 C   0  0  0  0  0  0
  -21.9186   -4.6992   22.3393 C   0  0  0  0  0  0
  -22.7770  -13.5176   21.1908 C   0  0  0  0  0  0
  -22.1658   -4.2195   21.0962 F   0  0  0  0  0  0
  -21.5613   -3.4517   25.7707 F   0  0  0  0  0  0
  -29.9543  -13.6392   20.3418 N   0  0  0  0  0  0
  -26.2863  -12.9449   20.3272 N   0  0  0  0  0  0
  -25.9312  -11.6577   20.5752 N   0  0  0  0  0  0
  -22.0420  -12.8177   22.0465 N   0  0  0  0  0  0
  -25.4025  -15.1942   20.4190 N   0  0  0  0  0  0
  -31.8955  -14.7304   20.2168 O   0  0  0  0  0  0
  -21.6614   -6.8915   21.4259 O   0  0  0  0  0  0
  -22.3457  -14.5473   20.6732 O   0  0  0  0  0  0
  -24.6362  -31.8529   23.1947 C   0  0  0  0  0  0
  -25.9182  -32.4734   23.8300 C   0  0  1  0  0  0
  -27.1961  -27.2065   20.1425 C   0  0  0  0  0  0
  -25.5953  -33.8539   24.2211 N   0  0  0  0  0  0
  -23.4353  -30.4764   21.5389 C   0  0  2  0  0  0
  -24.8799  -28.9190   20.1057 C   0  0  0  0  0  0
  -22.7527  -29.4606   22.4877 C   0  0  0  0  0  0
  -18.0292  -28.1422   22.8470 C   0  0  0  0  0  0
  -24.1484  -36.7277   23.2635 C   0  0  0  0  0  0
  -25.9857  -30.7484   21.3842 C   0  0  0  0  0  0
  -26.0533  -29.3655   20.7286 C   0  0  0  0  0  0
  -27.2166  -28.5216   20.7350 C   0  0  0  0  0  0
  -26.0184  -26.8654   19.4480 C   0  0  0  0  0  0
  -24.8689  -27.6791   19.4516 C   0  0  0  0  0  0
  -23.6566  -29.8154   20.1539 C   0  0  0  0  0  0
  -25.4116  -36.3052   24.0303 C   0  0  1  0  0  0
  -20.5902  -28.3747   23.1239 C   0  0  2  0  0  0
  -20.6787  -26.9457   22.5408 C   0  0  0  0  0  0
  -19.5765  -26.6401   21.5217 C   0  0  0  0  0  0
  -18.1941  -26.7951   22.1622 C   0  0  0  0  0  0
  -19.1554  -28.8897   23.2848 C   0  0  0  0  0  0
  -18.9468  -30.1482   23.8885 C   0  0  0  0  0  0
  -17.6472  -30.6608   24.0568 C   0  0  0  0  0  0
  -25.9064  -34.9428   23.5063 C   0  0  0  0  0  0
  -16.5357  -29.9119   23.6333 C   0  0  0  0  0  0
  -16.7280  -28.6543   23.0343 C   0  0  0  0  0  0
  -26.4520  -31.6590   25.0730 C   0  0  0  0  0  0
  -25.3699  -31.3797   26.1426 C   0  0  0  0  0  0
  -27.0361  -30.2969   24.6296 C   0  0  0  0  0  0
  -27.6045  -32.4352   25.7534 C   0  0  0  0  0  0
  -27.5566  -37.1803   24.8463 C   0  0  0  0  0  0
  -21.4227  -29.3077   22.3617 N   0  0  0  0  0  0
  -26.4286  -37.3762   23.9395 N   0  0  0  0  0  0
  -24.7057  -31.0457   22.0940 N   0  0  0  0  0  0
  -23.4207  -28.8138   23.2989 O   0  0  0  0  0  0
  -28.2469  -26.2457   20.1854 O   0  0  0  0  0  0
  -26.5653  -34.8908   22.4641 O   0  0  0  0  0  0
  -23.5498  -32.1377   23.7210 O   0  0  0  0  0  0
  -28.1400  -19.5241   20.7712 C   0  0  0  0  0  0
  -28.9294  -18.2949   20.6077 C   0  0  0  0  0  0
  -30.1672  -18.5603   20.1870 C   0  0  0  0  0  0
  -28.7934  -20.7379   20.4672 C   0  0  0  0  0  0
  -28.8044  -16.7514   20.7736 C   0  0  0  0  0  0
  -31.0004  -17.3044   20.0444 C   0  0  0  0  0  0
  -26.5961  -24.5069   21.1792 C   0  0  0  0  0  0
  -28.7101  -23.4565   20.0696 C   0  0  0  0  0  0
  -28.0442  -24.8202   20.7302 C   0  0  1  0  0  0
  -30.1290  -16.1171   20.3960 N   0  0  0  0  0  0
  -28.2532  -22.0967   20.6082 N   0  0  0  0  0  0
  -30.4419  -20.3058   19.9375 S   0  0  0  0  0  0
  -31.4505  -12.6073   19.1644 H   0  0  0  0  0  0
  -30.3508  -11.5677   20.0182 H   0  0  0  0  0  0
  -29.8029  -11.7155   17.5483 H   0  0  0  0  0  0
  -29.6022  -13.4473   17.6957 H   0  0  0  0  0  0
  -27.9241  -11.2711   18.9737 H   0  0  0  0  0  0
  -27.3681  -12.4513   17.8118 H   0  0  0  0  0  0
  -27.5849  -14.2429   19.3939 H   0  0  0  0  0  0
  -28.7381  -12.3273   21.4783 H   0  0  0  0  0  0
  -28.3985  -14.0273   21.7131 H   0  0  0  0  0  0
  -25.2783   -9.5668   22.4767 H   0  0  0  0  0  0
  -23.9994   -7.4623   22.7468 H   0  0  0  0  0  0
  -21.0869   -8.8815   19.8919 H   0  0  0  0  0  0
  -22.3760  -10.9698   19.6160 H   0  0  0  0  0  0
  -21.2050   -7.6163   23.9757 H   0  0  0  0  0  0
  -21.1460   -6.0510   25.9077 H   0  0  0  0  0  0
  -22.0597   -2.7636   23.2803 H   0  0  0  0  0  0
  -22.4030  -11.9864   22.4909 H   0  0  0  0  0  0
  -21.1019  -13.1190   22.2588 H   0  0  0  0  0  0
  -24.6222  -15.8325   20.5270 H   0  0  0  0  0  0
  -26.2378  -15.6448   20.0727 H   0  0  0  0  0  0
  -26.7255  -32.5360   23.1045 H   0  0  0  0  0  0
  -25.0068  -33.9675   25.0336 H   0  0  0  0  0  0
  -22.7324  -31.2999   21.3922 H   0  0  0  0  0  0
  -23.3732  -35.9630   23.3312 H   0  0  0  0  0  0
  -24.3557  -36.8903   22.2047 H   0  0  0  0  0  0
  -23.7259  -37.6482   23.6667 H   0  0  0  0  0  0
  -26.1317  -31.5063   20.6137 H   0  0  0  0  0  0
  -26.8598  -30.7961   22.0221 H   0  0  0  0  0  0
  -28.1118  -28.8543   21.2395 H   0  0  0  0  0  0
  -25.9659  -25.9249   18.9196 H   0  0  0  0  0  0
  -23.9776  -27.3437   18.9393 H   0  0  0  0  0  0
  -23.7882  -30.5962   19.4025 H   0  0  0  0  0  0
  -22.7717  -29.2592   19.8399 H   0  0  0  0  0  0
  -25.1302  -36.1885   25.0794 H   0  0  0  0  0  0
  -20.9983  -28.3352   24.1365 H   0  0  0  0  0  0
  -20.5695  -26.2371   23.3628 H   0  0  0  0  0  0
  -21.6653  -26.7481   22.1206 H   0  0  0  0  0  0
  -19.6936  -25.6307   21.1271 H   0  0  0  0  0  0
  -19.6701  -27.3191   20.6723 H   0  0  0  0  0  0
  -17.4209  -26.6673   21.4028 H   0  0  0  0  0  0
  -18.0345  -26.0110   22.9031 H   0  0  0  0  0  0
  -19.7947  -30.7298   24.2253 H   0  0  0  0  0  0
  -17.5032  -31.6275   24.5196 H   0  0  0  0  0  0
  -15.5364  -30.3028   23.7664 H   0  0  0  0  0  0
  -15.8668  -28.0865   22.7061 H   0  0  0  0  0  0
  -24.5882  -30.7137   25.7757 H   0  0  0  0  0  0
  -24.8894  -32.2998   26.4752 H   0  0  0  0  0  0
  -25.7982  -30.9044   27.0258 H   0  0  0  0  0  0
  -26.2970  -29.6719   24.1267 H   0  0  0  0  0  0
  -27.3910  -29.7242   25.4875 H   0  0  0  0  0  0
  -27.8906  -30.4170   23.9633 H   0  0  0  0  0  0
  -27.2609  -33.3656   26.2060 H   0  0  0  0  0  0
  -28.3898  -32.6906   25.0413 H   0  0  0  0  0  0
  -28.0654  -31.8514   26.5509 H   0  0  0  0  0  0
  -28.2590  -38.0088   24.7474 H   0  0  0  0  0  0
  -28.1048  -36.2615   24.6328 H   0  0  0  0  0  0
  -27.2276  -37.1494   25.8865 H   0  0  0  0  0  0
  -20.9435  -29.8786   21.6798 H   0  0  0  0  0  0
  -26.0143  -38.2830   24.1405 H   0  0  0  0  0  0
  -27.1171  -19.4697   21.1175 H   0  0  0  0  0  0
  -28.5433  -16.4849   21.7988 H   0  0  0  0  0  0
  -28.0273  -16.3637   20.1192 H   0  0  0  0  0  0
  -31.3837  -17.2104   19.0267 H   0  0  0  0  0  0
  -31.8596  -17.3537   20.7171 H   0  0  0  0  0  0
  -26.5707  -23.6637   21.8683 H   0  0  0  0  0  0
  -25.9571  -24.2452   20.3347 H   0  0  0  0  0  0
  -26.1392  -25.3339   21.7203 H   0  0  0  0  0  0
  -29.7974  -23.5181   20.1397 H   0  0  0  0  0  0
  -28.4871  -23.4555   19.0011 H   0  0  0  0  0  0
  -28.5741  -24.9036   21.6792 H   0  0  0  0  0  0
  -27.3005  -22.1313   20.9619 H   0  0  0  0  0  0
  1 25  1  0  0  0
  1 30  2  0  0  0
  1 80  1  0  0  0
  2  3  1  0  0  0
  2 25  1  0  0  0
  2 83  1  0  0  0
  2 84  1  0  0  0
  3  4  1  0  0  0
  3 85  1  0  0  0
  3 86  1  0  0  0
  4  5  1  0  0  0
  4 87  1  0  0  0
  4 88  1  0  0  0
  5  6  1  0  0  0
  5 26  1  0  0  0
  5 89  1  0  0  0
  6 25  1  0  0  0
  6 90  1  0  0  0
  6 91  1  0  0  0
  7  8  2  0  0  0
  7 26  1  0  0  0
  7 29  1  0  0  0
  8  9  1  0  0  0
  8 22  1  0  0  0
  9 10  1  0  0  0
  9 27  2  0  0  0
 10 11  2  0  0  0
 10 15  1  0  0  0
 11 12  1  0  0  0
 11 92  1  0  0  0
 12 13  2  0  0  0
 12 93  1  0  0  0
 13 14  1  0  0  0
 13 31  1  0  0  0
 14 15  2  0  0  0
 14 94  1  0  0  0
 15 95  1  0  0  0
 16 17  2  0  0  0
 16 21  1  0  0  0
 16 31  1  0  0  0
 17 18  1  0  0  0
 17 96  1  0  0  0
 18 19  2  0  0  0
 18 97  1  0  0  0
 19 20  1  0  0  0
 19 24  1  0  0  0
 20 21  2  0  0  0
 20 98  1  0  0  0
 21 23  1  0  0  0
 22 28  1  0  0  0
 22 32  2  0  0  0
 26 27  1  0  0  0
 28 99  1  0  0  0
 28100  1  0  0  0
 29101  1  0  0  0
 29102  1  0  0  0
 33 34  1  0  0  0
 33 66  1  0  0  0
 33 70  2  0  0  0
 34 36  1  0  0  0
 34 59  1  0  0  0
 34103  1  0  0  0
 35 44  2  0  0  0
 35 45  1  0  0  0
 35 68  1  0  0  0
 36 56  1  0  0  0
 36104  1  0  0  0
 37 39  1  0  0  0
 37 47  1  0  0  0
 37 66  1  0  0  0
 37105  1  0  0  0
 38 43  2  0  0  0
 38 46  1  0  0  0
 38 47  1  0  0  0
 39 64  1  0  0  0
 39 67  2  0  0  0
 40 52  1  0  0  0
 40 53  2  0  0  0
 40 58  1  0  0  0
 41106  1  0  0  0
 41107  1  0  0  0
 41108  1  0  0  0
 41 48  1  0  0  0
 42 43  1  0  0  0
 42 66  1  0  0  0
 42109  1  0  0  0
 42110  1  0  0  0
 43 44  1  0  0  0
 44111  1  0  0  0
 45 46  2  0  0  0
 45112  1  0  0  0
 46113  1  0  0  0
 47114  1  0  0  0
 47115  1  0  0  0
 48 56  1  0  0  0
 48 65  1  0  0  0
 48116  1  0  0  0
 49 50  1  0  0  0
 49 53  1  0  0  0
 49 64  1  0  0  0
 49117  1  0  0  0
 50 51  1  0  0  0
 50118  1  0  0  0
 50119  1  0  0  0
 51 52  1  0  0  0
 51120  1  0  0  0
 51121  1  0  0  0
 52122  1  0  0  0
 52123  1  0  0  0
 53 54  1  0  0  0
 54 55  2  0  0  0
 54124  1  0  0  0
 55 57  1  0  0  0
 55125  1  0  0  0
 56 69  2  0  0  0
 57 58  2  0  0  0
 57126  1  0  0  0
 58127  1  0  0  0
 59 60  1  0  0  0
 59 61  1  0  0  0
 59 62  1  0  0  0
 60128  1  0  0  0
 60129  1  0  0  0
 60130  1  0  0  0
 61131  1  0  0  0
 61132  1  0  0  0
 61133  1  0  0  0
 62134  1  0  0  0
 62135  1  0  0  0
 62136  1  0  0  0
 63 65  1  0  0  0
 63137  1  0  0  0
 63138  1  0  0  0
 63139  1  0  0  0
 64140  1  0  0  0
 65141  1  0  0  0
 68 79  1  0  0  0
 71 72  1  0  0  0
 71 74  2  0  0  0
 71142  1  0  0  0
 72 73  2  0  0  0
 72 75  1  0  0  0
 73 76  1  0  0  0
 73 82  1  0  0  0
 74 81  1  0  0  0
 74 82  1  0  0  0
 75 80  1  0  0  0
 75143  1  0  0  0
 75144  1  0  0  0
 76 80  1  0  0  0
 76145  1  0  0  0
 76146  1  0  0  0
 77147  1  0  0  0
 77148  1  0  0  0
 77149  1  0  0  0
 77 79  1  0  0  0
 78 79  1  0  0  0
 78 81  1  0  0  0
 78150  1  0  0  0
 78151  1  0  0  0
 79152  1  0  0  0
 81153  1  0  0  0
M  ISO  4   1 100  68 101  79 101  80 100
M  END
> <chiral flag>
0

> <version>
0

> <s_m_source_file>
/data/baiqing/PycharmProjects/Reinvent-master-3.2/result/LINK_invent/BTK/process_docking_weight1_custom_product_contain_oxygen_bond_distance_aromatic_linkinvent_7_9_3/rearranged_h_0150.sdf

> <i_m_source_file_index>
95

> <r_mmod_Potential_Energy-OPLS-2005>
446.265777587891

> <r_mmod_Stretch_Energy-OPLS-2005>
157.637008666992

> <r_mmod_Bend_Energy-OPLS-2005>
305.536712646484

> <r_mmod_Torsional_Energy-OPLS-2005>
263.625671386719

> <r_mmod_Improper_Torsional_Energy-OPLS-2005>
10.1561555862427

> <r_mmod_Van_der_Waal_Energy-OPLS-2005>
120.409194946289

> <r_mmod_Electrostatic_Energy-OPLS-2005>
-325.88037109375

> <r_mmod_Solvation_Energy-OPLS-2005>
-218.222763061523

> <b_mmod_Minimization_Converged-OPLS-2005>
0

> <r_mmod_RMS_Derivative-OPLS-2005>
2.7033474445343

$$$$
95
                    3D
 Structure written by MMmdl.
166175  0  0  1  0            999 V2000
  -30.6673  -14.5959   20.5224 C   0  0  0  0  0  0
  -30.4393  -12.3761   19.4431 C   0  0  0  0  0  0
  -29.5061  -12.5174   18.2197 C   0  0  0  0  0  0
  -28.0300  -12.3558   18.6337 C   0  0  0  0  0  0
  -27.6608  -13.2060   19.8787 C   0  0  2  0  0  0
  -28.7105  -13.0536   21.0040 C   0  0  0  0  0  0
  -25.2593  -13.8132   20.5719 C   0  0  0  0  0  0
  -24.1829  -13.0414   20.9187 C   0  0  0  0  0  0
  -24.6391  -11.6884   20.8733 C   0  0  0  0  0  0
  -23.9062  -10.4270   21.0393 C   0  0  0  0  0  0
  -24.3615   -9.4189   21.9179 C   0  0  0  0  0  0
  -23.6286   -8.2225   22.0751 C   0  0  0  0  0  0
  -22.4255   -8.0279   21.3546 C   0  0  0  0  0  0
  -21.9895   -9.0255   20.4648 C   0  0  0  0  0  0
  -22.7231  -10.2127   20.3045 C   0  0  0  0  0  0
  -21.6844   -6.0731   22.5266 C   0  0  0  0  0  0
  -21.4004   -6.5627   23.8200 C   0  0  0  0  0  0
  -21.3663   -5.6779   24.9168 C   0  0  0  0  0  0
  -21.6050   -4.3048   24.7205 C   0  0  0  0  0  0
  -21.8826   -3.8143   23.4324 C   0  0  0  0  0  0
  -21.9197   -4.6965   22.3385 C   0  0  0  0  0  0
  -22.7845  -13.5225   21.1848 C   0  0  0  0  0  0
  -22.1659   -4.2156   21.0959 F   0  0  0  0  0  0
  -21.5648   -3.4533   25.7718 F   0  0  0  0  0  0
  -30.0320  -13.3840   20.4429 N   0  0  0  0  0  0
  -26.3032  -12.9296   20.3414 N   0  0  0  0  0  0
  -25.9331  -11.6461   20.5782 N   0  0  0  0  0  0
  -22.0490  -12.8217   22.0401 N   0  0  0  0  0  0
  -25.4365  -15.1849   20.4137 N   0  0  0  0  0  0
  -31.7993  -14.7686   20.0647 O   0  0  0  0  0  0
  -21.6634   -6.8867   21.4221 O   0  0  0  0  0  0
  -22.3543  -14.5558   20.6745 O   0  0  0  0  0  0
  -24.6235  -31.8625   23.2068 C   0  0  0  0  0  0
  -25.9105  -32.4792   23.8372 C   0  0  1  0  0  0
  -27.2285  -27.3548   20.1130 C   0  0  0  0  0  0
  -25.5949  -33.8584   24.2312 N   0  0  0  0  0  0
  -23.4136  -30.4873   21.5485 C   0  0  2  0  0  0
  -24.8612  -28.9474   20.1138 C   0  0  0  0  0  0
  -22.7454  -29.4638   22.4965 C   0  0  0  0  0  0
  -18.0284  -28.1380   22.8476 C   0  0  0  0  0  0
  -24.1487  -36.7285   23.2632 C   0  0  0  0  0  0
  -25.9506  -30.8049   21.3720 C   0  0  0  0  0  0
  -26.0274  -29.4334   20.7178 C   0  0  0  0  0  0
  -27.2142  -28.6485   20.7097 C   0  0  0  0  0  0
  -26.0442  -26.9181   19.4763 C   0  0  0  0  0  0
  -24.8699  -27.6932   19.4840 C   0  0  0  0  0  0
  -23.6266  -29.8226   20.1630 C   0  0  0  0  0  0
  -25.4100  -36.3082   24.0338 C   0  0  1  0  0  0
  -20.5878  -28.3678   23.1294 C   0  0  2  0  0  0
  -20.6779  -26.9405   22.5414 C   0  0  0  0  0  0
  -19.5763  -26.6381   21.5206 C   0  0  0  0  0  0
  -18.1936  -26.7928   22.1606 C   0  0  0  0  0  0
  -19.1539  -28.8844   23.2878 C   0  0  0  0  0  0
  -18.9456  -30.1448   23.8888 C   0  0  0  0  0  0
  -17.6460  -30.6586   24.0554 C   0  0  0  0  0  0
  -25.9036  -34.9456   23.5114 C   0  0  0  0  0  0
  -16.5350  -29.9074   23.6333 C   0  0  0  0  0  0
  -16.7278  -28.6497   23.0346 C   0  0  0  0  0  0
  -26.4513  -31.6573   25.0717 C   0  0  0  0  0  0
  -25.3760  -31.3712   26.1454 C   0  0  0  0  0  0
  -27.0340  -30.2999   24.6134 C   0  0  0  0  0  0
  -27.6081  -32.4286   25.7492 C   0  0  0  0  0  0
  -27.5581  -37.1788   24.8459 C   0  0  0  0  0  0
  -21.4174  -29.3042   22.3705 N   0  0  0  0  0  0
  -26.4280  -37.3769   23.9423 N   0  0  0  0  0  0
  -24.6805  -31.0671   22.0999 N   0  0  0  0  0  0
  -23.4201  -28.8159   23.3017 O   0  0  0  0  0  0
  -28.3629  -26.5385   20.1342 O   0  0  0  0  0  0
  -26.5576  -34.8918   22.4665 O   0  0  0  0  0  0
  -23.5411  -32.1407   23.7435 O   0  0  0  0  0  0
  -29.1593  -19.4651   19.2202 C   0  0  0  0  0  0
  -30.3827  -18.1471   20.8747 C   0  0  0  0  0  0
  -28.8266  -17.0474   19.3682 C   0  0  0  0  0  0
  -30.0973  -19.4239   20.2716 C   0  0  0  0  0  0
  -28.5161  -18.2889   18.7759 C   0  0  0  0  0  0
  -29.7663  -16.9376   20.4163 C   0  0  0  0  0  0
  -30.8790  -20.6572   20.6056 C   0  0  0  0  0  0
  -30.6078  -24.3962   20.9389 C   0  0  0  0  0  0
  -31.4129  -23.0837   20.9268 C   0  0  0  0  0  0
  -29.1071  -22.6045   20.5183 C   0  0  0  0  0  0
  -29.3436  -24.1134   20.1199 C   0  0  2  0  0  0
  -29.6359  -24.2010   18.6063 C   0  0  0  0  0  0
  -28.1682  -25.1154   20.4598 C   0  0  0  0  0  0
  -27.4860  -18.3364   17.6549 C   0  0  0  0  0  0
  -30.4617  -21.9759   20.6538 N   0  0  0  0  0  0
  -29.9480  -15.6346   21.0298 N   0  0  0  0  0  0
  -32.1745  -20.4379   20.8385 N   0  3  0  0  0  0
  -27.5413  -19.4892   16.9872 F   0  0  0  0  0  0
  -27.6994  -17.3392   16.7947 F   0  0  0  0  0  0
  -26.2668  -18.2014   18.1773 F   0  0  0  0  0  0
  -31.4810  -12.4907   19.1369 H   0  0  0  0  0  0
  -30.3670  -11.3750   19.8701 H   0  0  0  0  0  0
  -29.7620  -11.7754   17.4613 H   0  0  0  0  0  0
  -29.6526  -13.4941   17.7520 H   0  0  0  0  0  0
  -27.8563  -11.2991   18.8431 H   0  0  0  0  0  0
  -27.3776  -12.6136   17.7988 H   0  0  0  0  0  0
  -27.6786  -14.2396   19.5519 H   0  0  0  0  0  0
  -28.7143  -12.0309   21.3836 H   0  0  0  0  0  0
  -28.4607  -13.6836   21.8589 H   0  0  0  0  0  0
  -25.2767   -9.5674   22.4747 H   0  0  0  0  0  0
  -24.0025   -7.4592   22.7445 H   0  0  0  0  0  0
  -21.0844   -8.8772   19.8924 H   0  0  0  0  0  0
  -22.3714  -10.9668   19.6149 H   0  0  0  0  0  0
  -21.1983   -7.6131   23.9704 H   0  0  0  0  0  0
  -21.1485   -6.0507   25.9068 H   0  0  0  0  0  0
  -22.0610   -2.7614   23.2818 H   0  0  0  0  0  0
  -22.4074  -11.9861   22.4779 H   0  0  0  0  0  0
  -21.1107  -13.1255   22.2600 H   0  0  0  0  0  0
  -24.6817  -15.8507   20.5370 H   0  0  0  0  0  0
  -26.3025  -15.6179   20.1294 H   0  0  0  0  0  0
  -26.7167  -32.5485   23.1111 H   0  0  0  0  0  0
  -25.0178  -33.9720   25.0520 H   0  0  0  0  0  0
  -22.7045  -31.3068   21.4099 H   0  0  0  0  0  0
  -23.3762  -35.9604   23.3266 H   0  0  0  0  0  0
  -24.3593  -36.8924   22.2053 H   0  0  0  0  0  0
  -23.7229  -37.6479   23.6656 H   0  0  0  0  0  0
  -26.0741  -31.5687   20.6031 H   0  0  0  0  0  0
  -26.8335  -30.8563   21.9973 H   0  0  0  0  0  0
  -28.1106  -29.0168   21.1886 H   0  0  0  0  0  0
  -26.0075  -25.9759   18.9514 H   0  0  0  0  0  0
  -23.9791  -27.3210   18.9967 H   0  0  0  0  0  0
  -23.7422  -30.5988   19.4053 H   0  0  0  0  0  0
  -22.7471  -29.2496   19.8633 H   0  0  0  0  0  0
  -25.1274  -36.1925   25.0830 H   0  0  0  0  0  0
  -20.9962  -28.3251   24.1416 H   0  0  0  0  0  0
  -20.5677  -26.2282   23.3604 H   0  0  0  0  0  0
  -21.6649  -26.7446   22.1211 H   0  0  0  0  0  0
  -19.6916  -25.6285   21.1247 H   0  0  0  0  0  0
  -19.6707  -27.3180   20.6721 H   0  0  0  0  0  0
  -17.4205  -26.6678   21.4002 H   0  0  0  0  0  0
  -18.0328  -26.0078   22.9012 H   0  0  0  0  0  0
  -19.7928  -30.7270   24.2258 H   0  0  0  0  0  0
  -17.5009  -31.6265   24.5156 H   0  0  0  0  0  0
  -15.5346  -30.2964   23.7667 H   0  0  0  0  0  0
  -15.8678  -28.0810   22.7063 H   0  0  0  0  0  0
  -24.5954  -30.7025   25.7805 H   0  0  0  0  0  0
  -24.8935  -32.2885   26.4836 H   0  0  0  0  0  0
  -25.8110  -30.8942   27.0248 H   0  0  0  0  0  0
  -26.2897  -29.6757   24.1176 H   0  0  0  0  0  0
  -27.4076  -29.7234   25.4608 H   0  0  0  0  0  0
  -27.8749  -30.4283   23.9313 H   0  0  0  0  0  0
  -27.2705  -33.3591   26.2059 H   0  0  0  0  0  0
  -28.3907  -32.6823   25.0332 H   0  0  0  0  0  0
  -28.0725  -31.8413   26.5424 H   0  0  0  0  0  0
  -28.2566  -38.0116   24.7540 H   0  0  0  0  0  0
  -28.1111  -36.2650   24.6226 H   0  0  0  0  0  0
  -27.2316  -37.1372   25.8865 H   0  0  0  0  0  0
  -20.9346  -29.8777   21.6927 H   0  0  0  0  0  0
  -26.0166  -38.2845   24.1439 H   0  0  0  0  0  0
  -28.9584  -20.3950   18.7087 H   0  0  0  0  0  0
  -31.0989  -18.0915   21.6834 H   0  0  0  0  0  0
  -28.3240  -16.1721   18.9942 H   0  0  0  0  0  0
  -31.1819  -25.2233   20.5224 H   0  0  0  0  0  0
  -30.3588  -24.6606   21.9667 H   0  0  0  0  0  0
  -31.9406  -22.9467   21.8727 H   0  0  0  0  0  0
  -32.1605  -23.1210   20.1323 H   0  0  0  0  0  0
  -28.4692  -22.1072   19.7903 H   0  0  0  0  0  0
  -28.5980  -22.5371   21.4820 H   0  0  0  0  0  0
  -30.4511  -23.5449   18.2989 H   0  0  0  0  0  0
  -29.9046  -25.2173   18.3177 H   0  0  0  0  0  0
  -28.7586  -23.9185   18.0225 H   0  0  0  0  0  0
  -27.9574  -25.0574   21.5292 H   0  0  0  0  0  0
  -27.2828  -24.7075   19.9777 H   0  0  0  0  0  0
  -29.1283  -15.3003   21.5125 H   0  0  0  0  0  0
  -32.5409  -19.5073   20.7135 H   0  0  0  0  0  0
  -32.8162  -21.1724   21.0775 H   0  0  0  0  0  0
  1 25  1  0  0  0
  1 30  2  0  0  0
  1 86  1  0  0  0
  2  3  1  0  0  0
  2 25  1  0  0  0
  2 91  1  0  0  0
  2 92  1  0  0  0
  3  4  1  0  0  0
  3 93  1  0  0  0
  3 94  1  0  0  0
  4  5  1  0  0  0
  4 95  1  0  0  0
  4 96  1  0  0  0
  5  6  1  0  0  0
  5 26  1  0  0  0
  5 97  1  0  0  0
  6 25  1  0  0  0
  6 98  1  0  0  0
  6 99  1  0  0  0
  7  8  2  0  0  0
  7 26  1  0  0  0
  7 29  1  0  0  0
  8  9  1  0  0  0
  8 22  1  0  0  0
  9 10  1  0  0  0
  9 27  2  0  0  0
 10 11  2  0  0  0
 10 15  1  0  0  0
 11 12  1  0  0  0
 11100  1  0  0  0
 12 13  2  0  0  0
 12101  1  0  0  0
 13 14  1  0  0  0
 13 31  1  0  0  0
 14 15  2  0  0  0
 14102  1  0  0  0
 15103  1  0  0  0
 16 17  2  0  0  0
 16 21  1  0  0  0
 16 31  1  0  0  0
 17 18  1  0  0  0
 17104  1  0  0  0
 18 19  2  0  0  0
 18105  1  0  0  0
 19 20  1  0  0  0
 19 24  1  0  0  0
 20 21  2  0  0  0
 20106  1  0  0  0
 21 23  1  0  0  0
 22 28  1  0  0  0
 22 32  2  0  0  0
 26 27  1  0  0  0
 28107  1  0  0  0
 28108  1  0  0  0
 29109  1  0  0  0
 29110  1  0  0  0
 33 34  1  0  0  0
 33 66  1  0  0  0
 33 70  2  0  0  0
 34 36  1  0  0  0
 34 59  1  0  0  0
 34111  1  0  0  0
 35 44  2  0  0  0
 35 45  1  0  0  0
 35 68  1  0  0  0
 36 56  1  0  0  0
 36112  1  0  0  0
 37 39  1  0  0  0
 37 47  1  0  0  0
 37 66  1  0  0  0
 37113  1  0  0  0
 38 43  2  0  0  0
 38 46  1  0  0  0
 38 47  1  0  0  0
 39 64  1  0  0  0
 39 67  2  0  0  0
 40 52  1  0  0  0
 40 53  2  0  0  0
 40 58  1  0  0  0
 41114  1  0  0  0
 41115  1  0  0  0
 41116  1  0  0  0
 41 48  1  0  0  0
 42 43  1  0  0  0
 42 66  1  0  0  0
 42117  1  0  0  0
 42118  1  0  0  0
 43 44  1  0  0  0
 44119  1  0  0  0
 45 46  2  0  0  0
 45120  1  0  0  0
 46121  1  0  0  0
 47122  1  0  0  0
 47123  1  0  0  0
 48 56  1  0  0  0
 48 65  1  0  0  0
 48124  1  0  0  0
 49 50  1  0  0  0
 49 53  1  0  0  0
 49 64  1  0  0  0
 49125  1  0  0  0
 50 51  1  0  0  0
 50126  1  0  0  0
 50127  1  0  0  0
 51 52  1  0  0  0
 51128  1  0  0  0
 51129  1  0  0  0
 52130  1  0  0  0
 52131  1  0  0  0
 53 54  1  0  0  0
 54 55  2  0  0  0
 54132  1  0  0  0
 55 57  1  0  0  0
 55133  1  0  0  0
 56 69  2  0  0  0
 57 58  2  0  0  0
 57134  1  0  0  0
 58135  1  0  0  0
 59 60  1  0  0  0
 59 61  1  0  0  0
 59 62  1  0  0  0
 60136  1  0  0  0
 60137  1  0  0  0
 60138  1  0  0  0
 61139  1  0  0  0
 61140  1  0  0  0
 61141  1  0  0  0
 62142  1  0  0  0
 62143  1  0  0  0
 62144  1  0  0  0
 63 65  1  0  0  0
 63145  1  0  0  0
 63146  1  0  0  0
 63147  1  0  0  0
 64148  1  0  0  0
 65149  1  0  0  0
 68 83  1  0  0  0
 71 74  2  0  0  0
 71 75  1  0  0  0
 71150  1  0  0  0
 72 74  1  0  0  0
 72 76  2  0  0  0
 72151  1  0  0  0
 73 75  2  0  0  0
 73 76  1  0  0  0
 73152  1  0  0  0
 74 77  1  0  0  0
 75 84  1  0  0  0
 76 86  1  0  0  0
 77 85  1  0  0  0
 77 87  2  0  0  0
 78 79  1  0  0  0
 78 81  1  0  0  0
 78153  1  0  0  0
 78154  1  0  0  0
 79 85  1  0  0  0
 79155  1  0  0  0
 79156  1  0  0  0
 80 81  1  0  0  0
 80 85  1  0  0  0
 80157  1  0  0  0
 80158  1  0  0  0
 81 82  1  0  0  0
 81 83  1  0  0  0
 82159  1  0  0  0
 82160  1  0  0  0
 82161  1  0  0  0
 83162  1  0  0  0
 83163  1  0  0  0
 84 88  1  0  0  0
 84 89  1  0  0  0
 84 90  1  0  0  0
 86164  1  0  0  0
 87165  1  0  0  0
 87166  1  0  0  0
M  CHG  1  87   1
M  ISO  4   1 100  68 101  83 101  86 100
M  END
> <chiral flag>
0

> <version>
0

> <s_m_source_file>
/data/baiqing/PycharmProjects/Reinvent-master-3.2/result/LINK_invent/BTK/process_docking_weight1_custom_product_contain_oxygen_bond_distance_aromatic_linkinvent_7_9_3/rearranged_h_0150.sdf

> <i_m_source_file_index>
96

> <r_mmod_Potential_Energy-OPLS-2005>
-55.247730255127

> <r_mmod_Stretch_Energy-OPLS-2005>
67.8276596069336

> <r_mmod_Bend_Energy-OPLS-2005>
162.616683959961

> <r_mmod_Torsional_Energy-OPLS-2005>
330.579132080078

> <r_mmod_Improper_Torsional_Energy-OPLS-2005>
6.85348749160767

> <r_mmod_Van_der_Waal_Energy-OPLS-2005>
147.751541137695

> <r_mmod_Electrostatic_Energy-OPLS-2005>
-400.704925537109

> <r_mmod_Solvation_Energy-OPLS-2005>
-403.632904052734

> <b_mmod_Minimization_Converged-OPLS-2005>
0

> <r_mmod_RMS_Derivative-OPLS-2005>
2.52497148513794

$$$$
96
                    3D
 Structure written by MMmdl.
164173  0  0  1  0            999 V2000
  -30.7295  -14.5111   20.5355 C   0  0  0  0  0  0
  -30.4153  -12.3258   19.4312 C   0  0  0  0  0  0
  -29.4922  -12.4969   18.2064 C   0  0  0  0  0  0
  -28.0162  -12.3531   18.6254 C   0  0  0  0  0  0
  -27.6540  -13.2197   19.8616 C   0  0  2  0  0  0
  -28.7015  -13.0638   20.9881 C   0  0  0  0  0  0
  -25.2546  -13.8180   20.5692 C   0  0  0  0  0  0
  -24.1815  -13.0438   20.9205 C   0  0  0  0  0  0
  -24.6394  -11.6910   20.8745 C   0  0  0  0  0  0
  -23.9066  -10.4285   21.0403 C   0  0  0  0  0  0
  -24.3620   -9.4200   21.9178 C   0  0  0  0  0  0
  -23.6292   -8.2245   22.0746 C   0  0  0  0  0  0
  -22.4275   -8.0274   21.3539 C   0  0  0  0  0  0
  -21.9916   -9.0247   20.4647 C   0  0  0  0  0  0
  -22.7242  -10.2128   20.3052 C   0  0  0  0  0  0
  -21.6855   -6.0726   22.5279 C   0  0  0  0  0  0
  -21.4005   -6.5636   23.8205 C   0  0  0  0  0  0
  -21.3660   -5.6792   24.9162 C   0  0  0  0  0  0
  -21.6046   -4.3052   24.7228 C   0  0  0  0  0  0
  -21.8828   -3.8139   23.4355 C   0  0  0  0  0  0
  -21.9193   -4.6953   22.3403 C   0  0  0  0  0  0
  -22.7827  -13.5229   21.1850 C   0  0  0  0  0  0
  -22.1662   -4.2139   21.0987 F   0  0  0  0  0  0
  -21.5639   -3.4545   25.7744 F   0  0  0  0  0  0
  -30.0273  -13.3478   20.4195 N   0  0  0  0  0  0
  -26.2996  -12.9377   20.3341 N   0  0  0  0  0  0
  -25.9331  -11.6530   20.5774 N   0  0  0  0  0  0
  -22.0463  -12.8222   22.0406 N   0  0  0  0  0  0
  -25.4265  -15.1900   20.4100 N   0  0  0  0  0  0
  -31.8832  -14.6155   20.1161 O   0  0  0  0  0  0
  -21.6636   -6.8874   21.4237 O   0  0  0  0  0  0
  -22.3529  -14.5543   20.6697 O   0  0  0  0  0  0
  -24.6194  -31.8668   23.2083 C   0  0  0  0  0  0
  -25.9076  -32.4812   23.8383 C   0  0  1  0  0  0
  -27.2208  -27.3931   20.1024 C   0  0  0  0  0  0
  -25.5935  -33.8614   24.2320 N   0  0  0  0  0  0
  -23.4060  -30.4916   21.5535 C   0  0  2  0  0  0
  -24.8479  -28.9589   20.1158 C   0  0  0  0  0  0
  -22.7433  -29.4652   22.5011 C   0  0  0  0  0  0
  -18.0276  -28.1362   22.8494 C   0  0  0  0  0  0
  -24.1488  -36.7303   23.2627 C   0  0  0  0  0  0
  -25.9401  -30.8211   21.3644 C   0  0  0  0  0  0
  -26.0141  -29.4534   20.7124 C   0  0  0  0  0  0
  -27.2028  -28.6798   20.7007 C   0  0  0  0  0  0
  -26.0259  -26.9307   19.4944 C   0  0  0  0  0  0
  -24.8510  -27.6975   19.5041 C   0  0  0  0  0  0
  -23.6123  -29.8282   20.1673 C   0  0  0  0  0  0
  -25.4104  -36.3102   24.0333 C   0  0  1  0  0  0
  -20.5870  -28.3656   23.1329 C   0  0  2  0  0  0
  -20.6767  -26.9391   22.5418 C   0  0  0  0  0  0
  -19.5746  -26.6370   21.5215 C   0  0  0  0  0  0
  -18.1929  -26.7913   22.1621 C   0  0  0  0  0  0
  -19.1524  -28.8824   23.2907 C   0  0  0  0  0  0
  -18.9448  -30.1430   23.8917 C   0  0  0  0  0  0
  -17.6450  -30.6572   24.0563 C   0  0  0  0  0  0
  -25.9044  -34.9474   23.5117 C   0  0  0  0  0  0
  -16.5343  -29.9072   23.6325 C   0  0  0  0  0  0
  -16.7263  -28.6483   23.0358 C   0  0  0  0  0  0
  -26.4477  -31.6590   25.0721 C   0  0  0  0  0  0
  -25.3726  -31.3709   26.1458 C   0  0  0  0  0  0
  -27.0278  -30.3026   24.6072 C   0  0  0  0  0  0
  -27.6066  -32.4283   25.7492 C   0  0  0  0  0  0
  -27.5587  -37.1790   24.8454 C   0  0  0  0  0  0
  -21.4161  -29.3030   22.3752 N   0  0  0  0  0  0
  -26.4280  -37.3796   23.9425 N   0  0  0  0  0  0
  -24.6746  -31.0745   22.1002 N   0  0  0  0  0  0
  -23.4194  -28.8180   23.3048 O   0  0  0  0  0  0
  -28.3739  -26.6142   20.1413 O   0  0  0  0  0  0
  -26.5596  -34.8927   22.4671 O   0  0  0  0  0  0
  -23.5385  -32.1449   23.7460 O   0  0  0  0  0  0
  -31.7225  -19.5594   20.9306 C   0  0  0  0  0  0
  -29.8435  -18.0626   20.4922 C   0  0  0  0  0  0
  -31.8656  -17.1977   21.5412 C   0  0  0  0  0  0
  -30.4161  -19.3714   20.4301 C   0  0  0  0  0  0
  -32.4372  -18.4878   21.4978 C   0  0  0  0  0  0
  -30.5783  -16.9535   21.0016 C   0  0  0  0  0  0
  -29.2540  -22.9249   19.2911 C   0  0  0  0  0  0
  -29.7461  -20.4798   19.6994 C   0  0  0  0  0  0
  -29.7082  -23.8194   21.4512 C   0  0  0  0  0  0
  -30.1958  -22.3557   21.3729 C   0  0  0  0  0  0
  -29.4704  -24.2802   20.0014 C   0  0  1  0  0  0
  -30.7220  -24.9573   19.4015 C   0  0  0  0  0  0
  -28.2262  -25.2102   19.8041 C   0  0  0  0  0  0
  -29.7208  -21.8035   20.0868 N   0  0  0  0  0  0
  -33.7276  -18.7097   21.9803 N   0  0  0  0  0  0
  -30.0462  -15.6103   20.9450 N   0  0  0  0  0  0
  -29.1721  -20.1218   18.5467 N   0  3  0  0  0  0
  -28.7679  -22.8100   18.1596 O   0  0  0  0  0  0
  -31.4621  -12.4000   19.1283 H   0  0  0  0  0  0
  -30.3073  -11.3293   19.8640 H   0  0  0  0  0  0
  -29.7412  -11.7559   17.4455 H   0  0  0  0  0  0
  -29.6542  -13.4723   17.7444 H   0  0  0  0  0  0
  -27.8479  -11.3003   18.8514 H   0  0  0  0  0  0
  -27.3590  -12.5939   17.7897 H   0  0  0  0  0  0
  -27.6759  -14.2585   19.5321 H   0  0  0  0  0  0
  -28.6842  -12.0509   21.3949 H   0  0  0  0  0  0
  -28.4737  -13.7258   21.8263 H   0  0  0  0  0  0
  -25.2761   -9.5677   22.4749 H   0  0  0  0  0  0
  -24.0005   -7.4647   22.7471 H   0  0  0  0  0  0
  -21.0844   -8.8756   19.8970 H   0  0  0  0  0  0
  -22.3689  -10.9657   19.6159 H   0  0  0  0  0  0
  -21.1988   -7.6138   23.9712 H   0  0  0  0  0  0
  -21.1472   -6.0511   25.9069 H   0  0  0  0  0  0
  -22.0608   -2.7607   23.2849 H   0  0  0  0  0  0
  -22.4062  -11.9884   22.4803 H   0  0  0  0  0  0
  -21.1072  -13.1228   22.2594 H   0  0  0  0  0  0
  -24.6608  -15.8442   20.5297 H   0  0  0  0  0  0
  -26.2758  -15.6295   20.0784 H   0  0  0  0  0  0
  -26.7145  -32.5493   23.1142 H   0  0  0  0  0  0
  -25.0136  -33.9773   25.0499 H   0  0  0  0  0  0
  -22.6962  -31.3098   21.4161 H   0  0  0  0  0  0
  -23.3767  -35.9615   23.3254 H   0  0  0  0  0  0
  -24.3604  -36.8955   22.2051 H   0  0  0  0  0  0
  -23.7213  -37.6484   23.6662 H   0  0  0  0  0  0
  -26.0503  -31.5810   20.5900 H   0  0  0  0  0  0
  -26.8315  -30.8788   21.9773 H   0  0  0  0  0  0
  -28.1015  -29.0560   21.1702 H   0  0  0  0  0  0
  -25.9554  -25.9697   19.0100 H   0  0  0  0  0  0
  -23.9535  -27.3094   19.0418 H   0  0  0  0  0  0
  -23.7213  -30.6044   19.4091 H   0  0  0  0  0  0
  -22.7340  -29.2506   19.8715 H   0  0  0  0  0  0
  -25.1272  -36.1962   25.0824 H   0  0  0  0  0  0
  -20.9953  -28.3203   24.1454 H   0  0  0  0  0  0
  -20.5682  -26.2255   23.3600 H   0  0  0  0  0  0
  -21.6638  -26.7448   22.1197 H   0  0  0  0  0  0
  -19.6915  -25.6289   21.1230 H   0  0  0  0  0  0
  -19.6695  -27.3195   20.6761 H   0  0  0  0  0  0
  -17.4208  -26.6686   21.4014 H   0  0  0  0  0  0
  -18.0317  -26.0039   22.8997 H   0  0  0  0  0  0
  -19.7920  -30.7243   24.2307 H   0  0  0  0  0  0
  -17.4997  -31.6262   24.5138 H   0  0  0  0  0  0
  -15.5342  -30.2975   23.7627 H   0  0  0  0  0  0
  -15.8663  -28.0794   22.7083 H   0  0  0  0  0  0
  -24.5944  -30.6990   25.7817 H   0  0  0  0  0  0
  -24.8852  -32.2859   26.4834 H   0  0  0  0  0  0
  -25.8070  -30.8956   27.0260 H   0  0  0  0  0  0
  -26.2802  -29.6820   24.1107 H   0  0  0  0  0  0
  -27.4048  -29.7223   25.4505 H   0  0  0  0  0  0
  -27.8649  -30.4359   23.9212 H   0  0  0  0  0  0
  -27.2724  -33.3610   26.2046 H   0  0  0  0  0  0
  -28.3901  -32.6779   25.0326 H   0  0  0  0  0  0
  -28.0686  -31.8392   26.5425 H   0  0  0  0  0  0
  -28.2559  -38.0132   24.7568 H   0  0  0  0  0  0
  -28.1126  -36.2671   24.6185 H   0  0  0  0  0  0
  -27.2319  -37.1318   25.8855 H   0  0  0  0  0  0
  -20.9325  -29.8781   21.7002 H   0  0  0  0  0  0
  -26.0168  -38.2860   24.1475 H   0  0  0  0  0  0
  -32.2096  -20.5180   20.8391 H   0  0  0  0  0  0
  -28.8564  -17.8969   20.0825 H   0  0  0  0  0  0
  -32.4372  -16.3823   21.9628 H   0  0  0  0  0  0
  -30.4453  -24.4487   21.9518 H   0  0  0  0  0  0
  -28.7962  -23.8755   22.0472 H   0  0  0  0  0  0
  -29.8396  -21.7722   22.2242 H   0  0  0  0  0  0
  -31.2842  -22.3571   21.4072 H   0  0  0  0  0  0
  -31.6283  -24.3786   19.5825 H   0  0  0  0  0  0
  -30.8845  -25.9414   19.8412 H   0  0  0  0  0  0
  -30.6251  -25.0953   18.3225 H   0  0  0  0  0  0
  -27.3948  -24.7881   20.3740 H   0  0  0  0  0  0
  -27.9437  -25.1705   18.7507 H   0  0  0  0  0  0
  -34.2444  -19.4997   21.6038 H   0  0  0  0  0  0
  -34.3258  -17.9002   22.1153 H   0  0  0  0  0  0
  -29.0552  -15.4908   21.0840 H   0  0  0  0  0  0
  -29.2447  -19.1773   18.2029 H   0  0  0  0  0  0
  -28.7811  -20.8476   17.9581 H   0  0  0  0  0  0
  1 25  1  0  0  0
  1 30  2  0  0  0
  1 86  1  0  0  0
  2  3  1  0  0  0
  2 25  1  0  0  0
  2 89  1  0  0  0
  2 90  1  0  0  0
  3  4  1  0  0  0
  3 91  1  0  0  0
  3 92  1  0  0  0
  4  5  1  0  0  0
  4 93  1  0  0  0
  4 94  1  0  0  0
  5  6  1  0  0  0
  5 26  1  0  0  0
  5 95  1  0  0  0
  6 25  1  0  0  0
  6 96  1  0  0  0
  6 97  1  0  0  0
  7  8  2  0  0  0
  7 26  1  0  0  0
  7 29  1  0  0  0
  8  9  1  0  0  0
  8 22  1  0  0  0
  9 10  1  0  0  0
  9 27  2  0  0  0
 10 11  2  0  0  0
 10 15  1  0  0  0
 11 12  1  0  0  0
 11 98  1  0  0  0
 12 13  2  0  0  0
 12 99  1  0  0  0
 13 14  1  0  0  0
 13 31  1  0  0  0
 14 15  2  0  0  0
 14100  1  0  0  0
 15101  1  0  0  0
 16 17  2  0  0  0
 16 21  1  0  0  0
 16 31  1  0  0  0
 17 18  1  0  0  0
 17102  1  0  0  0
 18 19  2  0  0  0
 18103  1  0  0  0
 19 20  1  0  0  0
 19 24  1  0  0  0
 20 21  2  0  0  0
 20104  1  0  0  0
 21 23  1  0  0  0
 22 28  1  0  0  0
 22 32  2  0  0  0
 26 27  1  0  0  0
 28105  1  0  0  0
 28106  1  0  0  0
 29107  1  0  0  0
 29108  1  0  0  0
 33 34  1  0  0  0
 33 66  1  0  0  0
 33 70  2  0  0  0
 34 36  1  0  0  0
 34 59  1  0  0  0
 34109  1  0  0  0
 35 44  2  0  0  0
 35 45  1  0  0  0
 35 68  1  0  0  0
 36 56  1  0  0  0
 36110  1  0  0  0
 37 39  1  0  0  0
 37 47  1  0  0  0
 37 66  1  0  0  0
 37111  1  0  0  0
 38 43  2  0  0  0
 38 46  1  0  0  0
 38 47  1  0  0  0
 39 64  1  0  0  0
 39 67  2  0  0  0
 40 52  1  0  0  0
 40 53  2  0  0  0
 40 58  1  0  0  0
 41112  1  0  0  0
 41113  1  0  0  0
 41114  1  0  0  0
 41 48  1  0  0  0
 42 43  1  0  0  0
 42 66  1  0  0  0
 42115  1  0  0  0
 42116  1  0  0  0
 43 44  1  0  0  0
 44117  1  0  0  0
 45 46  2  0  0  0
 45118  1  0  0  0
 46119  1  0  0  0
 47120  1  0  0  0
 47121  1  0  0  0
 48 56  1  0  0  0
 48 65  1  0  0  0
 48122  1  0  0  0
 49 50  1  0  0  0
 49 53  1  0  0  0
 49 64  1  0  0  0
 49123  1  0  0  0
 50 51  1  0  0  0
 50124  1  0  0  0
 50125  1  0  0  0
 51 52  1  0  0  0
 51126  1  0  0  0
 51127  1  0  0  0
 52128  1  0  0  0
 52129  1  0  0  0
 53 54  1  0  0  0
 54 55  2  0  0  0
 54130  1  0  0  0
 55 57  1  0  0  0
 55131  1  0  0  0
 56 69  2  0  0  0
 57 58  2  0  0  0
 57132  1  0  0  0
 58133  1  0  0  0
 59 60  1  0  0  0
 59 61  1  0  0  0
 59 62  1  0  0  0
 60134  1  0  0  0
 60135  1  0  0  0
 60136  1  0  0  0
 61137  1  0  0  0
 61138  1  0  0  0
 61139  1  0  0  0
 62140  1  0  0  0
 62141  1  0  0  0
 62142  1  0  0  0
 63 65  1  0  0  0
 63143  1  0  0  0
 63144  1  0  0  0
 63145  1  0  0  0
 64146  1  0  0  0
 65147  1  0  0  0
 68 83  1  0  0  0
 71 74  2  0  0  0
 71 75  1  0  0  0
 71148  1  0  0  0
 72 74  1  0  0  0
 72 76  2  0  0  0
 72149  1  0  0  0
 73 75  2  0  0  0
 73 76  1  0  0  0
 73150  1  0  0  0
 74 78  1  0  0  0
 75 85  1  0  0  0
 76 86  1  0  0  0
 77 81  1  0  0  0
 77 84  1  0  0  0
 77 88  2  0  0  0
 78 84  1  0  0  0
 78 87  2  0  0  0
 79 80  1  0  0  0
 79 81  1  0  0  0
 79151  1  0  0  0
 79152  1  0  0  0
 80 84  1  0  0  0
 80153  1  0  0  0
 80154  1  0  0  0
 81 82  1  0  0  0
 81 83  1  0  0  0
 82155  1  0  0  0
 82156  1  0  0  0
 82157  1  0  0  0
 83158  1  0  0  0
 83159  1  0  0  0
 85160  1  0  0  0
 85161  1  0  0  0
 86162  1  0  0  0
 87163  1  0  0  0
 87164  1  0  0  0
M  CHG  1  87   1
M  ISO  4   1 100  68 101  83 101  86 100
M  END
> <chiral flag>
0

> <version>
0

> <s_m_source_file>
/data/baiqing/PycharmProjects/Reinvent-master-3.2/result/LINK_invent/BTK/process_docking_weight1_custom_product_contain_oxygen_bond_distance_aromatic_linkinvent_7_9_3/rearranged_h_0150.sdf

> <i_m_source_file_index>
97

> <r_mmod_Potential_Energy-OPLS-2005>
-170.040908813477

> <r_mmod_Stretch_Energy-OPLS-2005>
52.0084838867188

> <r_mmod_Bend_Energy-OPLS-2005>
137.989212036133

> <r_mmod_Torsional_Energy-OPLS-2005>
270.320678710938

> <r_mmod_Improper_Torsional_Energy-OPLS-2005>
9.40134906768799

> <r_mmod_Van_der_Waal_Energy-OPLS-2005>
175.067626953125

> <r_mmod_Electrostatic_Energy-OPLS-2005>
-419.996704101562

> <r_mmod_Solvation_Energy-OPLS-2005>
-417.719787597656

> <b_mmod_Minimization_Converged-OPLS-2005>
0

> <r_mmod_RMS_Derivative-OPLS-2005>
2.64698457717896

$$$$
97
                    3D
 Structure written by MMmdl.
159168  0  0  1  0            999 V2000
  -30.6626  -14.6503   20.4540 C   0  0  0  0  0  0
  -30.4198  -12.3880   19.4684 C   0  0  0  0  0  0
  -29.5049  -12.4838   18.2302 C   0  0  0  0  0  0
  -28.0290  -12.3297   18.6440 C   0  0  0  0  0  0
  -27.6442  -13.2269   19.8520 C   0  0  2  0  0  0
  -28.6884  -13.1422   20.9868 C   0  0  0  0  0  0
  -25.2515  -13.8197   20.5690 C   0  0  0  0  0  0
  -24.1803  -13.0442   20.9203 C   0  0  0  0  0  0
  -24.6388  -11.6919   20.8748 C   0  0  0  0  0  0
  -23.9062  -10.4295   21.0404 C   0  0  0  0  0  0
  -24.3615   -9.4205   21.9175 C   0  0  0  0  0  0
  -23.6288   -8.2241   22.0745 C   0  0  0  0  0  0
  -22.4267   -8.0282   21.3542 C   0  0  0  0  0  0
  -21.9899   -9.0257   20.4647 C   0  0  0  0  0  0
  -22.7230  -10.2136   20.3056 C   0  0  0  0  0  0
  -21.6851   -6.0730   22.5271 C   0  0  0  0  0  0
  -21.4025   -6.5634   23.8206 C   0  0  0  0  0  0
  -21.3662   -5.6788   24.9171 C   0  0  0  0  0  0
  -21.6042   -4.3051   24.7222 C   0  0  0  0  0  0
  -21.8821   -3.8138   23.4344 C   0  0  0  0  0  0
  -21.9193   -4.6957   22.3399 C   0  0  0  0  0  0
  -22.7820  -13.5220   21.1859 C   0  0  0  0  0  0
  -22.1655   -4.2142   21.0975 F   0  0  0  0  0  0
  -21.5627   -3.4535   25.7732 F   0  0  0  0  0  0
  -29.9994  -13.4519   20.4047 N   0  0  0  0  0  0
  -26.2945  -12.9396   20.3287 N   0  0  0  0  0  0
  -25.9318  -11.6544   20.5766 N   0  0  0  0  0  0
  -22.0466  -12.8230   22.0434 N   0  0  0  0  0  0
  -25.4200  -15.1926   20.4091 N   0  0  0  0  0  0
  -31.8599  -14.6863   20.1658 O   0  0  0  0  0  0
  -21.6635   -6.8876   21.4236 O   0  0  0  0  0  0
  -22.3497  -14.5516   20.6692 O   0  0  0  0  0  0
  -24.6244  -31.8593   23.2036 C   0  0  0  0  0  0
  -25.9094  -32.4772   23.8359 C   0  0  1  0  0  0
  -27.2247  -27.3268   20.1068 C   0  0  0  0  0  0
  -25.5916  -33.8576   24.2291 N   0  0  0  0  0  0
  -23.4169  -30.4821   21.5460 C   0  0  2  0  0  0
  -24.8611  -28.9369   20.1102 C   0  0  0  0  0  0
  -22.7460  -29.4606   22.4943 C   0  0  0  0  0  0
  -18.0279  -28.1364   22.8484 C   0  0  0  0  0  0
  -24.1485  -36.7303   23.2631 C   0  0  0  0  0  0
  -25.9563  -30.7916   21.3715 C   0  0  0  0  0  0
  -26.0287  -29.4198   20.7123 C   0  0  0  0  0  0
  -27.2102  -28.6254   20.7016 C   0  0  0  0  0  0
  -26.0251  -26.8809   19.5050 C   0  0  0  0  0  0
  -24.8597  -27.6719   19.5014 C   0  0  0  0  0  0
  -23.6298  -29.8172   20.1604 C   0  0  0  0  0  0
  -25.4098  -36.3085   24.0333 C   0  0  1  0  0  0
  -20.5874  -28.3666   23.1287 C   0  0  2  0  0  0
  -20.6756  -26.9386   22.5413 C   0  0  0  0  0  0
  -19.5740  -26.6364   21.5207 C   0  0  0  0  0  0
  -18.1921  -26.7911   22.1614 C   0  0  0  0  0  0
  -19.1530  -28.8832   23.2881 C   0  0  0  0  0  0
  -18.9455  -30.1435   23.8895 C   0  0  0  0  0  0
  -17.6454  -30.6564   24.0559 C   0  0  0  0  0  0
  -25.9040  -34.9450   23.5112 C   0  0  0  0  0  0
  -16.5348  -29.9062   23.6322 C   0  0  0  0  0  0
  -16.7267  -28.6480   23.0347 C   0  0  0  0  0  0
  -26.4491  -31.6579   25.0722 C   0  0  0  0  0  0
  -25.3751  -31.3739   26.1482 C   0  0  0  0  0  0
  -27.0300  -30.2989   24.6168 C   0  0  0  0  0  0
  -27.6061  -32.4310   25.7466 C   0  0  0  0  0  0
  -27.5600  -37.1772   24.8440 C   0  0  0  0  0  0
  -21.4174  -29.3027   22.3691 N   0  0  0  0  0  0
  -26.4275  -37.3788   23.9440 N   0  0  0  0  0  0
  -24.6847  -31.0610   22.0976 N   0  0  0  0  0  0
  -23.4190  -28.8145   23.3018 O   0  0  0  0  0  0
  -28.3723  -26.5242   20.1602 O   0  0  0  0  0  0
  -26.5613  -34.8917   22.4683 O   0  0  0  0  0  0
  -23.5415  -32.1390   23.7371 O   0  0  0  0  0  0
  -31.8762  -18.9269   19.5827 C   0  0  0  0  0  0
  -30.9861  -19.9715   19.8764 C   0  0  0  0  0  0
  -31.5252  -17.5847   19.8204 C   0  0  0  0  0  0
  -29.3605  -18.3183   20.6361 C   0  0  0  0  0  0
  -29.7096  -19.7031   20.4019 C   0  0  0  0  0  0
  -30.2676  -17.2203   20.3704 C   0  0  0  0  0  0
  -29.4648  -23.3090   21.0192 C   0  0  0  0  0  0
  -27.9693  -22.6650   19.1718 C   0  0  0  0  0  0
  -29.2898  -21.8782   21.6384 C   0  0  0  0  0  0
  -27.7806  -21.2363   19.7901 C   0  0  0  0  0  0
  -28.2539  -23.8224   20.1849 C   0  0  0  0  0  0
  -28.4720  -25.2309   19.4543 C   0  0  0  0  0  0
  -28.8758  -20.8349   20.6812 N   0  0  0  0  0  0
  -29.9216  -15.8030   20.6265 N   0  0  0  0  0  0
  -27.1842  -23.9382   20.9752 F   0  0  0  0  0  0
  -31.4652  -12.4781   19.1692 H   0  0  0  0  0  0
  -30.3297  -11.4091   19.9421 H   0  0  0  0  0  0
  -29.7700  -11.7140   17.5034 H   0  0  0  0  0  0
  -29.6543  -13.4417   17.7307 H   0  0  0  0  0  0
  -27.8736  -11.2813   18.9014 H   0  0  0  0  0  0
  -27.3743  -12.5333   17.7962 H   0  0  0  0  0  0
  -27.6468  -14.2515   19.4800 H   0  0  0  0  0  0
  -28.7004  -12.1457   21.4301 H   0  0  0  0  0  0
  -28.4427  -13.8339   21.7943 H   0  0  0  0  0  0
  -25.2763   -9.5672   22.4750 H   0  0  0  0  0  0
  -23.9994   -7.4629   22.7461 H   0  0  0  0  0  0
  -21.0824   -8.8777   19.8960 H   0  0  0  0  0  0
  -22.3679  -10.9676   19.6171 H   0  0  0  0  0  0
  -21.2024   -7.6144   23.9711 H   0  0  0  0  0  0
  -21.1481   -6.0517   25.9073 H   0  0  0  0  0  0
  -22.0601   -2.7600   23.2845 H   0  0  0  0  0  0
  -22.4076  -11.9915   22.4868 H   0  0  0  0  0  0
  -21.1087  -13.1270   22.2628 H   0  0  0  0  0  0
  -24.6499  -15.8442   20.5156 H   0  0  0  0  0  0
  -26.2624  -15.6327   20.0616 H   0  0  0  0  0  0
  -26.7153  -32.5439   23.1101 H   0  0  0  0  0  0
  -25.0059  -33.9722   25.0433 H   0  0  0  0  0  0
  -22.7099  -31.3018   21.4036 H   0  0  0  0  0  0
  -23.3757  -35.9624   23.3247 H   0  0  0  0  0  0
  -24.3601  -36.8968   22.2058 H   0  0  0  0  0  0
  -23.7213  -37.6482   23.6679 H   0  0  0  0  0  0
  -26.0850  -31.5559   20.6041 H   0  0  0  0  0  0
  -26.8384  -30.8401   21.9988 H   0  0  0  0  0  0
  -28.1096  -28.9961   21.1731 H   0  0  0  0  0  0
  -25.9478  -25.9017   19.0580 H   0  0  0  0  0  0
  -23.9582  -27.2910   19.0409 H   0  0  0  0  0  0
  -23.7464  -30.5950   19.4050 H   0  0  0  0  0  0
  -22.7501  -29.2460   19.8588 H   0  0  0  0  0  0
  -25.1257  -36.1934   25.0821 H   0  0  0  0  0  0
  -20.9961  -28.3236   24.1408 H   0  0  0  0  0  0
  -20.5609  -26.2283   23.3615 H   0  0  0  0  0  0
  -21.6631  -26.7370   22.1242 H   0  0  0  0  0  0
  -19.6894  -25.6276   21.1235 H   0  0  0  0  0  0
  -19.6680  -27.3176   20.6743 H   0  0  0  0  0  0
  -17.4187  -26.6655   21.4023 H   0  0  0  0  0  0
  -18.0319  -26.0043   22.8998 H   0  0  0  0  0  0
  -19.7931  -30.7255   24.2260 H   0  0  0  0  0  0
  -17.5003  -31.6246   24.5158 H   0  0  0  0  0  0
  -15.5347  -30.2959   23.7637 H   0  0  0  0  0  0
  -15.8674  -28.0793   22.7059 H   0  0  0  0  0  0
  -24.5912  -30.7078   25.7862 H   0  0  0  0  0  0
  -24.8965  -32.2917   26.4912 H   0  0  0  0  0  0
  -25.8113  -30.8940   27.0253 H   0  0  0  0  0  0
  -26.2849  -29.6757   24.1212 H   0  0  0  0  0  0
  -27.3999  -29.7231   25.4664 H   0  0  0  0  0  0
  -27.8730  -30.4246   23.9367 H   0  0  0  0  0  0
  -27.2669  -33.3598   26.2067 H   0  0  0  0  0  0
  -28.3848  -32.6895   25.0277 H   0  0  0  0  0  0
  -28.0760  -31.8430   26.5361 H   0  0  0  0  0  0
  -28.2540  -38.0148   24.7609 H   0  0  0  0  0  0
  -28.1170  -36.2693   24.6082 H   0  0  0  0  0  0
  -27.2361  -37.1203   25.8846 H   0  0  0  0  0  0
  -20.9338  -29.8785   21.6940 H   0  0  0  0  0  0
  -26.0155  -38.2841   24.1532 H   0  0  0  0  0  0
  -32.8472  -19.1579   19.1686 H   0  0  0  0  0  0
  -31.2912  -20.9907   19.6836 H   0  0  0  0  0  0
  -32.2745  -16.8586   19.5545 H   0  0  0  0  0  0
  -28.3850  -18.1004   21.0464 H   0  0  0  0  0  0
  -30.3524  -23.3034   20.3853 H   0  0  0  0  0  0
  -29.6795  -24.0193   21.8185 H   0  0  0  0  0  0
  -27.0806  -22.9102   18.5886 H   0  0  0  0  0  0
  -28.7878  -22.6230   18.4517 H   0  0  0  0  0  0
  -28.5293  -21.9283   22.4193 H   0  0  0  0  0  0
  -30.2140  -21.5804   22.1375 H   0  0  0  0  0  0
  -27.6653  -20.5028   18.9902 H   0  0  0  0  0  0
  -26.8516  -21.2136   20.3621 H   0  0  0  0  0  0
  -27.8746  -25.2619   18.5448 H   0  0  0  0  0  0
  -29.4884  -25.2151   19.0595 H   0  0  0  0  0  0
  -28.9629  -15.6338   20.8913 H   0  0  0  0  0  0
  1 25  1  0  0  0
  1 30  2  0  0  0
  1 84  1  0  0  0
  2  3  1  0  0  0
  2 25  1  0  0  0
  2 86  1  0  0  0
  2 87  1  0  0  0
  3  4  1  0  0  0
  3 88  1  0  0  0
  3 89  1  0  0  0
  4  5  1  0  0  0
  4 90  1  0  0  0
  4 91  1  0  0  0
  5  6  1  0  0  0
  5 26  1  0  0  0
  5 92  1  0  0  0
  6 25  1  0  0  0
  6 93  1  0  0  0
  6 94  1  0  0  0
  7  8  2  0  0  0
  7 26  1  0  0  0
  7 29  1  0  0  0
  8  9  1  0  0  0
  8 22  1  0  0  0
  9 10  1  0  0  0
  9 27  2  0  0  0
 10 11  2  0  0  0
 10 15  1  0  0  0
 11 12  1  0  0  0
 11 95  1  0  0  0
 12 13  2  0  0  0
 12 96  1  0  0  0
 13 14  1  0  0  0
 13 31  1  0  0  0
 14 15  2  0  0  0
 14 97  1  0  0  0
 15 98  1  0  0  0
 16 17  2  0  0  0
 16 21  1  0  0  0
 16 31  1  0  0  0
 17 18  1  0  0  0
 17 99  1  0  0  0
 18 19  2  0  0  0
 18100  1  0  0  0
 19 20  1  0  0  0
 19 24  1  0  0  0
 20 21  2  0  0  0
 20101  1  0  0  0
 21 23  1  0  0  0
 22 28  1  0  0  0
 22 32  2  0  0  0
 26 27  1  0  0  0
 28102  1  0  0  0
 28103  1  0  0  0
 29104  1  0  0  0
 29105  1  0  0  0
 33 34  1  0  0  0
 33 66  1  0  0  0
 33 70  2  0  0  0
 34 36  1  0  0  0
 34 59  1  0  0  0
 34106  1  0  0  0
 35 44  2  0  0  0
 35 45  1  0  0  0
 35 68  1  0  0  0
 36 56  1  0  0  0
 36107  1  0  0  0
 37 39  1  0  0  0
 37 47  1  0  0  0
 37 66  1  0  0  0
 37108  1  0  0  0
 38 43  2  0  0  0
 38 46  1  0  0  0
 38 47  1  0  0  0
 39 64  1  0  0  0
 39 67  2  0  0  0
 40 52  1  0  0  0
 40 53  2  0  0  0
 40 58  1  0  0  0
 41109  1  0  0  0
 41110  1  0  0  0
 41111  1  0  0  0
 41 48  1  0  0  0
 42 43  1  0  0  0
 42 66  1  0  0  0
 42112  1  0  0  0
 42113  1  0  0  0
 43 44  1  0  0  0
 44114  1  0  0  0
 45 46  2  0  0  0
 45115  1  0  0  0
 46116  1  0  0  0
 47117  1  0  0  0
 47118  1  0  0  0
 48 56  1  0  0  0
 48 65  1  0  0  0
 48119  1  0  0  0
 49 50  1  0  0  0
 49 53  1  0  0  0
 49 64  1  0  0  0
 49120  1  0  0  0
 50 51  1  0  0  0
 50121  1  0  0  0
 50122  1  0  0  0
 51 52  1  0  0  0
 51123  1  0  0  0
 51124  1  0  0  0
 52125  1  0  0  0
 52126  1  0  0  0
 53 54  1  0  0  0
 54 55  2  0  0  0
 54127  1  0  0  0
 55 57  1  0  0  0
 55128  1  0  0  0
 56 69  2  0  0  0
 57 58  2  0  0  0
 57129  1  0  0  0
 58130  1  0  0  0
 59 60  1  0  0  0
 59 61  1  0  0  0
 59 62  1  0  0  0
 60131  1  0  0  0
 60132  1  0  0  0
 60133  1  0  0  0
 61134  1  0  0  0
 61135  1  0  0  0
 61136  1  0  0  0
 62137  1  0  0  0
 62138  1  0  0  0
 62139  1  0  0  0
 63 65  1  0  0  0
 63140  1  0  0  0
 63141  1  0  0  0
 63142  1  0  0  0
 64143  1  0  0  0
 65144  1  0  0  0
 68 82  1  0  0  0
 71 72  2  0  0  0
 71 73  1  0  0  0
 71145  1  0  0  0
 72 75  1  0  0  0
 72146  1  0  0  0
 73 76  2  0  0  0
 73147  1  0  0  0
 74 75  2  0  0  0
 74 76  1  0  0  0
 74148  1  0  0  0
 75 83  1  0  0  0
 76 84  1  0  0  0
 77 79  1  0  0  0
 77 81  1  0  0  0
 77149  1  0  0  0
 77150  1  0  0  0
 78 80  1  0  0  0
 78 81  1  0  0  0
 78151  1  0  0  0
 78152  1  0  0  0
 79 83  1  0  0  0
 79153  1  0  0  0
 79154  1  0  0  0
 80 83  1  0  0  0
 80155  1  0  0  0
 80156  1  0  0  0
 81 82  1  0  0  0
 81 85  1  0  0  0
 82157  1  0  0  0
 82158  1  0  0  0
 84159  1  0  0  0
M  ISO  4   1 100  68 101  82 101  84 100
M  END
> <chiral flag>
0

> <version>
0

> <s_m_source_file>
/data/baiqing/PycharmProjects/Reinvent-master-3.2/result/LINK_invent/BTK/process_docking_weight1_custom_product_contain_oxygen_bond_distance_aromatic_linkinvent_7_9_3/rearranged_h_0150.sdf

> <i_m_source_file_index>
98

> <r_mmod_Potential_Energy-OPLS-2005>
142.407913208008

> <r_mmod_Stretch_Energy-OPLS-2005>
82.5868988037109

> <r_mmod_Bend_Energy-OPLS-2005>
161.082107543945

> <r_mmod_Torsional_Energy-OPLS-2005>
267.23486328125

> <r_mmod_Improper_Torsional_Energy-OPLS-2005>
5.41033029556274

> <r_mmod_Van_der_Waal_Energy-OPLS-2005>
150.561294555664

> <r_mmod_Electrostatic_Energy-OPLS-2005>
-358.489990234375

> <r_mmod_Solvation_Energy-OPLS-2005>
-217.269134521484

> <b_mmod_Minimization_Converged-OPLS-2005>
0

> <r_mmod_RMS_Derivative-OPLS-2005>
1.42829263210297

$$$$
