0
                    3D
 Structure written by MMmdl.
158166  0  0  1  0            999 V2000
  -30.6745  -14.6451   20.4417 C   0  0  0  0  0  0
  -30.4201  -12.3893   19.4585 C   0  0  0  0  0  0
  -29.4972  -12.4690   18.2252 C   0  0  0  0  0  0
  -28.0239  -12.3181   18.6489 C   0  0  0  0  0  0
  -27.6425  -13.2257   19.8490 C   0  0  2  0  0  0
  -28.6912  -13.1530   20.9807 C   0  0  0  0  0  0
  -25.2521  -13.8187   20.5705 C   0  0  0  0  0  0
  -24.1800  -13.0436   20.9205 C   0  0  0  0  0  0
  -24.6382  -11.6918   20.8764 C   0  0  0  0  0  0
  -23.9059  -10.4291   21.0414 C   0  0  0  0  0  0
  -24.3605   -9.4207   21.9197 C   0  0  0  0  0  0
  -23.6277   -8.2244   22.0771 C   0  0  0  0  0  0
  -22.4273   -8.0269   21.3546 C   0  0  0  0  0  0
  -21.9901   -9.0244   20.4659 C   0  0  0  0  0  0
  -22.7230  -10.2122   20.3065 C   0  0  0  0  0  0
  -21.6850   -6.0717   22.5269 C   0  0  0  0  0  0
  -21.4018   -6.5630   23.8199 C   0  0  0  0  0  0
  -21.3663   -5.6791   24.9165 C   0  0  0  0  0  0
  -21.6041   -4.3053   24.7223 C   0  0  0  0  0  0
  -21.8824   -3.8138   23.4349 C   0  0  0  0  0  0
  -21.9195   -4.6947   22.3400 C   0  0  0  0  0  0
  -22.7824  -13.5222   21.1852 C   0  0  0  0  0  0
  -22.1662   -4.2130   21.0977 F   0  0  0  0  0  0
  -21.5630   -3.4541   25.7738 F   0  0  0  0  0  0
  -29.9970  -13.4571   20.3879 N   0  0  0  0  0  0
  -26.2942  -12.9383   20.3299 N   0  0  0  0  0  0
  -25.9309  -11.6537   20.5783 N   0  0  0  0  0  0
  -22.0472  -12.8212   22.0408 N   0  0  0  0  0  0
  -25.4208  -15.1907   20.4107 N   0  0  0  0  0  0
  -31.8822  -14.6796   20.1992 O   0  0  0  0  0  0
  -21.6643   -6.8861   21.4230 O   0  0  0  0  0  0
  -22.3514  -14.5533   20.6707 O   0  0  0  0  0  0
  -24.6248  -31.8599   23.2032 C   0  0  0  0  0  0
  -25.9115  -32.4771   23.8347 C   0  0  1  0  0  0
  -27.2152  -27.3164   20.1298 C   0  0  0  0  0  0
  -25.5931  -33.8573   24.2265 N   0  0  0  0  0  0
  -23.4192  -30.4817   21.5470 C   0  0  2  0  0  0
  -24.8686  -28.9418   20.1083 C   0  0  0  0  0  0
  -22.7469  -29.4583   22.4932 C   0  0  0  0  0  0
  -18.0271  -28.1370   22.8456 C   0  0  0  0  0  0
  -24.1491  -36.7290   23.2644 C   0  0  0  0  0  0
  -25.9607  -30.7905   21.3792 C   0  0  0  0  0  0
  -26.0378  -29.4195   20.7177 C   0  0  0  0  0  0
  -27.2195  -28.6193   20.7175 C   0  0  0  0  0  0
  -26.0343  -26.8979   19.4830 C   0  0  0  0  0  0
  -24.8695  -27.6860   19.4814 C   0  0  0  0  0  0
  -23.6353  -29.8214   20.1604 C   0  0  0  0  0  0
  -25.4117  -36.3068   24.0324 C   0  0  1  0  0  0
  -20.5859  -28.3656   23.1276 C   0  0  2  0  0  0
  -20.6750  -26.9379   22.5409 C   0  0  0  0  0  0
  -19.5743  -26.6361   21.5201 C   0  0  0  0  0  0
  -18.1904  -26.7903   22.1601 C   0  0  0  0  0  0
  -19.1521  -28.8832   23.2849 C   0  0  0  0  0  0
  -18.9460  -30.1432   23.8862 C   0  0  0  0  0  0
  -17.6466  -30.6562   24.0542 C   0  0  0  0  0  0
  -25.9056  -34.9439   23.5091 C   0  0  0  0  0  0
  -16.5343  -29.9056   23.6333 C   0  0  0  0  0  0
  -16.7260  -28.6489   23.0331 C   0  0  0  0  0  0
  -26.4516  -31.6589   25.0719 C   0  0  0  0  0  0
  -25.3756  -31.3724   26.1449 C   0  0  0  0  0  0
  -27.0371  -30.3002   24.6208 C   0  0  0  0  0  0
  -27.6036  -32.4362   25.7498 C   0  0  0  0  0  0
  -27.5572  -37.1788   24.8463 C   0  0  0  0  0  0
  -21.4180  -29.3011   22.3681 N   0  0  0  0  0  0
  -26.4289  -37.3766   23.9407 N   0  0  0  0  0  0
  -24.6856  -31.0594   22.0990 N   0  0  0  0  0  0
  -23.4200  -28.8088   23.2975 O   0  0  0  0  0  0
  -28.2902  -26.4201   20.1822 O   0  0  0  0  0  0
  -26.5633  -34.8911   22.4662 O   0  0  0  0  0  0
  -23.5416  -32.1412   23.7352 O   0  0  0  0  0  0
  -28.5901  -18.9368   19.7689 C   0  0  0  0  0  0
  -28.1058  -20.2757   19.8871 C   0  0  0  0  0  0
  -29.8425  -18.5397   20.3074 C   0  0  0  0  0  0
  -28.8378  -21.3153   20.5272 C   0  0  0  0  0  0
  -30.0834  -20.9116   21.0902 C   0  0  0  0  0  0
  -30.5685  -19.5683   20.9802 C   0  0  0  0  0  0
  -28.7134  -23.7879   20.4330 C   0  0  0  0  0  0
  -31.6741  -18.1719   17.8976 C   0  0  0  0  0  0
  -27.9855  -25.1269   20.8498 C   0  0  0  0  0  0
  -30.7562  -17.0674   18.4412 C   0  0  0  0  0  0
  -30.5164  -17.1464   19.9741 C   0  0  2  0  0  0
  -28.2287  -22.6101   20.7179 N   0  0  0  0  0  0
  -30.8412  -21.8337   21.8146 N   0  0  0  0  0  0
  -29.9560  -15.8208   20.4505 N   0  0  0  0  0  0
  -31.7764  -19.2789   21.5271 F   0  0  0  0  0  0
  -31.4628  -12.4864   19.1497 H   0  0  0  0  0  0
  -30.3405  -11.4133   19.9403 H   0  0  0  0  0  0
  -29.7578  -11.6841   17.5126 H   0  0  0  0  0  0
  -29.6414  -13.4175   17.7051 H   0  0  0  0  0  0
  -27.8745  -11.2720   18.9209 H   0  0  0  0  0  0
  -27.3635  -12.5092   17.8025 H   0  0  0  0  0  0
  -27.6412  -14.2461   19.4657 H   0  0  0  0  0  0
  -28.7040  -12.1625   21.4383 H   0  0  0  0  0  0
  -28.4503  -13.8588   21.7768 H   0  0  0  0  0  0
  -25.2739   -9.5681   22.4785 H   0  0  0  0  0  0
  -23.9977   -7.4638   22.7502 H   0  0  0  0  0  0
  -21.0832   -8.8764   19.8961 H   0  0  0  0  0  0
  -22.3689  -10.9663   19.6179 H   0  0  0  0  0  0
  -21.2021   -7.6142   23.9691 H   0  0  0  0  0  0
  -21.1478   -6.0529   25.9064 H   0  0  0  0  0  0
  -22.0605   -2.7596   23.2857 H   0  0  0  0  0  0
  -22.4084  -11.9853   22.4777 H   0  0  0  0  0  0
  -21.1092  -13.1246   22.2631 H   0  0  0  0  0  0
  -24.6556  -15.8453   20.5305 H   0  0  0  0  0  0
  -26.2650  -15.6300   20.0688 H   0  0  0  0  0  0
  -26.7179  -32.5456   23.1088 H   0  0  0  0  0  0
  -25.0034  -33.9719   25.0372 H   0  0  0  0  0  0
  -22.7113  -31.3001   21.4062 H   0  0  0  0  0  0
  -23.3749  -35.9629   23.3312 H   0  0  0  0  0  0
  -24.3557  -36.8914   22.2057 H   0  0  0  0  0  0
  -23.7244  -37.6482   23.6672 H   0  0  0  0  0  0
  -26.0944  -31.5580   20.6156 H   0  0  0  0  0  0
  -26.8387  -30.8348   22.0111 H   0  0  0  0  0  0
  -28.1125  -28.9728   21.2137 H   0  0  0  0  0  0
  -26.0025  -25.9316   18.9997 H   0  0  0  0  0  0
  -23.9768  -27.3118   18.9996 H   0  0  0  0  0  0
  -23.7503  -30.6025   19.4058 H   0  0  0  0  0  0
  -22.7582  -29.2475   19.8559 H   0  0  0  0  0  0
  -25.1286  -36.1923   25.0816 H   0  0  0  0  0  0
  -20.9930  -28.3241   24.1414 H   0  0  0  0  0  0
  -20.5655  -26.2256   23.3602 H   0  0  0  0  0  0
  -21.6619  -26.7409   22.1193 H   0  0  0  0  0  0
  -19.6923  -25.6280   21.1209 H   0  0  0  0  0  0
  -19.6701  -27.3196   20.6741 H   0  0  0  0  0  0
  -17.4172  -26.6632   21.4004 H   0  0  0  0  0  0
  -18.0296  -26.0065   22.9028 H   0  0  0  0  0  0
  -19.7958  -30.7211   24.2233 H   0  0  0  0  0  0
  -17.5042  -31.6258   24.5130 H   0  0  0  0  0  0
  -15.5345  -30.2945   23.7705 H   0  0  0  0  0  0
  -15.8651  -28.0811   22.7057 H   0  0  0  0  0  0
  -24.5928  -30.7091   25.7764 H   0  0  0  0  0  0
  -24.8981  -32.2901   26.4895 H   0  0  0  0  0  0
  -25.8100  -30.8874   27.0205 H   0  0  0  0  0  0
  -26.2944  -29.6727   24.1269 H   0  0  0  0  0  0
  -27.4071  -29.7288   25.4727 H   0  0  0  0  0  0
  -27.8813  -30.4237   23.9419 H   0  0  0  0  0  0
  -27.2584  -33.3659   26.2042 H   0  0  0  0  0  0
  -28.3856  -32.6957   25.0349 H   0  0  0  0  0  0
  -28.0700  -31.8541   26.5461 H   0  0  0  0  0  0
  -28.2562  -38.0102   24.7485 H   0  0  0  0  0  0
  -28.1075  -36.2614   24.6298 H   0  0  0  0  0  0
  -27.2271  -37.1432   25.8859 H   0  0  0  0  0  0
  -20.9352  -29.8750   21.6915 H   0  0  0  0  0  0
  -26.0176  -38.2836   24.1446 H   0  0  0  0  0  0
  -28.0049  -18.2180   19.2123 H   0  0  0  0  0  0
  -27.1388  -20.5105   19.4639 H   0  0  0  0  0  0
  -29.6702  -23.9184   19.9207 H   0  0  0  0  0  0
  -31.8183  -18.0588   16.8220 H   0  0  0  0  0  0
  -32.6582  -18.1291   18.3669 H   0  0  0  0  0  0
  -31.2651  -19.1662   18.0720 H   0  0  0  0  0  0
  -28.2109  -25.2840   21.9041 H   0  0  0  0  0  0
  -26.9164  -24.9131   20.8450 H   0  0  0  0  0  0
  -31.2058  -16.1136   18.1621 H   0  0  0  0  0  0
  -29.7997  -17.0977   17.9192 H   0  0  0  0  0  0
  -31.5059  -17.1983   20.4323 H   0  0  0  0  0  0
  -30.3060  -22.5689   22.2577 H   0  0  0  0  0  0
  -31.5074  -21.4116   22.4518 H   0  0  0  0  0  0
  -28.9629  -15.7619   20.6136 H   0  0  0  0  0  0
  1 25  1  0  0  0
  1 30  2  0  0  0
  1 84  1  0  0  0
  2  3  1  0  0  0
  2 25  1  0  0  0
  2 86  1  0  0  0
  2 87  1  0  0  0
  3  4  1  0  0  0
  3 88  1  0  0  0
  3 89  1  0  0  0
  4  5  1  0  0  0
  4 90  1  0  0  0
  4 91  1  0  0  0
  5  6  1  0  0  0
  5 26  1  0  0  0
  5 92  1  0  0  0
  6 25  1  0  0  0
  6 93  1  0  0  0
  6 94  1  0  0  0
  7  8  2  0  0  0
  7 26  1  0  0  0
  7 29  1  0  0  0
  8  9  1  0  0  0
  8 22  1  0  0  0
  9 10  1  0  0  0
  9 27  2  0  0  0
 10 11  2  0  0  0
 10 15  1  0  0  0
 11 12  1  0  0  0
 11 95  1  0  0  0
 12 13  2  0  0  0
 12 96  1  0  0  0
 13 14  1  0  0  0
 13 31  1  0  0  0
 14 15  2  0  0  0
 14 97  1  0  0  0
 15 98  1  0  0  0
 16 17  2  0  0  0
 16 21  1  0  0  0
 16 31  1  0  0  0
 17 18  1  0  0  0
 17 99  1  0  0  0
 18 19  2  0  0  0
 18100  1  0  0  0
 19 20  1  0  0  0
 19 24  1  0  0  0
 20 21  2  0  0  0
 20101  1  0  0  0
 21 23  1  0  0  0
 22 28  1  0  0  0
 22 32  2  0  0  0
 26 27  1  0  0  0
 28102  1  0  0  0
 28103  1  0  0  0
 29104  1  0  0  0
 29105  1  0  0  0
 33 34  1  0  0  0
 33 66  1  0  0  0
 33 70  2  0  0  0
 34 36  1  0  0  0
 34 59  1  0  0  0
 34106  1  0  0  0
 35 44  2  0  0  0
 35 45  1  0  0  0
 35 68  1  0  0  0
 36 56  1  0  0  0
 36107  1  0  0  0
 37 39  1  0  0  0
 37 47  1  0  0  0
 37 66  1  0  0  0
 37108  1  0  0  0
 38 43  2  0  0  0
 38 46  1  0  0  0
 38 47  1  0  0  0
 39 64  1  0  0  0
 39 67  2  0  0  0
 40 52  1  0  0  0
 40 53  2  0  0  0
 40 58  1  0  0  0
 41109  1  0  0  0
 41110  1  0  0  0
 41111  1  0  0  0
 41 48  1  0  0  0
 42 43  1  0  0  0
 42 66  1  0  0  0
 42112  1  0  0  0
 42113  1  0  0  0
 43 44  1  0  0  0
 44114  1  0  0  0
 45 46  2  0  0  0
 45115  1  0  0  0
 46116  1  0  0  0
 47117  1  0  0  0
 47118  1  0  0  0
 48 56  1  0  0  0
 48 65  1  0  0  0
 48119  1  0  0  0
 49 50  1  0  0  0
 49 53  1  0  0  0
 49 64  1  0  0  0
 49120  1  0  0  0
 50 51  1  0  0  0
 50121  1  0  0  0
 50122  1  0  0  0
 51 52  1  0  0  0
 51123  1  0  0  0
 51124  1  0  0  0
 52125  1  0  0  0
 52126  1  0  0  0
 53 54  1  0  0  0
 54 55  2  0  0  0
 54127  1  0  0  0
 55 57  1  0  0  0
 55128  1  0  0  0
 56 69  2  0  0  0
 57 58  2  0  0  0
 57129  1  0  0  0
 58130  1  0  0  0
 59 60  1  0  0  0
 59 61  1  0  0  0
 59 62  1  0  0  0
 60131  1  0  0  0
 60132  1  0  0  0
 60133  1  0  0  0
 61134  1  0  0  0
 61135  1  0  0  0
 61136  1  0  0  0
 62137  1  0  0  0
 62138  1  0  0  0
 62139  1  0  0  0
 63 65  1  0  0  0
 63140  1  0  0  0
 63141  1  0  0  0
 63142  1  0  0  0
 64143  1  0  0  0
 65144  1  0  0  0
 68 79  1  0  0  0
 71 72  2  0  0  0
 71 73  1  0  0  0
 71145  1  0  0  0
 72 74  1  0  0  0
 72146  1  0  0  0
 73 76  2  0  0  0
 73 81  1  0  0  0
 74 75  2  0  0  0
 74 82  1  0  0  0
 75 76  1  0  0  0
 75 83  1  0  0  0
 76 85  1  0  0  0
 77 79  1  0  0  0
 77 82  2  0  0  0
 77147  1  0  0  0
 78 80  1  0  0  0
 78148  1  0  0  0
 78149  1  0  0  0
 78150  1  0  0  0
 79151  1  0  0  0
 79152  1  0  0  0
 80153  1  0  0  0
 80154  1  0  0  0
 80 81  1  0  0  0
 81 84  1  0  0  0
 81155  1  0  0  0
 83156  1  0  0  0
 83157  1  0  0  0
 84158  1  0  0  0
M  ISO  4   1 100  68 101  79 101  84 100
M  END
> <chiral flag>
0

> <version>
0

> <s_m_source_file>
/data/baiqing/PycharmProjects/Reinvent-master-3.2/result/LINK_invent/BTK/process_docking_weight1_custom_product_contain_oxygen_bond_distance_aromatic_linkinvent_7_9_3/rearranged_h_0093.sdf

> <i_m_source_file_index>
1

> <r_mmod_Potential_Energy-OPLS-2005>
83.5637893676758

> <r_mmod_Stretch_Energy-OPLS-2005>
85.5683975219727

> <r_mmod_Bend_Energy-OPLS-2005>
150.812103271484

> <r_mmod_Torsional_Energy-OPLS-2005>
256.897552490234

> <r_mmod_Improper_Torsional_Energy-OPLS-2005>
15.0964422225952

> <r_mmod_Van_der_Waal_Energy-OPLS-2005>
149.780700683594

> <r_mmod_Electrostatic_Energy-OPLS-2005>
-423.762756347656

> <r_mmod_Solvation_Energy-OPLS-2005>
-212.177429199219

> <b_mmod_Minimization_Converged-OPLS-2005>
0

> <r_mmod_RMS_Derivative-OPLS-2005>
2.63248014450073

$$$$
1
                    3D
 Structure written by MMmdl.
156164  0  0  1  0            999 V2000
  -30.6077  -14.7796   20.4373 C   0  0  0  0  0  0
  -30.4329  -12.4772   19.4776 C   0  0  0  0  0  0
  -29.5154  -12.5070   18.2355 C   0  0  0  0  0  0
  -28.0428  -12.3263   18.6500 C   0  0  0  0  0  0
  -27.6367  -13.2331   19.8433 C   0  0  2  0  0  0
  -28.6814  -13.2002   20.9800 C   0  0  0  0  0  0
  -25.2469  -13.8206   20.5668 C   0  0  0  0  0  0
  -24.1776  -13.0446   20.9200 C   0  0  0  0  0  0
  -24.6384  -11.6918   20.8715 C   0  0  0  0  0  0
  -23.9067  -10.4308   21.0413 C   0  0  0  0  0  0
  -24.3614   -9.4221   21.9184 C   0  0  0  0  0  0
  -23.6300   -8.2254   22.0743 C   0  0  0  0  0  0
  -22.4272   -8.0288   21.3551 C   0  0  0  0  0  0
  -21.9906   -9.0252   20.4639 C   0  0  0  0  0  0
  -22.7242  -10.2137   20.3065 C   0  0  0  0  0  0
  -21.6846   -6.0744   22.5285 C   0  0  0  0  0  0
  -21.4015   -6.5641   23.8222 C   0  0  0  0  0  0
  -21.3657   -5.6778   24.9167 C   0  0  0  0  0  0
  -21.6052   -4.3045   24.7209 C   0  0  0  0  0  0
  -21.8817   -3.8150   23.4326 C   0  0  0  0  0  0
  -21.9183   -4.6969   22.3390 C   0  0  0  0  0  0
  -22.7817  -13.5235   21.1881 C   0  0  0  0  0  0
  -22.1665   -4.2174   21.0969 F   0  0  0  0  0  0
  -21.5627   -3.4514   25.7708 F   0  0  0  0  0  0
  -29.9761  -13.5528   20.3885 N   0  0  0  0  0  0
  -26.2887  -12.9413   20.3215 N   0  0  0  0  0  0
  -25.9314  -11.6548   20.5708 N   0  0  0  0  0  0
  -22.0468  -12.8223   22.0431 N   0  0  0  0  0  0
  -25.4157  -15.1923   20.4136 N   0  0  0  0  0  0
  -31.8104  -14.8439   20.1802 O   0  0  0  0  0  0
  -21.6656   -6.8881   21.4243 O   0  0  0  0  0  0
  -22.3518  -14.5555   20.6738 O   0  0  0  0  0  0
  -24.6314  -31.8531   23.1948 C   0  0  0  0  0  0
  -25.9155  -32.4727   23.8298 C   0  0  1  0  0  0
  -27.2340  -27.2681   20.1121 C   0  0  0  0  0  0
  -25.5953  -33.8528   24.2235 N   0  0  0  0  0  0
  -23.4274  -30.4722   21.5392 C   0  0  2  0  0  0
  -24.8740  -28.9064   20.1176 C   0  0  0  0  0  0
  -22.7490  -29.4598   22.4921 C   0  0  0  0  0  0
  -18.0293  -28.1382   22.8479 C   0  0  0  0  0  0
  -24.1493  -36.7291   23.2630 C   0  0  0  0  0  0
  -25.9692  -30.7640   21.3698 C   0  0  0  0  0  0
  -26.0461  -29.3838   20.7169 C   0  0  0  0  0  0
  -27.2304  -28.5800   20.6964 C   0  0  0  0  0  0
  -26.0334  -26.8382   19.5117 C   0  0  0  0  0  0
  -24.8705  -27.6390   19.5100 C   0  0  0  0  0  0
  -23.6452  -29.7981   20.1586 C   0  0  0  0  0  0
  -25.4118  -36.3050   24.0310 C   0  0  1  0  0  0
  -20.5891  -28.3708   23.1279 C   0  0  2  0  0  0
  -20.6791  -26.9427   22.5410 C   0  0  0  0  0  0
  -19.5768  -26.6380   21.5212 C   0  0  0  0  0  0
  -18.1949  -26.7924   22.1615 C   0  0  0  0  0  0
  -19.1542  -28.8860   23.2872 C   0  0  0  0  0  0
  -18.9464  -30.1452   23.8906 C   0  0  0  0  0  0
  -17.6467  -30.6579   24.0570 C   0  0  0  0  0  0
  -25.9056  -34.9418   23.5074 C   0  0  0  0  0  0
  -16.5364  -29.9083   23.6317 C   0  0  0  0  0  0
  -16.7280  -28.6492   23.0354 C   0  0  0  0  0  0
  -26.4513  -31.6563   25.0697 C   0  0  0  0  0  0
  -25.3739  -31.3740   26.1440 C   0  0  0  0  0  0
  -27.0353  -30.2974   24.6177 C   0  0  0  0  0  0
  -27.6038  -32.4320   25.7504 C   0  0  0  0  0  0
  -27.5578  -37.1801   24.8452 C   0  0  0  0  0  0
  -21.4197  -29.3059   22.3668 N   0  0  0  0  0  0
  -26.4282  -37.3760   23.9390 N   0  0  0  0  0  0
  -24.6953  -31.0476   22.0924 N   0  0  0  0  0  0
  -23.4189  -28.8166   23.3046 O   0  0  0  0  0  0
  -28.3705  -26.4343   20.0533 O   0  0  0  0  0  0
  -26.5635  -34.8902   22.4647 O   0  0  0  0  0  0
  -23.5465  -32.1381   23.7246 O   0  0  0  0  0  0
  -31.7907  -19.1012   21.3717 C   0  0  0  0  0  0
  -30.9798  -20.1589   20.9108 C   0  0  0  0  0  0
  -31.4172  -17.7480   21.2153 C   0  0  0  0  0  0
  -29.3809  -18.4967   20.1262 C   0  0  0  0  0  0
  -29.7471  -19.9076   20.2689 C   0  0  0  0  0  0
  -30.2016  -17.3803   20.5917 C   0  0  0  0  0  0
  -28.9686  -21.1126   19.6472 C   0  0  0  0  0  0
  -29.7033  -24.1400   18.5090 C   0  0  0  0  0  0
  -29.2778  -24.9773   17.3064 C   0  0  0  0  0  0
  -28.3343  -24.9912   20.4837 C   0  0  0  0  0  0
  -28.6040  -23.7210   19.5047 C   0  0  2  0  0  0
  -29.8255  -15.9369   20.5094 N   0  0  0  0  0  0
  -29.0250  -22.3955   20.1743 N   0  0  0  0  0  0
  -28.3065  -20.9036   18.6292 O   0  0  0  0  0  0
  -30.8924  -23.8367   18.6394 O   0  0  0  0  0  0
  -31.4752  -12.6092   19.1847 H   0  0  0  0  0  0
  -30.3807  -11.5075   19.9731 H   0  0  0  0  0  0
  -29.8007  -11.7271   17.5277 H   0  0  0  0  0  0
  -29.6371  -13.4532   17.7073 H   0  0  0  0  0  0
  -27.9094  -11.2791   18.9221 H   0  0  0  0  0  0
  -27.3895  -12.5071   17.7959 H   0  0  0  0  0  0
  -27.6199  -14.2439   19.4390 H   0  0  0  0  0  0
  -28.7248  -12.2148   21.4426 H   0  0  0  0  0  0
  -28.4112  -13.8947   21.7751 H   0  0  0  0  0  0
  -25.2779   -9.5687   22.4724 H   0  0  0  0  0  0
  -24.0017   -7.4634   22.7434 H   0  0  0  0  0  0
  -21.0847   -8.8771   19.8938 H   0  0  0  0  0  0
  -22.3715  -10.9655   19.6161 H   0  0  0  0  0  0
  -21.2053   -7.6152   23.9718 H   0  0  0  0  0  0
  -21.1474   -6.0526   25.9069 H   0  0  0  0  0  0
  -22.0601   -2.7613   23.2814 H   0  0  0  0  0  0
  -22.4093  -11.9917   22.4878 H   0  0  0  0  0  0
  -21.1070  -13.1220   22.2605 H   0  0  0  0  0  0
  -24.6427  -15.8398   20.5289 H   0  0  0  0  0  0
  -26.2597  -15.6324   20.0756 H   0  0  0  0  0  0
  -26.7226  -32.5388   23.1030 H   0  0  0  0  0  0
  -25.0135  -33.9647   25.0404 H   0  0  0  0  0  0
  -22.7259  -31.2962   21.3919 H   0  0  0  0  0  0
  -23.3739  -35.9642   23.3273 H   0  0  0  0  0  0
  -24.3595  -36.8942   22.2050 H   0  0  0  0  0  0
  -23.7268  -37.6486   23.6690 H   0  0  0  0  0  0
  -26.1027  -31.5207   20.5958 H   0  0  0  0  0  0
  -26.8457  -30.8173   22.0036 H   0  0  0  0  0  0
  -28.1358  -28.9526   21.1546 H   0  0  0  0  0  0
  -25.9936  -25.8698   19.0331 H   0  0  0  0  0  0
  -23.9708  -27.2671   19.0392 H   0  0  0  0  0  0
  -23.7719  -30.5713   19.3994 H   0  0  0  0  0  0
  -22.7608  -29.2356   19.8532 H   0  0  0  0  0  0
  -25.1288  -36.1887   25.0801 H   0  0  0  0  0  0
  -20.9966  -28.3284   24.1406 H   0  0  0  0  0  0
  -20.5703  -26.2318   23.3614 H   0  0  0  0  0  0
  -21.6670  -26.7465   22.1218 H   0  0  0  0  0  0
  -19.6944  -25.6289   21.1253 H   0  0  0  0  0  0
  -19.6698  -27.3181   20.6737 H   0  0  0  0  0  0
  -17.4224  -26.6674   21.4015 H   0  0  0  0  0  0
  -18.0340  -26.0058   22.8993 H   0  0  0  0  0  0
  -19.7942  -30.7256   24.2299 H   0  0  0  0  0  0
  -17.5023  -31.6260   24.5173 H   0  0  0  0  0  0
  -15.5366  -30.3002   23.7605 H   0  0  0  0  0  0
  -15.8683  -28.0796   22.7089 H   0  0  0  0  0  0
  -24.5895  -30.7094   25.7796 H   0  0  0  0  0  0
  -24.8979  -32.2939   26.4848 H   0  0  0  0  0  0
  -25.8074  -30.8946   27.0225 H   0  0  0  0  0  0
  -26.2929  -29.6729   24.1196 H   0  0  0  0  0  0
  -27.4033  -29.7220   25.4676 H   0  0  0  0  0  0
  -27.8806  -30.4235   23.9406 H   0  0  0  0  0  0
  -27.2588  -33.3609   26.2060 H   0  0  0  0  0  0
  -28.3874  -32.6902   25.0365 H   0  0  0  0  0  0
  -28.0680  -31.8482   26.5456 H   0  0  0  0  0  0
  -28.2564  -38.0122   24.7506 H   0  0  0  0  0  0
  -28.1098  -36.2654   24.6253 H   0  0  0  0  0  0
  -27.2312  -37.1417   25.8857 H   0  0  0  0  0  0
  -20.9390  -29.8796   21.6880 H   0  0  0  0  0  0
  -26.0148  -38.2824   24.1408 H   0  0  0  0  0  0
  -32.7332  -19.3343   21.8479 H   0  0  0  0  0  0
  -31.3329  -21.1744   21.0299 H   0  0  0  0  0  0
  -32.0898  -16.9950   21.5987 H   0  0  0  0  0  0
  -28.4523  -18.2703   19.6217 H   0  0  0  0  0  0
  -28.2011  -25.1428   17.3094 H   0  0  0  0  0  0
  -29.5406  -24.4702   16.3798 H   0  0  0  0  0  0
  -29.7715  -25.9481   17.3182 H   0  0  0  0  0  0
  -29.0825  -24.9367   21.2751 H   0  0  0  0  0  0
  -27.3833  -24.8157   20.9868 H   0  0  0  0  0  0
  -27.6919  -23.5350   18.9368 H   0  0  0  0  0  0
  -28.8323  -15.7681   20.5151 H   0  0  0  0  0  0
  -29.5448  -22.4892   21.0358 H   0  0  0  0  0  0
  1 25  1  0  0  0
  1 30  2  0  0  0
  1 82  1  0  0  0
  2  3  1  0  0  0
  2 25  1  0  0  0
  2 86  1  0  0  0
  2 87  1  0  0  0
  3  4  1  0  0  0
  3 88  1  0  0  0
  3 89  1  0  0  0
  4  5  1  0  0  0
  4 90  1  0  0  0
  4 91  1  0  0  0
  5  6  1  0  0  0
  5 26  1  0  0  0
  5 92  1  0  0  0
  6 25  1  0  0  0
  6 93  1  0  0  0
  6 94  1  0  0  0
  7  8  2  0  0  0
  7 26  1  0  0  0
  7 29  1  0  0  0
  8  9  1  0  0  0
  8 22  1  0  0  0
  9 10  1  0  0  0
  9 27  2  0  0  0
 10 11  2  0  0  0
 10 15  1  0  0  0
 11 12  1  0  0  0
 11 95  1  0  0  0
 12 13  2  0  0  0
 12 96  1  0  0  0
 13 14  1  0  0  0
 13 31  1  0  0  0
 14 15  2  0  0  0
 14 97  1  0  0  0
 15 98  1  0  0  0
 16 17  2  0  0  0
 16 21  1  0  0  0
 16 31  1  0  0  0
 17 18  1  0  0  0
 17 99  1  0  0  0
 18 19  2  0  0  0
 18100  1  0  0  0
 19 20  1  0  0  0
 19 24  1  0  0  0
 20 21  2  0  0  0
 20101  1  0  0  0
 21 23  1  0  0  0
 22 28  1  0  0  0
 22 32  2  0  0  0
 26 27  1  0  0  0
 28102  1  0  0  0
 28103  1  0  0  0
 29104  1  0  0  0
 29105  1  0  0  0
 33 34  1  0  0  0
 33 66  1  0  0  0
 33 70  2  0  0  0
 34 36  1  0  0  0
 34 59  1  0  0  0
 34106  1  0  0  0
 35 44  2  0  0  0
 35 45  1  0  0  0
 35 68  1  0  0  0
 36 56  1  0  0  0
 36107  1  0  0  0
 37 39  1  0  0  0
 37 47  1  0  0  0
 37 66  1  0  0  0
 37108  1  0  0  0
 38 43  2  0  0  0
 38 46  1  0  0  0
 38 47  1  0  0  0
 39 64  1  0  0  0
 39 67  2  0  0  0
 40 52  1  0  0  0
 40 53  2  0  0  0
 40 58  1  0  0  0
 41109  1  0  0  0
 41110  1  0  0  0
 41111  1  0  0  0
 41 48  1  0  0  0
 42 43  1  0  0  0
 42 66  1  0  0  0
 42112  1  0  0  0
 42113  1  0  0  0
 43 44  1  0  0  0
 44114  1  0  0  0
 45 46  2  0  0  0
 45115  1  0  0  0
 46116  1  0  0  0
 47117  1  0  0  0
 47118  1  0  0  0
 48 56  1  0  0  0
 48 65  1  0  0  0
 48119  1  0  0  0
 49 50  1  0  0  0
 49 53  1  0  0  0
 49 64  1  0  0  0
 49120  1  0  0  0
 50 51  1  0  0  0
 50121  1  0  0  0
 50122  1  0  0  0
 51 52  1  0  0  0
 51123  1  0  0  0
 51124  1  0  0  0
 52125  1  0  0  0
 52126  1  0  0  0
 53 54  1  0  0  0
 54 55  2  0  0  0
 54127  1  0  0  0
 55 57  1  0  0  0
 55128  1  0  0  0
 56 69  2  0  0  0
 57 58  2  0  0  0
 57129  1  0  0  0
 58130  1  0  0  0
 59 60  1  0  0  0
 59 61  1  0  0  0
 59 62  1  0  0  0
 60131  1  0  0  0
 60132  1  0  0  0
 60133  1  0  0  0
 61134  1  0  0  0
 61135  1  0  0  0
 61136  1  0  0  0
 62137  1  0  0  0
 62138  1  0  0  0
 62139  1  0  0  0
 63 65  1  0  0  0
 63140  1  0  0  0
 63141  1  0  0  0
 63142  1  0  0  0
 64143  1  0  0  0
 65144  1  0  0  0
 68 80  1  0  0  0
 71 72  2  0  0  0
 71 73  1  0  0  0
 71145  1  0  0  0
 72 75  1  0  0  0
 72146  1  0  0  0
 73 76  2  0  0  0
 73147  1  0  0  0
 74 75  2  0  0  0
 74 76  1  0  0  0
 74148  1  0  0  0
 75 77  1  0  0  0
 76 82  1  0  0  0
 77 83  1  0  0  0
 77 84  2  0  0  0
 78 79  1  0  0  0
 78 81  1  0  0  0
 78 85  2  0  0  0
 79149  1  0  0  0
 79150  1  0  0  0
 79151  1  0  0  0
 80152  1  0  0  0
 80153  1  0  0  0
 80 81  1  0  0  0
 81 83  1  0  0  0
 81154  1  0  0  0
 82155  1  0  0  0
 83156  1  0  0  0
M  ISO  4   1 100  68 101  80 101  82 100
M  END
> <chiral flag>
0

> <version>
0

> <s_m_source_file>
/data/baiqing/PycharmProjects/Reinvent-master-3.2/result/LINK_invent/BTK/process_docking_weight1_custom_product_contain_oxygen_bond_distance_aromatic_linkinvent_7_9_3/rearranged_h_0093.sdf

> <i_m_source_file_index>
2

> <r_mmod_Potential_Energy-OPLS-2005>
18.2588500976562

> <r_mmod_Stretch_Energy-OPLS-2005>
130.826187133789

> <r_mmod_Bend_Energy-OPLS-2005>
162.726928710938

> <r_mmod_Torsional_Energy-OPLS-2005>
250.659362792969

> <r_mmod_Improper_Torsional_Energy-OPLS-2005>
7.1004056930542

> <r_mmod_Van_der_Waal_Energy-OPLS-2005>
130.780868530273

> <r_mmod_Electrostatic_Energy-OPLS-2005>
-507.944274902344

> <r_mmod_Solvation_Energy-OPLS-2005>
-244.08186340332

> <b_mmod_Minimization_Converged-OPLS-2005>
0

> <r_mmod_RMS_Derivative-OPLS-2005>
4.77002477645874

$$$$
2
                    3D
 Structure written by MMmdl.
166175  0  0  1  0            999 V2000
  -30.6022  -14.7246   20.3376 C   0  0  0  0  0  0
  -30.4280  -12.3845   19.4918 C   0  0  0  0  0  0
  -29.5096  -12.3220   18.2512 C   0  0  0  0  0  0
  -28.0117  -12.2992   18.6453 C   0  0  0  0  0  0
  -27.6247  -13.2235   19.8355 C   0  0  2  0  0  0
  -28.6803  -13.2052   20.9596 C   0  0  0  0  0  0
  -25.2395  -13.8171   20.5730 C   0  0  0  0  0  0
  -24.1704  -13.0424   20.9288 C   0  0  0  0  0  0
  -24.6296  -11.6913   20.8831 C   0  0  0  0  0  0
  -23.8985  -10.4286   21.0454 C   0  0  0  0  0  0
  -24.3550   -9.4193   21.9210 C   0  0  0  0  0  0
  -23.6240   -8.2231   22.0774 C   0  0  0  0  0  0
  -22.4231   -8.0251   21.3558 C   0  0  0  0  0  0
  -21.9850   -9.0217   20.4667 C   0  0  0  0  0  0
  -22.7165  -10.2107   20.3081 C   0  0  0  0  0  0
  -21.6837   -6.0682   22.5264 C   0  0  0  0  0  0
  -21.4005   -6.5603   23.8194 C   0  0  0  0  0  0
  -21.3679   -5.6768   24.9165 C   0  0  0  0  0  0
  -21.6067   -4.3028   24.7227 C   0  0  0  0  0  0
  -21.8805   -3.8101   23.4351 C   0  0  0  0  0  0
  -21.9183   -4.6909   22.3400 C   0  0  0  0  0  0
  -22.7728  -13.5223   21.1908 C   0  0  0  0  0  0
  -22.1645   -4.2088   21.0982 F   0  0  0  0  0  0
  -21.5649   -3.4522   25.7752 F   0  0  0  0  0  0
  -29.9776  -13.5004   20.3449 N   0  0  0  0  0  0
  -26.2826  -12.9366   20.3308 N   0  0  0  0  0  0
  -25.9224  -11.6531   20.5884 N   0  0  0  0  0  0
  -22.0324  -12.8272   22.0481 N   0  0  0  0  0  0
  -25.4006  -15.1889   20.4092 N   0  0  0  0  0  0
  -31.8301  -14.7965   20.2249 O   0  0  0  0  0  0
  -21.6628   -6.8820   21.4221 O   0  0  0  0  0  0
  -22.3440  -14.5508   20.6693 O   0  0  0  0  0  0
  -24.6203  -31.8633   23.2029 C   0  0  0  0  0  0
  -25.9068  -32.4798   23.8348 C   0  0  1  0  0  0
  -27.2259  -27.3496   20.1283 C   0  0  0  0  0  0
  -25.5909  -33.8602   24.2279 N   0  0  0  0  0  0
  -23.4128  -30.4838   21.5443 C   0  0  2  0  0  0
  -24.8614  -28.9386   20.1158 C   0  0  0  0  0  0
  -22.7449  -29.4624   22.4944 C   0  0  0  0  0  0
  -18.0277  -28.1388   22.8487 C   0  0  0  0  0  0
  -24.1486  -36.7302   23.2638 C   0  0  0  0  0  0
  -25.9492  -30.8032   21.3679 C   0  0  0  0  0  0
  -26.0279  -29.4313   20.7163 C   0  0  0  0  0  0
  -27.2163  -28.6486   20.7120 C   0  0  0  0  0  0
  -26.0433  -26.8989   19.5049 C   0  0  0  0  0  0
  -24.8688  -27.6755   19.5014 C   0  0  0  0  0  0
  -23.6283  -29.8165   20.1606 C   0  0  0  0  0  0
  -25.4112  -36.3098   24.0329 C   0  0  1  0  0  0
  -20.5868  -28.3674   23.1303 C   0  0  2  0  0  0
  -20.6778  -26.9408   22.5415 C   0  0  0  0  0  0
  -19.5759  -26.6372   21.5222 C   0  0  0  0  0  0
  -18.1925  -26.7930   22.1613 C   0  0  0  0  0  0
  -19.1528  -28.8847   23.2889 C   0  0  0  0  0  0
  -18.9465  -30.1451   23.8891 C   0  0  0  0  0  0
  -17.6465  -30.6598   24.0557 C   0  0  0  0  0  0
  -25.9042  -34.9470   23.5107 C   0  0  0  0  0  0
  -16.5346  -29.9093   23.6337 C   0  0  0  0  0  0
  -16.7267  -28.6512   23.0341 C   0  0  0  0  0  0
  -26.4474  -31.6597   25.0703 C   0  0  0  0  0  0
  -25.3727  -31.3739   26.1447 C   0  0  0  0  0  0
  -27.0306  -30.3029   24.6117 C   0  0  0  0  0  0
  -27.6019  -32.4336   25.7500 C   0  0  0  0  0  0
  -27.5586  -37.1806   24.8467 C   0  0  0  0  0  0
  -21.4163  -29.3040   22.3705 N   0  0  0  0  0  0
  -26.4300  -37.3798   23.9413 N   0  0  0  0  0  0
  -24.6784  -31.0654   22.0973 N   0  0  0  0  0  0
  -23.4192  -28.8168   23.3009 O   0  0  0  0  0  0
  -28.3511  -26.5261   20.1426 O   0  0  0  0  0  0
  -26.5608  -34.8931   22.4671 O   0  0  0  0  0  0
  -23.5376  -32.1418   23.7379 O   0  0  0  0  0  0
  -28.1991  -19.1354   20.5752 C   0  0  0  0  0  0
  -28.4112  -17.7282   20.6316 C   0  0  0  0  0  0
  -30.7931  -18.0684   20.4980 C   0  0  0  0  0  0
  -29.2776  -20.0407   20.4107 C   0  0  0  0  0  0
  -29.7062  -17.1524   20.5032 C   0  0  0  0  0  0
  -30.5840  -19.4806   20.4341 C   0  0  0  0  0  0
  -27.9430  -22.4483   17.9464 C   0  0  0  0  0  0
  -28.8798  -22.5446   20.6721 C   0  0  0  0  0  0
  -27.8337  -23.8019   18.6378 C   0  0  0  0  0  0
  -29.0452  -21.5140   18.4511 C   0  0  0  0  0  0
  -28.7025  -23.9360   19.9150 C   0  0  1  0  0  0
  -31.1735  -15.4489   16.5903 C   0  0  0  0  0  0
  -28.2115  -25.1904   20.7522 C   0  0  0  0  0  0
  -30.6245  -16.4573   17.6046 C   0  0  0  0  0  0
  -29.4939  -15.8804   18.4917 C   0  0  0  0  0  0
  -29.0467  -21.3993   19.9208 N   0  0  0  0  0  0
  -29.8154  -15.8022   19.9385 N   0  0  0  0  0  0
  -27.1847  -22.1315   17.0265 O   0  0  0  0  0  0
  -28.8552  -22.5201   21.9053 O   0  0  0  0  0  0
  -31.6549  -20.2901   20.2566 F   0  0  0  0  0  0
  -31.4714  -12.4940   19.1906 H   0  0  0  0  0  0
  -30.3678  -11.4464   20.0460 H   0  0  0  0  0  0
  -29.7291  -11.4078   17.6974 H   0  0  0  0  0  0
  -29.7464  -13.1063   17.5403 H   0  0  0  0  0  0
  -27.7882  -11.2653   18.9126 H   0  0  0  0  0  0
  -27.3832  -12.5227   17.7833 H   0  0  0  0  0  0
  -27.5799  -14.2341   19.4379 H   0  0  0  0  0  0
  -28.7076  -12.2426   21.4703 H   0  0  0  0  0  0
  -28.4378  -13.9586   21.7124 H   0  0  0  0  0  0
  -25.2682   -9.5684   22.4813 H   0  0  0  0  0  0
  -23.9933   -7.4616   22.7496 H   0  0  0  0  0  0
  -21.0776   -8.8729   19.8982 H   0  0  0  0  0  0
  -22.3607  -10.9639   19.6199 H   0  0  0  0  0  0
  -21.1993   -7.6114   23.9674 H   0  0  0  0  0  0
  -21.1527   -6.0508   25.9071 H   0  0  0  0  0  0
  -22.0573   -2.7546   23.2871 H   0  0  0  0  0  0
  -22.3912  -12.0004   22.5020 H   0  0  0  0  0  0
  -21.0934  -13.1349   22.2609 H   0  0  0  0  0  0
  -24.6236  -15.8307   20.5271 H   0  0  0  0  0  0
  -26.2296  -15.6276   20.0315 H   0  0  0  0  0  0
  -26.7120  -32.5487   23.1087 H   0  0  0  0  0  0
  -25.0089  -33.9759   25.0446 H   0  0  0  0  0  0
  -22.7056  -31.3036   21.4009 H   0  0  0  0  0  0
  -23.3762  -35.9622   23.3298 H   0  0  0  0  0  0
  -24.3567  -36.8923   22.2051 H   0  0  0  0  0  0
  -23.7214  -37.6495   23.6657 H   0  0  0  0  0  0
  -26.0705  -31.5650   20.5965 H   0  0  0  0  0  0
  -26.8326  -30.8555   21.9921 H   0  0  0  0  0  0
  -28.1129  -29.0254   21.1854 H   0  0  0  0  0  0
  -26.0205  -25.9377   19.0185 H   0  0  0  0  0  0
  -23.9752  -27.2900   19.0285 H   0  0  0  0  0  0
  -23.7493  -30.5921   19.4038 H   0  0  0  0  0  0
  -22.7496  -29.2440   19.8588 H   0  0  0  0  0  0
  -25.1297  -36.1954   25.0822 H   0  0  0  0  0  0
  -20.9959  -28.3225   24.1423 H   0  0  0  0  0  0
  -20.5689  -26.2279   23.3602 H   0  0  0  0  0  0
  -21.6642  -26.7458   22.1190 H   0  0  0  0  0  0
  -19.6920  -25.6280   21.1255 H   0  0  0  0  0  0
  -19.6711  -27.3176   20.6747 H   0  0  0  0  0  0
  -17.4215  -26.6682   21.4003 H   0  0  0  0  0  0
  -18.0315  -26.0070   22.9004 H   0  0  0  0  0  0
  -19.7943  -30.7272   24.2245 H   0  0  0  0  0  0
  -17.5031  -31.6291   24.5137 H   0  0  0  0  0  0
  -15.5353  -30.3006   23.7675 H   0  0  0  0  0  0
  -15.8653  -28.0850   22.7050 H   0  0  0  0  0  0
  -24.5883  -30.7104   25.7791 H   0  0  0  0  0  0
  -24.8952  -32.2918   26.4892 H   0  0  0  0  0  0
  -25.8070  -30.8910   27.0209 H   0  0  0  0  0  0
  -26.2862  -29.6799   24.1145 H   0  0  0  0  0  0
  -27.4028  -29.7258   25.4588 H   0  0  0  0  0  0
  -27.8719  -30.4326   23.9305 H   0  0  0  0  0  0
  -27.2590  -33.3612   26.2103 H   0  0  0  0  0  0
  -28.3843  -32.6937   25.0359 H   0  0  0  0  0  0
  -28.0673  -31.8454   26.5422 H   0  0  0  0  0  0
  -28.2596  -38.0113   24.7533 H   0  0  0  0  0  0
  -28.1084  -36.2648   24.6268 H   0  0  0  0  0  0
  -27.2304  -37.1413   25.8869 H   0  0  0  0  0  0
  -20.9311  -29.8795   21.6963 H   0  0  0  0  0  0
  -26.0181  -38.2868   24.1438 H   0  0  0  0  0  0
  -27.1832  -19.5056   20.5270 H   0  0  0  0  0  0
  -27.5411  -17.0876   20.6101 H   0  0  0  0  0  0
  -31.8002  -17.6995   20.3705 H   0  0  0  0  0  0
  -26.7847  -23.9322   18.8987 H   0  0  0  0  0  0
  -28.0841  -24.5895   17.9273 H   0  0  0  0  0  0
  -30.0130  -21.8829   18.1121 H   0  0  0  0  0  0
  -28.9025  -20.5357   17.9887 H   0  0  0  0  0  0
  -29.7161  -24.1752   19.5890 H   0  0  0  0  0  0
  -31.9154  -15.9189   15.9439 H   0  0  0  0  0  0
  -30.3821  -15.0541   15.9517 H   0  0  0  0  0  0
  -31.6591  -14.6085   17.0884 H   0  0  0  0  0  0
  -28.7877  -25.2302   21.6771 H   0  0  0  0  0  0
  -27.1842  -25.0196   21.0782 H   0  0  0  0  0  0
  -30.2361  -17.3163   17.0544 H   0  0  0  0  0  0
  -31.4516  -16.8486   18.1966 H   0  0  0  0  0  0
  -29.1451  -14.9421   18.0930 H   0  0  0  0  0  0
  -28.6178  -16.5137   18.3507 H   0  0  0  0  0  0
  1 25  1  0  0  0
  1 30  2  0  0  0
  1 87  1  0  0  0
  2  3  1  0  0  0
  2 25  1  0  0  0
  2 91  1  0  0  0
  2 92  1  0  0  0
  3  4  1  0  0  0
  3 93  1  0  0  0
  3 94  1  0  0  0
  4  5  1  0  0  0
  4 95  1  0  0  0
  4 96  1  0  0  0
  5  6  1  0  0  0
  5 26  1  0  0  0
  5 97  1  0  0  0
  6 25  1  0  0  0
  6 98  1  0  0  0
  6 99  1  0  0  0
  7  8  2  0  0  0
  7 26  1  0  0  0
  7 29  1  0  0  0
  8  9  1  0  0  0
  8 22  1  0  0  0
  9 10  1  0  0  0
  9 27  2  0  0  0
 10 11  2  0  0  0
 10 15  1  0  0  0
 11 12  1  0  0  0
 11100  1  0  0  0
 12 13  2  0  0  0
 12101  1  0  0  0
 13 14  1  0  0  0
 13 31  1  0  0  0
 14 15  2  0  0  0
 14102  1  0  0  0
 15103  1  0  0  0
 16 17  2  0  0  0
 16 21  1  0  0  0
 16 31  1  0  0  0
 17 18  1  0  0  0
 17104  1  0  0  0
 18 19  2  0  0  0
 18105  1  0  0  0
 19 20  1  0  0  0
 19 24  1  0  0  0
 20 21  2  0  0  0
 20106  1  0  0  0
 21 23  1  0  0  0
 22 28  1  0  0  0
 22 32  2  0  0  0
 26 27  1  0  0  0
 28107  1  0  0  0
 28108  1  0  0  0
 29109  1  0  0  0
 29110  1  0  0  0
 33 34  1  0  0  0
 33 66  1  0  0  0
 33 70  2  0  0  0
 34 36  1  0  0  0
 34 59  1  0  0  0
 34111  1  0  0  0
 35 44  2  0  0  0
 35 45  1  0  0  0
 35 68  1  0  0  0
 36 56  1  0  0  0
 36112  1  0  0  0
 37 39  1  0  0  0
 37 47  1  0  0  0
 37 66  1  0  0  0
 37113  1  0  0  0
 38 43  2  0  0  0
 38 46  1  0  0  0
 38 47  1  0  0  0
 39 64  1  0  0  0
 39 67  2  0  0  0
 40 52  1  0  0  0
 40 53  2  0  0  0
 40 58  1  0  0  0
 41114  1  0  0  0
 41115  1  0  0  0
 41116  1  0  0  0
 41 48  1  0  0  0
 42 43  1  0  0  0
 42 66  1  0  0  0
 42117  1  0  0  0
 42118  1  0  0  0
 43 44  1  0  0  0
 44119  1  0  0  0
 45 46  2  0  0  0
 45120  1  0  0  0
 46121  1  0  0  0
 47122  1  0  0  0
 47123  1  0  0  0
 48 56  1  0  0  0
 48 65  1  0  0  0
 48124  1  0  0  0
 49 50  1  0  0  0
 49 53  1  0  0  0
 49 64  1  0  0  0
 49125  1  0  0  0
 50 51  1  0  0  0
 50126  1  0  0  0
 50127  1  0  0  0
 51 52  1  0  0  0
 51128  1  0  0  0
 51129  1  0  0  0
 52130  1  0  0  0
 52131  1  0  0  0
 53 54  1  0  0  0
 54 55  2  0  0  0
 54132  1  0  0  0
 55 57  1  0  0  0
 55133  1  0  0  0
 56 69  2  0  0  0
 57 58  2  0  0  0
 57134  1  0  0  0
 58135  1  0  0  0
 59 60  1  0  0  0
 59 61  1  0  0  0
 59 62  1  0  0  0
 60136  1  0  0  0
 60137  1  0  0  0
 60138  1  0  0  0
 61139  1  0  0  0
 61140  1  0  0  0
 61141  1  0  0  0
 62142  1  0  0  0
 62143  1  0  0  0
 62144  1  0  0  0
 63 65  1  0  0  0
 63145  1  0  0  0
 63146  1  0  0  0
 63147  1  0  0  0
 64148  1  0  0  0
 65149  1  0  0  0
 68 83  1  0  0  0
 71 72  2  0  0  0
 71 74  1  0  0  0
 71150  1  0  0  0
 72 75  1  0  0  0
 72151  1  0  0  0
 73 75  2  0  0  0
 73 76  1  0  0  0
 73152  1  0  0  0
 74 76  2  0  0  0
 74 86  1  0  0  0
 75 87  1  0  0  0
 76 90  1  0  0  0
 77 79  1  0  0  0
 77 80  1  0  0  0
 77 88  2  0  0  0
 78 81  1  0  0  0
 78 86  1  0  0  0
 78 89  2  0  0  0
 79 81  1  0  0  0
 79153  1  0  0  0
 79154  1  0  0  0
 80 86  1  0  0  0
 80155  1  0  0  0
 80156  1  0  0  0
 81 83  1  0  0  0
 81157  1  0  0  0
 82 84  1  0  0  0
 82158  1  0  0  0
 82159  1  0  0  0
 82160  1  0  0  0
 83161  1  0  0  0
 83162  1  0  0  0
 84 85  1  0  0  0
 84163  1  0  0  0
 84164  1  0  0  0
 85 87  1  0  0  0
 85165  1  0  0  0
 85166  1  0  0  0
M  ISO  4   1 100  68 101  83 101  87 100
M  END
> <chiral flag>
0

> <version>
0

> <s_m_source_file>
/data/baiqing/PycharmProjects/Reinvent-master-3.2/result/LINK_invent/BTK/process_docking_weight1_custom_product_contain_oxygen_bond_distance_aromatic_linkinvent_7_9_3/rearranged_h_0093.sdf

> <i_m_source_file_index>
3

> <r_mmod_Potential_Energy-OPLS-2005>
389.888916015625

> <r_mmod_Stretch_Energy-OPLS-2005>
83.8196868896484

> <r_mmod_Bend_Energy-OPLS-2005>
144.742950439453

> <r_mmod_Torsional_Energy-OPLS-2005>
481.807983398438

> <r_mmod_Improper_Torsional_Energy-OPLS-2005>
26.6599273681641

> <r_mmod_Van_der_Waal_Energy-OPLS-2005>
150.326599121094

> <r_mmod_Electrostatic_Energy-OPLS-2005>
-356.037506103516

> <r_mmod_Solvation_Energy-OPLS-2005>
-217.841827392578

> <b_mmod_Minimization_Converged-OPLS-2005>
0

> <r_mmod_RMS_Derivative-OPLS-2005>
3.06659126281738

$$$$
3
                    3D
 Structure written by MMmdl.
162171  0  0  1  0            999 V2000
  -30.6925  -14.5025   20.4773 C   0  0  0  0  0  0
  -30.4101  -12.2995   19.4430 C   0  0  0  0  0  0
  -29.4953  -12.4816   18.2143 C   0  0  0  0  0  0
  -28.0159  -12.3458   18.6247 C   0  0  0  0  0  0
  -27.6516  -13.2127   19.8610 C   0  0  2  0  0  0
  -28.6938  -13.0578   20.9923 C   0  0  0  0  0  0
  -25.2554  -13.8176   20.5678 C   0  0  0  0  0  0
  -24.1820  -13.0440   20.9183 C   0  0  0  0  0  0
  -24.6386  -11.6911   20.8742 C   0  0  0  0  0  0
  -23.9060  -10.4293   21.0409 C   0  0  0  0  0  0
  -24.3617   -9.4206   21.9179 C   0  0  0  0  0  0
  -23.6295   -8.2241   22.0751 C   0  0  0  0  0  0
  -22.4274   -8.0283   21.3544 C   0  0  0  0  0  0
  -21.9911   -9.0254   20.4645 C   0  0  0  0  0  0
  -22.7238  -10.2132   20.3055 C   0  0  0  0  0  0
  -21.6853   -6.0734   22.5277 C   0  0  0  0  0  0
  -21.4013   -6.5636   23.8211 C   0  0  0  0  0  0
  -21.3661   -5.6790   24.9174 C   0  0  0  0  0  0
  -21.6044   -4.3055   24.7223 C   0  0  0  0  0  0
  -21.8819   -3.8147   23.4346 C   0  0  0  0  0  0
  -21.9192   -4.6964   22.3401 C   0  0  0  0  0  0
  -22.7845  -13.5234   21.1852 C   0  0  0  0  0  0
  -22.1660   -4.2149   21.0977 F   0  0  0  0  0  0
  -21.5632   -3.4539   25.7736 F   0  0  0  0  0  0
  -30.0200  -13.3236   20.4239 N   0  0  0  0  0  0
  -26.2975  -12.9347   20.3313 N   0  0  0  0  0  0
  -25.9309  -11.6507   20.5762 N   0  0  0  0  0  0
  -22.0496  -12.8218   22.0410 N   0  0  0  0  0  0
  -25.4281  -15.1895   20.4093 N   0  0  0  0  0  0
  -31.8861  -14.5919   20.1807 O   0  0  0  0  0  0
  -21.6637   -6.8879   21.4239 O   0  0  0  0  0  0
  -22.3527  -14.5539   20.6707 O   0  0  0  0  0  0
  -24.6142  -31.8682   23.2106 C   0  0  0  0  0  0
  -25.9034  -32.4828   23.8407 C   0  0  1  0  0  0
  -27.2296  -27.4344   20.1038 C   0  0  0  0  0  0
  -25.5902  -33.8630   24.2341 N   0  0  0  0  0  0
  -23.4032  -30.4894   21.5509 C   0  0  2  0  0  0
  -24.8499  -28.9525   20.1189 C   0  0  0  0  0  0
  -22.7413  -29.4646   22.4998 C   0  0  0  0  0  0
  -18.0273  -28.1374   22.8497 C   0  0  0  0  0  0
  -24.1490  -36.7314   23.2638 C   0  0  0  0  0  0
  -25.9312  -30.8327   21.3650 C   0  0  0  0  0  0
  -26.0082  -29.4648   20.7180 C   0  0  0  0  0  0
  -27.2038  -28.7109   20.7114 C   0  0  0  0  0  0
  -26.0613  -26.9352   19.4971 C   0  0  0  0  0  0
  -24.8695  -27.6852   19.5083 C   0  0  0  0  0  0
  -23.6126  -29.8206   20.1660 C   0  0  0  0  0  0
  -25.4110  -36.3118   24.0343 C   0  0  1  0  0  0
  -20.5864  -28.3657   23.1322 C   0  0  2  0  0  0
  -20.6764  -26.9390   22.5425 C   0  0  0  0  0  0
  -19.5743  -26.6382   21.5220 C   0  0  0  0  0  0
  -18.1918  -26.7923   22.1623 C   0  0  0  0  0  0
  -19.1524  -28.8832   23.2908 C   0  0  0  0  0  0
  -18.9449  -30.1444   23.8909 C   0  0  0  0  0  0
  -17.6450  -30.6580   24.0561 C   0  0  0  0  0  0
  -25.9037  -34.9481   23.5139 C   0  0  0  0  0  0
  -16.5343  -29.9077   23.6327 C   0  0  0  0  0  0
  -16.7265  -28.6497   23.0347 C   0  0  0  0  0  0
  -26.4466  -31.6601   25.0729 C   0  0  0  0  0  0
  -25.3741  -31.3707   26.1488 C   0  0  0  0  0  0
  -27.0283  -30.3040   24.6095 C   0  0  0  0  0  0
  -27.6071  -32.4304   25.7467 C   0  0  0  0  0  0
  -27.5589  -37.1800   24.8462 C   0  0  0  0  0  0
  -21.4142  -29.3023   22.3731 N   0  0  0  0  0  0
  -26.4295  -37.3801   23.9417 N   0  0  0  0  0  0
  -24.6678  -31.0779   22.1009 N   0  0  0  0  0  0
  -23.4183  -28.8190   23.3043 O   0  0  0  0  0  0
  -28.3777  -26.6814   20.0542 O   0  0  0  0  0  0
  -26.5590  -34.8924   22.4694 O   0  0  0  0  0  0
  -23.5332  -32.1436   23.7495 O   0  0  0  0  0  0
  -30.1699  -19.0113   21.3819 C   0  0  0  0  0  0
  -28.4570  -18.6339   19.7059 C   0  0  0  0  0  0
  -29.6596  -20.3101   21.6113 C   0  0  0  0  0  0
  -27.9563  -19.9391   19.9247 C   0  0  0  0  0  0
  -26.8512  -23.9700   21.3505 C   0  0  0  0  0  0
  -29.6086  -18.1739   20.3909 C   0  0  0  0  0  0
  -28.1782  -24.4381   21.1284 C   0  0  0  0  0  0
  -28.5792  -20.8088   20.8493 C   0  0  0  0  0  0
  -28.9475  -23.3203   20.8745 C   0  0  0  0  0  0
  -26.8681  -22.6088   21.2669 C   0  0  0  0  0  0
  -30.4070  -23.2465   20.5399 C   0  0  0  0  0  0
  -30.4031  -16.8079   18.4042 C   0  0  0  0  0  0
  -28.6417  -25.8912   21.2186 C   0  0  0  0  0  0
  -30.3611  -16.9034   19.9482 C   0  0  2  0  0  0
  -28.1533  -22.1696   20.9906 N   0  0  0  0  0  0
  -29.9253  -15.6159   20.5311 N   0  0  0  0  0  0
  -25.8403  -21.7333   21.4389 O   0  0  0  0  0  0
  -31.4590  -12.3724   19.1493 H   0  0  0  0  0  0
  -30.2877  -11.3031   19.8705 H   0  0  0  0  0  0
  -29.7397  -11.7445   17.4483 H   0  0  0  0  0  0
  -29.6658  -13.4607   17.7636 H   0  0  0  0  0  0
  -27.8324  -11.2933   18.8446 H   0  0  0  0  0  0
  -27.3670  -12.5969   17.7847 H   0  0  0  0  0  0
  -27.6744  -14.2484   19.5227 H   0  0  0  0  0  0
  -28.6655  -12.0506   21.4097 H   0  0  0  0  0  0
  -28.4740  -13.7360   21.8183 H   0  0  0  0  0  0
  -25.2767   -9.5674   22.4748 H   0  0  0  0  0  0
  -24.0005   -7.4628   22.7467 H   0  0  0  0  0  0
  -21.0845   -8.8772   19.8949 H   0  0  0  0  0  0
  -22.3704  -10.9668   19.6161 H   0  0  0  0  0  0
  -21.2003   -7.6144   23.9713 H   0  0  0  0  0  0
  -21.1485   -6.0520   25.9073 H   0  0  0  0  0  0
  -22.0599   -2.7612   23.2843 H   0  0  0  0  0  0
  -22.4123  -11.9876   22.4786 H   0  0  0  0  0  0
  -21.1115  -13.1237   22.2630 H   0  0  0  0  0  0
  -24.6652  -15.8471   20.5272 H   0  0  0  0  0  0
  -26.2801  -15.6298   20.0884 H   0  0  0  0  0  0
  -26.7111  -32.5539   23.1178 H   0  0  0  0  0  0
  -25.0097  -33.9810   25.0515 H   0  0  0  0  0  0
  -22.6931  -31.3066   21.4100 H   0  0  0  0  0  0
  -23.3766  -35.9629   23.3290 H   0  0  0  0  0  0
  -24.3597  -36.8938   22.2056 H   0  0  0  0  0  0
  -23.7216  -37.6508   23.6652 H   0  0  0  0  0  0
  -26.0422  -31.5969   20.5947 H   0  0  0  0  0  0
  -26.8198  -30.8895   21.9814 H   0  0  0  0  0  0
  -28.1020  -29.1052   21.1650 H   0  0  0  0  0  0
  -26.0772  -25.9635   19.0235 H   0  0  0  0  0  0
  -23.9771  -27.2846   19.0467 H   0  0  0  0  0  0
  -23.7235  -30.5952   19.4066 H   0  0  0  0  0  0
  -22.7371  -29.2407   19.8685 H   0  0  0  0  0  0
  -25.1277  -36.1998   25.0834 H   0  0  0  0  0  0
  -20.9955  -28.3213   24.1443 H   0  0  0  0  0  0
  -20.5671  -26.2256   23.3607 H   0  0  0  0  0  0
  -21.6633  -26.7432   22.1212 H   0  0  0  0  0  0
  -19.6905  -25.6300   21.1235 H   0  0  0  0  0  0
  -19.6688  -27.3206   20.6759 H   0  0  0  0  0  0
  -17.4195  -26.6694   21.4015 H   0  0  0  0  0  0
  -18.0300  -26.0052   22.9003 H   0  0  0  0  0  0
  -19.7926  -30.7263   24.2275 H   0  0  0  0  0  0
  -17.5000  -31.6261   24.5160 H   0  0  0  0  0  0
  -15.5343  -30.2976   23.7646 H   0  0  0  0  0  0
  -15.8669  -28.0822   22.7045 H   0  0  0  0  0  0
  -24.5907  -30.7059   25.7831 H   0  0  0  0  0  0
  -24.8935  -32.2859   26.4957 H   0  0  0  0  0  0
  -25.8103  -30.8866   27.0235 H   0  0  0  0  0  0
  -26.2817  -29.6805   24.1161 H   0  0  0  0  0  0
  -27.4068  -29.7270   25.4544 H   0  0  0  0  0  0
  -27.8646  -30.4365   23.9227 H   0  0  0  0  0  0
  -27.2739  -33.3615   26.2061 H   0  0  0  0  0  0
  -28.3858  -32.6840   25.0262 H   0  0  0  0  0  0
  -28.0755  -31.8407   26.5355 H   0  0  0  0  0  0
  -28.2597  -38.0109   24.7540 H   0  0  0  0  0  0
  -28.1099  -36.2644   24.6251 H   0  0  0  0  0  0
  -27.2312  -37.1408   25.8865 H   0  0  0  0  0  0
  -20.9305  -29.8744   21.6954 H   0  0  0  0  0  0
  -26.0194  -38.2881   24.1436 H   0  0  0  0  0  0
  -31.0448  -18.6900   21.9295 H   0  0  0  0  0  0
  -27.9907  -18.0228   18.9466 H   0  0  0  0  0  0
  -30.1340  -20.9469   22.3437 H   0  0  0  0  0  0
  -27.1126  -20.2884   19.3465 H   0  0  0  0  0  0
  -25.9872  -24.5799   21.5755 H   0  0  0  0  0  0
  -30.7346  -24.1469   20.0198 H   0  0  0  0  0  0
  -30.6320  -22.4050   19.8849 H   0  0  0  0  0  0
  -31.0078  -23.1447   21.4436 H   0  0  0  0  0  0
  -30.7553  -17.7426   17.9657 H   0  0  0  0  0  0
  -29.4249  -16.5881   17.9762 H   0  0  0  0  0  0
  -31.0822  -16.0279   18.0609 H   0  0  0  0  0  0
  -29.7172  -25.9072   21.3954 H   0  0  0  0  0  0
  -28.1940  -26.3434   22.1057 H   0  0  0  0  0  0
  -31.3927  -17.0638   20.2703 H   0  0  0  0  0  0
  -28.9471  -15.5040   20.7465 H   0  0  0  0  0  0
  -25.0603  -22.2394   21.6413 H   0  0  0  0  0  0
  1 25  1  0  0  0
  1 30  2  0  0  0
  1 86  1  0  0  0
  2  3  1  0  0  0
  2 25  1  0  0  0
  2 88  1  0  0  0
  2 89  1  0  0  0
  3  4  1  0  0  0
  3 90  1  0  0  0
  3 91  1  0  0  0
  4  5  1  0  0  0
  4 92  1  0  0  0
  4 93  1  0  0  0
  5  6  1  0  0  0
  5 26  1  0  0  0
  5 94  1  0  0  0
  6 25  1  0  0  0
  6 95  1  0  0  0
  6 96  1  0  0  0
  7  8  2  0  0  0
  7 26  1  0  0  0
  7 29  1  0  0  0
  8  9  1  0  0  0
  8 22  1  0  0  0
  9 10  1  0  0  0
  9 27  2  0  0  0
 10 11  2  0  0  0
 10 15  1  0  0  0
 11 12  1  0  0  0
 11 97  1  0  0  0
 12 13  2  0  0  0
 12 98  1  0  0  0
 13 14  1  0  0  0
 13 31  1  0  0  0
 14 15  2  0  0  0
 14 99  1  0  0  0
 15100  1  0  0  0
 16 17  2  0  0  0
 16 21  1  0  0  0
 16 31  1  0  0  0
 17 18  1  0  0  0
 17101  1  0  0  0
 18 19  2  0  0  0
 18102  1  0  0  0
 19 20  1  0  0  0
 19 24  1  0  0  0
 20 21  2  0  0  0
 20103  1  0  0  0
 21 23  1  0  0  0
 22 28  1  0  0  0
 22 32  2  0  0  0
 26 27  1  0  0  0
 28104  1  0  0  0
 28105  1  0  0  0
 29106  1  0  0  0
 29107  1  0  0  0
 33 34  1  0  0  0
 33 66  1  0  0  0
 33 70  2  0  0  0
 34 36  1  0  0  0
 34 59  1  0  0  0
 34108  1  0  0  0
 35 44  2  0  0  0
 35 45  1  0  0  0
 35 68  1  0  0  0
 36 56  1  0  0  0
 36109  1  0  0  0
 37 39  1  0  0  0
 37 47  1  0  0  0
 37 66  1  0  0  0
 37110  1  0  0  0
 38 43  2  0  0  0
 38 46  1  0  0  0
 38 47  1  0  0  0
 39 64  1  0  0  0
 39 67  2  0  0  0
 40 52  1  0  0  0
 40 53  2  0  0  0
 40 58  1  0  0  0
 41111  1  0  0  0
 41112  1  0  0  0
 41113  1  0  0  0
 41 48  1  0  0  0
 42 43  1  0  0  0
 42 66  1  0  0  0
 42114  1  0  0  0
 42115  1  0  0  0
 43 44  1  0  0  0
 44116  1  0  0  0
 45 46  2  0  0  0
 45117  1  0  0  0
 46118  1  0  0  0
 47119  1  0  0  0
 47120  1  0  0  0
 48 56  1  0  0  0
 48 65  1  0  0  0
 48121  1  0  0  0
 49 50  1  0  0  0
 49 53  1  0  0  0
 49 64  1  0  0  0
 49122  1  0  0  0
 50 51  1  0  0  0
 50123  1  0  0  0
 50124  1  0  0  0
 51 52  1  0  0  0
 51125  1  0  0  0
 51126  1  0  0  0
 52127  1  0  0  0
 52128  1  0  0  0
 53 54  1  0  0  0
 54 55  2  0  0  0
 54129  1  0  0  0
 55 57  1  0  0  0
 55130  1  0  0  0
 56 69  2  0  0  0
 57 58  2  0  0  0
 57131  1  0  0  0
 58132  1  0  0  0
 59 60  1  0  0  0
 59 61  1  0  0  0
 59 62  1  0  0  0
 60133  1  0  0  0
 60134  1  0  0  0
 60135  1  0  0  0
 61136  1  0  0  0
 61137  1  0  0  0
 61138  1  0  0  0
 62139  1  0  0  0
 62140  1  0  0  0
 62141  1  0  0  0
 63 65  1  0  0  0
 63142  1  0  0  0
 63143  1  0  0  0
 63144  1  0  0  0
 64145  1  0  0  0
 65146  1  0  0  0
 68 83  1  0  0  0
 71 73  2  0  0  0
 71 76  1  0  0  0
 71147  1  0  0  0
 72 74  1  0  0  0
 72 76  2  0  0  0
 72148  1  0  0  0
 73 78  1  0  0  0
 73149  1  0  0  0
 74 78  2  0  0  0
 74150  1  0  0  0
 75 77  1  0  0  0
 75 80  2  0  0  0
 75151  1  0  0  0
 76 84  1  0  0  0
 77 79  2  0  0  0
 77 83  1  0  0  0
 78 85  1  0  0  0
 79 81  1  0  0  0
 79 85  1  0  0  0
 80 85  1  0  0  0
 80 87  1  0  0  0
 81152  1  0  0  0
 81153  1  0  0  0
 81154  1  0  0  0
 82155  1  0  0  0
 82156  1  0  0  0
 82157  1  0  0  0
 82 84  1  0  0  0
 83158  1  0  0  0
 83159  1  0  0  0
 84 86  1  0  0  0
 84160  1  0  0  0
 86161  1  0  0  0
 87162  1  0  0  0
M  ISO  4   1 100  68 101  83 101  86 100
M  END
> <chiral flag>
0

> <version>
0

> <s_m_source_file>
/data/baiqing/PycharmProjects/Reinvent-master-3.2/result/LINK_invent/BTK/process_docking_weight1_custom_product_contain_oxygen_bond_distance_aromatic_linkinvent_7_9_3/rearranged_h_0093.sdf

> <i_m_source_file_index>
4

> <r_mmod_Potential_Energy-OPLS-2005>
-44.6991958618164

> <r_mmod_Stretch_Energy-OPLS-2005>
39.2121200561523

> <r_mmod_Bend_Energy-OPLS-2005>
95.6707229614258

> <r_mmod_Torsional_Energy-OPLS-2005>
268.060241699219

> <r_mmod_Improper_Torsional_Energy-OPLS-2005>
10.5913782119751

> <r_mmod_Van_der_Waal_Energy-OPLS-2005>
140.656463623047

> <r_mmod_Electrostatic_Energy-OPLS-2005>
-406.164825439453

> <r_mmod_Solvation_Energy-OPLS-2005>
-213.316650390625

> <b_mmod_Minimization_Converged-OPLS-2005>
0

> <r_mmod_RMS_Derivative-OPLS-2005>
0.974669456481934

$$$$
4
                    3D
 Structure written by MMmdl.
154162  0  0  1  0            999 V2000
  -30.6736  -14.6031   20.5885 C   0  0  0  0  0  0
  -30.4358  -12.3939   19.4560 C   0  0  0  0  0  0
  -29.5117  -12.5372   18.2261 C   0  0  0  0  0  0
  -28.0321  -12.3657   18.6239 C   0  0  0  0  0  0
  -27.6580  -13.2134   19.8673 C   0  0  2  0  0  0
  -28.6930  -13.0152   20.9928 C   0  0  0  0  0  0
  -25.2581  -13.8164   20.5663 C   0  0  0  0  0  0
  -24.1840  -13.0433   20.9170 C   0  0  0  0  0  0
  -24.6405  -11.6903   20.8717 C   0  0  0  0  0  0
  -23.9073  -10.4289   21.0392 C   0  0  0  0  0  0
  -24.3625   -9.4209   21.9175 C   0  0  0  0  0  0
  -23.6297   -8.2246   22.0749 C   0  0  0  0  0  0
  -22.4277   -8.0284   21.3542 C   0  0  0  0  0  0
  -21.9913   -9.0257   20.4644 C   0  0  0  0  0  0
  -22.7243  -10.2133   20.3047 C   0  0  0  0  0  0
  -21.6857   -6.0740   22.5282 C   0  0  0  0  0  0
  -21.4017   -6.5643   23.8217 C   0  0  0  0  0  0
  -21.3658   -5.6794   24.9176 C   0  0  0  0  0  0
  -21.6043   -4.3057   24.7226 C   0  0  0  0  0  0
  -21.8820   -3.8150   23.4346 C   0  0  0  0  0  0
  -21.9194   -4.6967   22.3404 C   0  0  0  0  0  0
  -22.7864  -13.5232   21.1842 C   0  0  0  0  0  0
  -22.1660   -4.2155   21.0981 F   0  0  0  0  0  0
  -21.5627   -3.4539   25.7738 F   0  0  0  0  0  0
  -30.0207  -13.3927   20.4688 N   0  0  0  0  0  0
  -26.3006  -12.9337   20.3289 N   0  0  0  0  0  0
  -25.9330  -11.6493   20.5709 N   0  0  0  0  0  0
  -22.0503  -12.8226   22.0403 N   0  0  0  0  0  0
  -25.4301  -15.1887   20.4098 N   0  0  0  0  0  0
  -31.7559  -14.7941   20.0221 O   0  0  0  0  0  0
  -21.6640   -6.8882   21.4243 O   0  0  0  0  0  0
  -22.3544  -14.5534   20.6691 O   0  0  0  0  0  0
  -24.6249  -31.8611   23.2036 C   0  0  0  0  0  0
  -25.9103  -32.4787   23.8364 C   0  0  1  0  0  0
  -27.2316  -27.3415   20.1152 C   0  0  0  0  0  0
  -25.5924  -33.8586   24.2290 N   0  0  0  0  0  0
  -23.4183  -30.4840   21.5454 C   0  0  2  0  0  0
  -24.8670  -28.9412   20.1125 C   0  0  0  0  0  0
  -22.7472  -29.4629   22.4943 C   0  0  0  0  0  0
  -18.0289  -28.1384   22.8482 C   0  0  0  0  0  0
  -24.1491  -36.7301   23.2635 C   0  0  0  0  0  0
  -25.9576  -30.7987   21.3721 C   0  0  0  0  0  0
  -26.0342  -29.4275   20.7155 C   0  0  0  0  0  0
  -27.2217  -28.6397   20.7054 C   0  0  0  0  0  0
  -26.0465  -26.9078   19.4798 C   0  0  0  0  0  0
  -24.8739  -27.6859   19.4853 C   0  0  0  0  0  0
  -23.6326  -29.8171   20.1614 C   0  0  0  0  0  0
  -25.4113  -36.3089   24.0328 C   0  0  1  0  0  0
  -20.5886  -28.3686   23.1282 C   0  0  2  0  0  0
  -20.6778  -26.9411   22.5404 C   0  0  0  0  0  0
  -19.5754  -26.6385   21.5206 C   0  0  0  0  0  0
  -18.1933  -26.7928   22.1619 C   0  0  0  0  0  0
  -19.1540  -28.8853   23.2879 C   0  0  0  0  0  0
  -18.9462  -30.1455   23.8893 C   0  0  0  0  0  0
  -17.6460  -30.6583   24.0564 C   0  0  0  0  0  0
  -25.9048  -34.9456   23.5109 C   0  0  0  0  0  0
  -16.5352  -29.9079   23.6330 C   0  0  0  0  0  0
  -16.7276  -28.6500   23.0347 C   0  0  0  0  0  0
  -26.4493  -31.6590   25.0726 C   0  0  0  0  0  0
  -25.3734  -31.3716   26.1457 C   0  0  0  0  0  0
  -27.0331  -30.3017   24.6165 C   0  0  0  0  0  0
  -27.6059  -32.4316   25.7494 C   0  0  0  0  0  0
  -27.5583  -37.1802   24.8461 C   0  0  0  0  0  0
  -21.4188  -29.3045   22.3683 N   0  0  0  0  0  0
  -26.4294  -37.3781   23.9407 N   0  0  0  0  0  0
  -24.6854  -31.0641   22.0977 N   0  0  0  0  0  0
  -23.4201  -28.8170   23.3021 O   0  0  0  0  0  0
  -28.3556  -26.5072   20.1334 O   0  0  0  0  0  0
  -26.5613  -34.8921   22.4674 O   0  0  0  0  0  0
  -23.5416  -32.1397   23.7376 O   0  0  0  0  0  0
  -30.9148  -17.8914   20.2169 C   0  0  0  0  0  0
  -30.8063  -19.2872   19.9389 C   0  0  0  0  0  0
  -28.8542  -18.0112   21.4259 C   0  0  0  0  0  0
  -29.9459  -17.2022   20.9917 C   0  0  0  0  0  0
  -28.7334  -19.4053   21.1466 C   0  0  0  0  0  0
  -29.7366  -20.1000   20.4040 C   0  0  0  0  0  0
  -30.0538  -15.7429   21.4798 C   0  0  0  0  0  0
  -29.1806  -23.9944   20.1080 C   0  0  0  0  0  0
  -28.1492  -25.1086   20.5628 C   0  0  0  0  0  0
  -28.8626  -22.5009   20.5558 C   0  0  0  0  0  0
  -29.6596  -15.4923   22.6603 N   0  0  0  0  0  0
  -27.5959  -20.0512   21.6269 N   0  0  0  0  0  0
  -29.7896  -21.4767   20.0757 O   0  0  0  0  0  0
  -31.4794  -12.5088   19.1576 H   0  0  0  0  0  0
  -30.3655  -11.3860   19.8690 H   0  0  0  0  0  0
  -29.7829  -11.8074   17.4619 H   0  0  0  0  0  0
  -29.6568  -13.5199   17.7750 H   0  0  0  0  0  0
  -27.8645  -11.3085   18.8328 H   0  0  0  0  0  0
  -27.3830  -12.6159   17.7843 H   0  0  0  0  0  0
  -27.6945  -14.2592   19.5620 H   0  0  0  0  0  0
  -28.7053  -11.9706   21.3070 H   0  0  0  0  0  0
  -28.3844  -13.5596   21.8797 H   0  0  0  0  0  0
  -25.2768   -9.5693   22.4751 H   0  0  0  0  0  0
  -24.0011   -7.4642   22.7470 H   0  0  0  0  0  0
  -21.0841   -8.8775   19.8956 H   0  0  0  0  0  0
  -22.3694  -10.9674   19.6159 H   0  0  0  0  0  0
  -21.2007   -7.6151   23.9723 H   0  0  0  0  0  0
  -21.1479   -6.0521   25.9079 H   0  0  0  0  0  0
  -22.0598   -2.7613   23.2846 H   0  0  0  0  0  0
  -22.4109  -11.9889   22.4804 H   0  0  0  0  0  0
  -21.1125  -13.1259   22.2604 H   0  0  0  0  0  0
  -24.6664  -15.8458   20.5245 H   0  0  0  0  0  0
  -26.2888  -15.6285   20.1035 H   0  0  0  0  0  0
  -26.7176  -32.5464   23.1120 H   0  0  0  0  0  0
  -25.0080  -33.9735   25.0439 H   0  0  0  0  0  0
  -22.7112  -31.3036   21.4014 H   0  0  0  0  0  0
  -23.3752  -35.9634   23.3293 H   0  0  0  0  0  0
  -24.3584  -36.8926   22.2051 H   0  0  0  0  0  0
  -23.7243  -37.6503   23.6659 H   0  0  0  0  0  0
  -26.0869  -31.5632   20.6047 H   0  0  0  0  0  0
  -26.8391  -30.8476   22.0001 H   0  0  0  0  0  0
  -28.1208  -29.0115   21.1768 H   0  0  0  0  0  0
  -26.0144  -25.9577   18.9668 H   0  0  0  0  0  0
  -23.9830  -27.3117   18.9996 H   0  0  0  0  0  0
  -23.7482  -30.5916   19.4025 H   0  0  0  0  0  0
  -22.7545  -29.2420   19.8619 H   0  0  0  0  0  0
  -25.1293  -36.1944   25.0821 H   0  0  0  0  0  0
  -20.9979  -28.3259   24.1403 H   0  0  0  0  0  0
  -20.5678  -26.2296   23.3604 H   0  0  0  0  0  0
  -21.6647  -26.7440   22.1198 H   0  0  0  0  0  0
  -19.6916  -25.6295   21.1238 H   0  0  0  0  0  0
  -19.6694  -27.3195   20.6737 H   0  0  0  0  0  0
  -17.4204  -26.6672   21.4022 H   0  0  0  0  0  0
  -18.0338  -26.0069   22.9015 H   0  0  0  0  0  0
  -19.7937  -30.7274   24.2258 H   0  0  0  0  0  0
  -17.5013  -31.6262   24.5168 H   0  0  0  0  0  0
  -15.5351  -30.2979   23.7656 H   0  0  0  0  0  0
  -15.8678  -28.0819   22.7059 H   0  0  0  0  0  0
  -24.5912  -30.7063   25.7784 H   0  0  0  0  0  0
  -24.8923  -32.2877   26.4895 H   0  0  0  0  0  0
  -25.8068  -30.8885   27.0224 H   0  0  0  0  0  0
  -26.2896  -29.6768   24.1204 H   0  0  0  0  0  0
  -27.4052  -29.7272   25.4658 H   0  0  0  0  0  0
  -27.8758  -30.4308   23.9367 H   0  0  0  0  0  0
  -27.2680  -33.3612   26.2086 H   0  0  0  0  0  0
  -28.3866  -32.6882   25.0319 H   0  0  0  0  0  0
  -28.0737  -31.8431   26.5399 H   0  0  0  0  0  0
  -28.2593  -38.0107   24.7522 H   0  0  0  0  0  0
  -28.1088  -36.2640   24.6270 H   0  0  0  0  0  0
  -27.2302  -37.1430   25.8864 H   0  0  0  0  0  0
  -20.9367  -29.8765   21.6888 H   0  0  0  0  0  0
  -26.0178  -38.2856   24.1413 H   0  0  0  0  0  0
  -31.7853  -17.3625   19.8558 H   0  0  0  0  0  0
  -31.5900  -19.7559   19.3611 H   0  0  0  0  0  0
  -28.0770  -17.5429   22.0138 H   0  0  0  0  0  0
  -30.1715  -24.2650   20.4743 H   0  0  0  0  0  0
  -29.2485  -24.0174   19.0204 H   0  0  0  0  0  0
  -28.1367  -25.1250   21.6532 H   0  0  0  0  0  0
  -27.1631  -24.7448   20.2823 H   0  0  0  0  0  0
  -27.8652  -22.2550   20.1928 H   0  0  0  0  0  0
  -28.8323  -22.4633   21.6451 H   0  0  0  0  0  0
  -29.3195  -16.3316   23.1135 H   0  0  0  0  0  0
  -26.7930  -19.4794   21.8669 H   0  0  0  0  0  0
  -27.3280  -20.9118   21.1657 H   0  0  0  0  0  0
  1 25  1  0  0  0
  1 30  2  0  0  0
  1 77  1  0  0  0
  2  3  1  0  0  0
  2 25  1  0  0  0
  2 84  1  0  0  0
  2 85  1  0  0  0
  3  4  1  0  0  0
  3 86  1  0  0  0
  3 87  1  0  0  0
  4  5  1  0  0  0
  4 88  1  0  0  0
  4 89  1  0  0  0
  5  6  1  0  0  0
  5 26  1  0  0  0
  5 90  1  0  0  0
  6 25  1  0  0  0
  6 91  1  0  0  0
  6 92  1  0  0  0
  7  8  2  0  0  0
  7 26  1  0  0  0
  7 29  1  0  0  0
  8  9  1  0  0  0
  8 22  1  0  0  0
  9 10  1  0  0  0
  9 27  2  0  0  0
 10 11  2  0  0  0
 10 15  1  0  0  0
 11 12  1  0  0  0
 11 93  1  0  0  0
 12 13  2  0  0  0
 12 94  1  0  0  0
 13 14  1  0  0  0
 13 31  1  0  0  0
 14 15  2  0  0  0
 14 95  1  0  0  0
 15 96  1  0  0  0
 16 17  2  0  0  0
 16 21  1  0  0  0
 16 31  1  0  0  0
 17 18  1  0  0  0
 17 97  1  0  0  0
 18 19  2  0  0  0
 18 98  1  0  0  0
 19 20  1  0  0  0
 19 24  1  0  0  0
 20 21  2  0  0  0
 20 99  1  0  0  0
 21 23  1  0  0  0
 22 28  1  0  0  0
 22 32  2  0  0  0
 26 27  1  0  0  0
 28100  1  0  0  0
 28101  1  0  0  0
 29102  1  0  0  0
 29103  1  0  0  0
 33 34  1  0  0  0
 33 66  1  0  0  0
 33 70  2  0  0  0
 34 36  1  0  0  0
 34 59  1  0  0  0
 34104  1  0  0  0
 35 44  2  0  0  0
 35 45  1  0  0  0
 35 68  1  0  0  0
 36 56  1  0  0  0
 36105  1  0  0  0
 37 39  1  0  0  0
 37 47  1  0  0  0
 37 66  1  0  0  0
 37106  1  0  0  0
 38 43  2  0  0  0
 38 46  1  0  0  0
 38 47  1  0  0  0
 39 64  1  0  0  0
 39 67  2  0  0  0
 40 52  1  0  0  0
 40 53  2  0  0  0
 40 58  1  0  0  0
 41107  1  0  0  0
 41108  1  0  0  0
 41109  1  0  0  0
 41 48  1  0  0  0
 42 43  1  0  0  0
 42 66  1  0  0  0
 42110  1  0  0  0
 42111  1  0  0  0
 43 44  1  0  0  0
 44112  1  0  0  0
 45 46  2  0  0  0
 45113  1  0  0  0
 46114  1  0  0  0
 47115  1  0  0  0
 47116  1  0  0  0
 48 56  1  0  0  0
 48 65  1  0  0  0
 48117  1  0  0  0
 49 50  1  0  0  0
 49 53  1  0  0  0
 49 64  1  0  0  0
 49118  1  0  0  0
 50 51  1  0  0  0
 50119  1  0  0  0
 50120  1  0  0  0
 51 52  1  0  0  0
 51121  1  0  0  0
 51122  1  0  0  0
 52123  1  0  0  0
 52124  1  0  0  0
 53 54  1  0  0  0
 54 55  2  0  0  0
 54125  1  0  0  0
 55 57  1  0  0  0
 55126  1  0  0  0
 56 69  2  0  0  0
 57 58  2  0  0  0
 57127  1  0  0  0
 58128  1  0  0  0
 59 60  1  0  0  0
 59 61  1  0  0  0
 59 62  1  0  0  0
 60129  1  0  0  0
 60130  1  0  0  0
 60131  1  0  0  0
 61132  1  0  0  0
 61133  1  0  0  0
 61134  1  0  0  0
 62135  1  0  0  0
 62136  1  0  0  0
 62137  1  0  0  0
 63 65  1  0  0  0
 63138  1  0  0  0
 63139  1  0  0  0
 63140  1  0  0  0
 64141  1  0  0  0
 65142  1  0  0  0
 68 79  1  0  0  0
 71 72  2  0  0  0
 71 74  1  0  0  0
 71143  1  0  0  0
 72 76  1  0  0  0
 72144  1  0  0  0
 73 74  2  0  0  0
 73 75  1  0  0  0
 73145  1  0  0  0
 74 77  1  0  0  0
 75 76  2  0  0  0
 75 82  1  0  0  0
 76 83  1  0  0  0
 77 81  2  0  0  0
 78 79  1  0  0  0
 78 80  1  0  0  0
 78146  1  0  0  0
 78147  1  0  0  0
 79148  1  0  0  0
 79149  1  0  0  0
 80 83  1  0  0  0
 80150  1  0  0  0
 80151  1  0  0  0
 81152  1  0  0  0
 82153  1  0  0  0
 82154  1  0  0  0
M  ISO  4   1 100  68 101  77 100  79 101
M  END
> <chiral flag>
0

> <version>
0

> <s_m_source_file>
/data/baiqing/PycharmProjects/Reinvent-master-3.2/result/LINK_invent/BTK/process_docking_weight1_custom_product_contain_oxygen_bond_distance_aromatic_linkinvent_7_9_3/rearranged_h_0093.sdf

> <i_m_source_file_index>
5

> <r_mmod_Potential_Energy-OPLS-2005>
169.4521484375

> <r_mmod_Stretch_Energy-OPLS-2005>
85.0642166137695

> <r_mmod_Bend_Energy-OPLS-2005>
160.605255126953

> <r_mmod_Torsional_Energy-OPLS-2005>
215.386123657227

> <r_mmod_Improper_Torsional_Energy-OPLS-2005>
6.12695217132568

> <r_mmod_Van_der_Waal_Energy-OPLS-2005>
156.264205932617

> <r_mmod_Electrostatic_Energy-OPLS-2005>
-280.941955566406

> <r_mmod_Solvation_Energy-OPLS-2005>
-208.973754882812

> <b_mmod_Minimization_Converged-OPLS-2005>
0

> <r_mmod_RMS_Derivative-OPLS-2005>
0.904738128185272

$$$$
5
                    3D
 Structure written by MMmdl.
159168  0  0  1  0            999 V2000
  -30.6033  -14.7443   20.4599 C   0  0  0  0  0  0
  -30.4315  -12.4509   19.4880 C   0  0  0  0  0  0
  -29.5155  -12.5312   18.2466 C   0  0  0  0  0  0
  -28.0394  -12.3484   18.6489 C   0  0  0  0  0  0
  -27.6465  -13.2340   19.8611 C   0  0  2  0  0  0
  -28.6895  -13.1549   21.0001 C   0  0  0  0  0  0
  -25.2535  -13.8222   20.5672 C   0  0  0  0  0  0
  -24.1806  -13.0458   20.9146 C   0  0  0  0  0  0
  -24.6397  -11.6936   20.8695 C   0  0  0  0  0  0
  -23.9065  -10.4310   21.0369 C   0  0  0  0  0  0
  -24.3616   -9.4221   21.9147 C   0  0  0  0  0  0
  -23.6277   -8.2272   22.0723 C   0  0  0  0  0  0
  -22.4250   -8.0313   21.3526 C   0  0  0  0  0  0
  -21.9903   -9.0268   20.4603 C   0  0  0  0  0  0
  -22.7244  -10.2146   20.3016 C   0  0  0  0  0  0
  -21.6859   -6.0740   22.5264 C   0  0  0  0  0  0
  -21.4034   -6.5635   23.8208 C   0  0  0  0  0  0
  -21.3661   -5.6779   24.9155 C   0  0  0  0  0  0
  -21.6041   -4.3040   24.7205 C   0  0  0  0  0  0
  -21.8821   -3.8146   23.4327 C   0  0  0  0  0  0
  -21.9193   -4.6960   22.3384 C   0  0  0  0  0  0
  -22.7851  -13.5238   21.1825 C   0  0  0  0  0  0
  -22.1635   -4.2148   21.0946 F   0  0  0  0  0  0
  -21.5633   -3.4530   25.7722 F   0  0  0  0  0  0
  -29.9989  -13.5070   20.4346 N   0  0  0  0  0  0
  -26.2961  -12.9418   20.3315 N   0  0  0  0  0  0
  -25.9340  -11.6549   20.5752 N   0  0  0  0  0  0
  -22.0510  -12.8200   22.0368 N   0  0  0  0  0  0
  -25.4307  -15.1940   20.4089 N   0  0  0  0  0  0
  -31.7586  -14.8708   20.0444 O   0  0  0  0  0  0
  -21.6642   -6.8886   21.4229 O   0  0  0  0  0  0
  -22.3496  -14.5525   20.6655 O   0  0  0  0  0  0
  -24.6344  -31.8560   23.2009 C   0  0  0  0  0  0
  -25.9163  -32.4776   23.8355 C   0  0  1  0  0  0
  -27.2055  -27.2472   20.1172 C   0  0  0  0  0  0
  -25.5950  -33.8576   24.2267 N   0  0  0  0  0  0
  -23.4291  -30.4812   21.5456 C   0  0  2  0  0  0
  -24.8744  -28.9359   20.1090 C   0  0  0  0  0  0
  -22.7490  -29.4629   22.4932 C   0  0  0  0  0  0
  -18.0276  -28.1380   22.8507 C   0  0  0  0  0  0
  -24.1493  -36.7279   23.2643 C   0  0  0  0  0  0
  -25.9804  -30.7627   21.3873 C   0  0  0  0  0  0
  -26.0510  -29.3884   20.7203 C   0  0  0  0  0  0
  -27.2199  -28.5556   20.7175 C   0  0  0  0  0  0
  -26.0100  -26.8876   19.4509 C   0  0  0  0  0  0
  -24.8593  -27.6922   19.4666 C   0  0  0  0  0  0
  -23.6460  -29.8213   20.1613 C   0  0  0  0  0  0
  -25.4129  -36.3075   24.0323 C   0  0  1  0  0  0
  -20.5887  -28.3700   23.1270 C   0  0  2  0  0  0
  -20.6767  -26.9411   22.5410 C   0  0  0  0  0  0
  -19.5727  -26.6373   21.5229 C   0  0  0  0  0  0
  -18.1903  -26.7926   22.1634 C   0  0  0  0  0  0
  -19.1534  -28.8857   23.2883 C   0  0  0  0  0  0
  -18.9458  -30.1456   23.8905 C   0  0  0  0  0  0
  -17.6459  -30.6592   24.0568 C   0  0  0  0  0  0
  -25.9056  -34.9447   23.5088 C   0  0  0  0  0  0
  -16.5353  -29.9088   23.6339 C   0  0  0  0  0  0
  -16.7262  -28.6494   23.0385 C   0  0  0  0  0  0
  -26.4515  -31.6609   25.0754 C   0  0  0  0  0  0
  -25.3711  -31.3761   26.1450 C   0  0  0  0  0  0
  -27.0401  -30.3032   24.6278 C   0  0  0  0  0  0
  -27.6055  -32.4386   25.7503 C   0  0  0  0  0  0
  -27.5581  -37.1785   24.8457 C   0  0  0  0  0  0
  -21.4198  -29.3058   22.3664 N   0  0  0  0  0  0
  -26.4306  -37.3775   23.9393 N   0  0  0  0  0  0
  -24.7005  -31.0493   22.1006 N   0  0  0  0  0  0
  -23.4173  -28.8160   23.3034 O   0  0  0  0  0  0
  -28.2665  -26.3054   20.1998 O   0  0  0  0  0  0
  -26.5605  -34.8917   22.4642 O   0  0  0  0  0  0
  -23.5484  -32.1425   23.7261 O   0  0  0  0  0  0
  -29.0194  -19.5535   18.7183 C   0  0  0  0  0  0
  -29.3119  -17.1134   18.8097 C   0  0  0  0  0  0
  -29.6770  -18.4833   20.7891 C   0  0  0  0  0  0
  -28.9798  -18.2844   18.0998 C   0  0  0  0  0  0
  -29.3464  -19.7286   20.0830 C   0  0  0  0  0  0
  -29.6829  -17.1576   20.1698 C   0  0  0  0  0  0
  -28.7563  -22.3032   20.0379 C   0  0  0  0  0  0
  -28.7387  -23.6017   20.5429 C   0  0  0  0  0  0
  -29.4041  -23.7800   21.8484 C   0  0  0  0  0  0
  -30.3208  -22.6465   22.3287 C   0  0  0  0  0  0
  -29.7928  -21.2266   22.0017 C   0  0  0  0  0  0
  -28.5338  -18.1691   16.6526 C   0  0  0  0  0  0
  -27.9475  -24.8472   19.9268 C   0  0  0  0  0  0
  -29.3129  -21.0962   20.6219 N   0  0  0  0  0  0
  -29.8640  -15.8514   20.8554 N   0  0  0  0  0  0
  -29.2742  -24.7827   22.5572 O   0  0  0  0  0  0
  -31.4748  -12.5649   19.1914 H   0  0  0  0  0  0
  -30.3571  -11.4679   19.9579 H   0  0  0  0  0  0
  -29.8010  -11.7788   17.5119 H   0  0  0  0  0  0
  -29.6441  -13.4977   17.7585 H   0  0  0  0  0  0
  -27.8884  -11.2962   18.8918 H   0  0  0  0  0  0
  -27.3863  -12.5608   17.8014 H   0  0  0  0  0  0
  -27.6458  -14.2583   19.4882 H   0  0  0  0  0  0
  -28.7276  -12.1544   21.4305 H   0  0  0  0  0  0
  -28.4186  -13.8253   21.8163 H   0  0  0  0  0  0
  -25.2765   -9.5712   22.4707 H   0  0  0  0  0  0
  -23.9970   -7.4680   22.7468 H   0  0  0  0  0  0
  -21.0825   -8.8792   19.8937 H   0  0  0  0  0  0
  -22.3688  -10.9659   19.6111 H   0  0  0  0  0  0
  -21.2050   -7.6142   23.9705 H   0  0  0  0  0  0
  -21.1466   -6.0508   25.9050 H   0  0  0  0  0  0
  -22.0599   -2.7614   23.2829 H   0  0  0  0  0  0
  -22.4110  -11.9806   22.4664 H   0  0  0  0  0  0
  -21.1156  -13.1241   22.2636 H   0  0  0  0  0  0
  -24.6795  -15.8662   20.5203 H   0  0  0  0  0  0
  -26.2961  -15.6175   20.1018 H   0  0  0  0  0  0
  -26.7229  -32.5403   23.1091 H   0  0  0  0  0  0
  -25.0161  -33.9742   25.0452 H   0  0  0  0  0  0
  -22.7306  -31.3079   21.3982 H   0  0  0  0  0  0
  -23.3789  -35.9575   23.3298 H   0  0  0  0  0  0
  -24.3585  -36.8920   22.2061 H   0  0  0  0  0  0
  -23.7230  -37.6458   23.6697 H   0  0  0  0  0  0
  -26.1269  -31.5308   20.6281 H   0  0  0  0  0  0
  -26.8559  -30.8009   22.0240 H   0  0  0  0  0  0
  -28.1161  -28.8923   21.2210 H   0  0  0  0  0  0
  -25.9165  -25.9517   18.9219 H   0  0  0  0  0  0
  -23.9579  -27.3415   18.9827 H   0  0  0  0  0  0
  -23.7676  -30.6006   19.4083 H   0  0  0  0  0  0
  -22.7656  -29.2516   19.8587 H   0  0  0  0  0  0
  -25.1330  -36.1922   25.0826 H   0  0  0  0  0  0
  -20.9976  -28.3265   24.1392 H   0  0  0  0  0  0
  -20.5668  -26.2309   23.3615 H   0  0  0  0  0  0
  -21.6631  -26.7426   22.1196 H   0  0  0  0  0  0
  -19.6888  -25.6276   21.1261 H   0  0  0  0  0  0
  -19.6675  -27.3187   20.6759 H   0  0  0  0  0  0
  -17.4186  -26.6729   21.4016 H   0  0  0  0  0  0
  -18.0268  -26.0044   22.8996 H   0  0  0  0  0  0
  -19.7936  -30.7272   24.2278 H   0  0  0  0  0  0
  -17.5012  -31.6277   24.5141 H   0  0  0  0  0  0
  -15.5354  -30.2999   23.7647 H   0  0  0  0  0  0
  -15.8662  -28.0797   22.7141 H   0  0  0  0  0  0
  -24.5886  -30.7134   25.7738 H   0  0  0  0  0  0
  -24.8917  -32.2939   26.4867 H   0  0  0  0  0  0
  -25.8003  -30.8917   27.0228 H   0  0  0  0  0  0
  -26.3022  -29.6732   24.1306 H   0  0  0  0  0  0
  -27.4080  -29.7349   25.4825 H   0  0  0  0  0  0
  -27.8884  -30.4319   23.9555 H   0  0  0  0  0  0
  -27.2668  -33.3716   26.2014 H   0  0  0  0  0  0
  -28.3878  -32.6909   25.0331 H   0  0  0  0  0  0
  -28.0711  -31.8563   26.5458 H   0  0  0  0  0  0
  -28.2585  -38.0089   24.7552 H   0  0  0  0  0  0
  -28.1098  -36.2636   24.6269 H   0  0  0  0  0  0
  -27.2275  -37.1398   25.8845 H   0  0  0  0  0  0
  -20.9355  -29.8804   21.6903 H   0  0  0  0  0  0
  -26.0183  -38.2837   24.1430 H   0  0  0  0  0  0
  -28.7768  -20.4081   18.1099 H   0  0  0  0  0  0
  -29.2333  -16.1595   18.3023 H   0  0  0  0  0  0
  -29.9236  -18.5276   21.8391 H   0  0  0  0  0  0
  -28.2095  -22.1254   19.1235 H   0  0  0  0  0  0
  -30.4945  -22.7437   23.4004 H   0  0  0  0  0  0
  -31.2823  -22.7925   21.8394 H   0  0  0  0  0  0
  -28.9714  -20.9712   22.6722 H   0  0  0  0  0  0
  -30.5991  -20.5216   22.2048 H   0  0  0  0  0  0
  -28.2785  -19.1413   16.2322 H   0  0  0  0  0  0
  -27.6486  -17.5370   16.5751 H   0  0  0  0  0  0
  -29.3236  -17.7341   16.0398 H   0  0  0  0  0  0
  -26.9409  -24.6517   20.2988 H   0  0  0  0  0  0
  -27.9056  -24.7053   18.8461 H   0  0  0  0  0  0
  -29.0812  -15.5990   21.4391 H   0  0  0  0  0  0
  1 25  1  0  0  0
  1 30  2  0  0  0
  1 85  1  0  0  0
  2  3  1  0  0  0
  2 25  1  0  0  0
  2 87  1  0  0  0
  2 88  1  0  0  0
  3  4  1  0  0  0
  3 89  1  0  0  0
  3 90  1  0  0  0
  4  5  1  0  0  0
  4 91  1  0  0  0
  4 92  1  0  0  0
  5  6  1  0  0  0
  5 26  1  0  0  0
  5 93  1  0  0  0
  6 25  1  0  0  0
  6 94  1  0  0  0
  6 95  1  0  0  0
  7  8  2  0  0  0
  7 26  1  0  0  0
  7 29  1  0  0  0
  8  9  1  0  0  0
  8 22  1  0  0  0
  9 10  1  0  0  0
  9 27  2  0  0  0
 10 11  2  0  0  0
 10 15  1  0  0  0
 11 12  1  0  0  0
 11 96  1  0  0  0
 12 13  2  0  0  0
 12 97  1  0  0  0
 13 14  1  0  0  0
 13 31  1  0  0  0
 14 15  2  0  0  0
 14 98  1  0  0  0
 15 99  1  0  0  0
 16 17  2  0  0  0
 16 21  1  0  0  0
 16 31  1  0  0  0
 17 18  1  0  0  0
 17100  1  0  0  0
 18 19  2  0  0  0
 18101  1  0  0  0
 19 20  1  0  0  0
 19 24  1  0  0  0
 20 21  2  0  0  0
 20102  1  0  0  0
 21 23  1  0  0  0
 22 28  1  0  0  0
 22 32  2  0  0  0
 26 27  1  0  0  0
 28103  1  0  0  0
 28104  1  0  0  0
 29105  1  0  0  0
 29106  1  0  0  0
 33 34  1  0  0  0
 33 66  1  0  0  0
 33 70  2  0  0  0
 34 36  1  0  0  0
 34 59  1  0  0  0
 34107  1  0  0  0
 35 44  2  0  0  0
 35 45  1  0  0  0
 35 68  1  0  0  0
 36 56  1  0  0  0
 36108  1  0  0  0
 37 39  1  0  0  0
 37 47  1  0  0  0
 37 66  1  0  0  0
 37109  1  0  0  0
 38 43  2  0  0  0
 38 46  1  0  0  0
 38 47  1  0  0  0
 39 64  1  0  0  0
 39 67  2  0  0  0
 40 52  1  0  0  0
 40 53  2  0  0  0
 40 58  1  0  0  0
 41110  1  0  0  0
 41111  1  0  0  0
 41112  1  0  0  0
 41 48  1  0  0  0
 42 43  1  0  0  0
 42 66  1  0  0  0
 42113  1  0  0  0
 42114  1  0  0  0
 43 44  1  0  0  0
 44115  1  0  0  0
 45 46  2  0  0  0
 45116  1  0  0  0
 46117  1  0  0  0
 47118  1  0  0  0
 47119  1  0  0  0
 48 56  1  0  0  0
 48 65  1  0  0  0
 48120  1  0  0  0
 49 50  1  0  0  0
 49 53  1  0  0  0
 49 64  1  0  0  0
 49121  1  0  0  0
 50 51  1  0  0  0
 50122  1  0  0  0
 50123  1  0  0  0
 51 52  1  0  0  0
 51124  1  0  0  0
 51125  1  0  0  0
 52126  1  0  0  0
 52127  1  0  0  0
 53 54  1  0  0  0
 54 55  2  0  0  0
 54128  1  0  0  0
 55 57  1  0  0  0
 55129  1  0  0  0
 56 69  2  0  0  0
 57 58  2  0  0  0
 57130  1  0  0  0
 58131  1  0  0  0
 59 60  1  0  0  0
 59 61  1  0  0  0
 59 62  1  0  0  0
 60132  1  0  0  0
 60133  1  0  0  0
 60134  1  0  0  0
 61135  1  0  0  0
 61136  1  0  0  0
 61137  1  0  0  0
 62138  1  0  0  0
 62139  1  0  0  0
 62140  1  0  0  0
 63 65  1  0  0  0
 63141  1  0  0  0
 63142  1  0  0  0
 63143  1  0  0  0
 64144  1  0  0  0
 65145  1  0  0  0
 68 83  1  0  0  0
 71 74  2  0  0  0
 71 75  1  0  0  0
 71146  1  0  0  0
 72 74  1  0  0  0
 72 76  2  0  0  0
 72147  1  0  0  0
 73 75  2  0  0  0
 73 76  1  0  0  0
 73148  1  0  0  0
 74 82  1  0  0  0
 75 84  1  0  0  0
 76 85  1  0  0  0
 77 78  2  0  0  0
 77 84  1  0  0  0
 77149  1  0  0  0
 78 79  1  0  0  0
 78 83  1  0  0  0
 79 80  1  0  0  0
 79 86  2  0  0  0
 80 81  1  0  0  0
 80150  1  0  0  0
 80151  1  0  0  0
 81 84  1  0  0  0
 81152  1  0  0  0
 81153  1  0  0  0
 82154  1  0  0  0
 82155  1  0  0  0
 82156  1  0  0  0
 83157  1  0  0  0
 83158  1  0  0  0
 85159  1  0  0  0
M  ISO  4   1 100  68 101  83 101  85 100
M  END
> <chiral flag>
0

> <version>
0

> <s_m_source_file>
/data/baiqing/PycharmProjects/Reinvent-master-3.2/result/LINK_invent/BTK/process_docking_weight1_custom_product_contain_oxygen_bond_distance_aromatic_linkinvent_7_9_3/rearranged_h_0093.sdf

> <i_m_source_file_index>
6

> <r_mmod_Potential_Energy-OPLS-2005>
224.313934326172

> <r_mmod_Stretch_Energy-OPLS-2005>
135.572738647461

> <r_mmod_Bend_Energy-OPLS-2005>
165.285064697266

> <r_mmod_Torsional_Energy-OPLS-2005>
220.431671142578

> <r_mmod_Improper_Torsional_Energy-OPLS-2005>
5.64622974395752

> <r_mmod_Van_der_Waal_Energy-OPLS-2005>
157.858154296875

> <r_mmod_Electrostatic_Energy-OPLS-2005>
-319.466064453125

> <r_mmod_Solvation_Energy-OPLS-2005>
-234.15934753418

> <b_mmod_Minimization_Converged-OPLS-2005>
0

> <r_mmod_RMS_Derivative-OPLS-2005>
3.45831799507141

$$$$
6
                    3D
 Structure written by MMmdl.
150158  0  0  1  0            999 V2000
  -30.6974  -14.6523   20.4822 C   0  0  0  0  0  0
  -30.4083  -12.4014   19.4662 C   0  0  0  0  0  0
  -29.4989  -12.4973   18.2259 C   0  0  0  0  0  0
  -28.0241  -12.3419   18.6374 C   0  0  0  0  0  0
  -27.6412  -13.2357   19.8496 C   0  0  2  0  0  0
  -28.6872  -13.1654   20.9836 C   0  0  0  0  0  0
  -25.2498  -13.8210   20.5665 C   0  0  0  0  0  0
  -24.1796  -13.0451   20.9187 C   0  0  0  0  0  0
  -24.6401  -11.6933   20.8735 C   0  0  0  0  0  0
  -23.9080  -10.4298   21.0393 C   0  0  0  0  0  0
  -24.3631   -9.4214   21.9170 C   0  0  0  0  0  0
  -23.6300   -8.2250   22.0753 C   0  0  0  0  0  0
  -22.4280   -8.0285   21.3552 C   0  0  0  0  0  0
  -21.9912   -9.0259   20.4650 C   0  0  0  0  0  0
  -22.7246  -10.2137   20.3046 C   0  0  0  0  0  0
  -21.6861   -6.0728   22.5280 C   0  0  0  0  0  0
  -21.4015   -6.5634   23.8213 C   0  0  0  0  0  0
  -21.3660   -5.6792   24.9177 C   0  0  0  0  0  0
  -21.6047   -4.3049   24.7226 C   0  0  0  0  0  0
  -21.8822   -3.8141   23.4350 C   0  0  0  0  0  0
  -21.9192   -4.6957   22.3404 C   0  0  0  0  0  0
  -22.7819  -13.5225   21.1853 C   0  0  0  0  0  0
  -22.1664   -4.2146   21.0978 F   0  0  0  0  0  0
  -21.5633   -3.4534   25.7739 F   0  0  0  0  0  0
  -29.9925  -13.4767   20.3946 N   0  0  0  0  0  0
  -26.2942  -12.9436   20.3287 N   0  0  0  0  0  0
  -25.9335  -11.6575   20.5754 N   0  0  0  0  0  0
  -22.0464  -12.8222   22.0418 N   0  0  0  0  0  0
  -25.4162  -15.1930   20.4054 N   0  0  0  0  0  0
  -31.8880  -14.6389   20.1613 O   0  0  0  0  0  0
  -21.6656   -6.8876   21.4244 O   0  0  0  0  0  0
  -22.3496  -14.5528   20.6701 O   0  0  0  0  0  0
  -24.6268  -31.8589   23.2029 C   0  0  0  0  0  0
  -25.9120  -32.4767   23.8345 C   0  0  1  0  0  0
  -27.2112  -27.3138   20.1274 C   0  0  0  0  0  0
  -25.5945  -33.8568   24.2284 N   0  0  0  0  0  0
  -23.4210  -30.4842   21.5443 C   0  0  2  0  0  0
  -24.8671  -28.9398   20.1095 C   0  0  0  0  0  0
  -22.7491  -29.4612   22.4918 C   0  0  0  0  0  0
  -18.0299  -28.1374   22.8483 C   0  0  0  0  0  0
  -24.1487  -36.7280   23.2633 C   0  0  0  0  0  0
  -25.9624  -30.7898   21.3752 C   0  0  0  0  0  0
  -26.0366  -29.4176   20.7157 C   0  0  0  0  0  0
  -27.2166  -28.6163   20.7138 C   0  0  0  0  0  0
  -26.0302  -26.8951   19.4814 C   0  0  0  0  0  0
  -24.8653  -27.6843   19.4822 C   0  0  0  0  0  0
  -23.6371  -29.8223   20.1576 C   0  0  0  0  0  0
  -25.4112  -36.3078   24.0335 C   0  0  1  0  0  0
  -20.5904  -28.3676   23.1277 C   0  0  2  0  0  0
  -20.6776  -26.9390   22.5409 C   0  0  0  0  0  0
  -19.5751  -26.6374   21.5204 C   0  0  0  0  0  0
  -18.1936  -26.7917   22.1618 C   0  0  0  0  0  0
  -19.1556  -28.8847   23.2877 C   0  0  0  0  0  0
  -18.9466  -30.1446   23.8892 C   0  0  0  0  0  0
  -17.6465  -30.6574   24.0559 C   0  0  0  0  0  0
  -25.9057  -34.9444   23.5113 C   0  0  0  0  0  0
  -16.5361  -29.9065   23.6325 C   0  0  0  0  0  0
  -16.7285  -28.6483   23.0346 C   0  0  0  0  0  0
  -26.4506  -31.6571   25.0715 C   0  0  0  0  0  0
  -25.3744  -31.3722   26.1452 C   0  0  0  0  0  0
  -27.0323  -30.2984   24.6168 C   0  0  0  0  0  0
  -27.6088  -32.4278   25.7479 C   0  0  0  0  0  0
  -27.5588  -37.1797   24.8465 C   0  0  0  0  0  0
  -21.4206  -29.3035   22.3670 N   0  0  0  0  0  0
  -26.4288  -37.3779   23.9424 N   0  0  0  0  0  0
  -24.6891  -31.0605   22.0980 N   0  0  0  0  0  0
  -23.4214  -28.8156   23.3007 O   0  0  0  0  0  0
  -28.2884  -26.4218   20.1744 O   0  0  0  0  0  0
  -26.5600  -34.8919   22.4664 O   0  0  0  0  0  0
  -23.5438  -32.1377   23.7364 O   0  0  0  0  0  0
  -30.4327  -19.4892   19.8704 C   0  0  0  0  0  0
  -29.9559  -20.8336   19.8755 C   0  0  0  0  0  0
  -28.2370  -20.1683   21.4155 C   0  0  0  0  0  0
  -29.8486  -18.4413   20.6432 C   0  0  0  0  0  0
  -28.8551  -21.2254   20.6792 C   0  0  0  0  0  0
  -28.7109  -18.8156   21.4058 C   0  0  0  0  0  0
  -30.6046  -17.0985   20.7702 C   0  0  0  0  0  0
  -28.7083  -23.8149   20.2663 C   0  0  0  0  0  0
  -27.9954  -25.1159   20.8257 C   0  0  0  0  0  0
  -28.3652  -22.6062   20.8304 N   0  0  0  0  0  0
  -30.0245  -15.8449   20.6940 N   0  0  0  0  0  0
  -31.8266  -17.2359   20.9179 O   0  0  0  0  0  0
  -29.5290  -23.9136   19.3502 O   0  0  0  0  0  0
  -28.0908  -17.8969   22.1870 F   0  0  0  0  0  0
  -31.4544  -12.4712   19.1637 H   0  0  0  0  0  0
  -30.3088  -11.4256   19.9450 H   0  0  0  0  0  0
  -29.7684  -11.7315   17.4972 H   0  0  0  0  0  0
  -29.6464  -13.4577   17.7286 H   0  0  0  0  0  0
  -27.8644  -11.2916   18.8841 H   0  0  0  0  0  0
  -27.3722  -12.5564   17.7902 H   0  0  0  0  0  0
  -27.6385  -14.2602   19.4770 H   0  0  0  0  0  0
  -28.7018  -12.1730   21.4368 H   0  0  0  0  0  0
  -28.4401  -13.8640   21.7846 H   0  0  0  0  0  0
  -25.2774   -9.5696   22.4745 H   0  0  0  0  0  0
  -24.0015   -7.4641   22.7465 H   0  0  0  0  0  0
  -21.0844   -8.8772   19.8950 H   0  0  0  0  0  0
  -22.3695  -10.9675   19.6157 H   0  0  0  0  0  0
  -21.2008   -7.6140   23.9712 H   0  0  0  0  0  0
  -21.1480   -6.0520   25.9080 H   0  0  0  0  0  0
  -22.0597   -2.7599   23.2853 H   0  0  0  0  0  0
  -22.4095  -11.9905   22.4831 H   0  0  0  0  0  0
  -21.1074  -13.1236   22.2611 H   0  0  0  0  0  0
  -24.6444  -15.8430   20.5091 H   0  0  0  0  0  0
  -26.2675  -15.6385   20.0904 H   0  0  0  0  0  0
  -26.7185  -32.5434   23.1086 H   0  0  0  0  0  0
  -25.0129  -33.9691   25.0458 H   0  0  0  0  0  0
  -22.7147  -31.3047   21.4031 H   0  0  0  0  0  0
  -23.3755  -35.9601   23.3283 H   0  0  0  0  0  0
  -24.3585  -36.8906   22.2052 H   0  0  0  0  0  0
  -23.7229  -37.6486   23.6644 H   0  0  0  0  0  0
  -26.0972  -31.5551   20.6098 H   0  0  0  0  0  0
  -26.8404  -30.8336   22.0073 H   0  0  0  0  0  0
  -28.1141  -28.9725   21.1996 H   0  0  0  0  0  0
  -25.9980  -25.9327   18.9919 H   0  0  0  0  0  0
  -23.9704  -27.3178   18.9982 H   0  0  0  0  0  0
  -23.7622  -30.5998   19.4033 H   0  0  0  0  0  0
  -22.7562  -29.2557   19.8516 H   0  0  0  0  0  0
  -25.1283  -36.1927   25.0825 H   0  0  0  0  0  0
  -21.0000  -28.3248   24.1399 H   0  0  0  0  0  0
  -20.5660  -26.2274   23.3603 H   0  0  0  0  0  0
  -21.6643  -26.7398   22.1214 H   0  0  0  0  0  0
  -19.6901  -25.6287   21.1222 H   0  0  0  0  0  0
  -19.6691  -27.3186   20.6735 H   0  0  0  0  0  0
  -17.4201  -26.6667   21.4026 H   0  0  0  0  0  0
  -18.0339  -26.0054   22.9010 H   0  0  0  0  0  0
  -19.7948  -30.7270   24.2239 H   0  0  0  0  0  0
  -17.5018  -31.6254   24.5154 H   0  0  0  0  0  0
  -15.5356  -30.2957   23.7651 H   0  0  0  0  0  0
  -15.8690  -28.0798   22.7048 H   0  0  0  0  0  0
  -24.5949  -30.7025   25.7806 H   0  0  0  0  0  0
  -24.8904  -32.2885   26.4845 H   0  0  0  0  0  0
  -25.8091  -30.8955   27.0244 H   0  0  0  0  0  0
  -26.2879  -29.6761   24.1194 H   0  0  0  0  0  0
  -27.4012  -29.7231   25.4671 H   0  0  0  0  0  0
  -27.8760  -30.4259   23.9379 H   0  0  0  0  0  0
  -27.2730  -33.3579   26.2070 H   0  0  0  0  0  0
  -28.3895  -32.6831   25.0299 H   0  0  0  0  0  0
  -28.0739  -31.8379   26.5387 H   0  0  0  0  0  0
  -28.2604  -38.0105   24.7535 H   0  0  0  0  0  0
  -28.1096  -36.2647   24.6243 H   0  0  0  0  0  0
  -27.2310  -37.1376   25.8869 H   0  0  0  0  0  0
  -20.9372  -29.8757   21.6889 H   0  0  0  0  0  0
  -26.0173  -38.2852   24.1445 H   0  0  0  0  0  0
  -31.3165  -19.2670   19.2871 H   0  0  0  0  0  0
  -30.4833  -21.5650   19.2801 H   0  0  0  0  0  0
  -27.3879  -20.3931   22.0438 H   0  0  0  0  0  0
  -28.2945  -25.2190   21.8693 H   0  0  0  0  0  0
  -26.9259  -24.9056   20.8571 H   0  0  0  0  0  0
  -27.6398  -22.7079   21.5284 H   0  0  0  0  0  0
  -29.0199  -15.8083   20.7280 H   0  0  0  0  0  0
  1 25  1  0  0  0
  1 30  2  0  0  0
  1 81  1  0  0  0
  2  3  1  0  0  0
  2 25  1  0  0  0
  2 85  1  0  0  0
  2 86  1  0  0  0
  3  4  1  0  0  0
  3 87  1  0  0  0
  3 88  1  0  0  0
  4  5  1  0  0  0
  4 89  1  0  0  0
  4 90  1  0  0  0
  5  6  1  0  0  0
  5 26  1  0  0  0
  5 91  1  0  0  0
  6 25  1  0  0  0
  6 92  1  0  0  0
  6 93  1  0  0  0
  7  8  2  0  0  0
  7 26  1  0  0  0
  7 29  1  0  0  0
  8  9  1  0  0  0
  8 22  1  0  0  0
  9 10  1  0  0  0
  9 27  2  0  0  0
 10 11  2  0  0  0
 10 15  1  0  0  0
 11 12  1  0  0  0
 11 94  1  0  0  0
 12 13  2  0  0  0
 12 95  1  0  0  0
 13 14  1  0  0  0
 13 31  1  0  0  0
 14 15  2  0  0  0
 14 96  1  0  0  0
 15 97  1  0  0  0
 16 17  2  0  0  0
 16 21  1  0  0  0
 16 31  1  0  0  0
 17 18  1  0  0  0
 17 98  1  0  0  0
 18 19  2  0  0  0
 18 99  1  0  0  0
 19 20  1  0  0  0
 19 24  1  0  0  0
 20 21  2  0  0  0
 20100  1  0  0  0
 21 23  1  0  0  0
 22 28  1  0  0  0
 22 32  2  0  0  0
 26 27  1  0  0  0
 28101  1  0  0  0
 28102  1  0  0  0
 29103  1  0  0  0
 29104  1  0  0  0
 33 34  1  0  0  0
 33 66  1  0  0  0
 33 70  2  0  0  0
 34 36  1  0  0  0
 34 59  1  0  0  0
 34105  1  0  0  0
 35 44  2  0  0  0
 35 45  1  0  0  0
 35 68  1  0  0  0
 36 56  1  0  0  0
 36106  1  0  0  0
 37 39  1  0  0  0
 37 47  1  0  0  0
 37 66  1  0  0  0
 37107  1  0  0  0
 38 43  2  0  0  0
 38 46  1  0  0  0
 38 47  1  0  0  0
 39 64  1  0  0  0
 39 67  2  0  0  0
 40 52  1  0  0  0
 40 53  2  0  0  0
 40 58  1  0  0  0
 41108  1  0  0  0
 41109  1  0  0  0
 41110  1  0  0  0
 41 48  1  0  0  0
 42 43  1  0  0  0
 42 66  1  0  0  0
 42111  1  0  0  0
 42112  1  0  0  0
 43 44  1  0  0  0
 44113  1  0  0  0
 45 46  2  0  0  0
 45114  1  0  0  0
 46115  1  0  0  0
 47116  1  0  0  0
 47117  1  0  0  0
 48 56  1  0  0  0
 48 65  1  0  0  0
 48118  1  0  0  0
 49 50  1  0  0  0
 49 53  1  0  0  0
 49 64  1  0  0  0
 49119  1  0  0  0
 50 51  1  0  0  0
 50120  1  0  0  0
 50121  1  0  0  0
 51 52  1  0  0  0
 51122  1  0  0  0
 51123  1  0  0  0
 52124  1  0  0  0
 52125  1  0  0  0
 53 54  1  0  0  0
 54 55  2  0  0  0
 54126  1  0  0  0
 55 57  1  0  0  0
 55127  1  0  0  0
 56 69  2  0  0  0
 57 58  2  0  0  0
 57128  1  0  0  0
 58129  1  0  0  0
 59 60  1  0  0  0
 59 61  1  0  0  0
 59 62  1  0  0  0
 60130  1  0  0  0
 60131  1  0  0  0
 60132  1  0  0  0
 61133  1  0  0  0
 61134  1  0  0  0
 61135  1  0  0  0
 62136  1  0  0  0
 62137  1  0  0  0
 62138  1  0  0  0
 63 65  1  0  0  0
 63139  1  0  0  0
 63140  1  0  0  0
 63141  1  0  0  0
 64142  1  0  0  0
 65143  1  0  0  0
 68 79  1  0  0  0
 71 72  2  0  0  0
 71 74  1  0  0  0
 71144  1  0  0  0
 72 75  1  0  0  0
 72145  1  0  0  0
 73 75  2  0  0  0
 73 76  1  0  0  0
 73146  1  0  0  0
 74 76  2  0  0  0
 74 77  1  0  0  0
 75 80  1  0  0  0
 76 84  1  0  0  0
 77 81  1  0  0  0
 77 82  2  0  0  0
 78 79  1  0  0  0
 78 80  1  0  0  0
 78 83  2  0  0  0
 79147  1  0  0  0
 79148  1  0  0  0
 80149  1  0  0  0
 81150  1  0  0  0
M  ISO  4   1 100  68 101  79 101  81 100
M  END
> <chiral flag>
0

> <version>
0

> <s_m_source_file>
/data/baiqing/PycharmProjects/Reinvent-master-3.2/result/LINK_invent/BTK/process_docking_weight1_custom_product_contain_oxygen_bond_distance_aromatic_linkinvent_7_9_3/rearranged_h_0093.sdf

> <i_m_source_file_index>
7

> <r_mmod_Potential_Energy-OPLS-2005>
57.386661529541

> <r_mmod_Stretch_Energy-OPLS-2005>
84.8491287231445

> <r_mmod_Bend_Energy-OPLS-2005>
154.61003112793

> <r_mmod_Torsional_Energy-OPLS-2005>
252.279281616211

> <r_mmod_Improper_Torsional_Energy-OPLS-2005>
6.57038021087646

> <r_mmod_Van_der_Waal_Energy-OPLS-2005>
153.362976074219

> <r_mmod_Electrostatic_Energy-OPLS-2005>
-403.895904541016

> <r_mmod_Solvation_Energy-OPLS-2005>
-250.987533569336

> <b_mmod_Minimization_Converged-OPLS-2005>
0

> <r_mmod_RMS_Derivative-OPLS-2005>
1.95683372020721

$$$$
7
                    3D
 Structure written by MMmdl.
163172  0  0  1  0            999 V2000
  -30.7418  -14.3556   20.7012 C   0  0  0  0  0  0
  -30.4279  -12.2895   19.3847 C   0  0  0  0  0  0
  -29.4860  -12.5366   18.1903 C   0  0  0  0  0  0
  -28.0105  -12.3864   18.6062 C   0  0  0  0  0  0
  -27.6713  -13.1952   19.8845 C   0  0  2  0  0  0
  -28.7067  -12.9000   20.9907 C   0  0  0  0  0  0
  -25.2625  -13.8141   20.5649 C   0  0  0  0  0  0
  -24.1853  -13.0435   20.9128 C   0  0  0  0  0  0
  -24.6383  -11.6898   20.8699 C   0  0  0  0  0  0
  -23.9041  -10.4294   21.0389 C   0  0  0  0  0  0
  -24.3591   -9.4213   21.9174 C   0  0  0  0  0  0
  -23.6267   -8.2250   22.0758 C   0  0  0  0  0  0
  -22.4247   -8.0282   21.3554 C   0  0  0  0  0  0
  -21.9880   -9.0255   20.4657 C   0  0  0  0  0  0
  -22.7210  -10.2128   20.3053 C   0  0  0  0  0  0
  -21.6859   -6.0719   22.5274 C   0  0  0  0  0  0
  -21.4020   -6.5623   23.8202 C   0  0  0  0  0  0
  -21.3660   -5.6778   24.9167 C   0  0  0  0  0  0
  -21.6043   -4.3044   24.7226 C   0  0  0  0  0  0
  -21.8821   -3.8132   23.4347 C   0  0  0  0  0  0
  -21.9196   -4.6946   22.3400 C   0  0  0  0  0  0
  -22.7877  -13.5256   21.1799 C   0  0  0  0  0  0
  -22.1662   -4.2134   21.0978 F   0  0  0  0  0  0
  -21.5626   -3.4528   25.7738 F   0  0  0  0  0  0
  -30.0562  -13.2065   20.4698 N   0  0  0  0  0  0
  -26.3067  -12.9293   20.3385 N   0  0  0  0  0  0
  -25.9311  -11.6460   20.5731 N   0  0  0  0  0  0
  -22.0517  -12.8273   22.0368 N   0  0  0  0  0  0
  -25.4368  -15.1849   20.4064 N   0  0  0  0  0  0
  -31.7448  -14.6955   20.0635 O   0  0  0  0  0  0
  -21.6639   -6.8861   21.4233 O   0  0  0  0  0  0
  -22.3568  -14.5569   20.6657 O   0  0  0  0  0  0
  -24.6066  -31.8722   23.2119 C   0  0  0  0  0  0
  -25.8975  -32.4844   23.8410 C   0  0  1  0  0  0
  -27.2596  -27.4942   20.0947 C   0  0  0  0  0  0
  -25.5850  -33.8643   24.2340 N   0  0  0  0  0  0
  -23.3920  -30.4943   21.5512 C   0  0  2  0  0  0
  -24.8431  -28.9615   20.1202 C   0  0  0  0  0  0
  -22.7363  -29.4677   22.5012 C   0  0  0  0  0  0
  -18.0261  -28.1385   22.8503 C   0  0  0  0  0  0
  -24.1478  -36.7350   23.2640 C   0  0  0  0  0  0
  -25.9107  -30.8610   21.3496 C   0  0  0  0  0  0
  -25.9956  -29.4954   20.7072 C   0  0  0  0  0  0
  -27.2045  -28.7753   20.6922 C   0  0  0  0  0  0
  -26.0883  -26.9630   19.5157 C   0  0  0  0  0  0
  -24.8805  -27.6894   19.5223 C   0  0  0  0  0  0
  -23.5999  -29.8200   20.1673 C   0  0  0  0  0  0
  -25.4095  -36.3132   24.0342 C   0  0  1  0  0  0
  -20.5844  -28.3656   23.1346 C   0  0  2  0  0  0
  -20.6745  -26.9396   22.5434 C   0  0  0  0  0  0
  -19.5724  -26.6395   21.5223 C   0  0  0  0  0  0
  -18.1902  -26.7932   22.1636 C   0  0  0  0  0  0
  -19.1509  -28.8836   23.2922 C   0  0  0  0  0  0
  -18.9445  -30.1445   23.8919 C   0  0  0  0  0  0
  -17.6450  -30.6586   24.0585 C   0  0  0  0  0  0
  -25.9017  -34.9494   23.5145 C   0  0  0  0  0  0
  -16.5340  -29.9099   23.6328 C   0  0  0  0  0  0
  -16.7255  -28.6525   23.0332 C   0  0  0  0  0  0
  -26.4447  -31.6603   25.0709 C   0  0  0  0  0  0
  -25.3750  -31.3683   26.1489 C   0  0  0  0  0  0
  -27.0269  -30.3056   24.6025 C   0  0  0  0  0  0
  -27.6038  -32.4310   25.7455 C   0  0  0  0  0  0
  -27.5574  -37.1825   24.8461 C   0  0  0  0  0  0
  -21.4097  -29.3035   22.3758 N   0  0  0  0  0  0
  -26.4280  -37.3811   23.9412 N   0  0  0  0  0  0
  -24.6550  -31.0885   22.0982 N   0  0  0  0  0  0
  -23.4164  -28.8212   23.3026 O   0  0  0  0  0  0
  -28.3921  -26.7113   20.0415 O   0  0  0  0  0  0
  -26.5593  -34.8937   22.4712 O   0  0  0  0  0  0
  -23.5274  -32.1440   23.7554 O   0  0  0  0  0  0
  -30.6674  -18.7775   21.4759 C   0  0  0  0  0  0
  -30.9984  -17.4076   21.3995 C   0  0  0  0  0  0
  -28.4625  -18.2039   22.3433 C   0  0  0  0  0  0
  -29.3953  -19.1833   21.9435 C   0  0  0  0  0  0
  -30.0516  -16.4352   21.7939 C   0  0  0  0  0  0
  -28.7955  -16.8405   22.2825 C   0  0  0  0  0  0
  -30.6964  -23.5994   23.5182 C   0  0  0  0  0  0
  -28.9978  -20.6282   21.9758 C   0  0  0  0  0  0
  -30.9957  -24.9925   22.9741 C   0  0  0  0  0  0
  -29.7712  -23.7342   21.3280 C   0  0  0  0  0  0
  -29.6977  -22.9144   22.6174 C   0  0  1  0  0  0
  -30.5754  -26.0347   20.7247 C   0  0  0  0  0  0
  -29.6099  -27.2177   20.5842 C   0  0  0  0  0  0
  -30.2884  -15.0428   21.7538 N   0  0  0  0  0  0
  -29.9165  -21.4789   22.4361 N   0  0  0  0  0  0
  -30.1058  -25.1039   21.7864 N   0  3  2  0  0  0
  -31.2231  -23.1200   24.5276 O   0  0  0  0  0  0
  -27.8641  -20.9810   21.6473 O   0  0  0  0  0  0
  -27.8979  -15.9067   22.6789 F   0  0  0  0  0  0
  -31.4686  -12.4105   19.0779 H   0  0  0  0  0  0
  -30.3405  -11.2590   19.7311 H   0  0  0  0  0  0
  -29.7170  -11.8448   17.3794 H   0  0  0  0  0  0
  -29.6532  -13.5392   17.7928 H   0  0  0  0  0  0
  -27.8138  -11.3270   18.7749 H   0  0  0  0  0  0
  -27.3573  -12.6907   17.7878 H   0  0  0  0  0  0
  -27.7402  -14.2533   19.6320 H   0  0  0  0  0  0
  -28.6677  -11.8449   21.2665 H   0  0  0  0  0  0
  -28.4414  -13.4355   21.9020 H   0  0  0  0  0  0
  -25.2740   -9.5687   22.4739 H   0  0  0  0  0  0
  -23.9985   -7.4644   22.7479 H   0  0  0  0  0  0
  -21.0813   -8.8774   19.8964 H   0  0  0  0  0  0
  -22.3677  -10.9661   19.6157 H   0  0  0  0  0  0
  -21.2018   -7.6135   23.9702 H   0  0  0  0  0  0
  -21.1476   -6.0510   25.9068 H   0  0  0  0  0  0
  -22.0602   -2.7597   23.2856 H   0  0  0  0  0  0
  -22.4122  -11.9939   22.4777 H   0  0  0  0  0  0
  -21.1146  -13.1334   22.2579 H   0  0  0  0  0  0
  -24.6860  -15.8504   20.5520 H   0  0  0  0  0  0
  -26.3180  -15.6250   20.1739 H   0  0  0  0  0  0
  -26.7054  -32.5595   23.1199 H   0  0  0  0  0  0
  -24.9958  -33.9815   25.0454 H   0  0  0  0  0  0
  -22.6781  -31.3085   21.4109 H   0  0  0  0  0  0
  -23.3711  -35.9712   23.3318 H   0  0  0  0  0  0
  -24.3560  -36.8945   22.2048 H   0  0  0  0  0  0
  -23.7261  -37.6572   23.6648 H   0  0  0  0  0  0
  -26.0019  -31.6221   20.5728 H   0  0  0  0  0  0
  -26.8052  -30.9286   21.9560 H   0  0  0  0  0  0
  -28.0741  -29.2349   21.1383 H   0  0  0  0  0  0
  -26.1143  -25.9848   19.0567 H   0  0  0  0  0  0
  -23.9942  -27.2660   19.0698 H   0  0  0  0  0  0
  -23.7053  -30.5935   19.4058 H   0  0  0  0  0  0
  -22.7263  -29.2348   19.8720 H   0  0  0  0  0  0
  -25.1265  -36.2003   25.0832 H   0  0  0  0  0  0
  -20.9950  -28.3225   24.1459 H   0  0  0  0  0  0
  -20.5645  -26.2260   23.3617 H   0  0  0  0  0  0
  -21.6619  -26.7445   22.1225 H   0  0  0  0  0  0
  -19.6877  -25.6314   21.1222 H   0  0  0  0  0  0
  -19.6654  -27.3235   20.6773 H   0  0  0  0  0  0
  -17.4174  -26.6694   21.4030 H   0  0  0  0  0  0
  -18.0288  -26.0065   22.9019 H   0  0  0  0  0  0
  -19.7923  -30.7261   24.2276 H   0  0  0  0  0  0
  -17.5013  -31.6261   24.5201 H   0  0  0  0  0  0
  -15.5343  -30.3016   23.7638 H   0  0  0  0  0  0
  -15.8655  -28.0875   22.7001 H   0  0  0  0  0  0
  -24.5912  -30.7030   25.7852 H   0  0  0  0  0  0
  -24.8958  -32.2827   26.4998 H   0  0  0  0  0  0
  -25.8152  -30.8832   27.0208 H   0  0  0  0  0  0
  -26.2789  -29.6798   24.1140 H   0  0  0  0  0  0
  -27.4122  -29.7299   25.4448 H   0  0  0  0  0  0
  -27.8585  -30.4394   23.9100 H   0  0  0  0  0  0
  -27.2666  -33.3582   26.2102 H   0  0  0  0  0  0
  -28.3815  -32.6907   25.0260 H   0  0  0  0  0  0
  -28.0752  -31.8394   26.5311 H   0  0  0  0  0  0
  -28.2610  -38.0107   24.7493 H   0  0  0  0  0  0
  -28.1051  -36.2639   24.6295 H   0  0  0  0  0  0
  -27.2299  -37.1498   25.8866 H   0  0  0  0  0  0
  -20.9236  -29.8776   21.7014 H   0  0  0  0  0  0
  -26.0170  -38.2890   24.1398 H   0  0  0  0  0  0
  -31.3914  -19.5135   21.1532 H   0  0  0  0  0  0
  -31.9734  -17.1155   21.0347 H   0  0  0  0  0  0
  -27.4857  -18.4953   22.7022 H   0  0  0  0  0  0
  -32.0481  -25.0438   22.6964 H   0  0  0  0  0  0
  -30.7823  -25.7641   23.7132 H   0  0  0  0  0  0
  -28.8336  -23.7174   20.7702 H   0  0  0  0  0  0
  -30.5592  -23.3527   20.6754 H   0  0  0  0  0  0
  -28.7160  -23.0588   23.0729 H   0  0  0  0  0  0
  -31.5686  -26.4157   20.9649 H   0  0  0  0  0  0
  -30.6734  -25.5265   19.7646 H   0  0  0  0  0  0
  -30.0215  -27.9725   19.9125 H   0  0  0  0  0  0
  -29.4762  -27.6770   21.5644 H   0  0  0  0  0  0
  -29.5937  -14.5211   22.2688 H   0  0  0  0  0  0
  -30.7982  -21.1023   22.7561 H   0  0  0  0  0  0
  -29.2339  -25.4791   22.1322 H   0  0  0  0  0  0
  1 25  1  0  0  0
  1 30  2  0  0  0
  1 84  1  0  0  0
  2  3  1  0  0  0
  2 25  1  0  0  0
  2 90  1  0  0  0
  2 91  1  0  0  0
  3  4  1  0  0  0
  3 92  1  0  0  0
  3 93  1  0  0  0
  4  5  1  0  0  0
  4 94  1  0  0  0
  4 95  1  0  0  0
  5  6  1  0  0  0
  5 26  1  0  0  0
  5 96  1  0  0  0
  6 25  1  0  0  0
  6 97  1  0  0  0
  6 98  1  0  0  0
  7  8  2  0  0  0
  7 26  1  0  0  0
  7 29  1  0  0  0
  8  9  1  0  0  0
  8 22  1  0  0  0
  9 10  1  0  0  0
  9 27  2  0  0  0
 10 11  2  0  0  0
 10 15  1  0  0  0
 11 12  1  0  0  0
 11 99  1  0  0  0
 12 13  2  0  0  0
 12100  1  0  0  0
 13 14  1  0  0  0
 13 31  1  0  0  0
 14 15  2  0  0  0
 14101  1  0  0  0
 15102  1  0  0  0
 16 17  2  0  0  0
 16 21  1  0  0  0
 16 31  1  0  0  0
 17 18  1  0  0  0
 17103  1  0  0  0
 18 19  2  0  0  0
 18104  1  0  0  0
 19 20  1  0  0  0
 19 24  1  0  0  0
 20 21  2  0  0  0
 20105  1  0  0  0
 21 23  1  0  0  0
 22 28  1  0  0  0
 22 32  2  0  0  0
 26 27  1  0  0  0
 28106  1  0  0  0
 28107  1  0  0  0
 29108  1  0  0  0
 29109  1  0  0  0
 33 34  1  0  0  0
 33 66  1  0  0  0
 33 70  2  0  0  0
 34 36  1  0  0  0
 34 59  1  0  0  0
 34110  1  0  0  0
 35 44  2  0  0  0
 35 45  1  0  0  0
 35 68  1  0  0  0
 36 56  1  0  0  0
 36111  1  0  0  0
 37 39  1  0  0  0
 37 47  1  0  0  0
 37 66  1  0  0  0
 37112  1  0  0  0
 38 43  2  0  0  0
 38 46  1  0  0  0
 38 47  1  0  0  0
 39 64  1  0  0  0
 39 67  2  0  0  0
 40 52  1  0  0  0
 40 53  2  0  0  0
 40 58  1  0  0  0
 41113  1  0  0  0
 41114  1  0  0  0
 41115  1  0  0  0
 41 48  1  0  0  0
 42 43  1  0  0  0
 42 66  1  0  0  0
 42116  1  0  0  0
 42117  1  0  0  0
 43 44  1  0  0  0
 44118  1  0  0  0
 45 46  2  0  0  0
 45119  1  0  0  0
 46120  1  0  0  0
 47121  1  0  0  0
 47122  1  0  0  0
 48 56  1  0  0  0
 48 65  1  0  0  0
 48123  1  0  0  0
 49 50  1  0  0  0
 49 53  1  0  0  0
 49 64  1  0  0  0
 49124  1  0  0  0
 50 51  1  0  0  0
 50125  1  0  0  0
 50126  1  0  0  0
 51 52  1  0  0  0
 51127  1  0  0  0
 51128  1  0  0  0
 52129  1  0  0  0
 52130  1  0  0  0
 53 54  1  0  0  0
 54 55  2  0  0  0
 54131  1  0  0  0
 55 57  1  0  0  0
 55132  1  0  0  0
 56 69  2  0  0  0
 57 58  2  0  0  0
 57133  1  0  0  0
 58134  1  0  0  0
 59 60  1  0  0  0
 59 61  1  0  0  0
 59 62  1  0  0  0
 60135  1  0  0  0
 60136  1  0  0  0
 60137  1  0  0  0
 61138  1  0  0  0
 61139  1  0  0  0
 61140  1  0  0  0
 62141  1  0  0  0
 62142  1  0  0  0
 62143  1  0  0  0
 63 65  1  0  0  0
 63144  1  0  0  0
 63145  1  0  0  0
 63146  1  0  0  0
 64147  1  0  0  0
 65148  1  0  0  0
 68 83  1  0  0  0
 71 72  2  0  0  0
 71 74  1  0  0  0
 71149  1  0  0  0
 72 75  1  0  0  0
 72150  1  0  0  0
 73 74  2  0  0  0
 73 76  1  0  0  0
 73151  1  0  0  0
 74 78  1  0  0  0
 75 76  2  0  0  0
 75 84  1  0  0  0
 76 89  1  0  0  0
 77 79  1  0  0  0
 77 81  1  0  0  0
 77 87  2  0  0  0
 78 85  1  0  0  0
 78 88  2  0  0  0
 79 86  1  0  0  0
 79152  1  0  0  0
 79153  1  0  0  0
 80 81  1  0  0  0
 80 86  1  0  0  0
 80154  1  0  0  0
 80155  1  0  0  0
 81 85  1  0  0  0
 81156  1  0  0  0
 82 83  1  0  0  0
 82157  1  0  0  0
 82158  1  0  0  0
 82 86  1  0  0  0
 83159  1  0  0  0
 83160  1  0  0  0
 84161  1  0  0  0
 85162  1  0  0  0
 86163  1  0  0  0
M  CHG  1  86   1
M  ISO  4   1 100  68 101  83 101  84 100
M  END
> <chiral flag>
0

> <version>
0

> <s_m_source_file>
/data/baiqing/PycharmProjects/Reinvent-master-3.2/result/LINK_invent/BTK/process_docking_weight1_custom_product_contain_oxygen_bond_distance_aromatic_linkinvent_7_9_3/rearranged_h_0093.sdf

> <i_m_source_file_index>
8

> <r_mmod_Potential_Energy-OPLS-2005>
-365.754699707031

> <r_mmod_Stretch_Energy-OPLS-2005>
32.353874206543

> <r_mmod_Bend_Energy-OPLS-2005>
126.479026794434

> <r_mmod_Torsional_Energy-OPLS-2005>
273.009399414062

> <r_mmod_Improper_Torsional_Energy-OPLS-2005>
5.98079061508179

> <r_mmod_Van_der_Waal_Energy-OPLS-2005>
151.223876953125

> <r_mmod_Electrostatic_Energy-OPLS-2005>
-470.643432617188

> <r_mmod_Solvation_Energy-OPLS-2005>
-490.428497314453

> <b_mmod_Minimization_Converged-OPLS-2005>
0

> <r_mmod_RMS_Derivative-OPLS-2005>
1.55776178836823

$$$$
9
                    3D
 Structure written by MMmdl.
157166  0  0  1  0            999 V2000
  -30.7370  -14.4405   20.5240 C   0  0  0  0  0  0
  -30.4079  -12.2677   19.4353 C   0  0  0  0  0  0
  -29.4964  -12.4911   18.2122 C   0  0  0  0  0  0
  -28.0165  -12.3527   18.6153 C   0  0  0  0  0  0
  -27.6560  -13.2077   19.8609 C   0  0  2  0  0  0
  -28.6981  -13.0303   20.9873 C   0  0  0  0  0  0
  -25.2586  -13.8157   20.5672 C   0  0  0  0  0  0
  -24.1840  -13.0447   20.9153 C   0  0  0  0  0  0
  -24.6388  -11.6900   20.8717 C   0  0  0  0  0  0
  -23.9060  -10.4290   21.0391 C   0  0  0  0  0  0
  -24.3611   -9.4212   21.9170 C   0  0  0  0  0  0
  -23.6287   -8.2254   22.0756 C   0  0  0  0  0  0
  -22.4275   -8.0279   21.3544 C   0  0  0  0  0  0
  -21.9905   -9.0255   20.4655 C   0  0  0  0  0  0
  -22.7227  -10.2137   20.3053 C   0  0  0  0  0  0
  -21.6866   -6.0726   22.5270 C   0  0  0  0  0  0
  -21.4017   -6.5633   23.8203 C   0  0  0  0  0  0
  -21.3673   -5.6794   24.9166 C   0  0  0  0  0  0
  -21.6055   -4.3053   24.7221 C   0  0  0  0  0  0
  -21.8818   -3.8139   23.4342 C   0  0  0  0  0  0
  -21.9192   -4.6952   22.3394 C   0  0  0  0  0  0
  -22.7865  -13.5246   21.1814 C   0  0  0  0  0  0
  -22.1648   -4.2142   21.0968 F   0  0  0  0  0  0
  -21.5645   -3.4535   25.7728 F   0  0  0  0  0  0
  -30.0372  -13.2788   20.4342 N   0  0  0  0  0  0
  -26.3007  -12.9328   20.3310 N   0  0  0  0  0  0
  -25.9305  -11.6488   20.5731 N   0  0  0  0  0  0
  -22.0518  -12.8263   22.0389 N   0  0  0  0  0  0
  -25.4331  -15.1887   20.4107 N   0  0  0  0  0  0
  -31.9115  -14.5141   20.1555 O   0  0  0  0  0  0
  -21.6651   -6.8862   21.4233 O   0  0  0  0  0  0
  -22.3550  -14.5551   20.6652 O   0  0  0  0  0  0
  -24.6152  -31.8672   23.2074 C   0  0  0  0  0  0
  -25.9045  -32.4817   23.8396 C   0  0  1  0  0  0
  -27.2360  -27.4557   20.1076 C   0  0  0  0  0  0
  -25.5917  -33.8624   24.2315 N   0  0  0  0  0  0
  -23.4016  -30.4873   21.5484 C   0  0  2  0  0  0
  -24.8478  -28.9597   20.1092 C   0  0  0  0  0  0
  -22.7426  -29.4628   22.4989 C   0  0  0  0  0  0
  -18.0259  -28.1408   22.8506 C   0  0  0  0  0  0
  -24.1481  -36.7303   23.2627 C   0  0  0  0  0  0
  -25.9252  -30.8442   21.3518 C   0  0  0  0  0  0
  -26.0040  -29.4786   20.7060 C   0  0  0  0  0  0
  -27.2014  -28.7325   20.7042 C   0  0  0  0  0  0
  -26.0707  -26.9454   19.4984 C   0  0  0  0  0  0
  -24.8757  -27.6913   19.4995 C   0  0  0  0  0  0
  -23.6065  -29.8209   20.1607 C   0  0  0  0  0  0
  -25.4114  -36.3115   24.0319 C   0  0  1  0  0  0
  -20.5860  -28.3683   23.1366 C   0  0  2  0  0  0
  -20.6789  -26.9430   22.5456 C   0  0  0  0  0  0
  -19.5748  -26.6408   21.5268 C   0  0  0  0  0  0
  -18.1910  -26.7959   22.1647 C   0  0  0  0  0  0
  -19.1512  -28.8868   23.2924 C   0  0  0  0  0  0
  -18.9434  -30.1480   23.8915 C   0  0  0  0  0  0
  -17.6433  -30.6613   24.0585 C   0  0  0  0  0  0
  -25.9047  -34.9473   23.5109 C   0  0  0  0  0  0
  -16.5328  -29.9116   23.6332 C   0  0  0  0  0  0
  -16.7241  -28.6542   23.0340 C   0  0  0  0  0  0
  -26.4464  -31.6592   25.0713 C   0  0  0  0  0  0
  -25.3733  -31.3739   26.1464 C   0  0  0  0  0  0
  -27.0262  -30.3035   24.6039 C   0  0  0  0  0  0
  -27.6039  -32.4322   25.7479 C   0  0  0  0  0  0
  -27.5567  -37.1803   24.8458 C   0  0  0  0  0  0
  -21.4154  -29.3013   22.3750 N   0  0  0  0  0  0
  -26.4283  -37.3815   23.9405 N   0  0  0  0  0  0
  -24.6657  -31.0815   22.0948 N   0  0  0  0  0  0
  -23.4217  -28.8184   23.3026 O   0  0  0  0  0  0
  -28.4027  -26.7292   20.1180 O   0  0  0  0  0  0
  -26.5609  -34.8922   22.4671 O   0  0  0  0  0  0
  -23.5349  -32.1383   23.7493 O   0  0  0  0  0  0
  -29.8247  -18.5053   18.5502 C   0  0  0  0  0  0
  -28.8568  -18.4202   20.7695 C   0  0  0  0  0  0
  -29.5674  -19.8868   18.4831 C   0  0  0  0  0  0
  -28.5793  -19.8044   20.6949 C   0  0  0  0  0  0
  -29.5011  -17.7608   19.7023 C   0  0  0  0  0  0
  -28.9657  -20.5744   19.5658 C   0  0  0  0  0  0
  -28.5145  -24.2365   19.9140 C   0  0  0  0  0  0
  -28.6854  -24.1258   18.5894 C   0  0  0  0  0  0
  -28.5649  -22.8972   20.4866 C   0  0  0  0  0  0
  -29.9143  -16.3409   19.7516 C   0  0  0  0  0  0
  -28.8630  -22.6978   18.1929 C   0  0  0  0  0  0
  -28.7498  -25.1792   17.5000 C   0  0  0  0  0  0
  -28.3322  -25.4726   20.8002 C   0  0  0  0  0  0
  -29.9900  -15.5805   20.7826 N   0  0  0  0  0  0
  -28.7627  -22.0031   19.4764 N   0  0  0  0  0  0
  -28.4542  -22.6297   21.6877 O   0  0  0  0  0  0
  -31.4604  -12.3053   19.1450 H   0  0  0  0  0  0
  -30.2533  -11.2680   19.8452 H   0  0  0  0  0  0
  -29.7361  -11.7725   17.4278 H   0  0  0  0  0  0
  -29.6688  -13.4839   17.7927 H   0  0  0  0  0  0
  -27.8303  -11.2962   18.8170 H   0  0  0  0  0  0
  -27.3717  -12.6188   17.7773 H   0  0  0  0  0  0
  -27.6869  -14.2484   19.5405 H   0  0  0  0  0  0
  -28.6560  -12.0172   21.3911 H   0  0  0  0  0  0
  -28.4809  -13.6964   21.8244 H   0  0  0  0  0  0
  -25.2756   -9.5703   22.4741 H   0  0  0  0  0  0
  -24.0008   -7.4654   22.7483 H   0  0  0  0  0  0
  -21.0839   -8.8758   19.8966 H   0  0  0  0  0  0
  -22.3661  -10.9669   19.6170 H   0  0  0  0  0  0
  -21.1996   -7.6138   23.9698 H   0  0  0  0  0  0
  -21.1512   -6.0521   25.9075 H   0  0  0  0  0  0
  -22.0585   -2.7602   23.2836 H   0  0  0  0  0  0
  -22.4143  -11.9946   22.4798 H   0  0  0  0  0  0
  -21.1139  -13.1305   22.2589 H   0  0  0  0  0  0
  -24.6786  -15.8520   20.5424 H   0  0  0  0  0  0
  -26.3068  -15.6273   20.1465 H   0  0  0  0  0  0
  -26.7158  -32.5524   23.1211 H   0  0  0  0  0  0
  -25.0132  -33.9837   25.0506 H   0  0  0  0  0  0
  -22.6859  -31.2998   21.4161 H   0  0  0  0  0  0
  -23.3740  -35.9640   23.3330 H   0  0  0  0  0  0
  -24.3555  -36.8868   22.2027 H   0  0  0  0  0  0
  -23.7229  -37.6518   23.6621 H   0  0  0  0  0  0
  -26.0279  -31.6028   20.5752 H   0  0  0  0  0  0
  -26.8211  -30.9087   21.9575 H   0  0  0  0  0  0
  -28.0938  -29.1211   21.1736 H   0  0  0  0  0  0
  -26.0936  -25.9780   19.0185 H   0  0  0  0  0  0
  -23.9906  -27.2862   19.0278 H   0  0  0  0  0  0
  -23.7105  -30.5965   19.4005 H   0  0  0  0  0  0
  -22.7325  -29.2356   19.8675 H   0  0  0  0  0  0
  -25.1292  -36.1972   25.0811 H   0  0  0  0  0  0
  -20.9943  -28.3257   24.1492 H   0  0  0  0  0  0
  -20.5816  -26.2257   23.3624 H   0  0  0  0  0  0
  -21.6646  -26.7559   22.1169 H   0  0  0  0  0  0
  -19.6925  -25.6333   21.1260 H   0  0  0  0  0  0
  -19.6703  -27.3259   20.6833 H   0  0  0  0  0  0
  -17.4214  -26.6718   21.4009 H   0  0  0  0  0  0
  -18.0270  -26.0113   22.9048 H   0  0  0  0  0  0
  -19.7908  -30.7312   24.2267 H   0  0  0  0  0  0
  -17.4980  -31.6285   24.5208 H   0  0  0  0  0  0
  -15.5331  -30.3033   23.7650 H   0  0  0  0  0  0
  -15.8635  -28.0891   22.7027 H   0  0  0  0  0  0
  -24.5941  -30.7027   25.7830 H   0  0  0  0  0  0
  -24.8904  -32.2922   26.4822 H   0  0  0  0  0  0
  -25.8094  -30.9004   27.0267 H   0  0  0  0  0  0
  -26.2793  -29.6868   24.1022 H   0  0  0  0  0  0
  -27.3973  -29.7183   25.4456 H   0  0  0  0  0  0
  -27.8657  -30.4367   23.9210 H   0  0  0  0  0  0
  -27.2642  -33.3622   26.2060 H   0  0  0  0  0  0
  -28.3842  -32.6874   25.0298 H   0  0  0  0  0  0
  -28.0715  -31.8451   26.5390 H   0  0  0  0  0  0
  -28.2602  -38.0084   24.7524 H   0  0  0  0  0  0
  -28.1041  -36.2617   24.6279 H   0  0  0  0  0  0
  -27.2284  -37.1452   25.8860 H   0  0  0  0  0  0
  -20.9308  -29.8669   21.6930 H   0  0  0  0  0  0
  -26.0147  -38.2877   24.1456 H   0  0  0  0  0  0
  -30.3172  -18.0270   17.7141 H   0  0  0  0  0  0
  -28.5754  -17.8676   21.6543 H   0  0  0  0  0  0
  -29.8729  -20.4006   17.5832 H   0  0  0  0  0  0
  -28.0679  -20.2562   21.5301 H   0  0  0  0  0  0
  -30.2243  -15.9694   18.7664 H   0  0  0  0  0  0
  -29.8399  -22.5738   17.7256 H   0  0  0  0  0  0
  -28.0802  -22.3807   17.5030 H   0  0  0  0  0  0
  -28.6567  -26.2005   17.8568 H   0  0  0  0  0  0
  -27.9533  -25.0045   16.7765 H   0  0  0  0  0  0
  -29.7038  -25.0970   16.9770 H   0  0  0  0  0  0
  -29.1292  -25.4781   21.5465 H   0  0  0  0  0  0
  -27.4071  -25.3709   21.3737 H   0  0  0  0  0  0
  1 25  1  0  0  0
  1 30  2  0  0  0
  1 84  1  0  0  0
  2  3  1  0  0  0
  2 25  1  0  0  0
  2 87  1  0  0  0
  2 88  1  0  0  0
  3  4  1  0  0  0
  3 89  1  0  0  0
  3 90  1  0  0  0
  4  5  1  0  0  0
  4 91  1  0  0  0
  4 92  1  0  0  0
  5  6  1  0  0  0
  5 26  1  0  0  0
  5 93  1  0  0  0
  6 25  1  0  0  0
  6 94  1  0  0  0
  6 95  1  0  0  0
  7  8  2  0  0  0
  7 26  1  0  0  0
  7 29  1  0  0  0
  8  9  1  0  0  0
  8 22  1  0  0  0
  9 10  1  0  0  0
  9 27  2  0  0  0
 10 11  2  0  0  0
 10 15  1  0  0  0
 11 12  1  0  0  0
 11 96  1  0  0  0
 12 13  2  0  0  0
 12 97  1  0  0  0
 13 14  1  0  0  0
 13 31  1  0  0  0
 14 15  2  0  0  0
 14 98  1  0  0  0
 15 99  1  0  0  0
 16 17  2  0  0  0
 16 21  1  0  0  0
 16 31  1  0  0  0
 17 18  1  0  0  0
 17100  1  0  0  0
 18 19  2  0  0  0
 18101  1  0  0  0
 19 20  1  0  0  0
 19 24  1  0  0  0
 20 21  2  0  0  0
 20102  1  0  0  0
 21 23  1  0  0  0
 22 28  1  0  0  0
 22 32  2  0  0  0
 26 27  1  0  0  0
 28103  1  0  0  0
 28104  1  0  0  0
 29105  1  0  0  0
 29106  1  0  0  0
 33 34  1  0  0  0
 33 66  1  0  0  0
 33 70  2  0  0  0
 34 36  1  0  0  0
 34 59  1  0  0  0
 34107  1  0  0  0
 35 44  2  0  0  0
 35 45  1  0  0  0
 35 68  1  0  0  0
 36 56  1  0  0  0
 36108  1  0  0  0
 37 39  1  0  0  0
 37 47  1  0  0  0
 37 66  1  0  0  0
 37109  1  0  0  0
 38 43  2  0  0  0
 38 46  1  0  0  0
 38 47  1  0  0  0
 39 64  1  0  0  0
 39 67  2  0  0  0
 40 52  1  0  0  0
 40 53  2  0  0  0
 40 58  1  0  0  0
 41110  1  0  0  0
 41111  1  0  0  0
 41112  1  0  0  0
 41 48  1  0  0  0
 42 43  1  0  0  0
 42 66  1  0  0  0
 42113  1  0  0  0
 42114  1  0  0  0
 43 44  1  0  0  0
 44115  1  0  0  0
 45 46  2  0  0  0
 45116  1  0  0  0
 46117  1  0  0  0
 47118  1  0  0  0
 47119  1  0  0  0
 48 56  1  0  0  0
 48 65  1  0  0  0
 48120  1  0  0  0
 49 50  1  0  0  0
 49 53  1  0  0  0
 49 64  1  0  0  0
 49121  1  0  0  0
 50 51  1  0  0  0
 50122  1  0  0  0
 50123  1  0  0  0
 51 52  1  0  0  0
 51124  1  0  0  0
 51125  1  0  0  0
 52126  1  0  0  0
 52127  1  0  0  0
 53 54  1  0  0  0
 54 55  2  0  0  0
 54128  1  0  0  0
 55 57  1  0  0  0
 55129  1  0  0  0
 56 69  2  0  0  0
 57 58  2  0  0  0
 57130  1  0  0  0
 58131  1  0  0  0
 59 60  1  0  0  0
 59 61  1  0  0  0
 59 62  1  0  0  0
 60132  1  0  0  0
 60133  1  0  0  0
 60134  1  0  0  0
 61135  1  0  0  0
 61136  1  0  0  0
 61137  1  0  0  0
 62138  1  0  0  0
 62139  1  0  0  0
 62140  1  0  0  0
 63 65  1  0  0  0
 63141  1  0  0  0
 63142  1  0  0  0
 63143  1  0  0  0
 64144  1  0  0  0
 65145  1  0  0  0
 68 83  1  0  0  0
 71 73  2  0  0  0
 71 75  1  0  0  0
 71146  1  0  0  0
 72 74  1  0  0  0
 72 75  2  0  0  0
 72147  1  0  0  0
 73 76  1  0  0  0
 73148  1  0  0  0
 74 76  2  0  0  0
 74149  1  0  0  0
 75 80  1  0  0  0
 76 85  1  0  0  0
 77 78  2  0  0  0
 77 79  1  0  0  0
 77 83  1  0  0  0
 78 81  1  0  0  0
 78 82  1  0  0  0
 79 85  1  0  0  0
 79 86  2  0  0  0
 80 84  2  0  0  0
 80150  1  0  0  0
 81 85  1  0  0  0
 81151  1  0  0  0
 81152  1  0  0  0
 82153  1  0  0  0
 82154  1  0  0  0
 82155  1  0  0  0
 83156  1  0  0  0
 83157  1  0  0  0
M  ISO  4   1 100  68 101  83 101  84 100
M  END
> <chiral flag>
0

> <version>
0

> <s_m_source_file>
/data/baiqing/PycharmProjects/Reinvent-master-3.2/result/LINK_invent/BTK/process_docking_weight1_custom_product_contain_oxygen_bond_distance_aromatic_linkinvent_7_9_3/rearranged_h_0093.sdf

> <i_m_source_file_index>
9

> <r_mmod_Potential_Energy-OPLS-2005>
113.848403930664

> <r_mmod_Stretch_Energy-OPLS-2005>
39.3069725036621

> <r_mmod_Bend_Energy-OPLS-2005>
147.543441772461

> <r_mmod_Torsional_Energy-OPLS-2005>
227.106033325195

> <r_mmod_Improper_Torsional_Energy-OPLS-2005>
6.64746332168579

> <r_mmod_Van_der_Waal_Energy-OPLS-2005>
165.455093383789

> <r_mmod_Electrostatic_Energy-OPLS-2005>
-300.839172363281

> <r_mmod_Solvation_Energy-OPLS-2005>
-188.471206665039

> <b_mmod_Minimization_Converged-OPLS-2005>
0

> <r_mmod_RMS_Derivative-OPLS-2005>
3.05609774589539

$$$$
10
                    3D
 Structure written by MMmdl.
156165  0  0  1  0            999 V2000
  -30.5945  -14.8046   20.4579 C   0  0  0  0  0  0
  -30.4398  -12.4994   19.4679 C   0  0  0  0  0  0
  -29.5083  -12.5039   18.2351 C   0  0  0  0  0  0
  -28.0393  -12.3149   18.6596 C   0  0  0  0  0  0
  -27.6373  -13.2336   19.8446 C   0  0  2  0  0  0
  -28.6881  -13.1956   20.9755 C   0  0  0  0  0  0
  -25.2509  -13.8202   20.5734 C   0  0  0  0  0  0
  -24.1798  -13.0434   20.9220 C   0  0  0  0  0  0
  -24.6392  -11.6911   20.8762 C   0  0  0  0  0  0
  -23.9066  -10.4285   21.0416 C   0  0  0  0  0  0
  -24.3613   -9.4194   21.9190 C   0  0  0  0  0  0
  -23.6287   -8.2231   22.0758 C   0  0  0  0  0  0
  -22.4273   -8.0276   21.3540 C   0  0  0  0  0  0
  -21.9908   -9.0249   20.4642 C   0  0  0  0  0  0
  -22.7244  -10.2124   20.3056 C   0  0  0  0  0  0
  -21.6850   -6.0723   22.5263 C   0  0  0  0  0  0
  -21.4020   -6.5632   23.8196 C   0  0  0  0  0  0
  -21.3659   -5.6793   24.9166 C   0  0  0  0  0  0
  -21.6033   -4.3051   24.7223 C   0  0  0  0  0  0
  -21.8823   -3.8136   23.4348 C   0  0  0  0  0  0
  -21.9193   -4.6949   22.3399 C   0  0  0  0  0  0
  -22.7818  -13.5214   21.1862 C   0  0  0  0  0  0
  -22.1661   -4.2147   21.0973 F   0  0  0  0  0  0
  -21.5624   -3.4526   25.7728 F   0  0  0  0  0  0
  -29.9747  -13.5734   20.3779 N   0  0  0  0  0  0
  -26.2925  -12.9411   20.3278 N   0  0  0  0  0  0
  -25.9327  -11.6549   20.5760 N   0  0  0  0  0  0
  -22.0455  -12.8215   22.0416 N   0  0  0  0  0  0
  -25.4155  -15.1944   20.4172 N   0  0  0  0  0  0
  -31.8006  -14.8815   20.2100 O   0  0  0  0  0  0
  -21.6635   -6.8873   21.4234 O   0  0  0  0  0  0
  -22.3487  -14.5501   20.6681 O   0  0  0  0  0  0
  -24.6401  -31.8495   23.1931 C   0  0  0  0  0  0
  -25.9189  -32.4733   23.8297 C   0  0  1  0  0  0
  -27.2321  -27.2205   20.1250 C   0  0  0  0  0  0
  -25.5960  -33.8540   24.2217 N   0  0  0  0  0  0
  -23.4403  -30.4700   21.5383 C   0  0  2  0  0  0
  -24.8885  -28.9143   20.1064 C   0  0  0  0  0  0
  -22.7558  -29.4568   22.4880 C   0  0  0  0  0  0
  -18.0302  -28.1399   22.8493 C   0  0  0  0  0  0
  -24.1478  -36.7286   23.2640 C   0  0  0  0  0  0
  -25.9912  -30.7471   21.3806 C   0  0  0  0  0  0
  -26.0644  -29.3676   20.7187 C   0  0  0  0  0  0
  -27.2366  -28.5353   20.7183 C   0  0  0  0  0  0
  -26.0226  -26.8429   19.4945 C   0  0  0  0  0  0
  -24.8758  -27.6599   19.4817 C   0  0  0  0  0  0
  -23.6608  -29.8056   20.1532 C   0  0  0  0  0  0
  -25.4110  -36.3071   24.0317 C   0  0  1  0  0  0
  -20.5915  -28.3731   23.1217 C   0  0  2  0  0  0
  -20.6800  -26.9467   22.5313 C   0  0  0  0  0  0
  -19.5727  -26.6410   21.5186 C   0  0  0  0  0  0
  -18.1937  -26.7928   22.1657 C   0  0  0  0  0  0
  -19.1562  -28.8893   23.2830 C   0  0  0  0  0  0
  -18.9482  -30.1476   23.8867 C   0  0  0  0  0  0
  -17.6486  -30.6611   24.0546 C   0  0  0  0  0  0
  -25.9062  -34.9444   23.5078 C   0  0  0  0  0  0
  -16.5366  -29.9107   23.6342 C   0  0  0  0  0  0
  -16.7284  -28.6515   23.0365 C   0  0  0  0  0  0
  -26.4521  -31.6593   25.0724 C   0  0  0  0  0  0
  -25.3718  -31.3754   26.1425 C   0  0  0  0  0  0
  -27.0389  -30.3002   24.6278 C   0  0  0  0  0  0
  -27.6060  -32.4353   25.7515 C   0  0  0  0  0  0
  -27.5578  -37.1802   24.8465 C   0  0  0  0  0  0
  -21.4251  -29.3094   22.3628 N   0  0  0  0  0  0
  -26.4290  -37.3770   23.9415 N   0  0  0  0  0  0
  -24.7095  -31.0439   22.0915 N   0  0  0  0  0  0
  -23.4230  -28.8063   23.2974 O   0  0  0  0  0  0
  -28.2879  -26.2637   20.2236 O   0  0  0  0  0  0
  -26.5642  -34.8931   22.4649 O   0  0  0  0  0  0
  -23.5542  -32.1307   23.7212 O   0  0  0  0  0  0
  -31.5704  -19.0971   21.7732 C   0  0  0  0  0  0
  -30.7635  -20.1659   21.3234 C   0  0  0  0  0  0
  -31.2709  -17.7499   21.4864 C   0  0  0  0  0  0
  -29.5920  -19.9653   20.5542 C   0  0  0  0  0  0
  -30.1256  -17.4062   20.7432 C   0  0  0  0  0  0
  -29.2947  -18.5304   20.3003 C   0  0  0  0  0  0
  -28.6503  -23.7651   19.3792 C   0  0  0  0  0  0
  -27.5221  -21.9332   18.1176 C   0  0  0  0  0  0
  -28.3328  -25.1387   19.3447 C   0  0  0  0  0  0
  -28.5536  -23.0543   18.0334 C   0  0  0  0  0  0
  -29.1094  -22.6659   20.4583 C   0  0  0  0  0  0
  -27.6209  -20.9912   19.3254 C   0  0  0  0  0  0
  -28.8478  -21.1749   20.1201 N   0  0  0  0  0  0
  -29.7998  -15.9546   20.5395 N   0  0  0  0  0  0
  -26.6688  -21.7731   17.2418 O   0  0  0  0  0  0
  -28.1811  -18.1719   19.6209 F   0  0  0  0  0  0
  -31.4763  -12.6470   19.1569 H   0  0  0  0  0  0
  -30.4125  -11.5346   19.9768 H   0  0  0  0  0  0
  -29.8002  -11.7147   17.5408 H   0  0  0  0  0  0
  -29.6162  -13.4449   17.6925 H   0  0  0  0  0  0
  -27.9188  -11.2712   18.9501 H   0  0  0  0  0  0
  -27.3727  -12.4737   17.8112 H   0  0  0  0  0  0
  -27.6187  -14.2468   19.4430 H   0  0  0  0  0  0
  -28.7485  -12.2016   21.4214 H   0  0  0  0  0  0
  -28.4181  -13.8810   21.7828 H   0  0  0  0  0  0
  -25.2755   -9.5666   22.4769 H   0  0  0  0  0  0
  -23.9988   -7.4622   22.7479 H   0  0  0  0  0  0
  -21.0840   -8.8758   19.8953 H   0  0  0  0  0  0
  -22.3699  -10.9660   19.6161 H   0  0  0  0  0  0
  -21.2019   -7.6142   23.9702 H   0  0  0  0  0  0
  -21.1480   -6.0518   25.9069 H   0  0  0  0  0  0
  -22.0609   -2.7600   23.2836 H   0  0  0  0  0  0
  -22.4083  -11.9902   22.4852 H   0  0  0  0  0  0
  -21.1048  -13.1207   22.2572 H   0  0  0  0  0  0
  -24.6402  -15.8389   20.5292 H   0  0  0  0  0  0
  -26.2517  -15.6439   20.0679 H   0  0  0  0  0  0
  -26.7258  -32.5348   23.1035 H   0  0  0  0  0  0
  -25.0109  -33.9636   25.0371 H   0  0  0  0  0  0
  -22.7383  -31.2937   21.3871 H   0  0  0  0  0  0
  -23.3754  -35.9606   23.3296 H   0  0  0  0  0  0
  -24.3562  -36.8921   22.2056 H   0  0  0  0  0  0
  -23.7212  -37.6476   23.6665 H   0  0  0  0  0  0
  -26.1447  -31.5036   20.6119 H   0  0  0  0  0  0
  -26.8645  -30.7901   22.0203 H   0  0  0  0  0  0
  -28.1312  -28.8768   21.2194 H   0  0  0  0  0  0
  -25.9215  -25.8688   19.0373 H   0  0  0  0  0  0
  -23.9776  -27.2990   18.9994 H   0  0  0  0  0  0
  -23.7963  -30.5806   19.3977 H   0  0  0  0  0  0
  -22.7783  -29.2423   19.8418 H   0  0  0  0  0  0
  -25.1297  -36.1911   25.0807 H   0  0  0  0  0  0
  -20.9972  -28.3308   24.1342 H   0  0  0  0  0  0
  -20.5750  -26.2347   23.3515 H   0  0  0  0  0  0
  -21.6632  -26.7506   22.1024 H   0  0  0  0  0  0
  -19.6849  -25.6313   21.1222 H   0  0  0  0  0  0
  -19.6617  -27.3198   20.6694 H   0  0  0  0  0  0
  -17.4154  -26.6561   21.4139 H   0  0  0  0  0  0
  -18.0467  -26.0104   22.9130 H   0  0  0  0  0  0
  -19.7958  -30.7282   24.2245 H   0  0  0  0  0  0
  -17.5035  -31.6275   24.5169 H   0  0  0  0  0  0
  -15.5361  -30.2978   23.7710 H   0  0  0  0  0  0
  -15.8664  -28.0840   22.7112 H   0  0  0  0  0  0
  -24.5893  -30.7112   25.7727 H   0  0  0  0  0  0
  -24.8915  -32.2924   26.4845 H   0  0  0  0  0  0
  -25.8013  -30.8919   27.0207 H   0  0  0  0  0  0
  -26.2983  -29.6720   24.1308 H   0  0  0  0  0  0
  -27.4035  -29.7312   25.4840 H   0  0  0  0  0  0
  -27.8880  -30.4263   23.9558 H   0  0  0  0  0  0
  -27.2651  -33.3648   26.2089 H   0  0  0  0  0  0
  -28.3884  -32.6927   25.0362 H   0  0  0  0  0  0
  -28.0715  -31.8486   26.5445 H   0  0  0  0  0  0
  -28.2604  -38.0093   24.7533 H   0  0  0  0  0  0
  -28.1075  -36.2637   24.6277 H   0  0  0  0  0  0
  -27.2308  -37.1429   25.8870 H   0  0  0  0  0  0
  -20.9494  -29.8847   21.6811 H   0  0  0  0  0  0
  -26.0179  -38.2851   24.1406 H   0  0  0  0  0  0
  -32.4480  -19.3116   22.3673 H   0  0  0  0  0  0
  -31.0778  -21.1609   21.5995 H   0  0  0  0  0  0
  -31.9225  -16.9814   21.8782 H   0  0  0  0  0  0
  -28.0757  -25.5247   18.3657 H   0  0  0  0  0  0
  -29.5218  -22.6241   17.7788 H   0  0  0  0  0  0
  -28.2821  -23.7402   17.2314 H   0  0  0  0  0  0
  -28.6490  -22.9079   21.4156 H   0  0  0  0  0  0
  -30.1794  -22.8220   20.5927 H   0  0  0  0  0  0
  -27.4976  -19.9998   18.9097 H   0  0  0  0  0  0
  -26.7586  -21.1703   19.9700 H   0  0  0  0  0  0
  -28.8161  -15.7694   20.4334 H   0  0  0  0  0  0
  1 25  1  0  0  0
  1 30  2  0  0  0
  1 84  1  0  0  0
  2  3  1  0  0  0
  2 25  1  0  0  0
  2 87  1  0  0  0
  2 88  1  0  0  0
  3  4  1  0  0  0
  3 89  1  0  0  0
  3 90  1  0  0  0
  4  5  1  0  0  0
  4 91  1  0  0  0
  4 92  1  0  0  0
  5  6  1  0  0  0
  5 26  1  0  0  0
  5 93  1  0  0  0
  6 25  1  0  0  0
  6 94  1  0  0  0
  6 95  1  0  0  0
  7  8  2  0  0  0
  7 26  1  0  0  0
  7 29  1  0  0  0
  8  9  1  0  0  0
  8 22  1  0  0  0
  9 10  1  0  0  0
  9 27  2  0  0  0
 10 11  2  0  0  0
 10 15  1  0  0  0
 11 12  1  0  0  0
 11 96  1  0  0  0
 12 13  2  0  0  0
 12 97  1  0  0  0
 13 14  1  0  0  0
 13 31  1  0  0  0
 14 15  2  0  0  0
 14 98  1  0  0  0
 15 99  1  0  0  0
 16 17  2  0  0  0
 16 21  1  0  0  0
 16 31  1  0  0  0
 17 18  1  0  0  0
 17100  1  0  0  0
 18 19  2  0  0  0
 18101  1  0  0  0
 19 20  1  0  0  0
 19 24  1  0  0  0
 20 21  2  0  0  0
 20102  1  0  0  0
 21 23  1  0  0  0
 22 28  1  0  0  0
 22 32  2  0  0  0
 26 27  1  0  0  0
 28103  1  0  0  0
 28104  1  0  0  0
 29105  1  0  0  0
 29106  1  0  0  0
 33 34  1  0  0  0
 33 66  1  0  0  0
 33 70  2  0  0  0
 34 36  1  0  0  0
 34 59  1  0  0  0
 34107  1  0  0  0
 35 44  2  0  0  0
 35 45  1  0  0  0
 35 68  1  0  0  0
 36 56  1  0  0  0
 36108  1  0  0  0
 37 39  1  0  0  0
 37 47  1  0  0  0
 37 66  1  0  0  0
 37109  1  0  0  0
 38 43  2  0  0  0
 38 46  1  0  0  0
 38 47  1  0  0  0
 39 64  1  0  0  0
 39 67  2  0  0  0
 40 52  1  0  0  0
 40 53  2  0  0  0
 40 58  1  0  0  0
 41110  1  0  0  0
 41111  1  0  0  0
 41112  1  0  0  0
 41 48  1  0  0  0
 42 43  1  0  0  0
 42 66  1  0  0  0
 42113  1  0  0  0
 42114  1  0  0  0
 43 44  1  0  0  0
 44115  1  0  0  0
 45 46  2  0  0  0
 45116  1  0  0  0
 46117  1  0  0  0
 47118  1  0  0  0
 47119  1  0  0  0
 48 56  1  0  0  0
 48 65  1  0  0  0
 48120  1  0  0  0
 49 50  1  0  0  0
 49 53  1  0  0  0
 49 64  1  0  0  0
 49121  1  0  0  0
 50 51  1  0  0  0
 50122  1  0  0  0
 50123  1  0  0  0
 51 52  1  0  0  0
 51124  1  0  0  0
 51125  1  0  0  0
 52126  1  0  0  0
 52127  1  0  0  0
 53 54  1  0  0  0
 54 55  2  0  0  0
 54128  1  0  0  0
 55 57  1  0  0  0
 55129  1  0  0  0
 56 69  2  0  0  0
 57 58  2  0  0  0
 57130  1  0  0  0
 58131  1  0  0  0
 59 60  1  0  0  0
 59 61  1  0  0  0
 59 62  1  0  0  0
 60132  1  0  0  0
 60133  1  0  0  0
 60134  1  0  0  0
 61135  1  0  0  0
 61136  1  0  0  0
 61137  1  0  0  0
 62138  1  0  0  0
 62139  1  0  0  0
 62140  1  0  0  0
 63 65  1  0  0  0
 63141  1  0  0  0
 63142  1  0  0  0
 63143  1  0  0  0
 64144  1  0  0  0
 65145  1  0  0  0
 68 79  1  0  0  0
 71 72  2  0  0  0
 71 73  1  0  0  0
 71146  1  0  0  0
 72 74  1  0  0  0
 72147  1  0  0  0
 73 75  2  0  0  0
 73148  1  0  0  0
 74 76  2  0  0  0
 74 83  1  0  0  0
 75 76  1  0  0  0
 75 84  1  0  0  0
 76 86  1  0  0  0
 77 79  2  0  0  0
 77 80  1  0  0  0
 77 81  1  0  0  0
 78 80  1  0  0  0
 78 82  1  0  0  0
 78 85  2  0  0  0
 79149  1  0  0  0
 80150  1  0  0  0
 80151  1  0  0  0
 81 83  1  0  0  0
 81152  1  0  0  0
 81153  1  0  0  0
 82 83  1  0  0  0
 82154  1  0  0  0
 82155  1  0  0  0
 84156  1  0  0  0
M  ISO  4   1 100  68 101  79 101  84 100
M  END
> <chiral flag>
0

> <version>
0

> <s_m_source_file>
/data/baiqing/PycharmProjects/Reinvent-master-3.2/result/LINK_invent/BTK/process_docking_weight1_custom_product_contain_oxygen_bond_distance_aromatic_linkinvent_7_9_3/rearranged_h_0093.sdf

> <i_m_source_file_index>
10

> <r_mmod_Potential_Energy-OPLS-2005>
377.005706787109

> <r_mmod_Stretch_Energy-OPLS-2005>
165.034027099609

> <r_mmod_Bend_Energy-OPLS-2005>
245.13117980957

> <r_mmod_Torsional_Energy-OPLS-2005>
212.732223510742

> <r_mmod_Improper_Torsional_Energy-OPLS-2005>
7.00497484207153

> <r_mmod_Van_der_Waal_Energy-OPLS-2005>
159.029266357422

> <r_mmod_Electrostatic_Energy-OPLS-2005>
-307.946502685547

> <r_mmod_Solvation_Energy-OPLS-2005>
-223.88215637207

> <b_mmod_Minimization_Converged-OPLS-2005>
0

> <r_mmod_RMS_Derivative-OPLS-2005>
3.21928286552429

$$$$
11
                    3D
 Structure written by MMmdl.
155164  0  0  1  0            999 V2000
  -30.6315  -14.7816   20.4269 C   0  0  0  0  0  0
  -30.4200  -12.4740   19.4826 C   0  0  0  0  0  0
  -29.5059  -12.5030   18.2394 C   0  0  0  0  0  0
  -28.0343  -12.3258   18.6556 C   0  0  0  0  0  0
  -27.6342  -13.2423   19.8429 C   0  0  2  0  0  0
  -28.6795  -13.2211   20.9791 C   0  0  0  0  0  0
  -25.2473  -13.8222   20.5702 C   0  0  0  0  0  0
  -24.1781  -13.0446   20.9214 C   0  0  0  0  0  0
  -24.6391  -11.6930   20.8754 C   0  0  0  0  0  0
  -23.9079  -10.4297   21.0407 C   0  0  0  0  0  0
  -24.3629   -9.4209   21.9181 C   0  0  0  0  0  0
  -23.6299   -8.2246   22.0755 C   0  0  0  0  0  0
  -22.4281   -8.0284   21.3545 C   0  0  0  0  0  0
  -21.9918   -9.0259   20.4647 C   0  0  0  0  0  0
  -22.7253  -10.2137   20.3054 C   0  0  0  0  0  0
  -21.6855   -6.0735   22.5277 C   0  0  0  0  0  0
  -21.4018   -6.5640   23.8210 C   0  0  0  0  0  0
  -21.3660   -5.6792   24.9173 C   0  0  0  0  0  0
  -21.6043   -4.3055   24.7225 C   0  0  0  0  0  0
  -21.8818   -3.8147   23.4347 C   0  0  0  0  0  0
  -21.9193   -4.6962   22.3401 C   0  0  0  0  0  0
  -22.7799  -13.5213   21.1876 C   0  0  0  0  0  0
  -22.1658   -4.2149   21.0977 F   0  0  0  0  0  0
  -21.5630   -3.4540   25.7737 F   0  0  0  0  0  0
  -29.9747  -13.5671   20.3840 N   0  0  0  0  0  0
  -26.2905  -12.9449   20.3273 N   0  0  0  0  0  0
  -25.9326  -11.6582   20.5762 N   0  0  0  0  0  0
  -22.0455  -12.8195   22.0434 N   0  0  0  0  0  0
  -25.4134  -15.1951   20.4127 N   0  0  0  0  0  0
  -31.8331  -14.7823   20.1569 O   0  0  0  0  0  0
  -21.6643   -6.8882   21.4240 O   0  0  0  0  0  0
  -22.3471  -14.5511   20.6720 O   0  0  0  0  0  0
  -24.6335  -31.8529   23.1967 C   0  0  0  0  0  0
  -25.9154  -32.4736   23.8315 C   0  0  1  0  0  0
  -27.2141  -27.2363   20.1203 C   0  0  0  0  0  0
  -25.5941  -33.8541   24.2232 N   0  0  0  0  0  0
  -23.4299  -30.4762   21.5407 C   0  0  2  0  0  0
  -24.8746  -28.9209   20.1063 C   0  0  0  0  0  0
  -22.7511  -29.4592   22.4901 C   0  0  0  0  0  0
  -18.0292  -28.1391   22.8482 C   0  0  0  0  0  0
  -24.1487  -36.7271   23.2638 C   0  0  0  0  0  0
  -25.9786  -30.7562   21.3810 C   0  0  0  0  0  0
  -26.0475  -29.3783   20.7184 C   0  0  0  0  0  0
  -27.2155  -28.5472   20.7169 C   0  0  0  0  0  0
  -26.0093  -26.8464   19.4932 C   0  0  0  0  0  0
  -24.8617  -27.6633   19.4857 C   0  0  0  0  0  0
  -23.6477  -29.8115   20.1560 C   0  0  0  0  0  0
  -25.4117  -36.3056   24.0321 C   0  0  1  0  0  0
  -20.5897  -28.3704   23.1264 C   0  0  2  0  0  0
  -20.6779  -26.9420   22.5407 C   0  0  0  0  0  0
  -19.5754  -26.6384   21.5213 C   0  0  0  0  0  0
  -18.1933  -26.7931   22.1624 C   0  0  0  0  0  0
  -19.1546  -28.8867   23.2864 C   0  0  0  0  0  0
  -18.9469  -30.1466   23.8884 C   0  0  0  0  0  0
  -17.6467  -30.6590   24.0564 C   0  0  0  0  0  0
  -25.9067  -34.9429   23.5083 C   0  0  0  0  0  0
  -16.5358  -29.9088   23.6336 C   0  0  0  0  0  0
  -16.7277  -28.6506   23.0356 C   0  0  0  0  0  0
  -26.4507  -31.6583   25.0727 C   0  0  0  0  0  0
  -25.3716  -31.3756   26.1442 C   0  0  0  0  0  0
  -27.0364  -30.2988   24.6259 C   0  0  0  0  0  0
  -27.6052  -32.4342   25.7498 C   0  0  0  0  0  0
  -27.5580  -37.1782   24.8460 C   0  0  0  0  0  0
  -21.4217  -29.3043   22.3649 N   0  0  0  0  0  0
  -26.4281  -37.3766   23.9418 N   0  0  0  0  0  0
  -24.6999  -31.0476   22.0950 N   0  0  0  0  0  0
  -23.4205  -28.8133   23.3009 O   0  0  0  0  0  0
  -28.3099  -26.3384   20.2170 O   0  0  0  0  0  0
  -26.5644  -34.8913   22.4655 O   0  0  0  0  0  0
  -23.5484  -32.1367   23.7251 O   0  0  0  0  0  0
  -27.7981  -22.9895   21.1846 C   0  0  0  0  0  0
  -31.2037  -20.1469   19.9153 C   0  0  0  0  0  0
  -31.6501  -17.7418   20.0187 C   0  0  0  0  0  0
  -29.2816  -22.4785   19.6457 C   0  0  0  0  0  0
  -28.5252  -23.5725   20.0967 C   0  0  0  0  0  0
  -29.8459  -19.9785   20.2594 C   0  0  0  0  0  0
  -32.0861  -19.0614   19.7951 C   0  0  0  0  0  0
  -30.3090  -17.4235   20.3585 C   0  0  0  0  0  0
  -29.4122  -18.5849   20.4701 C   0  0  0  0  0  0
  -28.1526  -21.6604   21.3345 C   0  0  0  0  0  0
  -28.4210  -25.0445   19.4482 C   0  0  0  0  0  0
  -29.0957  -21.2700   20.3884 N   0  0  0  0  0  0
  -33.4192  -19.2999   19.4576 N   0  0  0  0  0  0
  -29.9105  -15.9784   20.5601 N   0  0  0  0  0  0
  -27.7198  -20.7797   22.2749 O   0  0  0  0  0  0
  -28.1138  -18.3338   20.7645 F   0  0  0  0  0  0
  -31.4629  -12.5762   19.1780 H   0  0  0  0  0  0
  -30.3537  -11.5098   19.9894 H   0  0  0  0  0  0
  -29.7936  -11.7180   17.5388 H   0  0  0  0  0  0
  -29.6298  -13.4491   17.7097 H   0  0  0  0  0  0
  -27.8995  -11.2805   18.9356 H   0  0  0  0  0  0
  -27.3757  -12.4992   17.8038 H   0  0  0  0  0  0
  -27.6151  -14.2554   19.4407 H   0  0  0  0  0  0
  -28.7230  -12.2398   21.4544 H   0  0  0  0  0  0
  -28.4126  -13.9328   21.7619 H   0  0  0  0  0  0
  -25.2774   -9.5680   22.4757 H   0  0  0  0  0  0
  -24.0005   -7.4636   22.7476 H   0  0  0  0  0  0
  -21.0851   -8.8783   19.8951 H   0  0  0  0  0  0
  -22.3716  -10.9675   19.6164 H   0  0  0  0  0  0
  -21.2012   -7.6147   23.9714 H   0  0  0  0  0  0
  -21.1481   -6.0523   25.9075 H   0  0  0  0  0  0
  -22.0598   -2.7609   23.2847 H   0  0  0  0  0  0
  -22.4090  -11.9864   22.4819 H   0  0  0  0  0  0
  -21.1070  -13.1204   22.2647 H   0  0  0  0  0  0
  -24.6453  -15.8470   20.5308 H   0  0  0  0  0  0
  -26.2623  -15.6432   20.0925 H   0  0  0  0  0  0
  -26.7218  -32.5361   23.1049 H   0  0  0  0  0  0
  -25.0072  -33.9671   25.0366 H   0  0  0  0  0  0
  -22.7271  -31.2993   21.3948 H   0  0  0  0  0  0
  -23.3754  -35.9595   23.3291 H   0  0  0  0  0  0
  -24.3570  -36.8912   22.2053 H   0  0  0  0  0  0
  -23.7237  -37.6463   23.6678 H   0  0  0  0  0  0
  -26.1263  -31.5184   20.6149 H   0  0  0  0  0  0
  -26.8529  -30.7981   22.0194 H   0  0  0  0  0  0
  -28.1109  -28.8908   21.2159 H   0  0  0  0  0  0
  -25.8960  -25.8738   19.0430 H   0  0  0  0  0  0
  -23.9583  -27.3007   19.0146 H   0  0  0  0  0  0
  -23.7740  -30.5888   19.4015 H   0  0  0  0  0  0
  -22.7644  -29.2478   19.8498 H   0  0  0  0  0  0
  -25.1299  -36.1887   25.0813 H   0  0  0  0  0  0
  -20.9983  -28.3289   24.1388 H   0  0  0  0  0  0
  -20.5681  -26.2318   23.3616 H   0  0  0  0  0  0
  -21.6647  -26.7445   22.1200 H   0  0  0  0  0  0
  -19.6920  -25.6292   21.1249 H   0  0  0  0  0  0
  -19.6692  -27.3190   20.6740 H   0  0  0  0  0  0
  -17.4203  -26.6678   21.4023 H   0  0  0  0  0  0
  -18.0333  -26.0073   22.9021 H   0  0  0  0  0  0
  -19.7947  -30.7284   24.2243 H   0  0  0  0  0  0
  -17.5024  -31.6268   24.5172 H   0  0  0  0  0  0
  -15.5360  -30.2987   23.7670 H   0  0  0  0  0  0
  -15.8675  -28.0822   22.7082 H   0  0  0  0  0  0
  -24.5889  -30.7107   25.7770 H   0  0  0  0  0  0
  -24.8909  -32.2935   26.4836 H   0  0  0  0  0  0
  -25.8017  -30.8951   27.0239 H   0  0  0  0  0  0
  -26.2969  -29.6721   24.1259 H   0  0  0  0  0  0
  -27.3995  -29.7272   25.4809 H   0  0  0  0  0  0
  -27.8868  -30.4241   23.9554 H   0  0  0  0  0  0
  -27.2653  -33.3653   26.2044 H   0  0  0  0  0  0
  -28.3876  -32.6886   25.0337 H   0  0  0  0  0  0
  -28.0706  -31.8490   26.5443 H   0  0  0  0  0  0
  -28.2575  -38.0098   24.7537 H   0  0  0  0  0  0
  -28.1099  -36.2633   24.6249 H   0  0  0  0  0  0
  -27.2302  -37.1390   25.8860 H   0  0  0  0  0  0
  -20.9413  -29.8760   21.6842 H   0  0  0  0  0  0
  -26.0153  -38.2832   24.1439 H   0  0  0  0  0  0
  -27.0737  -23.5064   21.7995 H   0  0  0  0  0  0
  -31.5886  -21.1438   19.7600 H   0  0  0  0  0  0
  -32.3993  -16.9778   19.9144 H   0  0  0  0  0  0
  -29.9745  -22.4620   18.8155 H   0  0  0  0  0  0
  -27.6982  -24.9874   18.6385 H   0  0  0  0  0  0
  -29.3617  -25.1607   18.9105 H   0  0  0  0  0  0
  -33.6853  -20.1973   19.0618 H   0  0  0  0  0  0
  -34.0042  -18.5336   19.1373 H   0  0  0  0  0  0
  -28.9319  -15.8471   20.7663 H   0  0  0  0  0  0
  -27.0597  -21.2187   22.8012 H   0  0  0  0  0  0
  1 25  1  0  0  0
  1 30  2  0  0  0
  1 84  1  0  0  0
  2  3  1  0  0  0
  2 25  1  0  0  0
  2 87  1  0  0  0
  2 88  1  0  0  0
  3  4  1  0  0  0
  3 89  1  0  0  0
  3 90  1  0  0  0
  4  5  1  0  0  0
  4 91  1  0  0  0
  4 92  1  0  0  0
  5  6  1  0  0  0
  5 26  1  0  0  0
  5 93  1  0  0  0
  6 25  1  0  0  0
  6 94  1  0  0  0
  6 95  1  0  0  0
  7  8  2  0  0  0
  7 26  1  0  0  0
  7 29  1  0  0  0
  8  9  1  0  0  0
  8 22  1  0  0  0
  9 10  1  0  0  0
  9 27  2  0  0  0
 10 11  2  0  0  0
 10 15  1  0  0  0
 11 12  1  0  0  0
 11 96  1  0  0  0
 12 13  2  0  0  0
 12 97  1  0  0  0
 13 14  1  0  0  0
 13 31  1  0  0  0
 14 15  2  0  0  0
 14 98  1  0  0  0
 15 99  1  0  0  0
 16 17  2  0  0  0
 16 21  1  0  0  0
 16 31  1  0  0  0
 17 18  1  0  0  0
 17100  1  0  0  0
 18 19  2  0  0  0
 18101  1  0  0  0
 19 20  1  0  0  0
 19 24  1  0  0  0
 20 21  2  0  0  0
 20102  1  0  0  0
 21 23  1  0  0  0
 22 28  1  0  0  0
 22 32  2  0  0  0
 26 27  1  0  0  0
 28103  1  0  0  0
 28104  1  0  0  0
 29105  1  0  0  0
 29106  1  0  0  0
 33 34  1  0  0  0
 33 66  1  0  0  0
 33 70  2  0  0  0
 34 36  1  0  0  0
 34 59  1  0  0  0
 34107  1  0  0  0
 35 44  2  0  0  0
 35 45  1  0  0  0
 35 68  1  0  0  0
 36 56  1  0  0  0
 36108  1  0  0  0
 37 39  1  0  0  0
 37 47  1  0  0  0
 37 66  1  0  0  0
 37109  1  0  0  0
 38 43  2  0  0  0
 38 46  1  0  0  0
 38 47  1  0  0  0
 39 64  1  0  0  0
 39 67  2  0  0  0
 40 52  1  0  0  0
 40 53  2  0  0  0
 40 58  1  0  0  0
 41110  1  0  0  0
 41111  1  0  0  0
 41112  1  0  0  0
 41 48  1  0  0  0
 42 43  1  0  0  0
 42 66  1  0  0  0
 42113  1  0  0  0
 42114  1  0  0  0
 43 44  1  0  0  0
 44115  1  0  0  0
 45 46  2  0  0  0
 45116  1  0  0  0
 46117  1  0  0  0
 47118  1  0  0  0
 47119  1  0  0  0
 48 56  1  0  0  0
 48 65  1  0  0  0
 48120  1  0  0  0
 49 50  1  0  0  0
 49 53  1  0  0  0
 49 64  1  0  0  0
 49121  1  0  0  0
 50 51  1  0  0  0
 50122  1  0  0  0
 50123  1  0  0  0
 51 52  1  0  0  0
 51124  1  0  0  0
 51125  1  0  0  0
 52126  1  0  0  0
 52127  1  0  0  0
 53 54  1  0  0  0
 54 55  2  0  0  0
 54128  1  0  0  0
 55 57  1  0  0  0
 55129  1  0  0  0
 56 69  2  0  0  0
 57 58  2  0  0  0
 57130  1  0  0  0
 58131  1  0  0  0
 59 60  1  0  0  0
 59 61  1  0  0  0
 59 62  1  0  0  0
 60132  1  0  0  0
 60133  1  0  0  0
 60134  1  0  0  0
 61135  1  0  0  0
 61136  1  0  0  0
 61137  1  0  0  0
 62138  1  0  0  0
 62139  1  0  0  0
 62140  1  0  0  0
 63 65  1  0  0  0
 63141  1  0  0  0
 63142  1  0  0  0
 63143  1  0  0  0
 64144  1  0  0  0
 65145  1  0  0  0
 68 81  1  0  0  0
 71 75  1  0  0  0
 71 80  2  0  0  0
 71146  1  0  0  0
 72 76  2  0  0  0
 72 77  1  0  0  0
 72147  1  0  0  0
 73 77  2  0  0  0
 73 78  1  0  0  0
 73148  1  0  0  0
 74 75  2  0  0  0
 74 82  1  0  0  0
 74149  1  0  0  0
 75 81  1  0  0  0
 76 79  1  0  0  0
 76 82  1  0  0  0
 77 83  1  0  0  0
 78 79  2  0  0  0
 78 84  1  0  0  0
 79 86  1  0  0  0
 80 82  1  0  0  0
 80 85  1  0  0  0
 81150  1  0  0  0
 81151  1  0  0  0
 83152  1  0  0  0
 83153  1  0  0  0
 84154  1  0  0  0
 85155  1  0  0  0
M  ISO  4   1 100  68 101  81 101  84 100
M  END
> <chiral flag>
0

> <version>
0

> <s_m_source_file>
/data/baiqing/PycharmProjects/Reinvent-master-3.2/result/LINK_invent/BTK/process_docking_weight1_custom_product_contain_oxygen_bond_distance_aromatic_linkinvent_7_9_3/rearranged_h_0093.sdf

> <i_m_source_file_index>
11

> <r_mmod_Potential_Energy-OPLS-2005>
219.194564819336

> <r_mmod_Stretch_Energy-OPLS-2005>
146.678146362305

> <r_mmod_Bend_Energy-OPLS-2005>
198.990371704102

> <r_mmod_Torsional_Energy-OPLS-2005>
228.486465454102

> <r_mmod_Improper_Torsional_Energy-OPLS-2005>
7.93585014343262

> <r_mmod_Van_der_Waal_Energy-OPLS-2005>
143.655639648438

> <r_mmod_Electrostatic_Energy-OPLS-2005>
-383.377593994141

> <r_mmod_Solvation_Energy-OPLS-2005>
-226.599578857422

> <b_mmod_Minimization_Converged-OPLS-2005>
0

> <r_mmod_RMS_Derivative-OPLS-2005>
0.678610026836395

$$$$
12
                    3D
 Structure written by MMmdl.
154162  0  0  1  0            999 V2000
  -30.6682  -14.5110   20.5584 C   0  0  0  0  0  0
  -30.4415  -12.3294   19.4247 C   0  0  0  0  0  0
  -29.5079  -12.5043   18.2063 C   0  0  0  0  0  0
  -28.0286  -12.3589   18.6173 C   0  0  0  0  0  0
  -27.6689  -13.1980   19.8726 C   0  0  2  0  0  0
  -28.7090  -12.9863   20.9955 C   0  0  0  0  0  0
  -25.2640  -13.8099   20.5652 C   0  0  0  0  0  0
  -24.1864  -13.0421   20.9145 C   0  0  0  0  0  0
  -24.6400  -11.6874   20.8667 C   0  0  0  0  0  0
  -23.9067  -10.4288   21.0387 C   0  0  0  0  0  0
  -24.3621   -9.4213   21.9184 C   0  0  0  0  0  0
  -23.6297   -8.2255   22.0778 C   0  0  0  0  0  0
  -22.4291   -8.0277   21.3560 C   0  0  0  0  0  0
  -21.9901   -9.0242   20.4658 C   0  0  0  0  0  0
  -22.7229  -10.2131   20.3044 C   0  0  0  0  0  0
  -21.6850   -6.0720   22.5277 C   0  0  0  0  0  0
  -21.4018   -6.5619   23.8199 C   0  0  0  0  0  0
  -21.3641   -5.6781   24.9157 C   0  0  0  0  0  0
  -21.6053   -4.3047   24.7233 C   0  0  0  0  0  0
  -21.8803   -3.8134   23.4346 C   0  0  0  0  0  0
  -21.9206   -4.6947   22.3399 C   0  0  0  0  0  0
  -22.7909  -13.5251   21.1784 C   0  0  0  0  0  0
  -22.1666   -4.2113   21.0982 F   0  0  0  0  0  0
  -21.5631   -3.4532   25.7747 F   0  0  0  0  0  0
  -30.0373  -13.3079   20.4488 N   0  0  0  0  0  0
  -26.3081  -12.9269   20.3308 N   0  0  0  0  0  0
  -25.9350  -11.6435   20.5748 N   0  0  0  0  0  0
  -22.0524  -12.8286   22.0336 N   0  0  0  0  0  0
  -25.4347  -15.1851   20.4125 N   0  0  0  0  0  0
  -31.7860  -14.7177   20.0838 O   0  0  0  0  0  0
  -21.6649   -6.8889   21.4266 O   0  0  0  0  0  0
  -22.3609  -14.5557   20.6623 O   0  0  0  0  0  0
  -24.6181  -31.8652   23.2112 C   0  0  0  0  0  0
  -25.9081  -32.4806   23.8390 C   0  0  1  0  0  0
  -27.2227  -27.3975   20.0992 C   0  0  0  0  0  0
  -25.5917  -33.8601   24.2292 N   0  0  0  0  0  0
  -23.4059  -30.4909   21.5538 C   0  0  2  0  0  0
  -24.8440  -28.9495   20.1136 C   0  0  0  0  0  0
  -22.7356  -29.4724   22.5080 C   0  0  0  0  0  0
  -18.0302  -28.1350   22.8502 C   0  0  0  0  0  0
  -24.1486  -36.7303   23.2640 C   0  0  0  0  0  0
  -25.9378  -30.8179   21.3695 C   0  0  0  0  0  0
  -26.0071  -29.4521   20.7119 C   0  0  0  0  0  0
  -27.1960  -28.6845   20.6958 C   0  0  0  0  0  0
  -26.0336  -26.9163   19.4973 C   0  0  0  0  0  0
  -24.8564  -27.6852   19.5018 C   0  0  0  0  0  0
  -23.6043  -29.8124   20.1747 C   0  0  0  0  0  0
  -25.4113  -36.3080   24.0328 C   0  0  1  0  0  0
  -20.5848  -28.3727   23.1357 C   0  0  2  0  0  0
  -20.6867  -26.9531   22.5315 C   0  0  0  0  0  0
  -19.5822  -26.6526   21.5113 C   0  0  0  0  0  0
  -18.1998  -26.7954   22.1509 C   0  0  0  0  0  0
  -19.1506  -28.8819   23.3001 C   0  0  0  0  0  0
  -18.9422  -30.1386   23.9085 C   0  0  0  0  0  0
  -17.6388  -30.6495   24.0632 C   0  0  0  0  0  0
  -25.9046  -34.9462   23.5114 C   0  0  0  0  0  0
  -16.5290  -29.9029   23.6237 C   0  0  0  0  0  0
  -16.7265  -28.6425   23.0326 C   0  0  0  0  0  0
  -26.4491  -31.6608   25.0729 C   0  0  0  0  0  0
  -25.3742  -31.3751   26.1454 C   0  0  0  0  0  0
  -27.0350  -30.3051   24.6153 C   0  0  0  0  0  0
  -27.6021  -32.4357   25.7510 C   0  0  0  0  0  0
  -27.5567  -37.1811   24.8470 C   0  0  0  0  0  0
  -21.4061  -29.3220   22.3897 N   0  0  0  0  0  0
  -26.4287  -37.3764   23.9401 N   0  0  0  0  0  0
  -24.6740  -31.0705   22.1041 N   0  0  0  0  0  0
  -23.4142  -28.8140   23.3046 O   0  0  0  0  0  0
  -28.3974  -26.6593   20.1404 O   0  0  0  0  0  0
  -26.5603  -34.8930   22.4665 O   0  0  0  0  0  0
  -23.5359  -32.1400   23.7493 O   0  0  0  0  0  0
  -30.6239  -18.9849   19.8421 C   0  0  0  0  0  0
  -29.2644  -19.1124   21.8443 C   0  0  0  0  0  0
  -30.6666  -17.5727   19.9576 C   0  0  0  0  0  0
  -29.2964  -17.7020   21.9526 C   0  0  0  0  0  0
  -29.9161  -19.7804   20.7786 C   0  0  0  0  0  0
  -30.0007  -16.9094   21.0156 C   0  0  0  0  0  0
  -29.9362  -21.2934   20.6685 C   0  0  0  0  0  0
  -27.8149  -24.2017   20.5323 C   0  0  0  0  0  0
  -28.8418  -23.4373   21.4237 C   0  0  0  0  0  0
  -28.4284  -25.3102   19.6207 C   0  0  0  0  0  0
  -29.9428  -15.4813   21.1598 N   0  0  0  0  0  0
  -28.9012  -21.9751   21.1991 N   0  0  0  0  0  0
  -30.8678  -21.8637   20.0956 O   0  0  0  0  0  0
  -31.4817  -12.4526   19.1171 H   0  0  0  0  0  0
  -30.3602  -11.3207   19.8315 H   0  0  0  0  0  0
  -29.7572  -11.7661   17.4428 H   0  0  0  0  0  0
  -29.6681  -13.4835   17.7478 H   0  0  0  0  0  0
  -27.8460  -11.3020   18.8178 H   0  0  0  0  0  0
  -27.3774  -12.6261   17.7843 H   0  0  0  0  0  0
  -27.7093  -14.2452   19.5720 H   0  0  0  0  0  0
  -28.7007  -11.9486   21.3290 H   0  0  0  0  0  0
  -28.4596  -13.5765   21.8774 H   0  0  0  0  0  0
  -25.2753   -9.5669   22.4774 H   0  0  0  0  0  0
  -23.9959   -7.4642   22.7505 H   0  0  0  0  0  0
  -21.0812   -8.8761   19.8982 H   0  0  0  0  0  0
  -22.3661  -10.9682   19.6149 H   0  0  0  0  0  0
  -21.1997   -7.6122   23.9677 H   0  0  0  0  0  0
  -21.1491   -6.0523   25.9052 H   0  0  0  0  0  0
  -22.0615   -2.7598   23.2861 H   0  0  0  0  0  0
  -22.4106  -11.9973   22.4790 H   0  0  0  0  0  0
  -21.1148  -13.1361   22.2471 H   0  0  0  0  0  0
  -24.6648  -15.8359   20.5220 H   0  0  0  0  0  0
  -26.2935  -15.6394   20.1237 H   0  0  0  0  0  0
  -26.7124  -32.5442   23.1105 H   0  0  0  0  0  0
  -25.0120  -33.9755   25.0470 H   0  0  0  0  0  0
  -22.7006  -31.3135   21.4050 H   0  0  0  0  0  0
  -23.3720  -35.9662   23.3336 H   0  0  0  0  0  0
  -24.3571  -36.8889   22.2048 H   0  0  0  0  0  0
  -23.7291  -37.6539   23.6640 H   0  0  0  0  0  0
  -26.0549  -31.5889   20.6063 H   0  0  0  0  0  0
  -26.8252  -30.8641   21.9930 H   0  0  0  0  0  0
  -28.0931  -29.0651   21.1624 H   0  0  0  0  0  0
  -25.9832  -25.9440   19.0266 H   0  0  0  0  0  0
  -23.9637  -27.2928   19.0342 H   0  0  0  0  0  0
  -23.6849  -30.5716   19.3987 H   0  0  0  0  0  0
  -22.7296  -29.2163   19.9036 H   0  0  0  0  0  0
  -25.1290  -36.1934   25.0818 H   0  0  0  0  0  0
  -20.9982  -28.3241   24.1450 H   0  0  0  0  0  0
  -20.5873  -26.2349   23.3477 H   0  0  0  0  0  0
  -21.6724  -26.7767   22.0976 H   0  0  0  0  0  0
  -19.7090  -25.6491   21.0986 H   0  0  0  0  0  0
  -19.6690  -27.3458   20.6740 H   0  0  0  0  0  0
  -17.4286  -26.6816   21.3854 H   0  0  0  0  0  0
  -18.0371  -26.0046   22.8829 H   0  0  0  0  0  0
  -19.7834  -30.7193   24.2649 H   0  0  0  0  0  0
  -17.4882  -31.6105   24.5354 H   0  0  0  0  0  0
  -15.5268  -30.2907   23.7459 H   0  0  0  0  0  0
  -15.8731  -28.0669   22.7015 H   0  0  0  0  0  0
  -24.5884  -30.7122   25.7810 H   0  0  0  0  0  0
  -24.8924  -32.2912   26.4877 H   0  0  0  0  0  0
  -25.8031  -30.8926   27.0239 H   0  0  0  0  0  0
  -26.2931  -29.6799   24.1149 H   0  0  0  0  0  0
  -27.4069  -29.7290   25.4647 H   0  0  0  0  0  0
  -27.8773  -30.4380   23.9357 H   0  0  0  0  0  0
  -27.2599  -33.3634   26.2121 H   0  0  0  0  0  0
  -28.3815  -32.6994   25.0351 H   0  0  0  0  0  0
  -28.0717  -31.8491   26.5412 H   0  0  0  0  0  0
  -28.2601  -38.0089   24.7454 H   0  0  0  0  0  0
  -28.1042  -36.2610   24.6351 H   0  0  0  0  0  0
  -27.2276  -37.1527   25.8873 H   0  0  0  0  0  0
  -20.9145  -29.9068   21.7278 H   0  0  0  0  0  0
  -26.0167  -38.2845   24.1341 H   0  0  0  0  0  0
  -31.1509  -19.4640   19.0242 H   0  0  0  0  0  0
  -28.7409  -19.6767   22.6054 H   0  0  0  0  0  0
  -31.2142  -17.0163   19.2108 H   0  0  0  0  0  0
  -28.7775  -17.2292   22.7773 H   0  0  0  0  0  0
  -27.0380  -24.6431   21.1548 H   0  0  0  0  0  0
  -27.2850  -23.4825   19.9024 H   0  0  0  0  0  0
  -28.5582  -23.5783   22.4672 H   0  0  0  0  0  0
  -29.8320  -23.8827   21.3438 H   0  0  0  0  0  0
  -27.9770  -25.2751   18.6286 H   0  0  0  0  0  0
  -29.4675  -25.0579   19.4233 H   0  0  0  0  0  0
  -29.1387  -15.1332   21.6552 H   0  0  0  0  0  0
  -28.1615  -21.4191   21.6044 H   0  0  0  0  0  0
  1 25  1  0  0  0
  1 30  2  0  0  0
  1 81  1  0  0  0
  2  3  1  0  0  0
  2 25  1  0  0  0
  2 84  1  0  0  0
  2 85  1  0  0  0
  3  4  1  0  0  0
  3 86  1  0  0  0
  3 87  1  0  0  0
  4  5  1  0  0  0
  4 88  1  0  0  0
  4 89  1  0  0  0
  5  6  1  0  0  0
  5 26  1  0  0  0
  5 90  1  0  0  0
  6 25  1  0  0  0
  6 91  1  0  0  0
  6 92  1  0  0  0
  7  8  2  0  0  0
  7 26  1  0  0  0
  7 29  1  0  0  0
  8  9  1  0  0  0
  8 22  1  0  0  0
  9 10  1  0  0  0
  9 27  2  0  0  0
 10 11  2  0  0  0
 10 15  1  0  0  0
 11 12  1  0  0  0
 11 93  1  0  0  0
 12 13  2  0  0  0
 12 94  1  0  0  0
 13 14  1  0  0  0
 13 31  1  0  0  0
 14 15  2  0  0  0
 14 95  1  0  0  0
 15 96  1  0  0  0
 16 17  2  0  0  0
 16 21  1  0  0  0
 16 31  1  0  0  0
 17 18  1  0  0  0
 17 97  1  0  0  0
 18 19  2  0  0  0
 18 98  1  0  0  0
 19 20  1  0  0  0
 19 24  1  0  0  0
 20 21  2  0  0  0
 20 99  1  0  0  0
 21 23  1  0  0  0
 22 28  1  0  0  0
 22 32  2  0  0  0
 26 27  1  0  0  0
 28100  1  0  0  0
 28101  1  0  0  0
 29102  1  0  0  0
 29103  1  0  0  0
 33 34  1  0  0  0
 33 66  1  0  0  0
 33 70  2  0  0  0
 34 36  1  0  0  0
 34 59  1  0  0  0
 34104  1  0  0  0
 35 44  2  0  0  0
 35 45  1  0  0  0
 35 68  1  0  0  0
 36 56  1  0  0  0
 36105  1  0  0  0
 37 39  1  0  0  0
 37 47  1  0  0  0
 37 66  1  0  0  0
 37106  1  0  0  0
 38 43  2  0  0  0
 38 46  1  0  0  0
 38 47  1  0  0  0
 39 64  1  0  0  0
 39 67  2  0  0  0
 40 52  1  0  0  0
 40 53  2  0  0  0
 40 58  1  0  0  0
 41107  1  0  0  0
 41108  1  0  0  0
 41109  1  0  0  0
 41 48  1  0  0  0
 42 43  1  0  0  0
 42 66  1  0  0  0
 42110  1  0  0  0
 42111  1  0  0  0
 43 44  1  0  0  0
 44112  1  0  0  0
 45 46  2  0  0  0
 45113  1  0  0  0
 46114  1  0  0  0
 47115  1  0  0  0
 47116  1  0  0  0
 48 56  1  0  0  0
 48 65  1  0  0  0
 48117  1  0  0  0
 49 50  1  0  0  0
 49 53  1  0  0  0
 49 64  1  0  0  0
 49118  1  0  0  0
 50 51  1  0  0  0
 50119  1  0  0  0
 50120  1  0  0  0
 51 52  1  0  0  0
 51121  1  0  0  0
 51122  1  0  0  0
 52123  1  0  0  0
 52124  1  0  0  0
 53 54  1  0  0  0
 54 55  2  0  0  0
 54125  1  0  0  0
 55 57  1  0  0  0
 55126  1  0  0  0
 56 69  2  0  0  0
 57 58  2  0  0  0
 57127  1  0  0  0
 58128  1  0  0  0
 59 60  1  0  0  0
 59 61  1  0  0  0
 59 62  1  0  0  0
 60129  1  0  0  0
 60130  1  0  0  0
 60131  1  0  0  0
 61132  1  0  0  0
 61133  1  0  0  0
 61134  1  0  0  0
 62135  1  0  0  0
 62136  1  0  0  0
 62137  1  0  0  0
 63 65  1  0  0  0
 63138  1  0  0  0
 63139  1  0  0  0
 63140  1  0  0  0
 64141  1  0  0  0
 65142  1  0  0  0
 68 80  1  0  0  0
 71 73  2  0  0  0
 71 75  1  0  0  0
 71143  1  0  0  0
 72 74  1  0  0  0
 72 75  2  0  0  0
 72144  1  0  0  0
 73 76  1  0  0  0
 73145  1  0  0  0
 74 76  2  0  0  0
 74146  1  0  0  0
 75 77  1  0  0  0
 76 81  1  0  0  0
 77 82  1  0  0  0
 77 83  2  0  0  0
 78 79  1  0  0  0
 78 80  1  0  0  0
 78147  1  0  0  0
 78148  1  0  0  0
 79 82  1  0  0  0
 79149  1  0  0  0
 79150  1  0  0  0
 80151  1  0  0  0
 80152  1  0  0  0
 81153  1  0  0  0
 82154  1  0  0  0
M  ISO  4   1 100  68 101  80 101  81 100
M  END
> <chiral flag>
0

> <version>
0

> <s_m_source_file>
/data/baiqing/PycharmProjects/Reinvent-master-3.2/result/LINK_invent/BTK/process_docking_weight1_custom_product_contain_oxygen_bond_distance_aromatic_linkinvent_7_9_3/rearranged_h_0093.sdf

> <i_m_source_file_index>
12

> <r_mmod_Potential_Energy-OPLS-2005>
-66.3895645141602

> <r_mmod_Stretch_Energy-OPLS-2005>
43.451286315918

> <r_mmod_Bend_Energy-OPLS-2005>
109.433364868164

> <r_mmod_Torsional_Energy-OPLS-2005>
236.116638183594

> <r_mmod_Improper_Torsional_Energy-OPLS-2005>
3.24011659622192

> <r_mmod_Van_der_Waal_Energy-OPLS-2005>
157.813461303711

> <r_mmod_Electrostatic_Energy-OPLS-2005>
-400.06005859375

> <r_mmod_Solvation_Energy-OPLS-2005>
-234.851699829102

> <b_mmod_Minimization_Converged-OPLS-2005>
0

> <r_mmod_RMS_Derivative-OPLS-2005>
6.12136554718018

$$$$
13
                    3D
 Structure written by MMmdl.
159167  0  0  1  0            999 V2000
  -30.6984  -14.4972   20.4709 C   0  0  0  0  0  0
  -30.4158  -12.2880   19.4509 C   0  0  0  0  0  0
  -29.4997  -12.4745   18.2222 C   0  0  0  0  0  0
  -28.0158  -12.3610   18.6256 C   0  0  0  0  0  0
  -27.6575  -13.2089   19.8771 C   0  0  2  0  0  0
  -28.7043  -13.0383   21.0039 C   0  0  0  0  0  0
  -25.2572  -13.8166   20.5724 C   0  0  0  0  0  0
  -24.1827  -13.0431   20.9213 C   0  0  0  0  0  0
  -24.6383  -11.6898   20.8757 C   0  0  0  0  0  0
  -23.9050  -10.4281   21.0415 C   0  0  0  0  0  0
  -24.3597   -9.4187   21.9187 C   0  0  0  0  0  0
  -23.6285   -8.2223   22.0749 C   0  0  0  0  0  0
  -22.4269   -8.0266   21.3533 C   0  0  0  0  0  0
  -21.9905   -9.0244   20.4646 C   0  0  0  0  0  0
  -22.7232  -10.2124   20.3061 C   0  0  0  0  0  0
  -21.6843   -6.0725   22.5268 C   0  0  0  0  0  0
  -21.4005   -6.5634   23.8198 C   0  0  0  0  0  0
  -21.3663   -5.6789   24.9163 C   0  0  0  0  0  0
  -21.6051   -4.3050   24.7220 C   0  0  0  0  0  0
  -21.8817   -3.8134   23.4340 C   0  0  0  0  0  0
  -21.9193   -4.6951   22.3396 C   0  0  0  0  0  0
  -22.7845  -13.5217   21.1880 C   0  0  0  0  0  0
  -22.1658   -4.2135   21.0976 F   0  0  0  0  0  0
  -21.5648   -3.4537   25.7731 F   0  0  0  0  0  0
  -30.0353  -13.3094   20.4382 N   0  0  0  0  0  0
  -26.3011  -12.9329   20.3412 N   0  0  0  0  0  0
  -25.9309  -11.6490   20.5794 N   0  0  0  0  0  0
  -22.0492  -12.8197   22.0435 N   0  0  0  0  0  0
  -25.4304  -15.1889   20.4132 N   0  0  0  0  0  0
  -31.8784  -14.6105   20.1346 O   0  0  0  0  0  0
  -21.6633   -6.8866   21.4231 O   0  0  0  0  0  0
  -22.3521  -14.5513   20.6723 O   0  0  0  0  0  0
  -24.6142  -31.8689   23.2107 C   0  0  0  0  0  0
  -25.9031  -32.4824   23.8408 C   0  0  1  0  0  0
  -27.2347  -27.4406   20.1026 C   0  0  0  0  0  0
  -25.5893  -33.8615   24.2351 N   0  0  0  0  0  0
  -23.4021  -30.4927   21.5516 C   0  0  2  0  0  0
  -24.8489  -28.9608   20.1152 C   0  0  0  0  0  0
  -22.7404  -29.4669   22.4999 C   0  0  0  0  0  0
  -18.0268  -28.1375   22.8484 C   0  0  0  0  0  0
  -24.1487  -36.7313   23.2646 C   0  0  0  0  0  0
  -25.9298  -30.8393   21.3614 C   0  0  0  0  0  0
  -26.0096  -29.4746   20.7080 C   0  0  0  0  0  0
  -27.2080  -28.7245   20.6933 C   0  0  0  0  0  0
  -26.0593  -26.9455   19.4947 C   0  0  0  0  0  0
  -24.8689  -27.6961   19.5032 C   0  0  0  0  0  0
  -23.6086  -29.8240   20.1665 C   0  0  0  0  0  0
  -25.4102  -36.3112   24.0356 C   0  0  1  0  0  0
  -20.5855  -28.3663   23.1314 C   0  0  2  0  0  0
  -20.6751  -26.9402   22.5413 C   0  0  0  0  0  0
  -19.5743  -26.6383   21.5200 C   0  0  0  0  0  0
  -18.1915  -26.7924   22.1603 C   0  0  0  0  0  0
  -19.1511  -28.8836   23.2894 C   0  0  0  0  0  0
  -18.9441  -30.1439   23.8902 C   0  0  0  0  0  0
  -17.6450  -30.6581   24.0556 C   0  0  0  0  0  0
  -25.9026  -34.9475   23.5157 C   0  0  0  0  0  0
  -16.5339  -29.9083   23.6327 C   0  0  0  0  0  0
  -16.7256  -28.6496   23.0350 C   0  0  0  0  0  0
  -26.4465  -31.6583   25.0719 C   0  0  0  0  0  0
  -25.3748  -31.3660   26.1480 C   0  0  0  0  0  0
  -27.0302  -30.3037   24.6069 C   0  0  0  0  0  0
  -27.6054  -32.4291   25.7466 C   0  0  0  0  0  0
  -27.5588  -37.1807   24.8467 C   0  0  0  0  0  0
  -21.4135  -29.3035   22.3725 N   0  0  0  0  0  0
  -26.4292  -37.3796   23.9424 N   0  0  0  0  0  0
  -24.6671  -31.0810   22.0998 N   0  0  0  0  0  0
  -23.4182  -28.8219   23.3037 O   0  0  0  0  0  0
  -28.3847  -26.6819   20.1256 O   0  0  0  0  0  0
  -26.5582  -34.8925   22.4712 O   0  0  0  0  0  0
  -23.5333  -32.1419   23.7512 O   0  0  0  0  0  0
  -29.5845  -18.6121   21.2071 C   0  0  0  0  0  0
  -29.6681  -19.9899   21.5318 C   0  0  0  0  0  0
  -30.9369  -19.0136   19.2259 C   0  0  0  0  0  0
  -30.2122  -18.1145   20.0420 C   0  0  0  0  0  0
  -30.3914  -20.8818   20.7040 C   0  0  0  0  0  0
  -31.0259  -20.3816   19.5469 C   0  0  0  0  0  0
  -29.4189  -24.4646   20.5599 C   0  0  0  0  0  0
  -28.8234  -16.6367   18.5822 C   0  0  0  0  0  0
  -29.3049  -23.0426   21.1521 C   0  0  0  0  0  0
  -28.1928  -25.3817   20.7177 C   0  0  0  0  0  0
  -30.0309  -16.6800   19.5319 C   0  0  2  0  0  0
  -31.7089  -21.2545   18.6950 N   0  0  0  0  0  0
  -30.5297  -22.2497   20.9925 N   0  0  0  0  0  0
  -29.9049  -15.5876   20.5209 N   0  0  0  0  0  0
  -30.4467  -24.8297   19.9749 O   0  0  0  0  0  0
  -31.4660  -12.3551   19.1585 H   0  0  0  0  0  0
  -30.2896  -11.2917   19.8770 H   0  0  0  0  0  0
  -29.7347  -11.7242   17.4663 H   0  0  0  0  0  0
  -29.6892  -13.4444   17.7583 H   0  0  0  0  0  0
  -27.8100  -11.3082   18.8241 H   0  0  0  0  0  0
  -27.3739  -12.6418   17.7895 H   0  0  0  0  0  0
  -27.6777  -14.2487   19.5587 H   0  0  0  0  0  0
  -28.6739  -12.0239   21.4045 H   0  0  0  0  0  0
  -28.4873  -13.7001   21.8437 H   0  0  0  0  0  0
  -25.2737   -9.5656   22.4770 H   0  0  0  0  0  0
  -23.9990   -7.4603   22.7459 H   0  0  0  0  0  0
  -21.0835   -8.8766   19.8947 H   0  0  0  0  0  0
  -22.3695  -10.9664   19.6173 H   0  0  0  0  0  0
  -21.1973   -7.6139   23.9694 H   0  0  0  0  0  0
  -21.1513   -6.0519   25.9069 H   0  0  0  0  0  0
  -22.0594   -2.7597   23.2836 H   0  0  0  0  0  0
  -22.4087  -11.9824   22.4782 H   0  0  0  0  0  0
  -21.1125  -13.1223   22.2692 H   0  0  0  0  0  0
  -24.6656  -15.8467   20.5177 H   0  0  0  0  0  0
  -26.2825  -15.6226   20.0839 H   0  0  0  0  0  0
  -26.7102  -32.5549   23.1176 H   0  0  0  0  0  0
  -25.0065  -33.9771   25.0513 H   0  0  0  0  0  0
  -22.6906  -31.3089   21.4132 H   0  0  0  0  0  0
  -23.3752  -35.9643   23.3304 H   0  0  0  0  0  0
  -24.3592  -36.8920   22.2062 H   0  0  0  0  0  0
  -23.7221  -37.6516   23.6646 H   0  0  0  0  0  0
  -26.0398  -31.6061   20.5937 H   0  0  0  0  0  0
  -26.8182  -30.8928   21.9785 H   0  0  0  0  0  0
  -28.1043  -29.1170   21.1528 H   0  0  0  0  0  0
  -26.0544  -25.9805   19.0083 H   0  0  0  0  0  0
  -23.9784  -27.2970   19.0367 H   0  0  0  0  0  0
  -23.7110  -30.5969   19.4037 H   0  0  0  0  0  0
  -22.7341  -29.2391   19.8758 H   0  0  0  0  0  0
  -25.1268  -36.1996   25.0850 H   0  0  0  0  0  0
  -20.9940  -28.3227   24.1438 H   0  0  0  0  0  0
  -20.5641  -26.2279   23.3600 H   0  0  0  0  0  0
  -21.6629  -26.7442   22.1224 H   0  0  0  0  0  0
  -19.6912  -25.6296   21.1229 H   0  0  0  0  0  0
  -19.6694  -27.3192   20.6730 H   0  0  0  0  0  0
  -17.4197  -26.6676   21.3993 H   0  0  0  0  0  0
  -18.0318  -26.0053   22.8987 H   0  0  0  0  0  0
  -19.7922  -30.7239   24.2284 H   0  0  0  0  0  0
  -17.5012  -31.6266   24.5153 H   0  0  0  0  0  0
  -15.5341  -30.2988   23.7654 H   0  0  0  0  0  0
  -15.8654  -28.0822   22.7073 H   0  0  0  0  0  0
  -24.5929  -30.6999   25.7816 H   0  0  0  0  0  0
  -24.8930  -32.2800   26.4961 H   0  0  0  0  0  0
  -25.8123  -30.8808   27.0216 H   0  0  0  0  0  0
  -26.2837  -29.6779   24.1167 H   0  0  0  0  0  0
  -27.4142  -29.7279   25.4501 H   0  0  0  0  0  0
  -27.8640  -30.4370   23.9170 H   0  0  0  0  0  0
  -27.2693  -33.3584   26.2076 H   0  0  0  0  0  0
  -28.3837  -32.6857   25.0267 H   0  0  0  0  0  0
  -28.0757  -31.8395   26.5346 H   0  0  0  0  0  0
  -28.2601  -38.0110   24.7526 H   0  0  0  0  0  0
  -28.1082  -36.2643   24.6264 H   0  0  0  0  0  0
  -27.2318  -37.1429   25.8872 H   0  0  0  0  0  0
  -20.9301  -29.8750   21.6938 H   0  0  0  0  0  0
  -26.0191  -38.2885   24.1404 H   0  0  0  0  0  0
  -29.0099  -17.9485   21.8397 H   0  0  0  0  0  0
  -29.1765  -20.3563   22.4211 H   0  0  0  0  0  0
  -31.3939  -18.6507   18.3160 H   0  0  0  0  0  0
  -28.9250  -17.3772   17.7883 H   0  0  0  0  0  0
  -27.8914  -16.8461   19.1072 H   0  0  0  0  0  0
  -28.7298  -15.6662   18.0953 H   0  0  0  0  0  0
  -28.4586  -22.5421   20.6808 H   0  0  0  0  0  0
  -29.0720  -23.1330   22.2133 H   0  0  0  0  0  0
  -27.9837  -25.5031   21.7814 H   0  0  0  0  0  0
  -27.3416  -24.8594   20.2835 H   0  0  0  0  0  0
  -30.9030  -16.4835   18.9038 H   0  0  0  0  0  0
  -31.9387  -20.8928   17.7760 H   0  0  0  0  0  0
  -31.3231  -22.1887   18.6265 H   0  0  0  0  0  0
  -31.1923  -22.6980   20.3645 H   0  0  0  0  0  0
  -28.9778  -15.4301   20.8825 H   0  0  0  0  0  0
  1 25  1  0  0  0
  1 30  2  0  0  0
  1 84  1  0  0  0
  2  3  1  0  0  0
  2 25  1  0  0  0
  2 86  1  0  0  0
  2 87  1  0  0  0
  3  4  1  0  0  0
  3 88  1  0  0  0
  3 89  1  0  0  0
  4  5  1  0  0  0
  4 90  1  0  0  0
  4 91  1  0  0  0
  5  6  1  0  0  0
  5 26  1  0  0  0
  5 92  1  0  0  0
  6 25  1  0  0  0
  6 93  1  0  0  0
  6 94  1  0  0  0
  7  8  2  0  0  0
  7 26  1  0  0  0
  7 29  1  0  0  0
  8  9  1  0  0  0
  8 22  1  0  0  0
  9 10  1  0  0  0
  9 27  2  0  0  0
 10 11  2  0  0  0
 10 15  1  0  0  0
 11 12  1  0  0  0
 11 95  1  0  0  0
 12 13  2  0  0  0
 12 96  1  0  0  0
 13 14  1  0  0  0
 13 31  1  0  0  0
 14 15  2  0  0  0
 14 97  1  0  0  0
 15 98  1  0  0  0
 16 17  2  0  0  0
 16 21  1  0  0  0
 16 31  1  0  0  0
 17 18  1  0  0  0
 17 99  1  0  0  0
 18 19  2  0  0  0
 18100  1  0  0  0
 19 20  1  0  0  0
 19 24  1  0  0  0
 20 21  2  0  0  0
 20101  1  0  0  0
 21 23  1  0  0  0
 22 28  1  0  0  0
 22 32  2  0  0  0
 26 27  1  0  0  0
 28102  1  0  0  0
 28103  1  0  0  0
 29104  1  0  0  0
 29105  1  0  0  0
 33 34  1  0  0  0
 33 66  1  0  0  0
 33 70  2  0  0  0
 34 36  1  0  0  0
 34 59  1  0  0  0
 34106  1  0  0  0
 35 44  2  0  0  0
 35 45  1  0  0  0
 35 68  1  0  0  0
 36 56  1  0  0  0
 36107  1  0  0  0
 37 39  1  0  0  0
 37 47  1  0  0  0
 37 66  1  0  0  0
 37108  1  0  0  0
 38 43  2  0  0  0
 38 46  1  0  0  0
 38 47  1  0  0  0
 39 64  1  0  0  0
 39 67  2  0  0  0
 40 52  1  0  0  0
 40 53  2  0  0  0
 40 58  1  0  0  0
 41109  1  0  0  0
 41110  1  0  0  0
 41111  1  0  0  0
 41 48  1  0  0  0
 42 43  1  0  0  0
 42 66  1  0  0  0
 42112  1  0  0  0
 42113  1  0  0  0
 43 44  1  0  0  0
 44114  1  0  0  0
 45 46  2  0  0  0
 45115  1  0  0  0
 46116  1  0  0  0
 47117  1  0  0  0
 47118  1  0  0  0
 48 56  1  0  0  0
 48 65  1  0  0  0
 48119  1  0  0  0
 49 50  1  0  0  0
 49 53  1  0  0  0
 49 64  1  0  0  0
 49120  1  0  0  0
 50 51  1  0  0  0
 50121  1  0  0  0
 50122  1  0  0  0
 51 52  1  0  0  0
 51123  1  0  0  0
 51124  1  0  0  0
 52125  1  0  0  0
 52126  1  0  0  0
 53 54  1  0  0  0
 54 55  2  0  0  0
 54127  1  0  0  0
 55 57  1  0  0  0
 55128  1  0  0  0
 56 69  2  0  0  0
 57 58  2  0  0  0
 57129  1  0  0  0
 58130  1  0  0  0
 59 60  1  0  0  0
 59 61  1  0  0  0
 59 62  1  0  0  0
 60131  1  0  0  0
 60132  1  0  0  0
 60133  1  0  0  0
 61134  1  0  0  0
 61135  1  0  0  0
 61136  1  0  0  0
 62137  1  0  0  0
 62138  1  0  0  0
 62139  1  0  0  0
 63 65  1  0  0  0
 63140  1  0  0  0
 63141  1  0  0  0
 63142  1  0  0  0
 64143  1  0  0  0
 65144  1  0  0  0
 68 80  1  0  0  0
 71 72  2  0  0  0
 71 74  1  0  0  0
 71145  1  0  0  0
 72 75  1  0  0  0
 72146  1  0  0  0
 73 74  2  0  0  0
 73 76  1  0  0  0
 73147  1  0  0  0
 74 81  1  0  0  0
 75 76  2  0  0  0
 75 83  1  0  0  0
 76 82  1  0  0  0
 77 79  1  0  0  0
 77 80  1  0  0  0
 77 85  2  0  0  0
 78148  1  0  0  0
 78149  1  0  0  0
 78150  1  0  0  0
 78 81  1  0  0  0
 79 83  1  0  0  0
 79151  1  0  0  0
 79152  1  0  0  0
 80153  1  0  0  0
 80154  1  0  0  0
 81 84  1  0  0  0
 81155  1  0  0  0
 82156  1  0  0  0
 82157  1  0  0  0
 83158  1  0  0  0
 84159  1  0  0  0
M  ISO  4   1 100  68 101  80 101  84 100
M  END
> <chiral flag>
0

> <version>
0

> <s_m_source_file>
/data/baiqing/PycharmProjects/Reinvent-master-3.2/result/LINK_invent/BTK/process_docking_weight1_custom_product_contain_oxygen_bond_distance_aromatic_linkinvent_7_9_3/rearranged_h_0093.sdf

> <i_m_source_file_index>
13

> <r_mmod_Potential_Energy-OPLS-2005>
-142.992965698242

> <r_mmod_Stretch_Energy-OPLS-2005>
37.6153945922852

> <r_mmod_Bend_Energy-OPLS-2005>
97.2183380126953

> <r_mmod_Torsional_Energy-OPLS-2005>
252.4375

> <r_mmod_Improper_Torsional_Energy-OPLS-2005>
22.3579711914062

> <r_mmod_Van_der_Waal_Energy-OPLS-2005>
152.447937011719

> <r_mmod_Electrostatic_Energy-OPLS-2005>
-472.176483154297

> <r_mmod_Solvation_Energy-OPLS-2005>
-252.069183349609

> <b_mmod_Minimization_Converged-OPLS-2005>
0

> <r_mmod_RMS_Derivative-OPLS-2005>
1.82397150993347

$$$$
14
                    3D
 Structure written by MMmdl.
162171  0  0  1  0            999 V2000
  -30.6925  -14.8128   20.5022 C   0  0  0  0  0  0
  -30.4220  -12.5400   19.4598 C   0  0  0  0  0  0
  -29.4932  -12.5421   18.2266 C   0  0  0  0  0  0
  -28.0292  -12.3334   18.6460 C   0  0  0  0  0  0
  -27.6259  -13.2510   19.8328 C   0  0  2  0  0  0
  -28.6773  -13.2680   20.9658 C   0  0  0  0  0  0
  -25.2412  -13.8254   20.5717 C   0  0  0  0  0  0
  -24.1773  -13.0465   20.9236 C   0  0  0  0  0  0
  -24.6406  -11.6935   20.8810 C   0  0  0  0  0  0
  -23.9107  -10.4294   21.0436 C   0  0  0  0  0  0
  -24.3666   -9.4209   21.9198 C   0  0  0  0  0  0
  -23.6370   -8.2228   22.0732 C   0  0  0  0  0  0
  -22.4308   -8.0299   21.3579 C   0  0  0  0  0  0
  -21.9954   -9.0281   20.4683 C   0  0  0  0  0  0
  -22.7272  -10.2160   20.3110 C   0  0  0  0  0  0
  -21.6871   -6.0768   22.5319 C   0  0  0  0  0  0
  -21.4042   -6.5645   23.8258 C   0  0  0  0  0  0
  -21.3650   -5.6779   24.9192 C   0  0  0  0  0  0
  -21.6016   -4.3032   24.7242 C   0  0  0  0  0  0
  -21.8812   -3.8145   23.4355 C   0  0  0  0  0  0
  -21.9195   -4.6983   22.3418 C   0  0  0  0  0  0
  -22.7803  -13.5276   21.1830 C   0  0  0  0  0  0
  -22.1694   -4.2182   21.0993 F   0  0  0  0  0  0
  -21.5592   -3.4508   25.7742 F   0  0  0  0  0  0
  -29.9774  -13.6244   20.3753 N   0  0  0  0  0  0
  -26.2854  -12.9490   20.3277 N   0  0  0  0  0  0
  -25.9349  -11.6600   20.5763 N   0  0  0  0  0  0
  -22.0429  -12.8428   22.0483 N   0  0  0  0  0  0
  -25.3994  -15.1996   20.4203 N   0  0  0  0  0  0
  -31.8779  -14.8002   20.1552 O   0  0  0  0  0  0
  -21.6646   -6.8923   21.4275 O   0  0  0  0  0  0
  -22.3533  -14.5539   20.6565 O   0  0  0  0  0  0
  -24.6335  -31.8521   23.1973 C   0  0  0  0  0  0
  -25.9160  -32.4729   23.8302 C   0  0  1  0  0  0
  -27.1973  -27.2351   20.1105 C   0  0  0  0  0  0
  -25.5959  -33.8557   24.2224 N   0  0  0  0  0  0
  -23.4297  -30.4805   21.5435 C   0  0  2  0  0  0
  -24.8675  -28.9229   20.1037 C   0  0  0  0  0  0
  -22.7529  -29.4596   22.4908 C   0  0  0  0  0  0
  -18.0269  -28.1408   22.8496 C   0  0  0  0  0  0
  -24.1488  -36.7275   23.2623 C   0  0  0  0  0  0
  -25.9790  -30.7562   21.3766 C   0  0  0  0  0  0
  -26.0433  -29.3768   20.7160 C   0  0  0  0  0  0
  -27.2087  -28.5410   20.7130 C   0  0  0  0  0  0
  -25.9906  -26.8502   19.4874 C   0  0  0  0  0  0
  -24.8465  -27.6730   19.4785 C   0  0  0  0  0  0
  -23.6458  -29.8219   20.1562 C   0  0  0  0  0  0
  -25.4090  -36.3041   24.0329 C   0  0  1  0  0  0
  -20.5899  -28.3697   23.1298 C   0  0  2  0  0  0
  -20.6769  -26.9420   22.5418 C   0  0  0  0  0  0
  -19.5732  -26.6388   21.5225 C   0  0  0  0  0  0
  -18.1910  -26.7937   22.1633 C   0  0  0  0  0  0
  -19.1539  -28.8874   23.2891 C   0  0  0  0  0  0
  -18.9452  -30.1471   23.8888 C   0  0  0  0  0  0
  -17.6447  -30.6600   24.0560 C   0  0  0  0  0  0
  -25.9082  -34.9429   23.5094 C   0  0  0  0  0  0
  -16.5329  -29.9092   23.6335 C   0  0  0  0  0  0
  -16.7255  -28.6526   23.0349 C   0  0  0  0  0  0
  -26.4522  -31.6581   25.0712 C   0  0  0  0  0  0
  -25.3771  -31.3756   26.1470 C   0  0  0  0  0  0
  -27.0320  -30.2975   24.6209 C   0  0  0  0  0  0
  -27.6097  -32.4312   25.7437 C   0  0  0  0  0  0
  -27.5627  -37.1702   24.8415 C   0  0  0  0  0  0
  -21.4213  -29.3032   22.3686 N   0  0  0  0  0  0
  -26.4229  -37.3782   23.9509 N   0  0  0  0  0  0
  -24.7008  -31.0500   22.0952 N   0  0  0  0  0  0
  -23.4235  -28.8128   23.2973 O   0  0  0  0  0  0
  -28.2812  -26.3225   20.1859 O   0  0  0  0  0  0
  -26.5652  -34.8915   22.4653 O   0  0  0  0  0  0
  -23.5488  -32.1358   23.7282 O   0  0  0  0  0  0
  -31.0227  -18.5708   18.1018 C   0  0  0  0  0  0
  -30.3413  -19.7497   18.4590 C   0  0  0  0  0  0
  -30.9368  -17.4034   18.8896 C   0  0  0  0  0  0
  -27.3304  -22.8117   20.3868 C   0  0  0  0  0  0
  -28.4187  -23.5496   19.8164 C   0  0  0  0  0  0
  -29.5749  -19.8688   19.6481 C   0  0  0  0  0  0
  -30.1485  -17.3480   20.0838 C   0  0  0  0  0  0
  -29.4765  -18.6225   20.4358 C   0  0  0  0  0  0
  -29.4028  -22.5616   19.6137 C   0  0  0  0  0  0
  -27.6269  -21.4591   20.3770 C   0  0  0  0  0  0
  -30.8006  -22.8329   19.0878 C   0  0  0  0  0  0
  -30.9310  -17.0075   23.1108 C   0  0  0  0  0  0
  -28.4007  -25.0953   19.3181 C   0  0  0  0  0  0
  -29.8655  -16.1675   22.3452 C   0  0  0  0  0  0
  -28.9277  -21.2196   19.9030 N   0  0  0  0  0  0
  -30.1011  -16.0428   20.8811 N   0  0  0  0  0  0
  -26.7821  -20.4390   20.6873 O   0  0  0  0  0  0
  -28.7035  -18.6356   21.5479 F   0  0  0  0  0  0
  -31.4431  -12.6747   19.1089 H   0  0  0  0  0  0
  -30.4159  -11.5742   19.9610 H   0  0  0  0  0  0
  -29.7966  -11.7717   17.5114 H   0  0  0  0  0  0
  -29.5864  -13.5001   17.7035 H   0  0  0  0  0  0
  -27.9072  -11.2901   18.9345 H   0  0  0  0  0  0
  -27.3584  -12.4912   17.7972 H   0  0  0  0  0  0
  -27.5893  -14.2533   19.4058 H   0  0  0  0  0  0
  -28.7283  -12.3116   21.4817 H   0  0  0  0  0  0
  -28.3635  -13.9982   21.7064 H   0  0  0  0  0  0
  -25.2831   -9.5670   22.4774 H   0  0  0  0  0  0
  -24.0069   -7.4600   22.7463 H   0  0  0  0  0  0
  -21.0833   -8.8861   19.9050 H   0  0  0  0  0  0
  -22.3771  -10.9709   19.6224 H   0  0  0  0  0  0
  -21.2105   -7.6143   23.9831 H   0  0  0  0  0  0
  -21.1455   -6.0457   25.9118 H   0  0  0  0  0  0
  -22.0603   -2.7637   23.2824 H   0  0  0  0  0  0
  -22.4056  -12.0218   22.5084 H   0  0  0  0  0  0
  -21.1079  -13.1622   22.2658 H   0  0  0  0  0  0
  -24.6084  -15.8287   20.4974 H   0  0  0  0  0  0
  -26.2699  -15.6749   20.2169 H   0  0  0  0  0  0
  -26.7217  -32.5383   23.1021 H   0  0  0  0  0  0
  -25.0064  -33.9658   25.0355 H   0  0  0  0  0  0
  -22.7263  -31.3048   21.4037 H   0  0  0  0  0  0
  -23.3814  -35.9543   23.3079 H   0  0  0  0  0  0
  -24.3643  -36.9106   22.2087 H   0  0  0  0  0  0
  -23.7126  -37.6364   23.6783 H   0  0  0  0  0  0
  -26.1229  -31.5170   20.6069 H   0  0  0  0  0  0
  -26.8581  -30.8071   22.0109 H   0  0  0  0  0  0
  -28.1050  -28.8788   21.2120 H   0  0  0  0  0  0
  -25.8684  -25.8723   19.0507 H   0  0  0  0  0  0
  -23.9427  -27.3175   18.9992 H   0  0  0  0  0  0
  -23.7762  -30.6030   19.4040 H   0  0  0  0  0  0
  -22.7584  -29.2632   19.8451 H   0  0  0  0  0  0
  -25.1238  -36.1833   25.0807 H   0  0  0  0  0  0
  -20.9998  -28.3243   24.1413 H   0  0  0  0  0  0
  -20.5677  -26.2302   23.3606 H   0  0  0  0  0  0
  -21.6635  -26.7445   22.1204 H   0  0  0  0  0  0
  -19.6892  -25.6305   21.1240 H   0  0  0  0  0  0
  -19.6662  -27.3209   20.6758 H   0  0  0  0  0  0
  -17.4202  -26.6705   21.4015 H   0  0  0  0  0  0
  -18.0276  -26.0086   22.9026 H   0  0  0  0  0  0
  -19.7923  -30.7265   24.2272 H   0  0  0  0  0  0
  -17.5003  -31.6292   24.5145 H   0  0  0  0  0  0
  -15.5331  -30.2976   23.7680 H   0  0  0  0  0  0
  -15.8682  -28.0844   22.7046 H   0  0  0  0  0  0
  -24.5930  -30.7084   25.7859 H   0  0  0  0  0  0
  -24.8966  -32.2930   26.4881 H   0  0  0  0  0  0
  -25.8124  -30.8973   27.0260 H   0  0  0  0  0  0
  -26.2869  -29.6709   24.1280 H   0  0  0  0  0  0
  -27.4025  -29.7232   25.4709 H   0  0  0  0  0  0
  -27.8752  -30.4180   23.9407 H   0  0  0  0  0  0
  -27.2734  -33.3626   26.1980 H   0  0  0  0  0  0
  -28.3878  -32.6842   25.0241 H   0  0  0  0  0  0
  -28.0795  -31.8471   26.5341 H   0  0  0  0  0  0
  -28.2433  -38.0211   24.7803 H   0  0  0  0  0  0
  -28.1316  -36.2776   24.5757 H   0  0  0  0  0  0
  -27.2447  -37.0783   25.8820 H   0  0  0  0  0  0
  -20.9426  -29.8777   21.6912 H   0  0  0  0  0  0
  -26.0085  -38.2806   24.1736 H   0  0  0  0  0  0
  -31.6168  -18.5632   17.1942 H   0  0  0  0  0  0
  -30.4020  -20.5664   17.7525 H   0  0  0  0  0  0
  -31.5107  -16.5596   18.5301 H   0  0  0  0  0  0
  -26.3649  -23.2146   20.6766 H   0  0  0  0  0  0
  -31.0355  -23.8972   19.1023 H   0  0  0  0  0  0
  -30.9393  -22.5387   18.0487 H   0  0  0  0  0  0
  -31.5693  -22.3595   19.6967 H   0  0  0  0  0  0
  -30.6598  -17.0956   24.1655 H   0  0  0  0  0  0
  -31.0338  -18.0408   22.7591 H   0  0  0  0  0  0
  -31.9222  -16.5546   23.0660 H   0  0  0  0  0  0
  -27.6999  -25.1338   18.4885 H   0  0  0  0  0  0
  -29.3489  -25.2581   18.8090 H   0  0  0  0  0  0
  -28.8764  -16.5813   22.5352 H   0  0  0  0  0  0
  -29.8374  -15.1860   22.8316 H   0  0  0  0  0  0
  -25.9080  -20.7961   20.8267 H   0  0  0  0  0  0
  1 25  1  0  0  0
  1 30  2  0  0  0
  1 86  1  0  0  0
  2  3  1  0  0  0
  2 25  1  0  0  0
  2 89  1  0  0  0
  2 90  1  0  0  0
  3  4  1  0  0  0
  3 91  1  0  0  0
  3 92  1  0  0  0
  4  5  1  0  0  0
  4 93  1  0  0  0
  4 94  1  0  0  0
  5  6  1  0  0  0
  5 26  1  0  0  0
  5 95  1  0  0  0
  6 25  1  0  0  0
  6 96  1  0  0  0
  6 97  1  0  0  0
  7  8  2  0  0  0
  7 26  1  0  0  0
  7 29  1  0  0  0
  8  9  1  0  0  0
  8 22  1  0  0  0
  9 10  1  0  0  0
  9 27  2  0  0  0
 10 11  2  0  0  0
 10 15  1  0  0  0
 11 12  1  0  0  0
 11 98  1  0  0  0
 12 13  2  0  0  0
 12 99  1  0  0  0
 13 14  1  0  0  0
 13 31  1  0  0  0
 14 15  2  0  0  0
 14100  1  0  0  0
 15101  1  0  0  0
 16 17  2  0  0  0
 16 21  1  0  0  0
 16 31  1  0  0  0
 17 18  1  0  0  0
 17102  1  0  0  0
 18 19  2  0  0  0
 18103  1  0  0  0
 19 20  1  0  0  0
 19 24  1  0  0  0
 20 21  2  0  0  0
 20104  1  0  0  0
 21 23  1  0  0  0
 22 28  1  0  0  0
 22 32  2  0  0  0
 26 27  1  0  0  0
 28105  1  0  0  0
 28106  1  0  0  0
 29107  1  0  0  0
 29108  1  0  0  0
 33 34  1  0  0  0
 33 66  1  0  0  0
 33 70  2  0  0  0
 34 36  1  0  0  0
 34 59  1  0  0  0
 34109  1  0  0  0
 35 44  2  0  0  0
 35 45  1  0  0  0
 35 68  1  0  0  0
 36 56  1  0  0  0
 36110  1  0  0  0
 37 39  1  0  0  0
 37 47  1  0  0  0
 37 66  1  0  0  0
 37111  1  0  0  0
 38 43  2  0  0  0
 38 46  1  0  0  0
 38 47  1  0  0  0
 39 64  1  0  0  0
 39 67  2  0  0  0
 40 52  1  0  0  0
 40 53  2  0  0  0
 40 58  1  0  0  0
 41112  1  0  0  0
 41113  1  0  0  0
 41114  1  0  0  0
 41 48  1  0  0  0
 42 43  1  0  0  0
 42 66  1  0  0  0
 42115  1  0  0  0
 42116  1  0  0  0
 43 44  1  0  0  0
 44117  1  0  0  0
 45 46  2  0  0  0
 45118  1  0  0  0
 46119  1  0  0  0
 47120  1  0  0  0
 47121  1  0  0  0
 48 56  1  0  0  0
 48 65  1  0  0  0
 48122  1  0  0  0
 49 50  1  0  0  0
 49 53  1  0  0  0
 49 64  1  0  0  0
 49123  1  0  0  0
 50 51  1  0  0  0
 50124  1  0  0  0
 50125  1  0  0  0
 51 52  1  0  0  0
 51126  1  0  0  0
 51127  1  0  0  0
 52128  1  0  0  0
 52129  1  0  0  0
 53 54  1  0  0  0
 54 55  2  0  0  0
 54130  1  0  0  0
 55 57  1  0  0  0
 55131  1  0  0  0
 56 69  2  0  0  0
 57 58  2  0  0  0
 57132  1  0  0  0
 58133  1  0  0  0
 59 60  1  0  0  0
 59 61  1  0  0  0
 59 62  1  0  0  0
 60134  1  0  0  0
 60135  1  0  0  0
 60136  1  0  0  0
 61137  1  0  0  0
 61138  1  0  0  0
 61139  1  0  0  0
 62140  1  0  0  0
 62141  1  0  0  0
 62142  1  0  0  0
 63 65  1  0  0  0
 63143  1  0  0  0
 63144  1  0  0  0
 63145  1  0  0  0
 64146  1  0  0  0
 65147  1  0  0  0
 68 83  1  0  0  0
 71 72  2  0  0  0
 71 73  1  0  0  0
 71148  1  0  0  0
 72 76  1  0  0  0
 72149  1  0  0  0
 73 77  2  0  0  0
 73150  1  0  0  0
 74 75  1  0  0  0
 74 80  2  0  0  0
 74151  1  0  0  0
 75 79  2  0  0  0
 75 83  1  0  0  0
 76 78  2  0  0  0
 76 85  1  0  0  0
 77 78  1  0  0  0
 77 86  1  0  0  0
 78 88  1  0  0  0
 79 81  1  0  0  0
 79 85  1  0  0  0
 80 85  1  0  0  0
 80 87  1  0  0  0
 81152  1  0  0  0
 81153  1  0  0  0
 81154  1  0  0  0
 82 84  1  0  0  0
 82155  1  0  0  0
 82156  1  0  0  0
 82157  1  0  0  0
 83158  1  0  0  0
 83159  1  0  0  0
 84 86  1  0  0  0
 84160  1  0  0  0
 84161  1  0  0  0
 87162  1  0  0  0
M  ISO  4   1 100  68 101  83 101  86 100
M  END
> <chiral flag>
0

> <version>
0

> <s_m_source_file>
/data/baiqing/PycharmProjects/Reinvent-master-3.2/result/LINK_invent/BTK/process_docking_weight1_custom_product_contain_oxygen_bond_distance_aromatic_linkinvent_7_9_3/rearranged_h_0093.sdf

> <i_m_source_file_index>
14

> <r_mmod_Potential_Energy-OPLS-2005>
495.179107666016

> <r_mmod_Stretch_Energy-OPLS-2005>
187.119979858398

> <r_mmod_Bend_Energy-OPLS-2005>
208.430694580078

> <r_mmod_Torsional_Energy-OPLS-2005>
305.063568115234

> <r_mmod_Improper_Torsional_Energy-OPLS-2005>
5.97505903244019

> <r_mmod_Van_der_Waal_Energy-OPLS-2005>
145.811111450195

> <r_mmod_Electrostatic_Energy-OPLS-2005>
-272.471435546875

> <r_mmod_Solvation_Energy-OPLS-2005>
-199.748443603516

> <b_mmod_Minimization_Converged-OPLS-2005>
0

> <r_mmod_RMS_Derivative-OPLS-2005>
10.7368183135986

$$$$
15
                    3D
 Structure written by MMmdl.
161170  0  0  1  0            999 V2000
  -30.7833  -14.4330   20.7046 C   0  0  0  0  0  0
  -30.4121  -12.3325   19.4324 C   0  0  0  0  0  0
  -29.4949  -12.5334   18.2103 C   0  0  0  0  0  0
  -28.0189  -12.3677   18.6110 C   0  0  0  0  0  0
  -27.6561  -13.2113   19.8572 C   0  0  2  0  0  0
  -28.6821  -13.0100   20.9877 C   0  0  0  0  0  0
  -25.2567  -13.8171   20.5632 C   0  0  0  0  0  0
  -24.1832  -13.0443   20.9155 C   0  0  0  0  0  0
  -24.6389  -11.6911   20.8702 C   0  0  0  0  0  0
  -23.9058  -10.4295   21.0392 C   0  0  0  0  0  0
  -24.3614   -9.4216   21.9174 C   0  0  0  0  0  0
  -23.6290   -8.2250   22.0754 C   0  0  0  0  0  0
  -22.4273   -8.0281   21.3544 C   0  0  0  0  0  0
  -21.9902   -9.0252   20.4649 C   0  0  0  0  0  0
  -22.7228  -10.2132   20.3049 C   0  0  0  0  0  0
  -21.6855   -6.0735   22.5280 C   0  0  0  0  0  0
  -21.4012   -6.5638   23.8213 C   0  0  0  0  0  0
  -21.3660   -5.6791   24.9175 C   0  0  0  0  0  0
  -21.6044   -4.3053   24.7225 C   0  0  0  0  0  0
  -21.8819   -3.8146   23.4347 C   0  0  0  0  0  0
  -21.9191   -4.6963   22.3403 C   0  0  0  0  0  0
  -22.7858  -13.5239   21.1846 C   0  0  0  0  0  0
  -22.1662   -4.2148   21.0981 F   0  0  0  0  0  0
  -21.5629   -3.4539   25.7738 F   0  0  0  0  0  0
  -30.0364  -13.3049   20.4797 N   0  0  0  0  0  0
  -26.2981  -12.9344   20.3216 N   0  0  0  0  0  0
  -25.9304  -11.6501   20.5668 N   0  0  0  0  0  0
  -22.0503  -12.8232   22.0405 N   0  0  0  0  0  0
  -25.4301  -15.1890   20.4079 N   0  0  0  0  0  0
  -31.7522  -14.6998   19.9837 O   0  0  0  0  0  0
  -21.6641   -6.8877   21.4241 O   0  0  0  0  0  0
  -22.3539  -14.5549   20.6704 O   0  0  0  0  0  0
  -24.6160  -31.8665   23.2072 C   0  0  0  0  0  0
  -25.9048  -32.4813   23.8377 C   0  0  1  0  0  0
  -27.2341  -27.4180   20.1033 C   0  0  0  0  0  0
  -25.5903  -33.8611   24.2315 N   0  0  0  0  0  0
  -23.4049  -30.4879   21.5483 C   0  0  2  0  0  0
  -24.8519  -28.9461   20.1174 C   0  0  0  0  0  0
  -22.7420  -29.4650   22.4987 C   0  0  0  0  0  0
  -18.0276  -28.1367   22.8492 C   0  0  0  0  0  0
  -24.1489  -36.7310   23.2636 C   0  0  0  0  0  0
  -25.9347  -30.8272   21.3614 C   0  0  0  0  0  0
  -26.0130  -29.4591   20.7099 C   0  0  0  0  0  0
  -27.2105  -28.7048   20.6925 C   0  0  0  0  0  0
  -26.0574  -26.9178   19.5093 C   0  0  0  0  0  0
  -24.8697  -27.6759   19.5127 C   0  0  0  0  0  0
  -23.6141  -29.8150   20.1649 C   0  0  0  0  0  0
  -25.4111  -36.3109   24.0335 C   0  0  1  0  0  0
  -20.5867  -28.3659   23.1316 C   0  0  2  0  0  0
  -20.6766  -26.9391   22.5418 C   0  0  0  0  0  0
  -19.5748  -26.6374   21.5211 C   0  0  0  0  0  0
  -18.1925  -26.7914   22.1617 C   0  0  0  0  0  0
  -19.1524  -28.8829   23.2901 C   0  0  0  0  0  0
  -18.9451  -30.1437   23.8909 C   0  0  0  0  0  0
  -17.6453  -30.6575   24.0564 C   0  0  0  0  0  0
  -25.9037  -34.9473   23.5124 C   0  0  0  0  0  0
  -16.5345  -29.9074   23.6326 C   0  0  0  0  0  0
  -16.7266  -28.6490   23.0349 C   0  0  0  0  0  0
  -26.4465  -31.6596   25.0712 C   0  0  0  0  0  0
  -25.3724  -31.3709   26.1461 C   0  0  0  0  0  0
  -27.0285  -30.3036   24.6089 C   0  0  0  0  0  0
  -27.6053  -32.4303   25.7466 C   0  0  0  0  0  0
  -27.5584  -37.1810   24.8462 C   0  0  0  0  0  0
  -21.4145  -29.3029   22.3727 N   0  0  0  0  0  0
  -26.4297  -37.3794   23.9404 N   0  0  0  0  0  0
  -24.6702  -31.0753   22.0974 N   0  0  0  0  0  0
  -23.4185  -28.8199   23.3039 O   0  0  0  0  0  0
  -28.3945  -26.6726   20.0781 O   0  0  0  0  0  0
  -26.5599  -34.8927   22.4686 O   0  0  0  0  0  0
  -23.5349  -32.1418   23.7462 O   0  0  0  0  0  0
  -31.2813  -18.9832   21.0933 C   0  0  0  0  0  0
  -29.0600  -18.0154   21.0812 C   0  0  0  0  0  0
  -30.7542  -20.2330   20.7044 C   0  0  0  0  0  0
  -28.5293  -19.2720   20.6843 C   0  0  0  0  0  0
  -30.4472  -17.8631   21.3107 C   0  0  0  0  0  0
  -29.3618  -20.4098   20.5262 C   0  0  0  0  0  0
  -29.2134  -22.9236   20.4817 C   0  0  0  0  0  0
  -31.1902  -15.4165   24.0274 C   0  0  0  0  0  0
  -31.2291  -16.8090   23.4410 C   0  0  0  0  0  0
  -30.2334  -14.6947   23.0897 C   0  0  0  0  0  0
  -31.0834  -16.5996   21.9257 C   0  0  1  0  0  0
  -28.5048  -24.1487   19.8406 C   0  0  0  0  0  0
  -28.3624  -25.4010   20.7638 C   0  0  0  0  0  0
  -30.4430  -15.2590   21.7421 N   0  0  0  0  0  0
  -28.7897  -21.6775   20.1513 N   0  0  0  0  0  0
  -30.1433  -23.1152   21.2700 O   0  0  0  0  0  0
  -31.4590  -12.4179   19.1353 H   0  0  0  0  0  0
  -30.3052  -11.3187   19.8215 H   0  0  0  0  0  0
  -29.7511  -11.8213   17.4247 H   0  0  0  0  0  0
  -29.6544  -13.5270   17.7883 H   0  0  0  0  0  0
  -27.8429  -11.3104   18.8130 H   0  0  0  0  0  0
  -27.3688  -12.6306   17.7755 H   0  0  0  0  0  0
  -27.6984  -14.2583   19.5554 H   0  0  0  0  0  0
  -28.6492  -11.9861   21.3623 H   0  0  0  0  0  0
  -28.3689  -13.6376   21.8152 H   0  0  0  0  0  0
  -25.2761   -9.5697   22.4744 H   0  0  0  0  0  0
  -24.0003   -7.4645   22.7476 H   0  0  0  0  0  0
  -21.0832   -8.8767   19.8959 H   0  0  0  0  0  0
  -22.3682  -10.9667   19.6156 H   0  0  0  0  0  0
  -21.2005   -7.6146   23.9717 H   0  0  0  0  0  0
  -21.1481   -6.0521   25.9078 H   0  0  0  0  0  0
  -22.0597   -2.7607   23.2849 H   0  0  0  0  0  0
  -22.4115  -11.9886   22.4785 H   0  0  0  0  0  0
  -21.1126  -13.1265   22.2622 H   0  0  0  0  0  0
  -24.6676  -15.8478   20.5241 H   0  0  0  0  0  0
  -26.2869  -15.6262   20.0930 H   0  0  0  0  0  0
  -26.7122  -32.5516   23.1141 H   0  0  0  0  0  0
  -25.0083  -33.9772   25.0481 H   0  0  0  0  0  0
  -22.6938  -31.3041   21.4057 H   0  0  0  0  0  0
  -23.3749  -35.9645   23.3305 H   0  0  0  0  0  0
  -24.3586  -36.8915   22.2050 H   0  0  0  0  0  0
  -23.7240  -37.6516   23.6645 H   0  0  0  0  0  0
  -26.0484  -31.5919   20.5916 H   0  0  0  0  0  0
  -26.8220  -30.8813   21.9807 H   0  0  0  0  0  0
  -28.1111  -29.0997   21.1415 H   0  0  0  0  0  0
  -26.0623  -25.9454   19.0380 H   0  0  0  0  0  0
  -23.9773  -27.2763   19.0507 H   0  0  0  0  0  0
  -23.7215  -30.5867   19.4016 H   0  0  0  0  0  0
  -22.7374  -29.2343   19.8723 H   0  0  0  0  0  0
  -25.1286  -36.1979   25.0828 H   0  0  0  0  0  0
  -20.9961  -28.3222   24.1436 H   0  0  0  0  0  0
  -20.5665  -26.2263   23.3606 H   0  0  0  0  0  0
  -21.6638  -26.7431   22.1213 H   0  0  0  0  0  0
  -19.6913  -25.6288   21.1230 H   0  0  0  0  0  0
  -19.6691  -27.3193   20.6749 H   0  0  0  0  0  0
  -17.4201  -26.6676   21.4011 H   0  0  0  0  0  0
  -18.0317  -26.0043   22.8996 H   0  0  0  0  0  0
  -19.7928  -30.7251   24.2279 H   0  0  0  0  0  0
  -17.5007  -31.6260   24.5156 H   0  0  0  0  0  0
  -15.5346  -30.2980   23.7636 H   0  0  0  0  0  0
  -15.8665  -28.0811   22.7056 H   0  0  0  0  0  0
  -24.5918  -30.7025   25.7808 H   0  0  0  0  0  0
  -24.8884  -32.2861   26.4883 H   0  0  0  0  0  0
  -25.8077  -30.8912   27.0236 H   0  0  0  0  0  0
  -26.2830  -29.6810   24.1129 H   0  0  0  0  0  0
  -27.4037  -29.7262   25.4547 H   0  0  0  0  0  0
  -27.8671  -30.4346   23.9244 H   0  0  0  0  0  0
  -27.2697  -33.3603   26.2065 H   0  0  0  0  0  0
  -28.3851  -32.6859   25.0278 H   0  0  0  0  0  0
  -28.0732  -31.8405   26.5358 H   0  0  0  0  0  0
  -28.2611  -38.0100   24.7513 H   0  0  0  0  0  0
  -28.1072  -36.2635   24.6285 H   0  0  0  0  0  0
  -27.2305  -37.1456   25.8866 H   0  0  0  0  0  0
  -20.9309  -29.8754   21.6950 H   0  0  0  0  0  0
  -26.0187  -38.2874   24.1403 H   0  0  0  0  0  0
  -32.3457  -18.9007   21.2657 H   0  0  0  0  0  0
  -28.3906  -17.1839   21.2530 H   0  0  0  0  0  0
  -31.4385  -21.0572   20.5607 H   0  0  0  0  0  0
  -27.4618  -19.3631   20.5374 H   0  0  0  0  0  0
  -30.8616  -15.4011   25.0676 H   0  0  0  0  0  0
  -32.1808  -14.9616   23.9792 H   0  0  0  0  0  0
  -32.1266  -17.3672   23.7110 H   0  0  0  0  0  0
  -30.3728  -17.3661   23.8262 H   0  0  0  0  0  0
  -29.2079  -14.8980   23.4007 H   0  0  0  0  0  0
  -30.3923  -13.6157   23.1487 H   0  0  0  0  0  0
  -32.1019  -16.5412   21.5354 H   0  0  0  0  0  0
  -27.5271  -23.8615   19.4536 H   0  0  0  0  0  0
  -29.1032  -24.4237   18.9720 H   0  0  0  0  0  0
  -29.1869  -25.4413   21.4758 H   0  0  0  0  0  0
  -27.4646  -25.3012   21.3770 H   0  0  0  0  0  0
  -27.9433  -21.6352   19.5998 H   0  0  0  0  0  0
  1 25  1  0  0  0
  1 30  2  0  0  0
  1 84  1  0  0  0
  2  3  1  0  0  0
  2 25  1  0  0  0
  2 87  1  0  0  0
  2 88  1  0  0  0
  3  4  1  0  0  0
  3 89  1  0  0  0
  3 90  1  0  0  0
  4  5  1  0  0  0
  4 91  1  0  0  0
  4 92  1  0  0  0
  5  6  1  0  0  0
  5 26  1  0  0  0
  5 93  1  0  0  0
  6 25  1  0  0  0
  6 94  1  0  0  0
  6 95  1  0  0  0
  7  8  2  0  0  0
  7 26  1  0  0  0
  7 29  1  0  0  0
  8  9  1  0  0  0
  8 22  1  0  0  0
  9 10  1  0  0  0
  9 27  2  0  0  0
 10 11  2  0  0  0
 10 15  1  0  0  0
 11 12  1  0  0  0
 11 96  1  0  0  0
 12 13  2  0  0  0
 12 97  1  0  0  0
 13 14  1  0  0  0
 13 31  1  0  0  0
 14 15  2  0  0  0
 14 98  1  0  0  0
 15 99  1  0  0  0
 16 17  2  0  0  0
 16 21  1  0  0  0
 16 31  1  0  0  0
 17 18  1  0  0  0
 17100  1  0  0  0
 18 19  2  0  0  0
 18101  1  0  0  0
 19 20  1  0  0  0
 19 24  1  0  0  0
 20 21  2  0  0  0
 20102  1  0  0  0
 21 23  1  0  0  0
 22 28  1  0  0  0
 22 32  2  0  0  0
 26 27  1  0  0  0
 28103  1  0  0  0
 28104  1  0  0  0
 29105  1  0  0  0
 29106  1  0  0  0
 33 34  1  0  0  0
 33 66  1  0  0  0
 33 70  2  0  0  0
 34 36  1  0  0  0
 34 59  1  0  0  0
 34107  1  0  0  0
 35 44  2  0  0  0
 35 45  1  0  0  0
 35 68  1  0  0  0
 36 56  1  0  0  0
 36108  1  0  0  0
 37 39  1  0  0  0
 37 47  1  0  0  0
 37 66  1  0  0  0
 37109  1  0  0  0
 38 43  2  0  0  0
 38 46  1  0  0  0
 38 47  1  0  0  0
 39 64  1  0  0  0
 39 67  2  0  0  0
 40 52  1  0  0  0
 40 53  2  0  0  0
 40 58  1  0  0  0
 41110  1  0  0  0
 41111  1  0  0  0
 41112  1  0  0  0
 41 48  1  0  0  0
 42 43  1  0  0  0
 42 66  1  0  0  0
 42113  1  0  0  0
 42114  1  0  0  0
 43 44  1  0  0  0
 44115  1  0  0  0
 45 46  2  0  0  0
 45116  1  0  0  0
 46117  1  0  0  0
 47118  1  0  0  0
 47119  1  0  0  0
 48 56  1  0  0  0
 48 65  1  0  0  0
 48120  1  0  0  0
 49 50  1  0  0  0
 49 53  1  0  0  0
 49 64  1  0  0  0
 49121  1  0  0  0
 50 51  1  0  0  0
 50122  1  0  0  0
 50123  1  0  0  0
 51 52  1  0  0  0
 51124  1  0  0  0
 51125  1  0  0  0
 52126  1  0  0  0
 52127  1  0  0  0
 53 54  1  0  0  0
 54 55  2  0  0  0
 54128  1  0  0  0
 55 57  1  0  0  0
 55129  1  0  0  0
 56 69  2  0  0  0
 57 58  2  0  0  0
 57130  1  0  0  0
 58131  1  0  0  0
 59 60  1  0  0  0
 59 61  1  0  0  0
 59 62  1  0  0  0
 60132  1  0  0  0
 60133  1  0  0  0
 60134  1  0  0  0
 61135  1  0  0  0
 61136  1  0  0  0
 61137  1  0  0  0
 62138  1  0  0  0
 62139  1  0  0  0
 62140  1  0  0  0
 63 65  1  0  0  0
 63141  1  0  0  0
 63142  1  0  0  0
 63143  1  0  0  0
 64144  1  0  0  0
 65145  1  0  0  0
 68 83  1  0  0  0
 71 73  2  0  0  0
 71 75  1  0  0  0
 71146  1  0  0  0
 72 74  1  0  0  0
 72 75  2  0  0  0
 72147  1  0  0  0
 73 76  1  0  0  0
 73148  1  0  0  0
 74 76  2  0  0  0
 74149  1  0  0  0
 75 81  1  0  0  0
 76 85  1  0  0  0
 77 82  1  0  0  0
 77 85  1  0  0  0
 77 86  2  0  0  0
 78 79  1  0  0  0
 78 80  1  0  0  0
 78150  1  0  0  0
 78151  1  0  0  0
 79 81  1  0  0  0
 79152  1  0  0  0
 79153  1  0  0  0
 80 84  1  0  0  0
 80154  1  0  0  0
 80155  1  0  0  0
 81 84  1  0  0  0
 81156  1  0  0  0
 82 83  1  0  0  0
 82157  1  0  0  0
 82158  1  0  0  0
 83159  1  0  0  0
 83160  1  0  0  0
 85161  1  0  0  0
M  ISO  4   1 100  68 101  83 101  84 100
M  END
> <chiral flag>
0

> <version>
0

> <s_m_source_file>
/data/baiqing/PycharmProjects/Reinvent-master-3.2/result/LINK_invent/BTK/process_docking_weight1_custom_product_contain_oxygen_bond_distance_aromatic_linkinvent_7_9_3/rearranged_h_0093.sdf

> <i_m_source_file_index>
15

> <r_mmod_Potential_Energy-OPLS-2005>
155.222457885742

> <r_mmod_Stretch_Energy-OPLS-2005>
50.5790367126465

> <r_mmod_Bend_Energy-OPLS-2005>
137.345733642578

> <r_mmod_Torsional_Energy-OPLS-2005>
338.137634277344

> <r_mmod_Improper_Torsional_Energy-OPLS-2005>
5.87427139282227

> <r_mmod_Van_der_Waal_Energy-OPLS-2005>
154.212219238281

> <r_mmod_Electrostatic_Energy-OPLS-2005>
-327.163665771484

> <r_mmod_Solvation_Energy-OPLS-2005>
-216.403121948242

> <b_mmod_Minimization_Converged-OPLS-2005>
0

> <r_mmod_RMS_Derivative-OPLS-2005>
0.524905323982239

$$$$
16
                    3D
 Structure written by MMmdl.
157165  0  0  1  0            999 V2000
  -30.6712  -14.6155   20.5705 C   0  0  0  0  0  0
  -30.4377  -12.3963   19.4635 C   0  0  0  0  0  0
  -29.5157  -12.5340   18.2305 C   0  0  0  0  0  0
  -28.0346  -12.3655   18.6248 C   0  0  0  0  0  0
  -27.6575  -13.2147   19.8662 C   0  0  2  0  0  0
  -28.6935  -13.0250   20.9936 C   0  0  0  0  0  0
  -25.2574  -13.8170   20.5657 C   0  0  0  0  0  0
  -24.1838  -13.0452   20.9174 C   0  0  0  0  0  0
  -24.6398  -11.6916   20.8715 C   0  0  0  0  0  0
  -23.9064  -10.4305   21.0397 C   0  0  0  0  0  0
  -24.3608   -9.4211   21.9178 C   0  0  0  0  0  0
  -23.6282   -8.2246   22.0750 C   0  0  0  0  0  0
  -22.4265   -8.0283   21.3539 C   0  0  0  0  0  0
  -21.9898   -9.0266   20.4650 C   0  0  0  0  0  0
  -22.7231  -10.2148   20.3054 C   0  0  0  0  0  0
  -21.6844   -6.0733   22.5287 C   0  0  0  0  0  0
  -21.4020   -6.5638   23.8223 C   0  0  0  0  0  0
  -21.3655   -5.6785   24.9177 C   0  0  0  0  0  0
  -21.6039   -4.3050   24.7229 C   0  0  0  0  0  0
  -21.8813   -3.8146   23.4350 C   0  0  0  0  0  0
  -21.9197   -4.6963   22.3404 C   0  0  0  0  0  0
  -22.7867  -13.5248   21.1861 C   0  0  0  0  0  0
  -22.1665   -4.2148   21.0978 F   0  0  0  0  0  0
  -21.5628   -3.4534   25.7739 F   0  0  0  0  0  0
  -30.0197  -13.4022   20.4666 N   0  0  0  0  0  0
  -26.2997  -12.9346   20.3270 N   0  0  0  0  0  0
  -25.9319  -11.6503   20.5692 N   0  0  0  0  0  0
  -22.0508  -12.8260   22.0429 N   0  0  0  0  0  0
  -25.4309  -15.1894   20.4055 N   0  0  0  0  0  0
  -31.7627  -14.7967   20.0203 O   0  0  0  0  0  0
  -21.6629   -6.8877   21.4247 O   0  0  0  0  0  0
  -22.3555  -14.5551   20.6698 O   0  0  0  0  0  0
  -24.6250  -31.8625   23.2073 C   0  0  0  0  0  0
  -25.9117  -32.4782   23.8379 C   0  0  1  0  0  0
  -27.2213  -27.3404   20.1056 C   0  0  0  0  0  0
  -25.5951  -33.8581   24.2319 N   0  0  0  0  0  0
  -23.4163  -30.4877   21.5502 C   0  0  2  0  0  0
  -24.8620  -28.9523   20.1132 C   0  0  0  0  0  0
  -22.7481  -29.4629   22.4970 C   0  0  0  0  0  0
  -18.0306  -28.1357   22.8471 C   0  0  0  0  0  0
  -24.1481  -36.7283   23.2629 C   0  0  0  0  0  0
  -25.9567  -30.7995   21.3777 C   0  0  0  0  0  0
  -26.0313  -29.4300   20.7188 C   0  0  0  0  0  0
  -27.2142  -28.6344   20.7082 C   0  0  0  0  0  0
  -26.0315  -26.9245   19.4623 C   0  0  0  0  0  0
  -24.8640  -27.7049   19.4769 C   0  0  0  0  0  0
  -23.6296  -29.8269   20.1640 C   0  0  0  0  0  0
  -25.4103  -36.3075   24.0334 C   0  0  1  0  0  0
  -20.5894  -28.3678   23.1324 C   0  0  2  0  0  0
  -20.6814  -26.9427   22.5410 C   0  0  0  0  0  0
  -19.5813  -26.6443   21.5176 C   0  0  0  0  0  0
  -18.1981  -26.7915   22.1585 C   0  0  0  0  0  0
  -19.1536  -28.8830   23.2896 C   0  0  0  0  0  0
  -18.9433  -30.1435   23.8899 C   0  0  0  0  0  0
  -17.6419  -30.6539   24.0564 C   0  0  0  0  0  0
  -25.9050  -34.9447   23.5120 C   0  0  0  0  0  0
  -16.5325  -29.9026   23.6309 C   0  0  0  0  0  0
  -16.7286  -28.6463   23.0311 C   0  0  0  0  0  0
  -26.4516  -31.6580   25.0729 C   0  0  0  0  0  0
  -25.3761  -31.3725   26.1465 C   0  0  0  0  0  0
  -27.0353  -30.3002   24.6175 C   0  0  0  0  0  0
  -27.6091  -32.4303   25.7498 C   0  0  0  0  0  0
  -27.5575  -37.1793   24.8462 C   0  0  0  0  0  0
  -21.4184  -29.3071   22.3755 N   0  0  0  0  0  0
  -26.4281  -37.3780   23.9416 N   0  0  0  0  0  0
  -24.6843  -31.0656   22.1017 N   0  0  0  0  0  0
  -23.4224  -28.8139   23.3012 O   0  0  0  0  0  0
  -28.3385  -26.4956   20.1346 O   0  0  0  0  0  0
  -26.5587  -34.8910   22.4668 O   0  0  0  0  0  0
  -23.5420  -32.1422   23.7409 O   0  0  0  0  0  0
  -28.7369  -17.9158   20.8132 C   0  0  0  0  0  0
  -31.1185  -18.0090   20.5675 C   0  0  0  0  0  0
  -29.9772  -17.2218   20.8604 C   0  0  0  0  0  0
  -28.6159  -19.3134   20.5422 C   0  0  0  0  0  0
  -31.0182  -19.4047   20.2995 C   0  0  0  0  0  0
  -29.7814  -20.1144   20.3127 C   0  0  0  0  0  0
  -30.0259  -15.7876   21.3965 C   0  0  0  0  0  0
  -27.2033  -19.8742   20.5060 C   0  0  0  0  0  0
  -29.2395  -24.0037   20.1776 C   0  0  0  0  0  0
  -28.0791  -25.0572   20.3568 C   0  0  0  0  0  0
  -28.8076  -22.4815   20.3149 C   0  0  0  0  0  0
  -29.5498  -15.6050   22.5568 N   0  0  0  0  0  0
  -32.1823  -20.1271   20.0367 N   0  0  0  0  0  0
  -29.8669  -21.5086   20.0774 O   0  0  0  0  0  0
  -31.4818  -12.5096   19.1675 H   0  0  0  0  0  0
  -30.3652  -11.3933   19.8866 H   0  0  0  0  0  0
  -29.7870  -11.8019   17.4689 H   0  0  0  0  0  0
  -29.6598  -13.5159   17.7783 H   0  0  0  0  0  0
  -27.8617  -11.3085   18.8317 H   0  0  0  0  0  0
  -27.3891  -12.6215   17.7832 H   0  0  0  0  0  0
  -27.6911  -14.2593   19.5544 H   0  0  0  0  0  0
  -28.7100  -11.9830   21.3175 H   0  0  0  0  0  0
  -28.3876  -13.5767   21.8761 H   0  0  0  0  0  0
  -25.2756   -9.5681   22.4753 H   0  0  0  0  0  0
  -23.9992   -7.4624   22.7461 H   0  0  0  0  0  0
  -21.0826   -8.8788   19.8954 H   0  0  0  0  0  0
  -22.3687  -10.9683   19.6159 H   0  0  0  0  0  0
  -21.2020   -7.6149   23.9731 H   0  0  0  0  0  0
  -21.1475   -6.0511   25.9076 H   0  0  0  0  0  0
  -22.0595   -2.7609   23.2847 H   0  0  0  0  0  0
  -22.4113  -11.9910   22.4809 H   0  0  0  0  0  0
  -21.1132  -13.1305   22.2638 H   0  0  0  0  0  0
  -24.6714  -15.8506   20.5236 H   0  0  0  0  0  0
  -26.2760  -15.6153   20.0475 H   0  0  0  0  0  0
  -26.7183  -32.5459   23.1130 H   0  0  0  0  0  0
  -25.0152  -33.9733   25.0499 H   0  0  0  0  0  0
  -22.7061  -31.3061   21.4099 H   0  0  0  0  0  0
  -23.3741  -35.9616   23.3281 H   0  0  0  0  0  0
  -24.3580  -36.8903   22.2044 H   0  0  0  0  0  0
  -23.7229  -37.6485   23.6644 H   0  0  0  0  0  0
  -26.0846  -31.5663   20.6119 H   0  0  0  0  0  0
  -26.8378  -30.8462   22.0062 H   0  0  0  0  0  0
  -28.1100  -28.9953   21.1946 H   0  0  0  0  0  0
  -25.9684  -25.9957   18.9184 H   0  0  0  0  0  0
  -23.9744  -27.3425   18.9812 H   0  0  0  0  0  0
  -23.7431  -30.6027   19.4065 H   0  0  0  0  0  0
  -22.7521  -29.2517   19.8644 H   0  0  0  0  0  0
  -25.1274  -36.1937   25.0827 H   0  0  0  0  0  0
  -20.9967  -28.3212   24.1456 H   0  0  0  0  0  0
  -20.5698  -26.2277   23.3579 H   0  0  0  0  0  0
  -21.6708  -26.7493   22.1217 H   0  0  0  0  0  0
  -19.7027  -25.6402   21.1099 H   0  0  0  0  0  0
  -19.6767  -27.3372   20.6792 H   0  0  0  0  0  0
  -17.4272  -26.6649   21.3964 H   0  0  0  0  0  0
  -18.0422  -26.0028   22.8960 H   0  0  0  0  0  0
  -19.7893  -30.7268   24.2264 H   0  0  0  0  0  0
  -17.4949  -31.6213   24.5165 H   0  0  0  0  0  0
  -15.5310  -30.2896   23.7603 H   0  0  0  0  0  0
  -15.8720  -28.0771   22.6969 H   0  0  0  0  0  0
  -24.5942  -30.7066   25.7802 H   0  0  0  0  0  0
  -24.8952  -32.2895   26.4884 H   0  0  0  0  0  0
  -25.8108  -30.8918   27.0239 H   0  0  0  0  0  0
  -26.2934  -29.6760   24.1179 H   0  0  0  0  0  0
  -27.4025  -29.7257   25.4685 H   0  0  0  0  0  0
  -27.8815  -30.4278   23.9419 H   0  0  0  0  0  0
  -27.2720  -33.3599   26.2103 H   0  0  0  0  0  0
  -28.3901  -32.6870   25.0322 H   0  0  0  0  0  0
  -28.0759  -31.8399   26.5398 H   0  0  0  0  0  0
  -28.2587  -38.0097   24.7519 H   0  0  0  0  0  0
  -28.1079  -36.2628   24.6273 H   0  0  0  0  0  0
  -27.2291  -37.1425   25.8866 H   0  0  0  0  0  0
  -20.9328  -29.8886   21.7076 H   0  0  0  0  0  0
  -26.0154  -38.2847   24.1446 H   0  0  0  0  0  0
  -27.8388  -17.3517   21.0229 H   0  0  0  0  0  0
  -32.0930  -17.5427   20.5998 H   0  0  0  0  0  0
  -26.4601  -19.0847   20.6233 H   0  0  0  0  0  0
  -26.9989  -20.3530   19.5490 H   0  0  0  0  0  0
  -27.0345  -20.5809   21.3156 H   0  0  0  0  0  0
  -30.0292  -24.2183   20.8972 H   0  0  0  0  0  0
  -29.6843  -24.1501   19.1925 H   0  0  0  0  0  0
  -27.6827  -24.9548   21.3690 H   0  0  0  0  0  0
  -27.2934  -24.6924   19.7035 H   0  0  0  0  0  0
  -28.0032  -22.3081   19.6001 H   0  0  0  0  0  0
  -28.4018  -22.3284   21.3135 H   0  0  0  0  0  0
  -29.2086  -16.4780   22.9412 H   0  0  0  0  0  0
  -33.0872  -19.7460   20.2902 H   0  0  0  0  0  0
  -32.1207  -21.1389   20.1142 H   0  0  0  0  0  0
  1 25  1  0  0  0
  1 30  2  0  0  0
  1 77  1  0  0  0
  2  3  1  0  0  0
  2 25  1  0  0  0
  2 85  1  0  0  0
  2 86  1  0  0  0
  3  4  1  0  0  0
  3 87  1  0  0  0
  3 88  1  0  0  0
  4  5  1  0  0  0
  4 89  1  0  0  0
  4 90  1  0  0  0
  5  6  1  0  0  0
  5 26  1  0  0  0
  5 91  1  0  0  0
  6 25  1  0  0  0
  6 92  1  0  0  0
  6 93  1  0  0  0
  7  8  2  0  0  0
  7 26  1  0  0  0
  7 29  1  0  0  0
  8  9  1  0  0  0
  8 22  1  0  0  0
  9 10  1  0  0  0
  9 27  2  0  0  0
 10 11  2  0  0  0
 10 15  1  0  0  0
 11 12  1  0  0  0
 11 94  1  0  0  0
 12 13  2  0  0  0
 12 95  1  0  0  0
 13 14  1  0  0  0
 13 31  1  0  0  0
 14 15  2  0  0  0
 14 96  1  0  0  0
 15 97  1  0  0  0
 16 17  2  0  0  0
 16 21  1  0  0  0
 16 31  1  0  0  0
 17 18  1  0  0  0
 17 98  1  0  0  0
 18 19  2  0  0  0
 18 99  1  0  0  0
 19 20  1  0  0  0
 19 24  1  0  0  0
 20 21  2  0  0  0
 20100  1  0  0  0
 21 23  1  0  0  0
 22 28  1  0  0  0
 22 32  2  0  0  0
 26 27  1  0  0  0
 28101  1  0  0  0
 28102  1  0  0  0
 29103  1  0  0  0
 29104  1  0  0  0
 33 34  1  0  0  0
 33 66  1  0  0  0
 33 70  2  0  0  0
 34 36  1  0  0  0
 34 59  1  0  0  0
 34105  1  0  0  0
 35 44  2  0  0  0
 35 45  1  0  0  0
 35 68  1  0  0  0
 36 56  1  0  0  0
 36106  1  0  0  0
 37 39  1  0  0  0
 37 47  1  0  0  0
 37 66  1  0  0  0
 37107  1  0  0  0
 38 43  2  0  0  0
 38 46  1  0  0  0
 38 47  1  0  0  0
 39 64  1  0  0  0
 39 67  2  0  0  0
 40 52  1  0  0  0
 40 53  2  0  0  0
 40 58  1  0  0  0
 41108  1  0  0  0
 41109  1  0  0  0
 41110  1  0  0  0
 41 48  1  0  0  0
 42 43  1  0  0  0
 42 66  1  0  0  0
 42111  1  0  0  0
 42112  1  0  0  0
 43 44  1  0  0  0
 44113  1  0  0  0
 45 46  2  0  0  0
 45114  1  0  0  0
 46115  1  0  0  0
 47116  1  0  0  0
 47117  1  0  0  0
 48 56  1  0  0  0
 48 65  1  0  0  0
 48118  1  0  0  0
 49 50  1  0  0  0
 49 53  1  0  0  0
 49 64  1  0  0  0
 49119  1  0  0  0
 50 51  1  0  0  0
 50120  1  0  0  0
 50121  1  0  0  0
 51 52  1  0  0  0
 51122  1  0  0  0
 51123  1  0  0  0
 52124  1  0  0  0
 52125  1  0  0  0
 53 54  1  0  0  0
 54 55  2  0  0  0
 54126  1  0  0  0
 55 57  1  0  0  0
 55127  1  0  0  0
 56 69  2  0  0  0
 57 58  2  0  0  0
 57128  1  0  0  0
 58129  1  0  0  0
 59 60  1  0  0  0
 59 61  1  0  0  0
 59 62  1  0  0  0
 60130  1  0  0  0
 60131  1  0  0  0
 60132  1  0  0  0
 61133  1  0  0  0
 61134  1  0  0  0
 61135  1  0  0  0
 62136  1  0  0  0
 62137  1  0  0  0
 62138  1  0  0  0
 63 65  1  0  0  0
 63139  1  0  0  0
 63140  1  0  0  0
 63141  1  0  0  0
 64142  1  0  0  0
 65143  1  0  0  0
 68 80  1  0  0  0
 71 73  2  0  0  0
 71 74  1  0  0  0
 71144  1  0  0  0
 72 73  1  0  0  0
 72 75  2  0  0  0
 72145  1  0  0  0
 73 77  1  0  0  0
 74 76  2  0  0  0
 74 78  1  0  0  0
 75 76  1  0  0  0
 75 83  1  0  0  0
 76 84  1  0  0  0
 77 82  2  0  0  0
 78146  1  0  0  0
 78147  1  0  0  0
 78148  1  0  0  0
 79 80  1  0  0  0
 79 81  1  0  0  0
 79149  1  0  0  0
 79150  1  0  0  0
 80151  1  0  0  0
 80152  1  0  0  0
 81 84  1  0  0  0
 81153  1  0  0  0
 81154  1  0  0  0
 82155  1  0  0  0
 83156  1  0  0  0
 83157  1  0  0  0
M  ISO  4   1 100  68 101  77 100  80 101
M  END
> <chiral flag>
0

> <version>
0

> <s_m_source_file>
/data/baiqing/PycharmProjects/Reinvent-master-3.2/result/LINK_invent/BTK/process_docking_weight1_custom_product_contain_oxygen_bond_distance_aromatic_linkinvent_7_9_3/rearranged_h_0093.sdf

> <i_m_source_file_index>
16

> <r_mmod_Potential_Energy-OPLS-2005>
175.305938720703

> <r_mmod_Stretch_Energy-OPLS-2005>
81.8315963745117

> <r_mmod_Bend_Energy-OPLS-2005>
165.755569458008

> <r_mmod_Torsional_Energy-OPLS-2005>
220.637359619141

> <r_mmod_Improper_Torsional_Energy-OPLS-2005>
5.68607378005981

> <r_mmod_Van_der_Waal_Energy-OPLS-2005>
157.03564453125

> <r_mmod_Electrostatic_Energy-OPLS-2005>
-282.810119628906

> <r_mmod_Solvation_Energy-OPLS-2005>
-211.764312744141

> <b_mmod_Minimization_Converged-OPLS-2005>
0

> <r_mmod_RMS_Derivative-OPLS-2005>
2.52803421020508

$$$$
17
                    3D
 Structure written by MMmdl.
159167  0  0  1  0            999 V2000
  -30.6589  -14.6476   20.6069 C   0  0  0  0  0  0
  -30.4412  -12.4180   19.4776 C   0  0  0  0  0  0
  -29.5171  -12.5138   18.2408 C   0  0  0  0  0  0
  -28.0366  -12.3449   18.6333 C   0  0  0  0  0  0
  -27.6515  -13.2137   19.8553 C   0  0  2  0  0  0
  -28.6787  -13.0420   20.9874 C   0  0  0  0  0  0
  -25.2544  -13.8159   20.5658 C   0  0  0  0  0  0
  -24.1812  -13.0427   20.9170 C   0  0  0  0  0  0
  -24.6379  -11.6896   20.8708 C   0  0  0  0  0  0
  -23.9050  -10.4287   21.0409 C   0  0  0  0  0  0
  -24.3602   -9.4202   21.9183 C   0  0  0  0  0  0
  -23.6274   -8.2238   22.0761 C   0  0  0  0  0  0
  -22.4256   -8.0272   21.3549 C   0  0  0  0  0  0
  -21.9886   -9.0256   20.4663 C   0  0  0  0  0  0
  -22.7219  -10.2131   20.3072 C   0  0  0  0  0  0
  -21.6851   -6.0728   22.5287 C   0  0  0  0  0  0
  -21.4011   -6.5642   23.8218 C   0  0  0  0  0  0
  -21.3656   -5.6793   24.9184 C   0  0  0  0  0  0
  -21.6049   -4.3058   24.7229 C   0  0  0  0  0  0
  -21.8811   -3.8147   23.4352 C   0  0  0  0  0  0
  -21.9185   -4.6957   22.3408 C   0  0  0  0  0  0
  -22.7850  -13.5237   21.1866 C   0  0  0  0  0  0
  -22.1656   -4.2147   21.0981 F   0  0  0  0  0  0
  -21.5623   -3.4538   25.7738 F   0  0  0  0  0  0
  -30.0147  -13.4259   20.4809 N   0  0  0  0  0  0
  -26.2947  -12.9334   20.3200 N   0  0  0  0  0  0
  -25.9293  -11.6493   20.5674 N   0  0  0  0  0  0
  -22.0491  -12.8247   22.0428 N   0  0  0  0  0  0
  -25.4258  -15.1888   20.4147 N   0  0  0  0  0  0
  -31.7275  -14.8334   20.0118 O   0  0  0  0  0  0
  -21.6633   -6.8862   21.4244 O   0  0  0  0  0  0
  -22.3543  -14.5539   20.6705 O   0  0  0  0  0  0
  -24.6270  -31.8592   23.2008 C   0  0  0  0  0  0
  -25.9107  -32.4785   23.8350 C   0  0  1  0  0  0
  -27.2281  -27.3147   20.1288 C   0  0  0  0  0  0
  -25.5916  -33.8583   24.2277 N   0  0  0  0  0  0
  -23.4221  -30.4800   21.5427 C   0  0  2  0  0  0
  -24.8697  -28.9301   20.1154 C   0  0  0  0  0  0
  -22.7477  -29.4611   22.4924 C   0  0  0  0  0  0
  -18.0288  -28.1387   22.8481 C   0  0  0  0  0  0
  -24.1482  -36.7294   23.2641 C   0  0  0  0  0  0
  -25.9619  -30.7901   21.3698 C   0  0  0  0  0  0
  -26.0385  -29.4145   20.7173 C   0  0  0  0  0  0
  -27.2238  -28.6198   20.7094 C   0  0  0  0  0  0
  -26.0403  -26.8797   19.5056 C   0  0  0  0  0  0
  -24.8718  -27.6673   19.5007 C   0  0  0  0  0  0
  -23.6393  -29.8138   20.1587 C   0  0  0  0  0  0
  -25.4104  -36.3080   24.0332 C   0  0  1  0  0  0
  -20.5890  -28.3691   23.1280 C   0  0  2  0  0  0
  -20.6774  -26.9415   22.5408 C   0  0  0  0  0  0
  -19.5751  -26.6386   21.5210 C   0  0  0  0  0  0
  -18.1934  -26.7927   22.1627 C   0  0  0  0  0  0
  -19.1543  -28.8855   23.2877 C   0  0  0  0  0  0
  -18.9469  -30.1454   23.8904 C   0  0  0  0  0  0
  -17.6471  -30.6590   24.0561 C   0  0  0  0  0  0
  -25.9048  -34.9458   23.5107 C   0  0  0  0  0  0
  -16.5362  -29.9091   23.6326 C   0  0  0  0  0  0
  -16.7275  -28.6507   23.0347 C   0  0  0  0  0  0
  -26.4494  -31.6596   25.0721 C   0  0  0  0  0  0
  -25.3738  -31.3729   26.1457 C   0  0  0  0  0  0
  -27.0344  -30.3027   24.6169 C   0  0  0  0  0  0
  -27.6061  -32.4332   25.7483 C   0  0  0  0  0  0
  -27.5577  -37.1792   24.8462 C   0  0  0  0  0  0
  -21.4190  -29.3035   22.3659 N   0  0  0  0  0  0
  -26.4279  -37.3782   23.9422 N   0  0  0  0  0  0
  -24.6888  -31.0608   22.0949 N   0  0  0  0  0  0
  -23.4192  -28.8158   23.3013 O   0  0  0  0  0  0
  -28.3482  -26.4704   20.1335 O   0  0  0  0  0  0
  -26.5625  -34.8926   22.4676 O   0  0  0  0  0  0
  -23.5430  -32.1386   23.7338 O   0  0  0  0  0  0
  -30.3961  -18.1574   21.8365 C   0  0  0  0  0  0
  -30.1527  -19.5292   21.5228 C   0  0  0  0  0  0
  -29.3948  -17.4775   19.7656 C   0  0  0  0  0  0
  -29.9991  -17.0735   20.9904 C   0  0  0  0  0  0
  -29.5057  -19.9208   20.3239 C   0  0  0  0  0  0
  -29.1583  -18.8549   19.4406 C   0  0  0  0  0  0
  -28.3634  -15.6855   24.5780 C   0  0  0  0  0  0
  -28.7418  -15.9753   23.3200 C   0  0  0  0  0  0
  -29.9197  -15.3424   22.7299 C   0  0  0  0  0  0
  -29.0663  -22.4668   20.6445 C   0  0  0  0  0  0
  -28.9474  -23.8709   19.9080 C   0  0  0  0  0  0
  -28.1859  -25.0792   20.6325 C   0  0  0  0  0  0
  -28.5572  -19.1648   18.2201 N   0  0  0  0  0  0
  -29.2717  -21.3166   19.9206 N   0  0  0  0  0  0
  -30.1332  -15.6480   21.4156 N   0  0  0  0  0  0
  -30.6666  -14.5925   23.3725 O   0  0  0  0  0  0
  -28.9817  -22.4405   21.8745 O   0  0  0  0  0  0
  -31.4820  -12.5436   19.1759 H   0  0  0  0  0  0
  -30.3925  -11.4182   19.9120 H   0  0  0  0  0  0
  -29.7917  -11.7503   17.5116 H   0  0  0  0  0  0
  -29.6594  -13.4753   17.7454 H   0  0  0  0  0  0
  -27.8743  -11.2915   18.8655 H   0  0  0  0  0  0
  -27.3926  -12.5708   17.7849 H   0  0  0  0  0  0
  -27.6806  -14.2532   19.5293 H   0  0  0  0  0  0
  -28.7022  -12.0042   21.3214 H   0  0  0  0  0  0
  -28.3268  -13.5948   21.8509 H   0  0  0  0  0  0
  -25.2751   -9.5674   22.4751 H   0  0  0  0  0  0
  -23.9994   -7.4631   22.7471 H   0  0  0  0  0  0
  -21.0813   -8.8772   19.8982 H   0  0  0  0  0  0
  -22.3670  -10.9669   19.6183 H   0  0  0  0  0  0
  -21.2012   -7.6156   23.9720 H   0  0  0  0  0  0
  -21.1489   -6.0531   25.9086 H   0  0  0  0  0  0
  -22.0590   -2.7610   23.2859 H   0  0  0  0  0  0
  -22.4101  -11.9918   22.4852 H   0  0  0  0  0  0
  -21.1125  -13.1313   22.2637 H   0  0  0  0  0  0
  -24.6555  -15.8368   20.5350 H   0  0  0  0  0  0
  -26.2706  -15.6372   20.0844 H   0  0  0  0  0  0
  -26.7183  -32.5458   23.1111 H   0  0  0  0  0  0
  -25.0025  -33.9725   25.0397 H   0  0  0  0  0  0
  -22.7164  -31.3003   21.3969 H   0  0  0  0  0  0
  -23.3753  -35.9619   23.3288 H   0  0  0  0  0  0
  -24.3575  -36.8934   22.2061 H   0  0  0  0  0  0
  -23.7237  -37.6488   23.6675 H   0  0  0  0  0  0
  -26.0928  -31.5529   20.6005 H   0  0  0  0  0  0
  -26.8424  -30.8427   21.9983 H   0  0  0  0  0  0
  -28.1238  -28.9898   21.1803 H   0  0  0  0  0  0
  -26.0117  -25.9138   19.0218 H   0  0  0  0  0  0
  -23.9778  -27.2894   19.0241 H   0  0  0  0  0  0
  -23.7636  -30.5911   19.4029 H   0  0  0  0  0  0
  -22.7587  -29.2458   19.8526 H   0  0  0  0  0  0
  -25.1282  -36.1925   25.0828 H   0  0  0  0  0  0
  -20.9987  -28.3274   24.1397 H   0  0  0  0  0  0
  -20.5667  -26.2307   23.3607 H   0  0  0  0  0  0
  -21.6643  -26.7425   22.1211 H   0  0  0  0  0  0
  -19.6905  -25.6294   21.1249 H   0  0  0  0  0  0
  -19.6691  -27.3189   20.6734 H   0  0  0  0  0  0
  -17.4192  -26.6665   21.4039 H   0  0  0  0  0  0
  -18.0338  -26.0078   22.9034 H   0  0  0  0  0  0
  -19.7949  -30.7264   24.2286 H   0  0  0  0  0  0
  -17.5029  -31.6272   24.5153 H   0  0  0  0  0  0
  -15.5366  -30.2999   23.7639 H   0  0  0  0  0  0
  -15.8673  -28.0828   22.7061 H   0  0  0  0  0  0
  -24.5887  -30.7110   25.7775 H   0  0  0  0  0  0
  -24.8963  -32.2897   26.4926 H   0  0  0  0  0  0
  -25.8068  -30.8861   27.0207 H   0  0  0  0  0  0
  -26.2911  -29.6773   24.1208 H   0  0  0  0  0  0
  -27.4069  -29.7290   25.4667 H   0  0  0  0  0  0
  -27.8766  -30.4330   23.9370 H   0  0  0  0  0  0
  -27.2679  -33.3635   26.2062 H   0  0  0  0  0  0
  -28.3861  -32.6894   25.0297 H   0  0  0  0  0  0
  -28.0741  -31.8459   26.5398 H   0  0  0  0  0  0
  -28.2578  -38.0102   24.7527 H   0  0  0  0  0  0
  -28.1084  -36.2640   24.6249 H   0  0  0  0  0  0
  -27.2303  -37.1394   25.8864 H   0  0  0  0  0  0
  -20.9363  -29.8769   21.6880 H   0  0  0  0  0  0
  -26.0156  -38.2849   24.1450 H   0  0  0  0  0  0
  -30.8853  -17.9507   22.7774 H   0  0  0  0  0  0
  -30.4865  -20.2850   22.2195 H   0  0  0  0  0  0
  -29.0790  -16.7143   19.0692 H   0  0  0  0  0  0
  -27.4884  -16.1487   25.0099 H   0  0  0  0  0  0
  -28.9087  -14.9864   25.1961 H   0  0  0  0  0  0
  -28.1437  -16.6760   22.7566 H   0  0  0  0  0  0
  -28.5033  -23.7125   18.9246 H   0  0  0  0  0  0
  -29.9714  -24.1931   19.7217 H   0  0  0  0  0  0
  -28.5260  -25.1075   21.6678 H   0  0  0  0  0  0
  -27.1330  -24.8105   20.7082 H   0  0  0  0  0  0
  -28.1409  -18.4048   17.6919 H   0  0  0  0  0  0
  -27.9970  -20.0095   18.1735 H   0  0  0  0  0  0
  -29.2335  -21.4383   18.9187 H   0  0  0  0  0  0
  1 25  1  0  0  0
  1 30  2  0  0  0
  1 85  1  0  0  0
  2  3  1  0  0  0
  2 25  1  0  0  0
  2 88  1  0  0  0
  2 89  1  0  0  0
  3  4  1  0  0  0
  3 90  1  0  0  0
  3 91  1  0  0  0
  4  5  1  0  0  0
  4 92  1  0  0  0
  4 93  1  0  0  0
  5  6  1  0  0  0
  5 26  1  0  0  0
  5 94  1  0  0  0
  6 25  1  0  0  0
  6 95  1  0  0  0
  6 96  1  0  0  0
  7  8  2  0  0  0
  7 26  1  0  0  0
  7 29  1  0  0  0
  8  9  1  0  0  0
  8 22  1  0  0  0
  9 10  1  0  0  0
  9 27  2  0  0  0
 10 11  2  0  0  0
 10 15  1  0  0  0
 11 12  1  0  0  0
 11 97  1  0  0  0
 12 13  2  0  0  0
 12 98  1  0  0  0
 13 14  1  0  0  0
 13 31  1  0  0  0
 14 15  2  0  0  0
 14 99  1  0  0  0
 15100  1  0  0  0
 16 17  2  0  0  0
 16 21  1  0  0  0
 16 31  1  0  0  0
 17 18  1  0  0  0
 17101  1  0  0  0
 18 19  2  0  0  0
 18102  1  0  0  0
 19 20  1  0  0  0
 19 24  1  0  0  0
 20 21  2  0  0  0
 20103  1  0  0  0
 21 23  1  0  0  0
 22 28  1  0  0  0
 22 32  2  0  0  0
 26 27  1  0  0  0
 28104  1  0  0  0
 28105  1  0  0  0
 29106  1  0  0  0
 29107  1  0  0  0
 33 34  1  0  0  0
 33 66  1  0  0  0
 33 70  2  0  0  0
 34 36  1  0  0  0
 34 59  1  0  0  0
 34108  1  0  0  0
 35 44  2  0  0  0
 35 45  1  0  0  0
 35 68  1  0  0  0
 36 56  1  0  0  0
 36109  1  0  0  0
 37 39  1  0  0  0
 37 47  1  0  0  0
 37 66  1  0  0  0
 37110  1  0  0  0
 38 43  2  0  0  0
 38 46  1  0  0  0
 38 47  1  0  0  0
 39 64  1  0  0  0
 39 67  2  0  0  0
 40 52  1  0  0  0
 40 53  2  0  0  0
 40 58  1  0  0  0
 41111  1  0  0  0
 41112  1  0  0  0
 41113  1  0  0  0
 41 48  1  0  0  0
 42 43  1  0  0  0
 42 66  1  0  0  0
 42114  1  0  0  0
 42115  1  0  0  0
 43 44  1  0  0  0
 44116  1  0  0  0
 45 46  2  0  0  0
 45117  1  0  0  0
 46118  1  0  0  0
 47119  1  0  0  0
 47120  1  0  0  0
 48 56  1  0  0  0
 48 65  1  0  0  0
 48121  1  0  0  0
 49 50  1  0  0  0
 49 53  1  0  0  0
 49 64  1  0  0  0
 49122  1  0  0  0
 50 51  1  0  0  0
 50123  1  0  0  0
 50124  1  0  0  0
 51 52  1  0  0  0
 51125  1  0  0  0
 51126  1  0  0  0
 52127  1  0  0  0
 52128  1  0  0  0
 53 54  1  0  0  0
 54 55  2  0  0  0
 54129  1  0  0  0
 55 57  1  0  0  0
 55130  1  0  0  0
 56 69  2  0  0  0
 57 58  2  0  0  0
 57131  1  0  0  0
 58132  1  0  0  0
 59 60  1  0  0  0
 59 61  1  0  0  0
 59 62  1  0  0  0
 60133  1  0  0  0
 60134  1  0  0  0
 60135  1  0  0  0
 61136  1  0  0  0
 61137  1  0  0  0
 61138  1  0  0  0
 62139  1  0  0  0
 62140  1  0  0  0
 62141  1  0  0  0
 63 65  1  0  0  0
 63142  1  0  0  0
 63143  1  0  0  0
 63144  1  0  0  0
 64145  1  0  0  0
 65146  1  0  0  0
 68 82  1  0  0  0
 71 72  2  0  0  0
 71 74  1  0  0  0
 71147  1  0  0  0
 72 75  1  0  0  0
 72148  1  0  0  0
 73 74  2  0  0  0
 73 76  1  0  0  0
 73149  1  0  0  0
 74 85  1  0  0  0
 75 76  2  0  0  0
 75 84  1  0  0  0
 76 83  1  0  0  0
 77 78  2  0  0  0
 77150  1  0  0  0
 77151  1  0  0  0
 78 79  1  0  0  0
 78152  1  0  0  0
 79 85  1  0  0  0
 79 86  2  0  0  0
 80 81  1  0  0  0
 80 84  1  0  0  0
 80 87  2  0  0  0
 81 82  1  0  0  0
 81153  1  0  0  0
 81154  1  0  0  0
 82155  1  0  0  0
 82156  1  0  0  0
 83157  1  0  0  0
 83158  1  0  0  0
 84159  1  0  0  0
M  ISO  4   1 100  68 101  82 101  85 100
M  END
> <chiral flag>
0

> <version>
0

> <s_m_source_file>
/data/baiqing/PycharmProjects/Reinvent-master-3.2/result/LINK_invent/BTK/process_docking_weight1_custom_product_contain_oxygen_bond_distance_aromatic_linkinvent_7_9_3/rearranged_h_0093.sdf

> <i_m_source_file_index>
17

> <r_mmod_Potential_Energy-OPLS-2005>
130.748840332031

> <r_mmod_Stretch_Energy-OPLS-2005>
101.476387023926

> <r_mmod_Bend_Energy-OPLS-2005>
149.253509521484

> <r_mmod_Torsional_Energy-OPLS-2005>
332.775024414062

> <r_mmod_Improper_Torsional_Energy-OPLS-2005>
6.36413335800171

> <r_mmod_Van_der_Waal_Energy-OPLS-2005>
166.679168701172

> <r_mmod_Electrostatic_Energy-OPLS-2005>
-440.975280761719

> <r_mmod_Solvation_Energy-OPLS-2005>
-232.709060668945

> <b_mmod_Minimization_Converged-OPLS-2005>
0

> <r_mmod_RMS_Derivative-OPLS-2005>
2.32705307006836

$$$$
18
                    3D
 Structure written by MMmdl.
158167  0  0  1  0            999 V2000
  -30.7473  -14.5149   20.4717 C   0  0  0  0  0  0
  -30.3923  -12.3159   19.4498 C   0  0  0  0  0  0
  -29.4911  -12.5011   18.2140 C   0  0  0  0  0  0
  -28.0117  -12.3685   18.6150 C   0  0  0  0  0  0
  -27.6487  -13.2270   19.8605 C   0  0  2  0  0  0
  -28.6946  -13.0971   20.9912 C   0  0  0  0  0  0
  -25.2546  -13.8198   20.5698 C   0  0  0  0  0  0
  -24.1843  -13.0452   20.9224 C   0  0  0  0  0  0
  -24.6431  -11.6920   20.8764 C   0  0  0  0  0  0
  -23.9117  -10.4297   21.0418 C   0  0  0  0  0  0
  -24.3664   -9.4216   21.9212 C   0  0  0  0  0  0
  -23.6335   -8.2260   22.0773 C   0  0  0  0  0  0
  -22.4317   -8.0316   21.3564 C   0  0  0  0  0  0
  -21.9967   -9.0286   20.4654 C   0  0  0  0  0  0
  -22.7293  -10.2164   20.3063 C   0  0  0  0  0  0
  -21.6857   -6.0777   22.5307 C   0  0  0  0  0  0
  -21.3992   -6.5658   23.8243 C   0  0  0  0  0  0
  -21.3661   -5.6814   24.9206 C   0  0  0  0  0  0
  -21.6057   -4.3077   24.7243 C   0  0  0  0  0  0
  -21.8808   -3.8188   23.4350 C   0  0  0  0  0  0
  -21.9194   -4.7008   22.3408 C   0  0  0  0  0  0
  -22.7866  -13.5259   21.1874 C   0  0  0  0  0  0
  -22.1662   -4.2202   21.0982 F   0  0  0  0  0  0
  -21.5642   -3.4532   25.7736 F   0  0  0  0  0  0
  -30.0154  -13.3645   20.4167 N   0  0  0  0  0  0
  -26.2984  -12.9399   20.3334 N   0  0  0  0  0  0
  -25.9373  -11.6539   20.5801 N   0  0  0  0  0  0
  -22.0491  -12.8247   22.0396 N   0  0  0  0  0  0
  -25.4246  -15.1920   20.4040 N   0  0  0  0  0  0
  -31.9282  -14.5292   20.1083 O   0  0  0  0  0  0
  -21.6671   -6.8927   21.4272 O   0  0  0  0  0  0
  -22.3556  -14.5583   20.6750 O   0  0  0  0  0  0
  -24.6145  -31.8683   23.2120 C   0  0  0  0  0  0
  -25.9039  -32.4819   23.8415 C   0  0  1  0  0  0
  -27.2188  -27.4288   20.0902 C   0  0  0  0  0  0
  -25.5911  -33.8626   24.2344 N   0  0  0  0  0  0
  -23.4010  -30.4923   21.5528 C   0  0  2  0  0  0
  -24.8425  -28.9616   20.1142 C   0  0  0  0  0  0
  -22.7420  -29.4635   22.5023 C   0  0  0  0  0  0
  -18.0274  -28.1327   22.8483 C   0  0  0  0  0  0
  -24.1473  -36.7292   23.2642 C   0  0  0  0  0  0
  -25.9309  -30.8317   21.3666 C   0  0  0  0  0  0
  -26.0047  -29.4672   20.7106 C   0  0  0  0  0  0
  -27.1974  -28.7039   20.7027 C   0  0  0  0  0  0
  -26.0296  -26.9360   19.5038 C   0  0  0  0  0  0
  -24.8501  -27.6944   19.5079 C   0  0  0  0  0  0
  -23.6066  -29.8281   20.1662 C   0  0  0  0  0  0
  -25.4100  -36.3107   24.0346 C   0  0  1  0  0  0
  -20.5857  -28.3620   23.1327 C   0  0  2  0  0  0
  -20.6744  -26.9360   22.5413 C   0  0  0  0  0  0
  -19.5726  -26.6343   21.5197 C   0  0  0  0  0  0
  -18.1902  -26.7880   22.1604 C   0  0  0  0  0  0
  -19.1517  -28.8794   23.2897 C   0  0  0  0  0  0
  -18.9444  -30.1400   23.8910 C   0  0  0  0  0  0
  -17.6443  -30.6546   24.0541 C   0  0  0  0  0  0
  -25.9025  -34.9475   23.5137 C   0  0  0  0  0  0
  -16.5335  -29.9035   23.6317 C   0  0  0  0  0  0
  -16.7258  -28.6438   23.0357 C   0  0  0  0  0  0
  -26.4457  -31.6607   25.0758 C   0  0  0  0  0  0
  -25.3714  -31.3720   26.1506 C   0  0  0  0  0  0
  -27.0289  -30.3049   24.6130 C   0  0  0  0  0  0
  -27.6038  -32.4319   25.7523 C   0  0  0  0  0  0
  -27.5576  -37.1798   24.8465 C   0  0  0  0  0  0
  -21.4142  -29.3010   22.3765 N   0  0  0  0  0  0
  -26.4283  -37.3790   23.9417 N   0  0  0  0  0  0
  -24.6664  -31.0786   22.1021 N   0  0  0  0  0  0
  -23.4200  -28.8170   23.3051 O   0  0  0  0  0  0
  -28.3594  -26.6543   20.0999 O   0  0  0  0  0  0
  -26.5581  -34.8930   22.4696 O   0  0  0  0  0  0
  -23.5340  -32.1452   23.7520 O   0  0  0  0  0  0
  -31.0201  -19.2897   21.0389 C   0  0  0  0  0  0
  -30.8315  -20.6839   20.9015 C   0  0  0  0  0  0
  -28.8568  -18.8711   20.0090 C   0  0  0  0  0  0
  -30.0776  -18.3668   20.5183 C   0  0  0  0  0  0
  -29.6993  -21.1861   20.2273 C   0  0  0  0  0  0
  -28.6790  -20.2717   19.8476 C   0  0  0  0  0  0
  -28.7487  -24.5242   19.0106 C   0  0  0  0  0  0
  -28.5859  -25.8654   19.0010 C   0  0  0  0  0  0
  -30.5661  -17.0034   20.2035 C   0  0  0  0  0  0
  -29.0567  -23.7186   17.7828 C   0  0  0  0  0  0
  -28.8015  -23.5610   20.1842 C   0  0  0  0  0  0
  -29.9538  -22.5991   18.3093 C   0  0  0  0  0  0
  -29.7492  -22.5214   19.7596 N   0  0  0  0  0  0
  -30.0822  -15.8032   20.6662 N   0  0  0  0  0  0
  -31.5932  -17.0566   19.3412 N   0  3  0  0  0  0
  -27.5706  -20.7266   19.2111 F   0  0  0  0  0  0
  -31.4400  -12.3586   19.1504 H   0  0  0  0  0  0
  -30.2524  -11.3246   19.8835 H   0  0  0  0  0  0
  -29.7365  -11.7689   17.4449 H   0  0  0  0  0  0
  -29.6672  -13.4820   17.7693 H   0  0  0  0  0  0
  -27.8207  -11.3133   18.8132 H   0  0  0  0  0  0
  -27.3741  -12.6407   17.7719 H   0  0  0  0  0  0
  -27.6648  -14.2635   19.5264 H   0  0  0  0  0  0
  -28.6750  -12.0889   21.4062 H   0  0  0  0  0  0
  -28.4718  -13.7739   21.8167 H   0  0  0  0  0  0
  -25.2794   -9.5700   22.4823 H   0  0  0  0  0  0
  -24.0040   -7.4647   22.7481 H   0  0  0  0  0  0
  -21.0922   -8.8802   19.8942 H   0  0  0  0  0  0
  -22.3762  -10.9724   19.6186 H   0  0  0  0  0  0
  -21.1929   -7.6149   23.9770 H   0  0  0  0  0  0
  -21.1497   -6.0527   25.9120 H   0  0  0  0  0  0
  -22.0570   -2.7651   23.2849 H   0  0  0  0  0  0
  -22.4053  -11.9868   22.4744 H   0  0  0  0  0  0
  -21.1113  -13.1319   22.2555 H   0  0  0  0  0  0
  -24.6492  -15.8402   20.4889 H   0  0  0  0  0  0
  -26.2460  -15.6199   19.9979 H   0  0  0  0  0  0
  -26.7121  -32.5497   23.1189 H   0  0  0  0  0  0
  -25.0124  -33.9792   25.0530 H   0  0  0  0  0  0
  -22.6881  -31.3082   21.4185 H   0  0  0  0  0  0
  -23.3746  -35.9602   23.3279 H   0  0  0  0  0  0
  -24.3581  -36.8937   22.2058 H   0  0  0  0  0  0
  -23.7201  -37.6484   23.6669 H   0  0  0  0  0  0
  -26.0484  -31.5995   20.5994 H   0  0  0  0  0  0
  -26.8160  -30.8789   21.9904 H   0  0  0  0  0  0
  -28.0936  -29.0844   21.1725 H   0  0  0  0  0  0
  -25.9995  -25.9545   19.0513 H   0  0  0  0  0  0
  -23.9532  -27.2995   19.0501 H   0  0  0  0  0  0
  -23.7080  -30.6029   19.4059 H   0  0  0  0  0  0
  -22.7287  -29.2485   19.8755 H   0  0  0  0  0  0
  -25.1272  -36.1962   25.0835 H   0  0  0  0  0  0
  -20.9935  -28.3122   24.1447 H   0  0  0  0  0  0
  -20.5591  -26.2212   23.3585 H   0  0  0  0  0  0
  -21.6615  -26.7350   22.1225 H   0  0  0  0  0  0
  -19.6874  -25.6255   21.1201 H   0  0  0  0  0  0
  -19.6656  -27.3163   20.6736 H   0  0  0  0  0  0
  -17.4176  -26.6658   21.3992 H   0  0  0  0  0  0
  -18.0283  -26.0000   22.8972 H   0  0  0  0  0  0
  -19.7925  -30.7217   24.2270 H   0  0  0  0  0  0
  -17.4993  -31.6244   24.5107 H   0  0  0  0  0  0
  -15.5327  -30.2928   23.7642 H   0  0  0  0  0  0
  -15.8661  -28.0749   22.7083 H   0  0  0  0  0  0
  -24.5884  -30.7063   25.7849 H   0  0  0  0  0  0
  -24.8910  -32.2876   26.4972 H   0  0  0  0  0  0
  -25.8058  -30.8877   27.0258 H   0  0  0  0  0  0
  -26.2850  -29.6827   24.1132 H   0  0  0  0  0  0
  -27.4022  -29.7272   25.4597 H   0  0  0  0  0  0
  -27.8692  -30.4393   23.9314 H   0  0  0  0  0  0
  -27.2664  -33.3611   26.2134 H   0  0  0  0  0  0
  -28.3841  -32.6885   25.0341 H   0  0  0  0  0  0
  -28.0701  -31.8416   26.5424 H   0  0  0  0  0  0
  -28.2573  -38.0119   24.7561 H   0  0  0  0  0  0
  -28.1099  -36.2660   24.6209 H   0  0  0  0  0  0
  -27.2310  -37.1359   25.8876 H   0  0  0  0  0  0
  -20.9291  -29.8797   21.7058 H   0  0  0  0  0  0
  -26.0155  -38.2851   24.1461 H   0  0  0  0  0  0
  -31.9687  -18.9402   21.4266 H   0  0  0  0  0  0
  -31.6215  -21.3559   21.2084 H   0  0  0  0  0  0
  -28.1156  -18.2100   19.5852 H   0  0  0  0  0  0
  -28.6115  -26.4503   18.0898 H   0  0  0  0  0  0
  -29.5167  -24.3054   16.9868 H   0  0  0  0  0  0
  -28.1237  -23.3005   17.4015 H   0  0  0  0  0  0
  -27.8122  -23.1316   20.3510 H   0  0  0  0  0  0
  -29.1164  -24.0711   21.0961 H   0  0  0  0  0  0
  -30.9996  -22.8446   18.1180 H   0  0  0  0  0  0
  -29.7393  -21.6614   17.7901 H   0  0  0  0  0  0
  -29.1790  -15.8777   21.1023 H   0  0  0  0  0  0
  -31.9092  -17.9418   18.9727 H   0  0  0  0  0  0
  -32.1110  -16.2090   19.1465 H   0  0  0  0  0  0
  1 25  1  0  0  0
  1 30  2  0  0  0
  1 84  1  0  0  0
  2  3  1  0  0  0
  2 25  1  0  0  0
  2 87  1  0  0  0
  2 88  1  0  0  0
  3  4  1  0  0  0
  3 89  1  0  0  0
  3 90  1  0  0  0
  4  5  1  0  0  0
  4 91  1  0  0  0
  4 92  1  0  0  0
  5  6  1  0  0  0
  5 26  1  0  0  0
  5 93  1  0  0  0
  6 25  1  0  0  0
  6 94  1  0  0  0
  6 95  1  0  0  0
  7  8  2  0  0  0
  7 26  1  0  0  0
  7 29  1  0  0  0
  8  9  1  0  0  0
  8 22  1  0  0  0
  9 10  1  0  0  0
  9 27  2  0  0  0
 10 11  2  0  0  0
 10 15  1  0  0  0
 11 12  1  0  0  0
 11 96  1  0  0  0
 12 13  2  0  0  0
 12 97  1  0  0  0
 13 14  1  0  0  0
 13 31  1  0  0  0
 14 15  2  0  0  0
 14 98  1  0  0  0
 15 99  1  0  0  0
 16 17  2  0  0  0
 16 21  1  0  0  0
 16 31  1  0  0  0
 17 18  1  0  0  0
 17100  1  0  0  0
 18 19  2  0  0  0
 18101  1  0  0  0
 19 20  1  0  0  0
 19 24  1  0  0  0
 20 21  2  0  0  0
 20102  1  0  0  0
 21 23  1  0  0  0
 22 28  1  0  0  0
 22 32  2  0  0  0
 26 27  1  0  0  0
 28103  1  0  0  0
 28104  1  0  0  0
 29105  1  0  0  0
 29106  1  0  0  0
 33 34  1  0  0  0
 33 66  1  0  0  0
 33 70  2  0  0  0
 34 36  1  0  0  0
 34 59  1  0  0  0
 34107  1  0  0  0
 35 44  2  0  0  0
 35 45  1  0  0  0
 35 68  1  0  0  0
 36 56  1  0  0  0
 36108  1  0  0  0
 37 39  1  0  0  0
 37 47  1  0  0  0
 37 66  1  0  0  0
 37109  1  0  0  0
 38 43  2  0  0  0
 38 46  1  0  0  0
 38 47  1  0  0  0
 39 64  1  0  0  0
 39 67  2  0  0  0
 40 52  1  0  0  0
 40 53  2  0  0  0
 40 58  1  0  0  0
 41110  1  0  0  0
 41111  1  0  0  0
 41112  1  0  0  0
 41 48  1  0  0  0
 42 43  1  0  0  0
 42 66  1  0  0  0
 42113  1  0  0  0
 42114  1  0  0  0
 43 44  1  0  0  0
 44115  1  0  0  0
 45 46  2  0  0  0
 45116  1  0  0  0
 46117  1  0  0  0
 47118  1  0  0  0
 47119  1  0  0  0
 48 56  1  0  0  0
 48 65  1  0  0  0
 48120  1  0  0  0
 49 50  1  0  0  0
 49 53  1  0  0  0
 49 64  1  0  0  0
 49121  1  0  0  0
 50 51  1  0  0  0
 50122  1  0  0  0
 50123  1  0  0  0
 51 52  1  0  0  0
 51124  1  0  0  0
 51125  1  0  0  0
 52126  1  0  0  0
 52127  1  0  0  0
 53 54  1  0  0  0
 54 55  2  0  0  0
 54128  1  0  0  0
 55 57  1  0  0  0
 55129  1  0  0  0
 56 69  2  0  0  0
 57 58  2  0  0  0
 57130  1  0  0  0
 58131  1  0  0  0
 59 60  1  0  0  0
 59 61  1  0  0  0
 59 62  1  0  0  0
 60132  1  0  0  0
 60133  1  0  0  0
 60134  1  0  0  0
 61135  1  0  0  0
 61136  1  0  0  0
 61137  1  0  0  0
 62138  1  0  0  0
 62139  1  0  0  0
 62140  1  0  0  0
 63 65  1  0  0  0
 63141  1  0  0  0
 63142  1  0  0  0
 63143  1  0  0  0
 64144  1  0  0  0
 65145  1  0  0  0
 68 78  1  0  0  0
 71 72  2  0  0  0
 71 74  1  0  0  0
 71146  1  0  0  0
 72 75  1  0  0  0
 72147  1  0  0  0
 73 74  2  0  0  0
 73 76  1  0  0  0
 73148  1  0  0  0
 74 79  1  0  0  0
 75 76  2  0  0  0
 75 83  1  0  0  0
 76 86  1  0  0  0
 77 78  2  0  0  0
 77 80  1  0  0  0
 77 81  1  0  0  0
 78149  1  0  0  0
 79 84  1  0  0  0
 79 85  2  0  0  0
 80 82  1  0  0  0
 80150  1  0  0  0
 80151  1  0  0  0
 81 83  1  0  0  0
 81152  1  0  0  0
 81153  1  0  0  0
 82 83  1  0  0  0
 82154  1  0  0  0
 82155  1  0  0  0
 84156  1  0  0  0
 85157  1  0  0  0
 85158  1  0  0  0
M  CHG  1  85   1
M  ISO  4   1 100  68 101  78 101  84 100
M  END
> <chiral flag>
0

> <version>
0

> <s_m_source_file>
/data/baiqing/PycharmProjects/Reinvent-master-3.2/result/LINK_invent/BTK/process_docking_weight1_custom_product_contain_oxygen_bond_distance_aromatic_linkinvent_7_9_3/rearranged_h_0093.sdf

> <i_m_source_file_index>
18

> <r_mmod_Potential_Energy-OPLS-2005>
-96.2510375976562

> <r_mmod_Stretch_Energy-OPLS-2005>
42.9414253234863

> <r_mmod_Bend_Energy-OPLS-2005>
158.207550048828

> <r_mmod_Torsional_Energy-OPLS-2005>
301.180847167969

> <r_mmod_Improper_Torsional_Energy-OPLS-2005>
16.6334590911865

> <r_mmod_Van_der_Waal_Energy-OPLS-2005>
166.788650512695

> <r_mmod_Electrostatic_Energy-OPLS-2005>
-369.500457763672

> <r_mmod_Solvation_Energy-OPLS-2005>
-438.413299560547

> <b_mmod_Minimization_Converged-OPLS-2005>
0

> <r_mmod_RMS_Derivative-OPLS-2005>
3.81101512908936

$$$$
19
                    3D
 Structure written by MMmdl.
159168  0  0  1  0            999 V2000
  -31.4084  -14.3377   20.6532 C   0  0  0  0  0  0
  -30.9821  -13.7224   18.7797 C   0  0  0  0  0  0
  -29.7724  -12.4451   18.4230 C   0  0  0  0  0  0
  -28.0757  -12.3436   18.8875 C   0  0  0  0  0  0
  -27.0755  -13.5572   19.7249 C   0  0  2  0  0  0
  -27.7161  -15.1537   20.5124 C   0  0  0  0  0  0
  -24.9538  -13.8522   20.6687 C   0  0  0  0  0  0
  -23.9879  -13.0034   21.0206 C   0  0  0  0  0  0
  -24.5387  -11.6869   20.9409 C   0  0  0  0  0  0
  -23.8697  -10.4044   21.0628 C   0  0  0  0  0  0
  -24.3444   -9.4009   21.9299 C   0  0  0  0  0  0
  -23.6218   -8.1999   22.0754 C   0  0  0  0  0  0
  -22.4209   -8.0055   21.3513 C   0  0  0  0  0  0
  -21.9793   -8.9977   20.4597 C   0  0  0  0  0  0
  -22.7018  -10.1879   20.3100 C   0  0  0  0  0  0
  -21.6794   -6.0624   22.5290 C   0  0  0  0  0  0
  -21.3972   -6.5577   23.8207 C   0  0  0  0  0  0
  -21.3650   -5.6759   24.9186 C   0  0  0  0  0  0
  -21.6052   -4.3019   24.7262 C   0  0  0  0  0  0
  -21.8824   -3.8081   23.4393 C   0  0  0  0  0  0
  -21.9172   -4.6873   22.3432 C   0  0  0  0  0  0
  -22.5938  -13.4456   21.2500 C   0  0  0  0  0  0
  -22.1654   -4.2061   21.1012 F   0  0  0  0  0  0
  -21.5642   -3.4526   25.7786 F   0  0  0  0  0  0
  -30.5965  -15.1210   19.9558 N   0  0  0  0  0  0
  -26.0136  -13.0496   20.4141 N   0  0  0  0  0  0
  -25.8205  -11.7288   20.6140 N   0  0  0  0  0  0
  -21.8854  -12.7444   22.1148 N   0  0  0  0  0  0
  -24.9374  -15.2235   20.4413 N   0  0  0  0  0  0
  -32.6055  -14.5052   20.6615 O   0  0  0  0  0  0
  -21.6558   -6.8700   21.4222 O   0  0  0  0  0  0
  -22.1618  -14.4697   20.7177 O   0  0  0  0  0  0
  -24.6897  -31.7932   23.1478 C   0  0  0  0  0  0
  -25.9453  -32.4429   23.8037 C   0  0  1  0  0  0
  -27.1731  -26.6152   20.2066 C   0  0  0  0  0  0
  -25.6010  -33.8261   24.1911 N   0  0  0  0  0  0
  -23.5153  -30.3973   21.5050 C   0  0  2  0  0  0
  -24.9618  -28.7260   20.1146 C   0  0  0  0  0  0
  -22.7784  -29.4288   22.4702 C   0  0  0  0  0  0
  -18.0342  -28.1426   22.8455 C   0  0  0  0  0  0
  -24.1499  -36.7134   23.2651 C   0  0  0  0  0  0
  -26.0997  -30.4929   21.4274 C   0  0  0  0  0  0
  -26.1522  -29.0504   20.7753 C   0  0  0  0  0  0
  -27.2429  -28.0207   20.7931 C   0  0  0  0  0  0
  -25.9630  -26.5299   19.4761 C   0  0  0  0  0  0
  -24.9105  -27.4940   19.4426 C   0  0  0  0  0  0
  -23.7693  -29.6972   20.1392 C   0  0  0  0  0  0
  -25.4152  -36.2872   24.0273 C   0  0  1  0  0  0
  -20.5980  -28.3788   23.1140 C   0  0  2  0  0  0
  -20.6809  -26.9442   22.5408 C   0  0  0  0  0  0
  -19.5783  -26.6368   21.5226 C   0  0  0  0  0  0
  -18.1965  -26.7953   22.1623 C   0  0  0  0  0  0
  -19.1609  -28.8932   23.2779 C   0  0  0  0  0  0
  -18.9512  -30.1518   23.8822 C   0  0  0  0  0  0
  -17.6500  -30.6607   24.0551 C   0  0  0  0  0  0
  -25.9139  -34.9266   23.4932 C   0  0  0  0  0  0
  -16.5390  -29.9086   23.6352 C   0  0  0  0  0  0
  -16.7321  -28.6511   23.0366 C   0  0  0  0  0  0
  -26.4603  -31.6498   25.0690 C   0  0  0  0  0  0
  -25.3640  -31.3842   26.1283 C   0  0  0  0  0  0
  -27.0546  -30.2825   24.6655 C   0  0  0  0  0  0
  -27.6038  -32.4379   25.7509 C   0  0  0  0  0  0
  -27.5568  -37.1720   24.8457 C   0  0  0  0  0  0
  -21.4427  -29.3026   22.3454 N   0  0  0  0  0  0
  -26.4268  -37.3644   23.9409 N   0  0  0  0  0  0
  -24.7932  -30.9302   22.0781 N   0  0  0  0  0  0
  -23.4211  -28.7892   23.3063 O   0  0  0  0  0  0
  -28.0878  -25.3384   20.2454 O   0  0  0  0  0  0
  -26.5786  -34.8854   22.4554 O   0  0  0  0  0  0
  -23.5905  -32.1061   23.6384 O   0  0  0  0  0  0
  -28.8994  -16.4736   18.8567 C   0  0  0  0  0  0
  -28.8572  -14.7724   18.7051 C   0  0  0  0  0  0
  -29.4263  -14.8938   22.0013 C   0  0  0  0  0  0
  -29.0859  -17.3924   20.2251 C   0  0  0  0  0  0
  -29.3122  -13.6922   20.6801 C   0  0  0  0  0  0
  -29.3802  -16.5448   21.6266 C   0  0  0  0  0  0
  -28.5110  -22.3188   20.2117 C   0  0  0  0  0  0
  -29.9792  -22.2792   20.4184 C   0  0  0  0  0  0
  -27.8128  -23.7217   20.1633 C   0  0  0  0  0  0
  -28.1255  -20.5040   20.1032 C   0  0  0  0  0  0
  -30.7696  -20.9785   20.0554 C   0  0  0  0  0  0
  -30.3430  -19.6124   20.7208 C   0  0  0  0  0  0
  -30.9787  -12.1254   21.8505 C   0  0  0  0  0  0
  -29.0709  -19.0570   20.2317 N   0  0  0  0  0  0
  -30.6241  -13.3301   21.1117 N   0  0  0  0  0  0
  -30.6175  -23.2514   20.8350 O   0  0  0  0  0  0
  -29.6022  -17.3360   22.7037 F   0  0  0  0  0  0
  -31.1215  -14.2573   17.8351 H   0  0  0  0  0  0
  -31.9647  -13.2167   18.7583 H   0  0  0  0  0  0
  -30.2176  -11.5229   18.7968 H   0  0  0  0  0  0
  -29.8035  -12.2961   17.3430 H   0  0  0  0  0  0
  -28.0570  -11.4532   19.5158 H   0  0  0  0  0  0
  -27.5194  -12.0276   18.0038 H   0  0  0  0  0  0
  -26.5611  -13.9463   18.8388 H   0  0  0  0  0  0
  -27.2690  -15.1412   21.5215 H   0  0  0  0  0  0
  -27.1168  -15.9913   20.1509 H   0  0  0  0  0  0
  -25.2511   -9.5603   22.4973 H   0  0  0  0  0  0
  -23.9933   -7.4379   22.7456 H   0  0  0  0  0  0
  -21.0745   -8.8451   19.8880 H   0  0  0  0  0  0
  -22.3431  -10.9466   19.6291 H   0  0  0  0  0  0
  -21.1948   -7.6086   23.9684 H   0  0  0  0  0  0
  -21.1479   -6.0499   25.9084 H   0  0  0  0  0  0
  -22.0616   -2.7543   23.2922 H   0  0  0  0  0  0
  -22.2729  -11.9299   22.5675 H   0  0  0  0  0  0
  -20.9400  -13.0239   22.3329 H   0  0  0  0  0  0
  -24.0626  -15.7341   20.4980 H   0  0  0  0  0  0
  -25.6697  -15.7340   19.9691 H   0  0  0  0  0  0
  -26.7533  -32.4869   23.0741 H   0  0  0  0  0  0
  -25.0060  -33.9297   25.0000 H   0  0  0  0  0  0
  -22.8447  -31.2382   21.3155 H   0  0  0  0  0  0
  -23.3788  -35.9434   23.3239 H   0  0  0  0  0  0
  -24.3574  -36.8876   22.2082 H   0  0  0  0  0  0
  -23.7232  -37.6276   23.6786 H   0  0  0  0  0  0
  -26.3182  -31.2131   20.6378 H   0  0  0  0  0  0
  -26.9469  -30.5577   22.0975 H   0  0  0  0  0  0
  -28.1379  -28.2688   21.3459 H   0  0  0  0  0  0
  -25.7804  -25.6058   18.9471 H   0  0  0  0  0  0
  -24.0141  -27.2415   18.8930 H   0  0  0  0  0  0
  -23.9574  -30.4586   19.3817 H   0  0  0  0  0  0
  -22.8694  -29.1764   19.8080 H   0  0  0  0  0  0
  -25.1368  -36.1620   25.0762 H   0  0  0  0  0  0
  -21.0066  -28.3414   24.1268 H   0  0  0  0  0  0
  -20.5685  -26.2409   23.3675 H   0  0  0  0  0  0
  -21.6670  -26.7390   22.1220 H   0  0  0  0  0  0
  -19.6940  -25.6259   21.1307 H   0  0  0  0  0  0
  -19.6728  -27.3136   20.6726 H   0  0  0  0  0  0
  -17.4239  -26.6704   21.4021 H   0  0  0  0  0  0
  -18.0343  -26.0116   22.9036 H   0  0  0  0  0  0
  -19.7987  -30.7357   24.2156 H   0  0  0  0  0  0
  -17.5047  -31.6278   24.5167 H   0  0  0  0  0  0
  -15.5387  -30.2962   23.7721 H   0  0  0  0  0  0
  -15.8724  -28.0805   22.7122 H   0  0  0  0  0  0
  -24.5860  -30.7158   25.7574 H   0  0  0  0  0  0
  -24.8790  -32.3071   26.4473 H   0  0  0  0  0  0
  -25.7790  -30.9155   27.0215 H   0  0  0  0  0  0
  -26.3271  -29.6408   24.1672 H   0  0  0  0  0  0
  -27.3958  -29.7317   25.5432 H   0  0  0  0  0  0
  -27.9267  -30.3928   24.0208 H   0  0  0  0  0  0
  -27.2572  -33.3765   26.1848 H   0  0  0  0  0  0
  -28.3969  -32.6802   25.0421 H   0  0  0  0  0  0
  -28.0573  -31.8666   26.5620 H   0  0  0  0  0  0
  -28.2520  -38.0075   24.7546 H   0  0  0  0  0  0
  -28.1128  -36.2599   24.6237 H   0  0  0  0  0  0
  -27.2286  -37.1294   25.8857 H   0  0  0  0  0  0
  -20.9740  -29.8678   21.6510 H   0  0  0  0  0  0
  -26.0083  -38.2679   24.1446 H   0  0  0  0  0  0
  -28.7343  -17.0262   17.9440 H   0  0  0  0  0  0
  -28.6702  -14.3873   17.7085 H   0  0  0  0  0  0
  -29.7124  -14.6058   23.0048 H   0  0  0  0  0  0
  -26.7462  -23.6286   20.0219 H   0  0  0  0  0  0
  -27.6167  -20.4070   19.1439 H   0  0  0  0  0  0
  -27.3270  -20.3683   20.8330 H   0  0  0  0  0  0
  -31.8130  -21.1647   20.3112 H   0  0  0  0  0  0
  -30.7539  -20.8703   18.9706 H   0  0  0  0  0  0
  -30.2817  -19.7364   21.8033 H   0  0  0  0  0  0
  -31.1379  -18.8851   20.5467 H   0  0  0  0  0  0
  -30.8511  -12.2847   22.9211 H   0  0  0  0  0  0
  -32.0157  -11.8447   21.6650 H   0  0  0  0  0  0
  -30.3411  -11.2934   21.5502 H   0  0  0  0  0  0
  1 25  1  0  0  0
  1 30  2  0  0  0
  1 85  1  0  0  0
  2  3  1  0  0  0
  2 25  1  0  0  0
  2 88  1  0  0  0
  2 89  1  0  0  0
  3  4  1  0  0  0
  3 90  1  0  0  0
  3 91  1  0  0  0
  4  5  1  0  0  0
  4 92  1  0  0  0
  4 93  1  0  0  0
  5  6  1  0  0  0
  5 26  1  0  0  0
  5 94  1  0  0  0
  6 25  1  0  0  0
  6 95  1  0  0  0
  6 96  1  0  0  0
  7  8  2  0  0  0
  7 26  1  0  0  0
  7 29  1  0  0  0
  8  9  1  0  0  0
  8 22  1  0  0  0
  9 10  1  0  0  0
  9 27  2  0  0  0
 10 11  2  0  0  0
 10 15  1  0  0  0
 11 12  1  0  0  0
 11 97  1  0  0  0
 12 13  2  0  0  0
 12 98  1  0  0  0
 13 14  1  0  0  0
 13 31  1  0  0  0
 14 15  2  0  0  0
 14 99  1  0  0  0
 15100  1  0  0  0
 16 17  2  0  0  0
 16 21  1  0  0  0
 16 31  1  0  0  0
 17 18  1  0  0  0
 17101  1  0  0  0
 18 19  2  0  0  0
 18102  1  0  0  0
 19 20  1  0  0  0
 19 24  1  0  0  0
 20 21  2  0  0  0
 20103  1  0  0  0
 21 23  1  0  0  0
 22 28  1  0  0  0
 22 32  2  0  0  0
 26 27  1  0  0  0
 28104  1  0  0  0
 28105  1  0  0  0
 29106  1  0  0  0
 29107  1  0  0  0
 33 34  1  0  0  0
 33 66  1  0  0  0
 33 70  2  0  0  0
 34 36  1  0  0  0
 34 59  1  0  0  0
 34108  1  0  0  0
 35 44  2  0  0  0
 35 45  1  0  0  0
 35 68  1  0  0  0
 36 56  1  0  0  0
 36109  1  0  0  0
 37 39  1  0  0  0
 37 47  1  0  0  0
 37 66  1  0  0  0
 37110  1  0  0  0
 38 43  2  0  0  0
 38 46  1  0  0  0
 38 47  1  0  0  0
 39 64  1  0  0  0
 39 67  2  0  0  0
 40 52  1  0  0  0
 40 53  2  0  0  0
 40 58  1  0  0  0
 41111  1  0  0  0
 41112  1  0  0  0
 41113  1  0  0  0
 41 48  1  0  0  0
 42 43  1  0  0  0
 42 66  1  0  0  0
 42114  1  0  0  0
 42115  1  0  0  0
 43 44  1  0  0  0
 44116  1  0  0  0
 45 46  2  0  0  0
 45117  1  0  0  0
 46118  1  0  0  0
 47119  1  0  0  0
 47120  1  0  0  0
 48 56  1  0  0  0
 48 65  1  0  0  0
 48121  1  0  0  0
 49 50  1  0  0  0
 49 53  1  0  0  0
 49 64  1  0  0  0
 49122  1  0  0  0
 50 51  1  0  0  0
 50123  1  0  0  0
 50124  1  0  0  0
 51 52  1  0  0  0
 51125  1  0  0  0
 51126  1  0  0  0
 52127  1  0  0  0
 52128  1  0  0  0
 53 54  1  0  0  0
 54 55  2  0  0  0
 54129  1  0  0  0
 55 57  1  0  0  0
 55130  1  0  0  0
 56 69  2  0  0  0
 57 58  2  0  0  0
 57131  1  0  0  0
 58132  1  0  0  0
 59 60  1  0  0  0
 59 61  1  0  0  0
 59 62  1  0  0  0
 60133  1  0  0  0
 60134  1  0  0  0
 60135  1  0  0  0
 61136  1  0  0  0
 61137  1  0  0  0
 61138  1  0  0  0
 62139  1  0  0  0
 62140  1  0  0  0
 62141  1  0  0  0
 63 65  1  0  0  0
 63142  1  0  0  0
 63143  1  0  0  0
 63144  1  0  0  0
 64145  1  0  0  0
 65146  1  0  0  0
 68 79  1  0  0  0
 71 72  2  0  0  0
 71 74  1  0  0  0
 71147  1  0  0  0
 72 75  1  0  0  0
 72148  1  0  0  0
 73 75  2  0  0  0
 73 76  1  0  0  0
 73149  1  0  0  0
 74 76  2  0  0  0
 74 84  1  0  0  0
 75 85  1  0  0  0
 76 87  1  0  0  0
 77 78  1  0  0  0
 77 79  2  0  0  0
 77 80  1  0  0  0
 78 81  1  0  0  0
 78 86  2  0  0  0
 79150  1  0  0  0
 80 84  1  0  0  0
 80151  1  0  0  0
 80152  1  0  0  0
 81 82  1  0  0  0
 81153  1  0  0  0
 81154  1  0  0  0
 82 84  1  0  0  0
 82155  1  0  0  0
 82156  1  0  0  0
 83 85  1  0  0  0
 83157  1  0  0  0
 83158  1  0  0  0
 83159  1  0  0  0
M  ISO  4   1 100  68 101  79 101  85 100
M  END
> <chiral flag>
0

> <version>
0

> <s_m_source_file>
/data/baiqing/PycharmProjects/Reinvent-master-3.2/result/LINK_invent/BTK/process_docking_weight1_custom_product_contain_oxygen_bond_distance_aromatic_linkinvent_7_9_3/rearranged_h_0093.sdf

> <i_m_source_file_index>
19

> <r_mmod_Potential_Energy-OPLS-2005>
13196.5078125

> <r_mmod_Stretch_Energy-OPLS-2005>
7117.11474609375

> <r_mmod_Bend_Energy-OPLS-2005>
956.086669921875

> <r_mmod_Torsional_Energy-OPLS-2005>
459.31103515625

> <r_mmod_Improper_Torsional_Energy-OPLS-2005>
46.6922340393066

> <r_mmod_Van_der_Waal_Energy-OPLS-2005>
3045.85083007812

> <r_mmod_Electrostatic_Energy-OPLS-2005>
-251.566528320312

> <r_mmod_Solvation_Energy-OPLS-2005>
-220.59716796875

> <b_mmod_Minimization_Converged-OPLS-2005>
0

> <r_mmod_RMS_Derivative-OPLS-2005>
1.84945034980774

$$$$
20
                    3D
 Structure written by MMmdl.
160168  0  0  1  0            999 V2000
  -30.7179  -14.7557   20.5105 C   0  0  0  0  0  0
  -30.4310  -12.5129   19.4345 C   0  0  0  0  0  0
  -29.4867  -12.5148   18.2131 C   0  0  0  0  0  0
  -28.0233  -12.2906   18.6425 C   0  0  0  0  0  0
  -27.6264  -13.1770   19.8468 C   0  0  2  0  0  0
  -28.7009  -13.1127   20.9524 C   0  0  0  0  0  0
  -25.2358  -13.7897   20.5613 C   0  0  0  0  0  0
  -24.1689  -13.0226   20.9258 C   0  0  0  0  0  0
  -24.6301  -11.6731   20.8844 C   0  0  0  0  0  0
  -23.8990  -10.4168   21.0471 C   0  0  0  0  0  0
  -24.3559   -9.4097   21.9236 C   0  0  0  0  0  0
  -23.6236   -8.2144   22.0775 C   0  0  0  0  0  0
  -22.4225   -8.0215   21.3547 C   0  0  0  0  0  0
  -21.9858   -9.0187   20.4654 C   0  0  0  0  0  0
  -22.7185  -10.2057   20.3088 C   0  0  0  0  0  0
  -21.6817   -6.0703   22.5288 C   0  0  0  0  0  0
  -21.3986   -6.5620   23.8219 C   0  0  0  0  0  0
  -21.3649   -5.6779   24.9187 C   0  0  0  0  0  0
  -21.6045   -4.3044   24.7239 C   0  0  0  0  0  0
  -21.8819   -3.8130   23.4362 C   0  0  0  0  0  0
  -21.9181   -4.6939   22.3415 C   0  0  0  0  0  0
  -22.7734  -13.5092   21.1884 C   0  0  0  0  0  0
  -22.1660   -4.2129   21.0992 F   0  0  0  0  0  0
  -21.5629   -3.4532   25.7753 F   0  0  0  0  0  0
  -29.9753  -13.5831   20.3672 N   0  0  0  0  0  0
  -26.2834  -12.9066   20.3351 N   0  0  0  0  0  0
  -25.9221  -11.6269   20.5885 N   0  0  0  0  0  0
  -22.0362  -12.8146   22.0472 N   0  0  0  0  0  0
  -25.3670  -15.1567   20.3751 N   0  0  0  0  0  0
  -31.9122  -14.7143   20.2205 O   0  0  0  0  0  0
  -21.6583   -6.8826   21.4245 O   0  0  0  0  0  0
  -22.3455  -14.5405   20.6708 O   0  0  0  0  0  0
  -24.6252  -31.8596   23.2015 C   0  0  0  0  0  0
  -25.9098  -32.4781   23.8350 C   0  0  1  0  0  0
  -27.2417  -27.3334   20.1185 C   0  0  0  0  0  0
  -25.5917  -33.8580   24.2280 N   0  0  0  0  0  0
  -23.4217  -30.4785   21.5438 C   0  0  2  0  0  0
  -24.8749  -28.9300   20.1157 C   0  0  0  0  0  0
  -22.7477  -29.4603   22.4943 C   0  0  0  0  0  0
  -18.0287  -28.1375   22.8489 C   0  0  0  0  0  0
  -24.1490  -36.7296   23.2638 C   0  0  0  0  0  0
  -25.9604  -30.7927   21.3727 C   0  0  0  0  0  0
  -26.0413  -29.4179   20.7209 C   0  0  0  0  0  0
  -27.2304  -28.6293   20.7170 C   0  0  0  0  0  0
  -26.0564  -26.8877   19.5010 C   0  0  0  0  0  0
  -24.8824  -27.6675   19.4988 C   0  0  0  0  0  0
  -23.6397  -29.8076   20.1613 C   0  0  0  0  0  0
  -25.4115  -36.3087   24.0331 C   0  0  1  0  0  0
  -20.5884  -28.3678   23.1292 C   0  0  2  0  0  0
  -20.6778  -26.9404   22.5412 C   0  0  0  0  0  0
  -19.5756  -26.6380   21.5213 C   0  0  0  0  0  0
  -18.1934  -26.7919   22.1625 C   0  0  0  0  0  0
  -19.1537  -28.8846   23.2884 C   0  0  0  0  0  0
  -18.9460  -30.1447   23.8898 C   0  0  0  0  0  0
  -17.6460  -30.6580   24.0560 C   0  0  0  0  0  0
  -25.9048  -34.9454   23.5105 C   0  0  0  0  0  0
  -16.5351  -29.9078   23.6325 C   0  0  0  0  0  0
  -16.7273  -28.6493   23.0350 C   0  0  0  0  0  0
  -26.4488  -31.6585   25.0713 C   0  0  0  0  0  0
  -25.3722  -31.3725   26.1439 C   0  0  0  0  0  0
  -27.0329  -30.3014   24.6153 C   0  0  0  0  0  0
  -27.6053  -32.4314   25.7484 C   0  0  0  0  0  0
  -27.5581  -37.1804   24.8467 C   0  0  0  0  0  0
  -21.4188  -29.3034   22.3691 N   0  0  0  0  0  0
  -26.4298  -37.3779   23.9402 N   0  0  0  0  0  0
  -24.6875  -31.0605   22.0966 N   0  0  0  0  0  0
  -23.4200  -28.8148   23.3031 O   0  0  0  0  0  0
  -28.3392  -26.4658   20.1017 O   0  0  0  0  0  0
  -26.5618  -34.8922   22.4672 O   0  0  0  0  0  0
  -23.5414  -32.1392   23.7338 O   0  0  0  0  0  0
  -26.9002  -20.0080   21.6213 C   0  0  0  0  0  0
  -27.3987  -18.7041   21.5456 C   0  0  0  0  0  0
  -27.6525  -21.0747   21.1354 C   0  0  0  0  0  0
  -29.4498  -19.4990   20.5476 C   0  0  0  0  0  0
  -28.6766  -18.3611   21.0103 C   0  0  0  0  0  0
  -28.9435  -20.8707   20.6096 C   0  0  0  0  0  0
  -27.2039  -16.9982   18.8724 C   0  0  0  0  0  0
  -28.2987  -16.4692   19.4480 C   0  0  0  0  0  0
  -28.3774  -25.4711   21.0862 C   0  0  0  0  0  0
  -28.8168  -24.1580   21.0853 C   0  0  0  0  0  0
  -29.3656  -23.3836   19.9315 C   0  0  0  0  0  0
  -28.2658  -16.0976   22.0793 C   0  0  0  0  0  0
  -28.9103  -16.7692   20.8259 C   0  0  2  0  0  0
  -29.6385  -22.0244   20.0354 N   0  0  0  0  0  0
  -30.2413  -16.0535   20.7619 N   0  0  0  0  0  0
  -29.6304  -23.9291   18.8596 O   0  0  0  0  0  0
  -28.7868  -23.5416   22.2769 O   0  0  0  0  0  0
  -31.4553  -12.6540   19.0867 H   0  0  0  0  0  0
  -30.4329  -11.5377   19.9242 H   0  0  0  0  0  0
  -29.7892  -11.7459   17.5010 H   0  0  0  0  0  0
  -29.5715  -13.4670   17.6872 H   0  0  0  0  0  0
  -27.9112  -11.2391   18.9105 H   0  0  0  0  0  0
  -27.3499  -12.4637   17.8022 H   0  0  0  0  0  0
  -27.5779  -14.1704   19.4452 H   0  0  0  0  0  0
  -28.8051  -12.0790   21.2859 H   0  0  0  0  0  0
  -28.3819  -13.6074   21.8534 H   0  0  0  0  0  0
  -25.2698   -9.5572   22.4817 H   0  0  0  0  0  0
  -23.9935   -7.4525   22.7487 H   0  0  0  0  0  0
  -21.0791   -8.8714   19.8955 H   0  0  0  0  0  0
  -22.3662  -10.9614   19.6208 H   0  0  0  0  0  0
  -21.1971   -7.6127   23.9719 H   0  0  0  0  0  0
  -21.1474   -6.0509   25.9089 H   0  0  0  0  0  0
  -22.0609   -2.7592   23.2872 H   0  0  0  0  0  0
  -22.3961  -11.9828   22.4910 H   0  0  0  0  0  0
  -21.0988  -13.1213   22.2662 H   0  0  0  0  0  0
  -24.5697  -15.7783   20.4421 H   0  0  0  0  0  0
  -26.1920  -15.6068   19.9941 H   0  0  0  0  0  0
  -26.7167  -32.5468   23.1102 H   0  0  0  0  0  0
  -25.0064  -33.9727   25.0426 H   0  0  0  0  0  0
  -22.7145  -31.2973   21.3968 H   0  0  0  0  0  0
  -23.3749  -35.9634   23.3312 H   0  0  0  0  0  0
  -24.3579  -36.8903   22.2050 H   0  0  0  0  0  0
  -23.7250  -37.6505   23.6651 H   0  0  0  0  0  0
  -26.0862  -31.5531   20.6010 H   0  0  0  0  0  0
  -26.8419  -30.8477   21.9995 H   0  0  0  0  0  0
  -28.1291  -28.9986   21.1904 H   0  0  0  0  0  0
  -26.0408  -25.9142   19.0315 H   0  0  0  0  0  0
  -23.9891  -27.2847   19.0252 H   0  0  0  0  0  0
  -23.7559  -30.5812   19.4012 H   0  0  0  0  0  0
  -22.7617  -29.2329   19.8618 H   0  0  0  0  0  0
  -25.1295  -36.1941   25.0826 H   0  0  0  0  0  0
  -20.9976  -28.3245   24.1415 H   0  0  0  0  0  0
  -20.5674  -26.2284   23.3605 H   0  0  0  0  0  0
  -21.6647  -26.7430   22.1210 H   0  0  0  0  0  0
  -19.6915  -25.6294   21.1235 H   0  0  0  0  0  0
  -19.6693  -27.3193   20.6746 H   0  0  0  0  0  0
  -17.4205  -26.6669   21.4023 H   0  0  0  0  0  0
  -18.0330  -26.0057   22.9018 H   0  0  0  0  0  0
  -19.7936  -30.7262   24.2269 H   0  0  0  0  0  0
  -17.5014  -31.6262   24.5158 H   0  0  0  0  0  0
  -15.5351  -30.2979   23.7650 H   0  0  0  0  0  0
  -15.8672  -28.0814   22.7068 H   0  0  0  0  0  0
  -24.5901  -30.7070   25.7764 H   0  0  0  0  0  0
  -24.8908  -32.2893   26.4854 H   0  0  0  0  0  0
  -25.8045  -30.8908   27.0218 H   0  0  0  0  0  0
  -26.2900  -29.6765   24.1183 H   0  0  0  0  0  0
  -27.4041  -29.7265   25.4645 H   0  0  0  0  0  0
  -27.8760  -30.4304   23.9364 H   0  0  0  0  0  0
  -27.2669  -33.3612   26.2070 H   0  0  0  0  0  0
  -28.3862  -32.6875   25.0310 H   0  0  0  0  0  0
  -28.0724  -31.8431   26.5393 H   0  0  0  0  0  0
  -28.2606  -38.0093   24.7498 H   0  0  0  0  0  0
  -28.1067  -36.2621   24.6311 H   0  0  0  0  0  0
  -27.2296  -37.1480   25.8870 H   0  0  0  0  0  0
  -20.9364  -29.8768   21.6910 H   0  0  0  0  0  0
  -26.0179  -38.2857   24.1394 H   0  0  0  0  0  0
  -25.9046  -20.1824   22.0056 H   0  0  0  0  0  0
  -26.6944  -17.9433   21.8471 H   0  0  0  0  0  0
  -27.1884  -22.0481   21.1448 H   0  0  0  0  0  0
  -30.4068  -19.3115   20.0818 H   0  0  0  0  0  0
  -26.9120  -16.6921   17.8780 H   0  0  0  0  0  0
  -26.5771  -17.7323   19.3527 H   0  0  0  0  0  0
  -28.8291  -15.7612   18.8280 H   0  0  0  0  0  0
  -27.9966  -25.8909   22.0084 H   0  0  0  0  0  0
  -27.2975  -15.6484   21.8908 H   0  0  0  0  0  0
  -28.9134  -15.3784   22.5726 H   0  0  0  0  0  0
  -28.1461  -16.7832   22.9176 H   0  0  0  0  0  0
  -30.3114  -21.7473   19.3358 H   0  0  0  0  0  0
  -31.0116  -16.7031   20.8072 H   0  0  0  0  0  0
  -28.4405  -24.1554   22.9099 H   0  0  0  0  0  0
  1 25  1  0  0  0
  1 30  2  0  0  0
  1 85  1  0  0  0
  2  3  1  0  0  0
  2 25  1  0  0  0
  2 88  1  0  0  0
  2 89  1  0  0  0
  3  4  1  0  0  0
  3 90  1  0  0  0
  3 91  1  0  0  0
  4  5  1  0  0  0
  4 92  1  0  0  0
  4 93  1  0  0  0
  5  6  1  0  0  0
  5 26  1  0  0  0
  5 94  1  0  0  0
  6 25  1  0  0  0
  6 95  1  0  0  0
  6 96  1  0  0  0
  7  8  2  0  0  0
  7 26  1  0  0  0
  7 29  1  0  0  0
  8  9  1  0  0  0
  8 22  1  0  0  0
  9 10  1  0  0  0
  9 27  2  0  0  0
 10 11  2  0  0  0
 10 15  1  0  0  0
 11 12  1  0  0  0
 11 97  1  0  0  0
 12 13  2  0  0  0
 12 98  1  0  0  0
 13 14  1  0  0  0
 13 31  1  0  0  0
 14 15  2  0  0  0
 14 99  1  0  0  0
 15100  1  0  0  0
 16 17  2  0  0  0
 16 21  1  0  0  0
 16 31  1  0  0  0
 17 18  1  0  0  0
 17101  1  0  0  0
 18 19  2  0  0  0
 18102  1  0  0  0
 19 20  1  0  0  0
 19 24  1  0  0  0
 20 21  2  0  0  0
 20103  1  0  0  0
 21 23  1  0  0  0
 22 28  1  0  0  0
 22 32  2  0  0  0
 26 27  1  0  0  0
 28104  1  0  0  0
 28105  1  0  0  0
 29106  1  0  0  0
 29107  1  0  0  0
 33 34  1  0  0  0
 33 66  1  0  0  0
 33 70  2  0  0  0
 34 36  1  0  0  0
 34 59  1  0  0  0
 34108  1  0  0  0
 35 44  2  0  0  0
 35 45  1  0  0  0
 35 68  1  0  0  0
 36 56  1  0  0  0
 36109  1  0  0  0
 37 39  1  0  0  0
 37 47  1  0  0  0
 37 66  1  0  0  0
 37110  1  0  0  0
 38 43  2  0  0  0
 38 46  1  0  0  0
 38 47  1  0  0  0
 39 64  1  0  0  0
 39 67  2  0  0  0
 40 52  1  0  0  0
 40 53  2  0  0  0
 40 58  1  0  0  0
 41111  1  0  0  0
 41112  1  0  0  0
 41113  1  0  0  0
 41 48  1  0  0  0
 42 43  1  0  0  0
 42 66  1  0  0  0
 42114  1  0  0  0
 42115  1  0  0  0
 43 44  1  0  0  0
 44116  1  0  0  0
 45 46  2  0  0  0
 45117  1  0  0  0
 46118  1  0  0  0
 47119  1  0  0  0
 47120  1  0  0  0
 48 56  1  0  0  0
 48 65  1  0  0  0
 48121  1  0  0  0
 49 50  1  0  0  0
 49 53  1  0  0  0
 49 64  1  0  0  0
 49122  1  0  0  0
 50 51  1  0  0  0
 50123  1  0  0  0
 50124  1  0  0  0
 51 52  1  0  0  0
 51125  1  0  0  0
 51126  1  0  0  0
 52127  1  0  0  0
 52128  1  0  0  0
 53 54  1  0  0  0
 54 55  2  0  0  0
 54129  1  0  0  0
 55 57  1  0  0  0
 55130  1  0  0  0
 56 69  2  0  0  0
 57 58  2  0  0  0
 57131  1  0  0  0
 58132  1  0  0  0
 59 60  1  0  0  0
 59 61  1  0  0  0
 59 62  1  0  0  0
 60133  1  0  0  0
 60134  1  0  0  0
 60135  1  0  0  0
 61136  1  0  0  0
 61137  1  0  0  0
 61138  1  0  0  0
 62139  1  0  0  0
 62140  1  0  0  0
 62141  1  0  0  0
 63 65  1  0  0  0
 63142  1  0  0  0
 63143  1  0  0  0
 63144  1  0  0  0
 64145  1  0  0  0
 65146  1  0  0  0
 68 79  1  0  0  0
 71 72  2  0  0  0
 71 73  1  0  0  0
 71147  1  0  0  0
 72 75  1  0  0  0
 72148  1  0  0  0
 73 76  2  0  0  0
 73149  1  0  0  0
 74 75  2  0  0  0
 74 76  1  0  0  0
 74150  1  0  0  0
 75 83  1  0  0  0
 76 84  1  0  0  0
 77 78  2  0  0  0
 77151  1  0  0  0
 77152  1  0  0  0
 78153  1  0  0  0
 78 83  1  0  0  0
 79 80  2  0  0  0
 79154  1  0  0  0
 80 81  1  0  0  0
 80 87  1  0  0  0
 81 84  1  0  0  0
 81 86  2  0  0  0
 82155  1  0  0  0
 82156  1  0  0  0
 82157  1  0  0  0
 82 83  1  0  0  0
 83 85  1  0  0  0
 84158  1  0  0  0
 85159  1  0  0  0
 87160  1  0  0  0
M  ISO  4   1 100  68 101  79 101  85 100
M  END
> <chiral flag>
0

> <version>
0

> <s_m_source_file>
/data/baiqing/PycharmProjects/Reinvent-master-3.2/result/LINK_invent/BTK/process_docking_weight1_custom_product_contain_oxygen_bond_distance_aromatic_linkinvent_7_9_3/rearranged_h_0093.sdf

> <i_m_source_file_index>
20

> <r_mmod_Potential_Energy-OPLS-2005>
331.762603759766

> <r_mmod_Stretch_Energy-OPLS-2005>
115.072738647461

> <r_mmod_Bend_Energy-OPLS-2005>
307.776794433594

> <r_mmod_Torsional_Energy-OPLS-2005>
314.032684326172

> <r_mmod_Improper_Torsional_Energy-OPLS-2005>
7.92655277252197

> <r_mmod_Van_der_Waal_Energy-OPLS-2005>
191.045623779297

> <r_mmod_Electrostatic_Energy-OPLS-2005>
-460.879028320312

> <r_mmod_Solvation_Energy-OPLS-2005>
-217.238967895508

> <b_mmod_Minimization_Converged-OPLS-2005>
0

> <r_mmod_RMS_Derivative-OPLS-2005>
0.863212287425995

$$$$
21
                    3D
 Structure written by MMmdl.
166175  0  0  1  0            999 V2000
  -30.6368  -14.7409   20.3609 C   0  0  0  0  0  0
  -30.4478  -12.4179   19.4720 C   0  0  0  0  0  0
  -29.5204  -12.3482   18.2389 C   0  0  0  0  0  0
  -28.0327  -12.2821   18.6540 C   0  0  0  0  0  0
  -27.6414  -13.2150   19.8376 C   0  0  2  0  0  0
  -28.7008  -13.2101   20.9603 C   0  0  0  0  0  0
  -25.2590  -13.8177   20.5716 C   0  0  0  0  0  0
  -24.1841  -13.0460   20.9214 C   0  0  0  0  0  0
  -24.6388  -11.6923   20.8783 C   0  0  0  0  0  0
  -23.9066  -10.4306   21.0417 C   0  0  0  0  0  0
  -24.3625   -9.4226   21.9184 C   0  0  0  0  0  0
  -23.6310   -8.2255   22.0736 C   0  0  0  0  0  0
  -22.4302   -8.0291   21.3521 C   0  0  0  0  0  0
  -21.9932   -9.0278   20.4639 C   0  0  0  0  0  0
  -22.7253  -10.2158   20.3051 C   0  0  0  0  0  0
  -21.6874   -6.0758   22.5274 C   0  0  0  0  0  0
  -21.4022   -6.5655   23.8211 C   0  0  0  0  0  0
  -21.3652   -5.6801   24.9168 C   0  0  0  0  0  0
  -21.6044   -4.3069   24.7202 C   0  0  0  0  0  0
  -21.8834   -3.8160   23.4332 C   0  0  0  0  0  0
  -21.9201   -4.6982   22.3399 C   0  0  0  0  0  0
  -22.7871  -13.5254   21.1853 C   0  0  0  0  0  0
  -22.1665   -4.2170   21.0972 F   0  0  0  0  0  0
  -21.5613   -3.4538   25.7707 F   0  0  0  0  0  0
  -29.9934  -13.5247   20.3400 N   0  0  0  0  0  0
  -26.2987  -12.9337   20.3327 N   0  0  0  0  0  0
  -25.9327  -11.6513   20.5858 N   0  0  0  0  0  0
  -22.0513  -12.8235   22.0410 N   0  0  0  0  0  0
  -25.4370  -15.1888   20.4107 N   0  0  0  0  0  0
  -31.8629  -14.7887   20.2279 O   0  0  0  0  0  0
  -21.6661   -6.8897   21.4232 O   0  0  0  0  0  0
  -22.3573  -14.5575   20.6731 O   0  0  0  0  0  0
  -24.6236  -31.8619   23.2053 C   0  0  0  0  0  0
  -25.9108  -32.4788   23.8357 C   0  0  1  0  0  0
  -27.2189  -27.3428   20.1134 C   0  0  0  0  0  0
  -25.5945  -33.8586   24.2300 N   0  0  0  0  0  0
  -23.4134  -30.4892   21.5480 C   0  0  2  0  0  0
  -24.8581  -28.9500   20.1094 C   0  0  0  0  0  0
  -22.7463  -29.4646   22.4943 C   0  0  0  0  0  0
  -18.0278  -28.1383   22.8518 C   0  0  0  0  0  0
  -24.1493  -36.7309   23.2626 C   0  0  0  0  0  0
  -25.9517  -30.8022   21.3681 C   0  0  0  0  0  0
  -26.0261  -29.4305   20.7134 C   0  0  0  0  0  0
  -27.2097  -28.6389   20.7062 C   0  0  0  0  0  0
  -26.0272  -26.9086   19.4851 C   0  0  0  0  0  0
  -24.8594  -27.6928   19.4857 C   0  0  0  0  0  0
  -23.6258  -29.8293   20.1600 C   0  0  0  0  0  0
  -25.4104  -36.3087   24.0330 C   0  0  1  0  0  0
  -20.5885  -28.3690   23.1312 C   0  0  2  0  0  0
  -20.6783  -26.9415   22.5420 C   0  0  0  0  0  0
  -19.5738  -26.6388   21.5244 C   0  0  0  0  0  0
  -18.1917  -26.7934   22.1650 C   0  0  0  0  0  0
  -19.1535  -28.8848   23.2913 C   0  0  0  0  0  0
  -18.9453  -30.1457   23.8920 C   0  0  0  0  0  0
  -17.6452  -30.6591   24.0568 C   0  0  0  0  0  0
  -25.9052  -34.9454   23.5114 C   0  0  0  0  0  0
  -16.5339  -29.9100   23.6320 C   0  0  0  0  0  0
  -16.7261  -28.6506   23.0356 C   0  0  0  0  0  0
  -26.4479  -31.6566   25.0708 C   0  0  0  0  0  0
  -25.3742  -31.3696   26.1455 C   0  0  0  0  0  0
  -27.0284  -30.2975   24.6136 C   0  0  0  0  0  0
  -27.6055  -32.4270   25.7504 C   0  0  0  0  0  0
  -27.5579  -37.1808   24.8452 C   0  0  0  0  0  0
  -21.4174  -29.3061   22.3717 N   0  0  0  0  0  0
  -26.4276  -37.3784   23.9427 N   0  0  0  0  0  0
  -24.6826  -31.0663   22.0991 N   0  0  0  0  0  0
  -23.4210  -28.8169   23.2990 O   0  0  0  0  0  0
  -28.3463  -26.5126   20.1659 O   0  0  0  0  0  0
  -26.5606  -34.8912   22.4678 O   0  0  0  0  0  0
  -23.5416  -32.1407   23.7421 O   0  0  0  0  0  0
  -28.9822  -19.3036   21.3939 C   0  0  0  0  0  0
  -29.0188  -17.8845   21.2409 C   0  0  0  0  0  0
  -31.0751  -18.0859   19.9961 C   0  0  0  0  0  0
  -29.9795  -20.1511   20.8397 C   0  0  0  0  0  0
  -30.0621  -17.2325   20.5288 C   0  0  0  0  0  0
  -31.0330  -19.5069   20.1314 C   0  0  0  0  0  0
  -30.7667  -22.0510   22.1069 C   0  0  0  0  0  0
  -30.8520  -23.5554   22.4073 C   0  0  0  0  0  0
  -29.6106  -24.3537   21.9993 C   0  0  0  0  0  0
  -29.0416  -22.5285   20.3663 C   0  0  0  0  0  0
  -29.2879  -24.0945   20.5307 C   0  0  1  0  0  0
  -28.3911  -16.9177   18.2246 C   0  0  0  0  0  0
  -28.1361  -25.0592   20.0354 C   0  0  0  0  0  0
  -29.5270  -15.9327   18.5853 C   0  0  0  0  0  0
  -29.9800  -21.5959   21.0915 N   0  0  0  0  0  0
  -32.0320  -20.2707   19.5185 N   0  0  0  0  0  0
  -29.8843  -15.8664   20.0221 N   0  0  0  0  0  0
  -31.4501  -21.3030   22.8153 O   0  0  0  0  0  0
  -31.4841  -12.5440   19.1502 H   0  0  0  0  0  0
  -30.4182  -11.4772   20.0210 H   0  0  0  0  0  0
  -29.7620  -11.4489   17.6705 H   0  0  0  0  0  0
  -29.7158  -13.1527   17.5349 H   0  0  0  0  0  0
  -27.8442  -11.2468   18.9424 H   0  0  0  0  0  0
  -27.3913  -12.4673   17.7917 H   0  0  0  0  0  0
  -27.6003  -14.2210   19.4323 H   0  0  0  0  0  0
  -28.7386  -12.2457   21.4675 H   0  0  0  0  0  0
  -28.4571  -13.9615   21.7149 H   0  0  0  0  0  0
  -25.2756   -9.5737   22.4770 H   0  0  0  0  0  0
  -24.0040   -7.4658   22.7456 H   0  0  0  0  0  0
  -21.0855   -8.8817   19.8957 H   0  0  0  0  0  0
  -22.3699  -10.9719   19.6178 H   0  0  0  0  0  0
  -21.2026   -7.6161   23.9735 H   0  0  0  0  0  0
  -21.1443   -6.0505   25.9076 H   0  0  0  0  0  0
  -22.0617   -2.7616   23.2822 H   0  0  0  0  0  0
  -22.4102  -11.9860   22.4759 H   0  0  0  0  0  0
  -21.1142  -13.1282   22.2629 H   0  0  0  0  0  0
  -24.6853  -15.8597   20.5277 H   0  0  0  0  0  0
  -26.3074  -15.6159   20.1245 H   0  0  0  0  0  0
  -26.7183  -32.5457   23.1104 H   0  0  0  0  0  0
  -25.0097  -33.9743   25.0450 H   0  0  0  0  0  0
  -22.7056  -31.3091   21.4106 H   0  0  0  0  0  0
  -23.3755  -35.9644   23.3238 H   0  0  0  0  0  0
  -24.3606  -36.8978   22.2054 H   0  0  0  0  0  0
  -23.7230  -37.6494   23.6670 H   0  0  0  0  0  0
  -26.0714  -31.5646   20.5968 H   0  0  0  0  0  0
  -26.8376  -30.8566   21.9885 H   0  0  0  0  0  0
  -28.1023  -29.0047   21.1942 H   0  0  0  0  0  0
  -25.9702  -25.9476   18.9960 H   0  0  0  0  0  0
  -23.9655  -27.3264   18.9989 H   0  0  0  0  0  0
  -23.7403  -30.6106   19.4082 H   0  0  0  0  0  0
  -22.7440  -29.2624   19.8541 H   0  0  0  0  0  0
  -25.1270  -36.1930   25.0817 H   0  0  0  0  0  0
  -20.9977  -28.3253   24.1428 H   0  0  0  0  0  0
  -20.5736  -26.2287   23.3624 H   0  0  0  0  0  0
  -21.6643  -26.7489   22.1161 H   0  0  0  0  0  0
  -19.6909  -25.6298   21.1258 H   0  0  0  0  0  0
  -19.6671  -27.3216   20.6784 H   0  0  0  0  0  0
  -17.4206  -26.6718   21.4035 H   0  0  0  0  0  0
  -18.0288  -26.0053   22.9017 H   0  0  0  0  0  0
  -19.7926  -30.7283   24.2293 H   0  0  0  0  0  0
  -17.4995  -31.6285   24.5159 H   0  0  0  0  0  0
  -15.5336  -30.3011   23.7618 H   0  0  0  0  0  0
  -15.8663  -28.0829   22.7053 H   0  0  0  0  0  0
  -24.5962  -30.6963   25.7815 H   0  0  0  0  0  0
  -24.8875  -32.2858   26.4821 H   0  0  0  0  0  0
  -25.8101  -30.8954   27.0259 H   0  0  0  0  0  0
  -26.2827  -29.6772   24.1146 H   0  0  0  0  0  0
  -27.3937  -29.7166   25.4609 H   0  0  0  0  0  0
  -27.8718  -30.4206   23.9344 H   0  0  0  0  0  0
  -27.2659  -33.3573   26.2065 H   0  0  0  0  0  0
  -28.3900  -32.6814   25.0371 H   0  0  0  0  0  0
  -28.0669  -31.8397   26.5452 H   0  0  0  0  0  0
  -28.2544  -38.0150   24.7542 H   0  0  0  0  0  0
  -28.1122  -36.2687   24.6200 H   0  0  0  0  0  0
  -27.2325  -37.1350   25.8857 H   0  0  0  0  0  0
  -20.9328  -29.8801   21.6957 H   0  0  0  0  0  0
  -26.0148  -38.2851   24.1462 H   0  0  0  0  0  0
  -28.1648  -19.7494   21.9421 H   0  0  0  0  0  0
  -28.1816  -17.3054   21.6062 H   0  0  0  0  0  0
  -31.8553  -17.6429   19.3939 H   0  0  0  0  0  0
  -31.7277  -23.9492   21.8905 H   0  0  0  0  0  0
  -31.0368  -23.6961   23.4719 H   0  0  0  0  0  0
  -29.7867  -25.4178   22.1676 H   0  0  0  0  0  0
  -28.7578  -24.0744   22.6227 H   0  0  0  0  0  0
  -29.0523  -22.2759   19.3050 H   0  0  0  0  0  0
  -28.0345  -22.2954   20.7158 H   0  0  0  0  0  0
  -30.1729  -24.3470   19.9419 H   0  0  0  0  0  0
  -28.1142  -16.8117   17.1750 H   0  0  0  0  0  0
  -28.6808  -17.9595   18.3659 H   0  0  0  0  0  0
  -27.4923  -16.7318   18.8124 H   0  0  0  0  0  0
  -27.2319  -24.7813   20.5805 H   0  0  0  0  0  0
  -27.9451  -24.8394   18.9842 H   0  0  0  0  0  0
  -30.4203  -16.1796   18.0089 H   0  0  0  0  0  0
  -29.2020  -14.9771   18.2157 H   0  0  0  0  0  0
  -32.6262  -19.8365   18.8206 H   0  0  0  0  0  0
  -31.8436  -21.2466   19.3095 H   0  0  0  0  0  0
  1 25  1  0  0  0
  1 30  2  0  0  0
  1 87  1  0  0  0
  2  3  1  0  0  0
  2 25  1  0  0  0
  2 89  1  0  0  0
  2 90  1  0  0  0
  3  4  1  0  0  0
  3 91  1  0  0  0
  3 92  1  0  0  0
  4  5  1  0  0  0
  4 93  1  0  0  0
  4 94  1  0  0  0
  5  6  1  0  0  0
  5 26  1  0  0  0
  5 95  1  0  0  0
  6 25  1  0  0  0
  6 96  1  0  0  0
  6 97  1  0  0  0
  7  8  2  0  0  0
  7 26  1  0  0  0
  7 29  1  0  0  0
  8  9  1  0  0  0
  8 22  1  0  0  0
  9 10  1  0  0  0
  9 27  2  0  0  0
 10 11  2  0  0  0
 10 15  1  0  0  0
 11 12  1  0  0  0
 11 98  1  0  0  0
 12 13  2  0  0  0
 12 99  1  0  0  0
 13 14  1  0  0  0
 13 31  1  0  0  0
 14 15  2  0  0  0
 14100  1  0  0  0
 15101  1  0  0  0
 16 17  2  0  0  0
 16 21  1  0  0  0
 16 31  1  0  0  0
 17 18  1  0  0  0
 17102  1  0  0  0
 18 19  2  0  0  0
 18103  1  0  0  0
 19 20  1  0  0  0
 19 24  1  0  0  0
 20 21  2  0  0  0
 20104  1  0  0  0
 21 23  1  0  0  0
 22 28  1  0  0  0
 22 32  2  0  0  0
 26 27  1  0  0  0
 28105  1  0  0  0
 28106  1  0  0  0
 29107  1  0  0  0
 29108  1  0  0  0
 33 34  1  0  0  0
 33 66  1  0  0  0
 33 70  2  0  0  0
 34 36  1  0  0  0
 34 59  1  0  0  0
 34109  1  0  0  0
 35 44  2  0  0  0
 35 45  1  0  0  0
 35 68  1  0  0  0
 36 56  1  0  0  0
 36110  1  0  0  0
 37 39  1  0  0  0
 37 47  1  0  0  0
 37 66  1  0  0  0
 37111  1  0  0  0
 38 43  2  0  0  0
 38 46  1  0  0  0
 38 47  1  0  0  0
 39 64  1  0  0  0
 39 67  2  0  0  0
 40 52  1  0  0  0
 40 53  2  0  0  0
 40 58  1  0  0  0
 41112  1  0  0  0
 41113  1  0  0  0
 41114  1  0  0  0
 41 48  1  0  0  0
 42 43  1  0  0  0
 42 66  1  0  0  0
 42115  1  0  0  0
 42116  1  0  0  0
 43 44  1  0  0  0
 44117  1  0  0  0
 45 46  2  0  0  0
 45118  1  0  0  0
 46119  1  0  0  0
 47120  1  0  0  0
 47121  1  0  0  0
 48 56  1  0  0  0
 48 65  1  0  0  0
 48122  1  0  0  0
 49 50  1  0  0  0
 49 53  1  0  0  0
 49 64  1  0  0  0
 49123  1  0  0  0
 50 51  1  0  0  0
 50124  1  0  0  0
 50125  1  0  0  0
 51 52  1  0  0  0
 51126  1  0  0  0
 51127  1  0  0  0
 52128  1  0  0  0
 52129  1  0  0  0
 53 54  1  0  0  0
 54 55  2  0  0  0
 54130  1  0  0  0
 55 57  1  0  0  0
 55131  1  0  0  0
 56 69  2  0  0  0
 57 58  2  0  0  0
 57132  1  0  0  0
 58133  1  0  0  0
 59 60  1  0  0  0
 59 61  1  0  0  0
 59 62  1  0  0  0
 60134  1  0  0  0
 60135  1  0  0  0
 60136  1  0  0  0
 61137  1  0  0  0
 61138  1  0  0  0
 61139  1  0  0  0
 62140  1  0  0  0
 62141  1  0  0  0
 62142  1  0  0  0
 63 65  1  0  0  0
 63143  1  0  0  0
 63144  1  0  0  0
 63145  1  0  0  0
 64146  1  0  0  0
 65147  1  0  0  0
 68 83  1  0  0  0
 71 72  2  0  0  0
 71 74  1  0  0  0
 71148  1  0  0  0
 72 75  1  0  0  0
 72149  1  0  0  0
 73 75  2  0  0  0
 73 76  1  0  0  0
 73150  1  0  0  0
 74 76  2  0  0  0
 74 85  1  0  0  0
 75 87  1  0  0  0
 76 86  1  0  0  0
 77 78  1  0  0  0
 77 85  1  0  0  0
 77 88  2  0  0  0
 78 79  1  0  0  0
 78151  1  0  0  0
 78152  1  0  0  0
 79 81  1  0  0  0
 79153  1  0  0  0
 79154  1  0  0  0
 80 81  1  0  0  0
 80 85  1  0  0  0
 80155  1  0  0  0
 80156  1  0  0  0
 81 83  1  0  0  0
 81157  1  0  0  0
 82 84  1  0  0  0
 82158  1  0  0  0
 82159  1  0  0  0
 82160  1  0  0  0
 83161  1  0  0  0
 83162  1  0  0  0
 84 87  1  0  0  0
 84163  1  0  0  0
 84164  1  0  0  0
 86165  1  0  0  0
 86166  1  0  0  0
M  ISO  4   1 100  68 101  83 101  87 100
M  END
> <chiral flag>
0

> <version>
0

> <s_m_source_file>
/data/baiqing/PycharmProjects/Reinvent-master-3.2/result/LINK_invent/BTK/process_docking_weight1_custom_product_contain_oxygen_bond_distance_aromatic_linkinvent_7_9_3/rearranged_h_0093.sdf

> <i_m_source_file_index>
21

> <r_mmod_Potential_Energy-OPLS-2005>
410.246856689453

> <r_mmod_Stretch_Energy-OPLS-2005>
86.6796035766602

> <r_mmod_Bend_Energy-OPLS-2005>
145.995559692383

> <r_mmod_Torsional_Energy-OPLS-2005>
415.195465087891

> <r_mmod_Improper_Torsional_Energy-OPLS-2005>
26.323299407959

> <r_mmod_Van_der_Waal_Energy-OPLS-2005>
157.726913452148

> <r_mmod_Electrostatic_Energy-OPLS-2005>
-277.985687255859

> <r_mmod_Solvation_Energy-OPLS-2005>
-222.444961547852

> <b_mmod_Minimization_Converged-OPLS-2005>
0

> <r_mmod_RMS_Derivative-OPLS-2005>
3.52375030517578

$$$$
22
                    3D
 Structure written by MMmdl.
154162  0  0  1  0            999 V2000
  -30.5839  -14.7682   20.4267 C   0  0  0  0  0  0
  -30.4347  -12.4690   19.4558 C   0  0  0  0  0  0
  -29.5028  -12.4920   18.2234 C   0  0  0  0  0  0
  -28.0321  -12.3128   18.6482 C   0  0  0  0  0  0
  -27.6358  -13.2259   19.8389 C   0  0  2  0  0  0
  -28.6849  -13.1702   20.9691 C   0  0  0  0  0  0
  -25.2500  -13.8176   20.5680 C   0  0  0  0  0  0
  -24.1803  -13.0419   20.9216 C   0  0  0  0  0  0
  -24.6391  -11.6902   20.8762 C   0  0  0  0  0  0
  -23.9088  -10.4280   21.0416 C   0  0  0  0  0  0
  -24.3643   -9.4185   21.9188 C   0  0  0  0  0  0
  -23.6310   -8.2221   22.0757 C   0  0  0  0  0  0
  -22.4289   -8.0270   21.3549 C   0  0  0  0  0  0
  -21.9926   -9.0249   20.4651 C   0  0  0  0  0  0
  -22.7272  -10.2116   20.3055 C   0  0  0  0  0  0
  -21.6850   -6.0735   22.5297 C   0  0  0  0  0  0
  -21.4005   -6.5649   23.8227 C   0  0  0  0  0  0
  -21.3650   -5.6799   24.9188 C   0  0  0  0  0  0
  -21.6036   -4.3060   24.7246 C   0  0  0  0  0  0
  -21.8819   -3.8149   23.4374 C   0  0  0  0  0  0
  -21.9195   -4.6960   22.3427 C   0  0  0  0  0  0
  -22.7834  -13.5199   21.1901 C   0  0  0  0  0  0
  -22.1666   -4.2144   21.1006 F   0  0  0  0  0  0
  -21.5622   -3.4549   25.7755 F   0  0  0  0  0  0
  -29.9756  -13.5355   20.3725 N   0  0  0  0  0  0
  -26.2909  -12.9368   20.3235 N   0  0  0  0  0  0
  -25.9308  -11.6526   20.5759 N   0  0  0  0  0  0
  -22.0530  -12.8150   22.0454 N   0  0  0  0  0  0
  -25.4175  -15.1908   20.4106 N   0  0  0  0  0  0
  -31.7875  -14.8697   20.1724 O   0  0  0  0  0  0
  -21.6646   -6.8875   21.4252 O   0  0  0  0  0  0
  -22.3491  -14.5501   20.6764 O   0  0  0  0  0  0
  -24.6327  -31.8519   23.1972 C   0  0  0  0  0  0
  -25.9151  -32.4755   23.8319 C   0  0  1  0  0  0
  -27.2188  -27.2629   20.1333 C   0  0  0  0  0  0
  -25.5976  -33.8557   24.2276 N   0  0  0  0  0  0
  -23.4298  -30.4751   21.5370 C   0  0  2  0  0  0
  -24.8763  -28.9139   20.1125 C   0  0  0  0  0  0
  -22.7490  -29.4615   22.4886 C   0  0  0  0  0  0
  -18.0298  -28.1397   22.8521 C   0  0  0  0  0  0
  -24.1470  -36.7246   23.2638 C   0  0  0  0  0  0
  -25.9759  -30.7642   21.3783 C   0  0  0  0  0  0
  -26.0462  -29.3858   20.7216 C   0  0  0  0  0  0
  -27.2238  -28.5732   20.7179 C   0  0  0  0  0  0
  -26.0277  -26.8496   19.5021 C   0  0  0  0  0  0
  -24.8707  -27.6529   19.4914 C   0  0  0  0  0  0
  -23.6493  -29.8029   20.1546 C   0  0  0  0  0  0
  -25.4102  -36.3070   24.0341 C   0  0  1  0  0  0
  -20.5901  -28.3719   23.1260 C   0  0  2  0  0  0
  -20.6779  -26.9432   22.5401 C   0  0  0  0  0  0
  -19.5744  -26.6387   21.5224 C   0  0  0  0  0  0
  -18.1916  -26.7956   22.1623 C   0  0  0  0  0  0
  -19.1545  -28.8883   23.2885 C   0  0  0  0  0  0
  -18.9476  -30.1478   23.8892 C   0  0  0  0  0  0
  -17.6480  -30.6613   24.0570 C   0  0  0  0  0  0
  -25.9052  -34.9445   23.5103 C   0  0  0  0  0  0
  -16.5361  -29.9108   23.6345 C   0  0  0  0  0  0
  -16.7282  -28.6513   23.0393 C   0  0  0  0  0  0
  -26.4526  -31.6595   25.0719 C   0  0  0  0  0  0
  -25.3767  -31.3768   26.1461 C   0  0  0  0  0  0
  -27.0379  -30.3026   24.6211 C   0  0  0  0  0  0
  -27.6078  -32.4359   25.7480 C   0  0  0  0  0  0
  -27.5565  -37.1768   24.8463 C   0  0  0  0  0  0
  -21.4203  -29.3069   22.3634 N   0  0  0  0  0  0
  -26.4263  -37.3791   23.9441 N   0  0  0  0  0  0
  -24.6977  -31.0492   22.0930 N   0  0  0  0  0  0
  -23.4193  -28.8143   23.2982 O   0  0  0  0  0  0
  -28.3151  -26.3787   20.1239 O   0  0  0  0  0  0
  -26.5568  -34.8922   22.4643 O   0  0  0  0  0  0
  -23.5471  -32.1339   23.7284 O   0  0  0  0  0  0
  -28.8920  -18.4048   18.7584 C   0  0  0  0  0  0
  -28.3128  -20.7945   18.5595 C   0  0  0  0  0  0
  -28.3460  -19.4862   18.0248 C   0  0  0  0  0  0
  -29.4431  -18.5982   20.0418 C   0  0  0  0  0  0
  -28.8311  -21.0932   19.8433 C   0  0  0  0  0  0
  -29.3916  -19.9605   20.5679 C   0  0  0  0  0  0
  -28.4462  -23.7105   19.8190 C   0  0  0  0  0  0
  -27.8000  -19.2524   16.6276 C   0  0  0  0  0  0
  -30.1598  -17.3693   20.7729 C   0  0  0  0  0  0
  -28.1447  -25.0064   20.7160 C   0  0  0  0  0  0
  -28.7386  -22.4762   20.3999 N   0  0  0  0  0  0
  -29.7820  -15.8969   20.5660 N   0  0  0  0  0  0
  -28.4069  -23.8514   18.5946 O   0  0  0  0  0  0
  -29.9007  -20.1918   21.8019 F   0  0  0  0  0  0
  -31.4698  -12.6145   19.1433 H   0  0  0  0  0  0
  -30.4046  -11.4986   19.9531 H   0  0  0  0  0  0
  -29.7877  -11.7057   17.5226 H   0  0  0  0  0  0
  -29.6147  -13.4365   17.6891 H   0  0  0  0  0  0
  -27.8994  -11.2681   18.9287 H   0  0  0  0  0  0
  -27.3670  -12.4847   17.7998 H   0  0  0  0  0  0
  -27.6245  -14.2417   19.4440 H   0  0  0  0  0  0
  -28.7330  -12.1722   21.4046 H   0  0  0  0  0  0
  -28.4197  -13.8486   21.7805 H   0  0  0  0  0  0
  -25.2796   -9.5648   22.4764 H   0  0  0  0  0  0
  -24.0034   -7.4594   22.7449 H   0  0  0  0  0  0
  -21.0872   -8.8772   19.8945 H   0  0  0  0  0  0
  -22.3759  -10.9652   19.6158 H   0  0  0  0  0  0
  -21.1990   -7.6154   23.9729 H   0  0  0  0  0  0
  -21.1461   -6.0534   25.9088 H   0  0  0  0  0  0
  -22.0597   -2.7617   23.2888 H   0  0  0  0  0  0
  -22.4210  -11.9795   22.4765 H   0  0  0  0  0  0
  -21.1127  -13.1096   22.2711 H   0  0  0  0  0  0
  -24.6438  -15.8391   20.5163 H   0  0  0  0  0  0
  -26.2581  -15.6389   20.0710 H   0  0  0  0  0  0
  -26.7210  -32.5412   23.1047 H   0  0  0  0  0  0
  -25.0325  -33.9701   25.0564 H   0  0  0  0  0  0
  -22.7292  -31.2994   21.3843 H   0  0  0  0  0  0
  -23.3761  -35.9549   23.3313 H   0  0  0  0  0  0
  -24.3565  -36.8829   22.2046 H   0  0  0  0  0  0
  -23.7158  -37.6423   23.6645 H   0  0  0  0  0  0
  -26.1183  -31.5255   20.6105 H   0  0  0  0  0  0
  -26.8506  -30.8124   22.0157 H   0  0  0  0  0  0
  -28.1253  -28.9274   21.2007 H   0  0  0  0  0  0
  -25.9923  -25.8834   19.0172 H   0  0  0  0  0  0
  -23.9786  -27.2862   19.0030 H   0  0  0  0  0  0
  -23.7820  -30.5747   19.3955 H   0  0  0  0  0  0
  -22.7693  -29.2361   19.8447 H   0  0  0  0  0  0
  -25.1271  -36.1920   25.0832 H   0  0  0  0  0  0
  -21.0006  -28.3295   24.1376 H   0  0  0  0  0  0
  -20.5683  -26.2332   23.3610 H   0  0  0  0  0  0
  -21.6639  -26.7456   22.1172 H   0  0  0  0  0  0
  -19.6886  -25.6285   21.1263 H   0  0  0  0  0  0
  -19.6678  -27.3190   20.6741 H   0  0  0  0  0  0
  -17.4194  -26.6765   21.4005 H   0  0  0  0  0  0
  -18.0276  -26.0083   22.8994 H   0  0  0  0  0  0
  -19.7945  -30.7308   24.2235 H   0  0  0  0  0  0
  -17.5032  -31.6276   24.5168 H   0  0  0  0  0  0
  -15.5357  -30.3017   23.7675 H   0  0  0  0  0  0
  -15.8674  -28.0819   22.7138 H   0  0  0  0  0  0
  -24.5990  -30.7037   25.7858 H   0  0  0  0  0  0
  -24.8899  -32.2929   26.4809 H   0  0  0  0  0  0
  -25.8119  -30.9052   27.0284 H   0  0  0  0  0  0
  -26.2955  -29.6769   24.1247 H   0  0  0  0  0  0
  -27.4070  -29.7319   25.4737 H   0  0  0  0  0  0
  -27.8846  -30.4310   23.9473 H   0  0  0  0  0  0
  -27.2688  -33.3708   26.1963 H   0  0  0  0  0  0
  -28.3926  -32.6826   25.0325 H   0  0  0  0  0  0
  -28.0707  -31.8536   26.5454 H   0  0  0  0  0  0
  -28.2565  -38.0088   24.7582 H   0  0  0  0  0  0
  -28.1050  -36.2624   24.6183 H   0  0  0  0  0  0
  -27.2281  -37.1269   25.8856 H   0  0  0  0  0  0
  -20.9373  -29.8839   21.6883 H   0  0  0  0  0  0
  -26.0129  -38.2838   24.1530 H   0  0  0  0  0  0
  -28.9148  -17.4176   18.3169 H   0  0  0  0  0  0
  -27.8600  -21.5674   17.9560 H   0  0  0  0  0  0
  -28.1961  -18.3363   16.1891 H   0  0  0  0  0  0
  -28.0747  -20.0726   15.9632 H   0  0  0  0  0  0
  -26.7121  -19.1827   16.6419 H   0  0  0  0  0  0
  -30.0730  -17.5545   21.8433 H   0  0  0  0  0  0
  -31.2255  -17.4737   20.5630 H   0  0  0  0  0  0
  -28.8068  -24.9543   21.5787 H   0  0  0  0  0  0
  -27.1348  -24.8967   21.1157 H   0  0  0  0  0  0
  -28.8793  -22.5200   21.3997 H   0  0  0  0  0  0
  -28.7987  -15.6981   20.6701 H   0  0  0  0  0  0
  1 25  1  0  0  0
  1 30  2  0  0  0
  1 82  1  0  0  0
  2  3  1  0  0  0
  2 25  1  0  0  0
  2 85  1  0  0  0
  2 86  1  0  0  0
  3  4  1  0  0  0
  3 87  1  0  0  0
  3 88  1  0  0  0
  4  5  1  0  0  0
  4 89  1  0  0  0
  4 90  1  0  0  0
  5  6  1  0  0  0
  5 26  1  0  0  0
  5 91  1  0  0  0
  6 25  1  0  0  0
  6 92  1  0  0  0
  6 93  1  0  0  0
  7  8  2  0  0  0
  7 26  1  0  0  0
  7 29  1  0  0  0
  8  9  1  0  0  0
  8 22  1  0  0  0
  9 10  1  0  0  0
  9 27  2  0  0  0
 10 11  2  0  0  0
 10 15  1  0  0  0
 11 12  1  0  0  0
 11 94  1  0  0  0
 12 13  2  0  0  0
 12 95  1  0  0  0
 13 14  1  0  0  0
 13 31  1  0  0  0
 14 15  2  0  0  0
 14 96  1  0  0  0
 15 97  1  0  0  0
 16 17  2  0  0  0
 16 21  1  0  0  0
 16 31  1  0  0  0
 17 18  1  0  0  0
 17 98  1  0  0  0
 18 19  2  0  0  0
 18 99  1  0  0  0
 19 20  1  0  0  0
 19 24  1  0  0  0
 20 21  2  0  0  0
 20100  1  0  0  0
 21 23  1  0  0  0
 22 28  1  0  0  0
 22 32  2  0  0  0
 26 27  1  0  0  0
 28101  1  0  0  0
 28102  1  0  0  0
 29103  1  0  0  0
 29104  1  0  0  0
 33 34  1  0  0  0
 33 66  1  0  0  0
 33 70  2  0  0  0
 34 36  1  0  0  0
 34 59  1  0  0  0
 34105  1  0  0  0
 35 44  2  0  0  0
 35 45  1  0  0  0
 35 68  1  0  0  0
 36 56  1  0  0  0
 36106  1  0  0  0
 37 39  1  0  0  0
 37 47  1  0  0  0
 37 66  1  0  0  0
 37107  1  0  0  0
 38 43  2  0  0  0
 38 46  1  0  0  0
 38 47  1  0  0  0
 39 64  1  0  0  0
 39 67  2  0  0  0
 40 52  1  0  0  0
 40 53  2  0  0  0
 40 58  1  0  0  0
 41108  1  0  0  0
 41109  1  0  0  0
 41110  1  0  0  0
 41 48  1  0  0  0
 42 43  1  0  0  0
 42 66  1  0  0  0
 42111  1  0  0  0
 42112  1  0  0  0
 43 44  1  0  0  0
 44113  1  0  0  0
 45 46  2  0  0  0
 45114  1  0  0  0
 46115  1  0  0  0
 47116  1  0  0  0
 47117  1  0  0  0
 48 56  1  0  0  0
 48 65  1  0  0  0
 48118  1  0  0  0
 49 50  1  0  0  0
 49 53  1  0  0  0
 49 64  1  0  0  0
 49119  1  0  0  0
 50 51  1  0  0  0
 50120  1  0  0  0
 50121  1  0  0  0
 51 52  1  0  0  0
 51122  1  0  0  0
 51123  1  0  0  0
 52124  1  0  0  0
 52125  1  0  0  0
 53 54  1  0  0  0
 54 55  2  0  0  0
 54126  1  0  0  0
 55 57  1  0  0  0
 55127  1  0  0  0
 56 69  2  0  0  0
 57 58  2  0  0  0
 57128  1  0  0  0
 58129  1  0  0  0
 59 60  1  0  0  0
 59 61  1  0  0  0
 59 62  1  0  0  0
 60130  1  0  0  0
 60131  1  0  0  0
 60132  1  0  0  0
 61133  1  0  0  0
 61134  1  0  0  0
 61135  1  0  0  0
 62136  1  0  0  0
 62137  1  0  0  0
 62138  1  0  0  0
 63 65  1  0  0  0
 63139  1  0  0  0
 63140  1  0  0  0
 63141  1  0  0  0
 64142  1  0  0  0
 65143  1  0  0  0
 68 80  1  0  0  0
 71 73  2  0  0  0
 71 74  1  0  0  0
 71144  1  0  0  0
 72 73  1  0  0  0
 72 75  2  0  0  0
 72145  1  0  0  0
 73 78  1  0  0  0
 74 76  2  0  0  0
 74 79  1  0  0  0
 75 76  1  0  0  0
 75 81  1  0  0  0
 76 84  1  0  0  0
 77 80  1  0  0  0
 77 81  1  0  0  0
 77 83  2  0  0  0
 78146  1  0  0  0
 78147  1  0  0  0
 78148  1  0  0  0
 79 82  1  0  0  0
 79149  1  0  0  0
 79150  1  0  0  0
 80151  1  0  0  0
 80152  1  0  0  0
 81153  1  0  0  0
 82154  1  0  0  0
M  ISO  4   1 100  68 101  80 101  82 100
M  END
> <chiral flag>
0

> <version>
0

> <s_m_source_file>
/data/baiqing/PycharmProjects/Reinvent-master-3.2/result/LINK_invent/BTK/process_docking_weight1_custom_product_contain_oxygen_bond_distance_aromatic_linkinvent_7_9_3/rearranged_h_0093.sdf

> <i_m_source_file_index>
22

> <r_mmod_Potential_Energy-OPLS-2005>
90.5849151611328

> <r_mmod_Stretch_Energy-OPLS-2005>
124.171989440918

> <r_mmod_Bend_Energy-OPLS-2005>
157.376998901367

> <r_mmod_Torsional_Energy-OPLS-2005>
232.380020141602

> <r_mmod_Improper_Torsional_Energy-OPLS-2005>
4.78080940246582

> <r_mmod_Van_der_Waal_Energy-OPLS-2005>
132.605682373047

> <r_mmod_Electrostatic_Energy-OPLS-2005>
-422.371765136719

> <r_mmod_Solvation_Energy-OPLS-2005>
-230.478393554688

> <b_mmod_Minimization_Converged-OPLS-2005>
0

> <r_mmod_RMS_Derivative-OPLS-2005>
3.2422661781311

$$$$
23
                    3D
 Structure written by MMmdl.
160169  0  0  1  0            999 V2000
  -30.6217  -14.6212   20.5005 C   0  0  0  0  0  0
  -30.4385  -12.3801   19.4472 C   0  0  0  0  0  0
  -29.5061  -12.5082   18.2214 C   0  0  0  0  0  0
  -28.0281  -12.3477   18.6323 C   0  0  0  0  0  0
  -27.6550  -13.2126   19.8667 C   0  0  2  0  0  0
  -28.7002  -13.0488   20.9935 C   0  0  0  0  0  0
  -25.2569  -13.8162   20.5686 C   0  0  0  0  0  0
  -24.1824  -13.0433   20.9175 C   0  0  0  0  0  0
  -24.6387  -11.6906   20.8725 C   0  0  0  0  0  0
  -23.9053  -10.4291   21.0395 C   0  0  0  0  0  0
  -24.3610   -9.4207   21.9169 C   0  0  0  0  0  0
  -23.6293   -8.2240   22.0743 C   0  0  0  0  0  0
  -22.4272   -8.0274   21.3542 C   0  0  0  0  0  0
  -21.9905   -9.0241   20.4635 C   0  0  0  0  0  0
  -22.7231  -10.2124   20.3041 C   0  0  0  0  0  0
  -21.6850   -6.0731   22.5283 C   0  0  0  0  0  0
  -21.4009   -6.5636   23.8215 C   0  0  0  0  0  0
  -21.3660   -5.6790   24.9178 C   0  0  0  0  0  0
  -21.6048   -4.3053   24.7228 C   0  0  0  0  0  0
  -21.8818   -3.8142   23.4349 C   0  0  0  0  0  0
  -21.9193   -4.6959   22.3408 C   0  0  0  0  0  0
  -22.7852  -13.5228   21.1846 C   0  0  0  0  0  0
  -22.1664   -4.2145   21.0984 F   0  0  0  0  0  0
  -21.5632   -3.4534   25.7740 F   0  0  0  0  0  0
  -30.0183  -13.3930   20.4346 N   0  0  0  0  0  0
  -26.2995  -12.9336   20.3332 N   0  0  0  0  0  0
  -25.9316  -11.6492   20.5751 N   0  0  0  0  0  0
  -22.0492  -12.8222   22.0402 N   0  0  0  0  0  0
  -25.4301  -15.1881   20.4134 N   0  0  0  0  0  0
  -31.7768  -14.7932   20.0985 O   0  0  0  0  0  0
  -21.6639   -6.8868   21.4242 O   0  0  0  0  0  0
  -22.3537  -14.5543   20.6707 O   0  0  0  0  0  0
  -24.6256  -31.8608   23.2040 C   0  0  0  0  0  0
  -25.9105  -32.4786   23.8364 C   0  0  1  0  0  0
  -27.2273  -27.3312   20.1017 C   0  0  0  0  0  0
  -25.5934  -33.8585   24.2308 N   0  0  0  0  0  0
  -23.4190  -30.4885   21.5441 C   0  0  2  0  0  0
  -24.8647  -28.9452   20.1096 C   0  0  0  0  0  0
  -22.7459  -29.4656   22.4905 C   0  0  0  0  0  0
  -18.0288  -28.1394   22.8494 C   0  0  0  0  0  0
  -24.1491  -36.7287   23.2636 C   0  0  0  0  0  0
  -25.9599  -30.7969   21.3709 C   0  0  0  0  0  0
  -26.0353  -29.4256   20.7099 C   0  0  0  0  0  0
  -27.2193  -28.6313   20.6956 C   0  0  0  0  0  0
  -26.0282  -26.9020   19.4841 C   0  0  0  0  0  0
  -24.8616  -27.6881   19.4895 C   0  0  0  0  0  0
  -23.6338  -29.8260   20.1590 C   0  0  0  0  0  0
  -25.4114  -36.3091   24.0343 C   0  0  1  0  0  0
  -20.5891  -28.3709   23.1270 C   0  0  2  0  0  0
  -20.6778  -26.9432   22.5397 C   0  0  0  0  0  0
  -19.5758  -26.6391   21.5200 C   0  0  0  0  0  0
  -18.1938  -26.7944   22.1614 C   0  0  0  0  0  0
  -19.1541  -28.8859   23.2892 C   0  0  0  0  0  0
  -18.9465  -30.1452   23.8924 C   0  0  0  0  0  0
  -17.6471  -30.6606   24.0565 C   0  0  0  0  0  0
  -25.9050  -34.9457   23.5124 C   0  0  0  0  0  0
  -16.5358  -29.9115   23.6325 C   0  0  0  0  0  0
  -16.7276  -28.6519   23.0365 C   0  0  0  0  0  0
  -26.4495  -31.6579   25.0715 C   0  0  0  0  0  0
  -25.3752  -31.3694   26.1453 C   0  0  0  0  0  0
  -27.0318  -30.3010   24.6128 C   0  0  0  0  0  0
  -27.6073  -32.4288   25.7483 C   0  0  0  0  0  0
  -27.5590  -37.1795   24.8466 C   0  0  0  0  0  0
  -21.4170  -29.3076   22.3653 N   0  0  0  0  0  0
  -26.4291  -37.3789   23.9428 N   0  0  0  0  0  0
  -24.6874  -31.0644   22.0974 N   0  0  0  0  0  0
  -23.4188  -28.8172   23.2963 O   0  0  0  0  0  0
  -28.3516  -26.4905   20.1370 O   0  0  0  0  0  0
  -26.5596  -34.8921   22.4676 O   0  0  0  0  0  0
  -23.5424  -32.1379   23.7393 O   0  0  0  0  0  0
  -28.9171  -19.3146   21.3530 C   0  0  0  0  0  0
  -30.8540  -17.8206   19.9789 C   0  0  0  0  0  0
  -29.9064  -20.0382   20.6392 C   0  0  0  0  0  0
  -30.8609  -19.2498   19.9217 C   0  0  0  0  0  0
  -29.8999  -17.1056   20.7527 C   0  0  0  0  0  0
  -28.9193  -17.8911   21.4103 C   0  0  0  0  0  0
  -30.9959  -21.9511   21.6292 C   0  0  0  0  0  0
  -31.2145  -23.4586   21.8308 C   0  0  0  0  0  0
  -29.9476  -24.3041   21.6704 C   0  0  0  0  0  0
  -28.9876  -22.4596   20.2475 C   0  0  0  0  0  0
  -29.3155  -24.0243   20.3115 C   0  0  1  0  0  0
  -28.1272  -25.0331   20.0089 C   0  0  0  0  0  0
  -30.0255  -21.4989   20.7844 N   0  0  0  0  0  0
  -31.8409  -19.8673   19.1439 N   0  0  0  0  0  0
  -29.8171  -15.6520   20.8947 N   0  0  0  0  0  0
  -31.7542  -21.1947   22.2476 O   0  0  0  0  0  0
  -27.9666  -17.2603   22.1387 F   0  0  0  0  0  0
  -31.4798  -12.5063   19.1451 H   0  0  0  0  0  0
  -30.3734  -11.3801   19.8786 H   0  0  0  0  0  0
  -29.7679  -11.7636   17.4681 H   0  0  0  0  0  0
  -29.6487  -13.4817   17.7498 H   0  0  0  0  0  0
  -27.8590  -11.2936   18.8549 H   0  0  0  0  0  0
  -27.3742  -12.5857   17.7922 H   0  0  0  0  0  0
  -27.6776  -14.2510   19.5358 H   0  0  0  0  0  0
  -28.7067  -12.0203   21.3580 H   0  0  0  0  0  0
  -28.4473  -13.6652   21.8572 H   0  0  0  0  0  0
  -25.2753   -9.5691   22.4744 H   0  0  0  0  0  0
  -24.0007   -7.4627   22.7462 H   0  0  0  0  0  0
  -21.0837   -8.8751   19.8943 H   0  0  0  0  0  0
  -22.3682  -10.9655   19.6147 H   0  0  0  0  0  0
  -21.1995   -7.6142   23.9715 H   0  0  0  0  0  0
  -21.1490   -6.0519   25.9081 H   0  0  0  0  0  0
  -22.0599   -2.7603   23.2845 H   0  0  0  0  0  0
  -22.4107  -11.9872   22.4777 H   0  0  0  0  0  0
  -21.1111  -13.1241   22.2610 H   0  0  0  0  0  0
  -24.6716  -15.8472   20.5472 H   0  0  0  0  0  0
  -26.2955  -15.6343   20.1385 H   0  0  0  0  0  0
  -26.7166  -32.5463   23.1110 H   0  0  0  0  0  0
  -25.0128  -33.9725   25.0486 H   0  0  0  0  0  0
  -22.7147  -31.3111   21.4012 H   0  0  0  0  0  0
  -23.3771  -35.9599   23.3276 H   0  0  0  0  0  0
  -24.3604  -36.8916   22.2056 H   0  0  0  0  0  0
  -23.7205  -37.6474   23.6651 H   0  0  0  0  0  0
  -26.0880  -31.5633   20.6050 H   0  0  0  0  0  0
  -26.8421  -30.8461   21.9977 H   0  0  0  0  0  0
  -28.1196  -28.9989   21.1686 H   0  0  0  0  0  0
  -25.9583  -25.9440   18.9931 H   0  0  0  0  0  0
  -23.9643  -27.3136   19.0168 H   0  0  0  0  0  0
  -23.7569  -30.6034   19.4037 H   0  0  0  0  0  0
  -22.7533  -29.2577   19.8539 H   0  0  0  0  0  0
  -25.1292  -36.1945   25.0835 H   0  0  0  0  0  0
  -21.0006  -28.3280   24.1381 H   0  0  0  0  0  0
  -20.5669  -26.2323   23.3598 H   0  0  0  0  0  0
  -21.6647  -26.7464   22.1188 H   0  0  0  0  0  0
  -19.6924  -25.6296   21.1244 H   0  0  0  0  0  0
  -19.6702  -27.3183   20.6718 H   0  0  0  0  0  0
  -17.4206  -26.6689   21.4014 H   0  0  0  0  0  0
  -18.0349  -26.0088   22.9012 H   0  0  0  0  0  0
  -19.7939  -30.7248   24.2322 H   0  0  0  0  0  0
  -17.5035  -31.6297   24.5146 H   0  0  0  0  0  0
  -15.5365  -30.3034   23.7635 H   0  0  0  0  0  0
  -15.8667  -28.0839   22.7095 H   0  0  0  0  0  0
  -24.5981  -30.6966   25.7799 H   0  0  0  0  0  0
  -24.8873  -32.2835   26.4843 H   0  0  0  0  0  0
  -25.8117  -30.8928   27.0241 H   0  0  0  0  0  0
  -26.2861  -29.6764   24.1188 H   0  0  0  0  0  0
  -27.4068  -29.7256   25.4600 H   0  0  0  0  0  0
  -27.8717  -30.4305   23.9301 H   0  0  0  0  0  0
  -27.2728  -33.3626   26.2015 H   0  0  0  0  0  0
  -28.3917  -32.6768   25.0319 H   0  0  0  0  0  0
  -28.0690  -31.8416   26.5430 H   0  0  0  0  0  0
  -28.2578  -38.0121   24.7563 H   0  0  0  0  0  0
  -28.1113  -36.2656   24.6230 H   0  0  0  0  0  0
  -27.2320  -37.1365   25.8869 H   0  0  0  0  0  0
  -20.9316  -29.8847   21.6923 H   0  0  0  0  0  0
  -26.0174  -38.2860   24.1453 H   0  0  0  0  0  0
  -28.1712  -19.8522   21.9193 H   0  0  0  0  0  0
  -31.5989  -17.2679   19.4257 H   0  0  0  0  0  0
  -31.9669  -23.7825   21.1116 H   0  0  0  0  0  0
  -31.6441  -23.6295   22.8185 H   0  0  0  0  0  0
  -30.2020  -25.3613   21.7590 H   0  0  0  0  0  0
  -29.2407  -24.0845   22.4714 H   0  0  0  0  0  0
  -28.7681  -22.1831   19.2157 H   0  0  0  0  0  0
  -28.0680  -22.2735   20.8033 H   0  0  0  0  0  0
  -30.0765  -24.2248   19.5549 H   0  0  0  0  0  0
  -27.2925  -24.7610   20.6574 H   0  0  0  0  0  0
  -27.8068  -24.8307   18.9860 H   0  0  0  0  0  0
  -32.6387  -19.3174   18.8399 H   0  0  0  0  0  0
  -32.0819  -20.8331   19.3352 H   0  0  0  0  0  0
  -28.9482  -15.3406   21.3032 H   0  0  0  0  0  0
  1 25  1  0  0  0
  1 30  2  0  0  0
  1 85  1  0  0  0
  2  3  1  0  0  0
  2 25  1  0  0  0
  2 88  1  0  0  0
  2 89  1  0  0  0
  3  4  1  0  0  0
  3 90  1  0  0  0
  3 91  1  0  0  0
  4  5  1  0  0  0
  4 92  1  0  0  0
  4 93  1  0  0  0
  5  6  1  0  0  0
  5 26  1  0  0  0
  5 94  1  0  0  0
  6 25  1  0  0  0
  6 95  1  0  0  0
  6 96  1  0  0  0
  7  8  2  0  0  0
  7 26  1  0  0  0
  7 29  1  0  0  0
  8  9  1  0  0  0
  8 22  1  0  0  0
  9 10  1  0  0  0
  9 27  2  0  0  0
 10 11  2  0  0  0
 10 15  1  0  0  0
 11 12  1  0  0  0
 11 97  1  0  0  0
 12 13  2  0  0  0
 12 98  1  0  0  0
 13 14  1  0  0  0
 13 31  1  0  0  0
 14 15  2  0  0  0
 14 99  1  0  0  0
 15100  1  0  0  0
 16 17  2  0  0  0
 16 21  1  0  0  0
 16 31  1  0  0  0
 17 18  1  0  0  0
 17101  1  0  0  0
 18 19  2  0  0  0
 18102  1  0  0  0
 19 20  1  0  0  0
 19 24  1  0  0  0
 20 21  2  0  0  0
 20103  1  0  0  0
 21 23  1  0  0  0
 22 28  1  0  0  0
 22 32  2  0  0  0
 26 27  1  0  0  0
 28104  1  0  0  0
 28105  1  0  0  0
 29106  1  0  0  0
 29107  1  0  0  0
 33 34  1  0  0  0
 33 66  1  0  0  0
 33 70  2  0  0  0
 34 36  1  0  0  0
 34 59  1  0  0  0
 34108  1  0  0  0
 35 44  2  0  0  0
 35 45  1  0  0  0
 35 68  1  0  0  0
 36 56  1  0  0  0
 36109  1  0  0  0
 37 39  1  0  0  0
 37 47  1  0  0  0
 37 66  1  0  0  0
 37110  1  0  0  0
 38 43  2  0  0  0
 38 46  1  0  0  0
 38 47  1  0  0  0
 39 64  1  0  0  0
 39 67  2  0  0  0
 40 52  1  0  0  0
 40 53  2  0  0  0
 40 58  1  0  0  0
 41111  1  0  0  0
 41112  1  0  0  0
 41113  1  0  0  0
 41 48  1  0  0  0
 42 43  1  0  0  0
 42 66  1  0  0  0
 42114  1  0  0  0
 42115  1  0  0  0
 43 44  1  0  0  0
 44116  1  0  0  0
 45 46  2  0  0  0
 45117  1  0  0  0
 46118  1  0  0  0
 47119  1  0  0  0
 47120  1  0  0  0
 48 56  1  0  0  0
 48 65  1  0  0  0
 48121  1  0  0  0
 49 50  1  0  0  0
 49 53  1  0  0  0
 49 64  1  0  0  0
 49122  1  0  0  0
 50 51  1  0  0  0
 50123  1  0  0  0
 50124  1  0  0  0
 51 52  1  0  0  0
 51125  1  0  0  0
 51126  1  0  0  0
 52127  1  0  0  0
 52128  1  0  0  0
 53 54  1  0  0  0
 54 55  2  0  0  0
 54129  1  0  0  0
 55 57  1  0  0  0
 55130  1  0  0  0
 56 69  2  0  0  0
 57 58  2  0  0  0
 57131  1  0  0  0
 58132  1  0  0  0
 59 60  1  0  0  0
 59 61  1  0  0  0
 59 62  1  0  0  0
 60133  1  0  0  0
 60134  1  0  0  0
 60135  1  0  0  0
 61136  1  0  0  0
 61137  1  0  0  0
 61138  1  0  0  0
 62139  1  0  0  0
 62140  1  0  0  0
 62141  1  0  0  0
 63 65  1  0  0  0
 63142  1  0  0  0
 63143  1  0  0  0
 63144  1  0  0  0
 64145  1  0  0  0
 65146  1  0  0  0
 68 82  1  0  0  0
 71 73  2  0  0  0
 71 76  1  0  0  0
 71147  1  0  0  0
 72 74  2  0  0  0
 72 75  1  0  0  0
 72148  1  0  0  0
 73 74  1  0  0  0
 73 83  1  0  0  0
 74 84  1  0  0  0
 75 76  2  0  0  0
 75 85  1  0  0  0
 76 87  1  0  0  0
 77 78  1  0  0  0
 77 83  1  0  0  0
 77 86  2  0  0  0
 78 79  1  0  0  0
 78149  1  0  0  0
 78150  1  0  0  0
 79 81  1  0  0  0
 79151  1  0  0  0
 79152  1  0  0  0
 80 81  1  0  0  0
 80 83  1  0  0  0
 80153  1  0  0  0
 80154  1  0  0  0
 81 82  1  0  0  0
 81155  1  0  0  0
 82156  1  0  0  0
 82157  1  0  0  0
 84158  1  0  0  0
 84159  1  0  0  0
 85160  1  0  0  0
M  ISO  4   1 100  68 101  82 101  85 100
M  END
> <chiral flag>
0

> <version>
0

> <s_m_source_file>
/data/baiqing/PycharmProjects/Reinvent-master-3.2/result/LINK_invent/BTK/process_docking_weight1_custom_product_contain_oxygen_bond_distance_aromatic_linkinvent_7_9_3/rearranged_h_0093.sdf

> <i_m_source_file_index>
23

> <r_mmod_Potential_Energy-OPLS-2005>
70.648307800293

> <r_mmod_Stretch_Energy-OPLS-2005>
82.6934356689453

> <r_mmod_Bend_Energy-OPLS-2005>
140.199798583984

> <r_mmod_Torsional_Energy-OPLS-2005>
290.842407226562

> <r_mmod_Improper_Torsional_Energy-OPLS-2005>
7.43560838699341

> <r_mmod_Van_der_Waal_Energy-OPLS-2005>
155.585601806641

> <r_mmod_Electrostatic_Energy-OPLS-2005>
-423.860900878906

> <r_mmod_Solvation_Energy-OPLS-2005>
-224.605651855469

> <b_mmod_Minimization_Converged-OPLS-2005>
0

> <r_mmod_RMS_Derivative-OPLS-2005>
1.35043394565582

$$$$
24
                    3D
 Structure written by MMmdl.
159167  0  0  1  0            999 V2000
  -30.7496  -14.4924   20.5547 C   0  0  0  0  0  0
  -30.4060  -12.3029   19.4650 C   0  0  0  0  0  0
  -29.4991  -12.4892   18.2270 C   0  0  0  0  0  0
  -28.0200  -12.3576   18.6296 C   0  0  0  0  0  0
  -27.6576  -13.2187   19.8680 C   0  0  2  0  0  0
  -28.6965  -13.0692   21.0066 C   0  0  0  0  0  0
  -25.2588  -13.8154   20.5704 C   0  0  0  0  0  0
  -24.1815  -13.0444   20.9161 C   0  0  0  0  0  0
  -24.6334  -11.6906   20.8678 C   0  0  0  0  0  0
  -23.8985  -10.4293   21.0368 C   0  0  0  0  0  0
  -24.3554   -9.4217   21.9134 C   0  0  0  0  0  0
  -23.6247   -8.2246   22.0716 C   0  0  0  0  0  0
  -22.4239   -8.0239   21.3520 C   0  0  0  0  0  0
  -21.9865   -9.0186   20.4635 C   0  0  0  0  0  0
  -22.7159  -10.2074   20.3040 C   0  0  0  0  0  0
  -21.6852   -6.0682   22.5252 C   0  0  0  0  0  0
  -21.3995   -6.5619   23.8161 C   0  0  0  0  0  0
  -21.3678   -5.6800   24.9152 C   0  0  0  0  0  0
  -21.6073   -4.3051   24.7238 C   0  0  0  0  0  0
  -21.8813   -3.8117   23.4363 C   0  0  0  0  0  0
  -21.9183   -4.6910   22.3400 C   0  0  0  0  0  0
  -22.7856  -13.5224   21.1885 C   0  0  0  0  0  0
  -22.1660   -4.2095   21.0978 F   0  0  0  0  0  0
  -21.5653   -3.4540   25.7753 F   0  0  0  0  0  0
  -30.0435  -13.3260   20.4677 N   0  0  0  0  0  0
  -26.2996  -12.9341   20.3317 N   0  0  0  0  0  0
  -25.9280  -11.6497   20.5726 N   0  0  0  0  0  0
  -22.0586  -12.8144   22.0450 N   0  0  0  0  0  0
  -25.4414  -15.1854   20.4112 N   0  0  0  0  0  0
  -31.8424  -14.6101   19.9886 O   0  0  0  0  0  0
  -21.6646   -6.8805   21.4203 O   0  0  0  0  0  0
  -22.3508  -14.5551   20.6826 O   0  0  0  0  0  0
  -24.6147  -31.8695   23.2126 C   0  0  0  0  0  0
  -25.9061  -32.4801   23.8386 C   0  0  1  0  0  0
  -27.2262  -27.4157   20.0891 C   0  0  0  0  0  0
  -25.5953  -33.8609   24.2312 N   0  0  0  0  0  0
  -23.4012  -30.4991   21.5568 C   0  0  2  0  0  0
  -24.8438  -28.9675   20.1190 C   0  0  0  0  0  0
  -22.7380  -29.4725   22.5019 C   0  0  0  0  0  0
  -18.0298  -28.1375   22.8451 C   0  0  0  0  0  0
  -24.1504  -36.7270   23.2630 C   0  0  0  0  0  0
  -25.9364  -30.8207   21.3810 C   0  0  0  0  0  0
  -26.0071  -29.4620   20.7193 C   0  0  0  0  0  0
  -27.1956  -28.6888   20.7142 C   0  0  0  0  0  0
  -26.0422  -26.9691   19.4503 C   0  0  0  0  0  0
  -24.8546  -27.7174   19.4900 C   0  0  0  0  0  0
  -23.6087  -29.8371   20.1704 C   0  0  0  0  0  0
  -25.4131  -36.3080   24.0313 C   0  0  1  0  0  0
  -20.5880  -28.3709   23.1309 C   0  0  2  0  0  0
  -20.6838  -26.9445   22.5421 C   0  0  0  0  0  0
  -19.5816  -26.6345   21.5238 C   0  0  0  0  0  0
  -18.2001  -26.7895   22.1642 C   0  0  0  0  0  0
  -19.1542  -28.8868   23.2853 C   0  0  0  0  0  0
  -18.9434  -30.1439   23.8869 C   0  0  0  0  0  0
  -17.6438  -30.6525   24.0598 C   0  0  0  0  0  0
  -25.9063  -34.9453   23.5081 C   0  0  0  0  0  0
  -16.5336  -29.9031   23.6351 C   0  0  0  0  0  0
  -16.7280  -28.6504   23.0284 C   0  0  0  0  0  0
  -26.4501  -31.6594   25.0728 C   0  0  0  0  0  0
  -25.3744  -31.3761   26.1457 C   0  0  0  0  0  0
  -27.0366  -30.3029   24.6187 C   0  0  0  0  0  0
  -27.6052  -32.4347   25.7484 C   0  0  0  0  0  0
  -27.5578  -37.1797   24.8466 C   0  0  0  0  0  0
  -21.4114  -29.3061   22.3694 N   0  0  0  0  0  0
  -26.4296  -37.3771   23.9389 N   0  0  0  0  0  0
  -24.6677  -31.0783   22.1066 N   0  0  0  0  0  0
  -23.4146  -28.8245   23.3069 O   0  0  0  0  0  0
  -28.3903  -26.6549   20.1310 O   0  0  0  0  0  0
  -26.5600  -34.8905   22.4636 O   0  0  0  0  0  0
  -23.5327  -32.1493   23.7510 O   0  0  0  0  0  0
  -31.0193  -20.2684   21.5329 C   0  0  0  0  0  0
  -30.6218  -21.5842   21.2004 C   0  0  0  0  0  0
  -28.6910  -19.6206   21.8363 C   0  0  0  0  0  0
  -30.0641  -19.2671   21.8511 C   0  0  0  0  0  0
  -29.2472  -21.9207   21.1688 C   0  0  0  0  0  0
  -28.2928  -20.9300   21.4935 C   0  0  0  0  0  0
  -29.2949  -24.3181   20.3326 C   0  0  0  0  0  0
  -30.5238  -16.8360   21.0545 C   0  0  0  0  0  0
  -30.1050  -18.3130   24.7439 C   0  0  0  0  0  0
  -28.3212  -25.2939   19.6420 C   0  0  0  0  0  0
  -29.9014  -17.3348   23.5708 C   0  0  0  0  0  0
  -30.5230  -17.8439   22.2448 C   0  0  1  0  0  0
  -28.7165  -23.1849   20.7831 N   0  0  0  0  0  0
  -30.2028  -15.5280   21.2406 N   0  0  0  0  0  0
  -30.4949  -24.5809   20.4381 O   0  0  0  0  0  0
  -30.8706  -17.2700   19.9498 O   0  0  0  0  0  0
  -26.9735  -21.2440   21.4680 F   0  0  0  0  0  0
  -31.4580  -12.3475   19.1739 H   0  0  0  0  0  0
  -30.2604  -11.3100   19.8914 H   0  0  0  0  0  0
  -29.7419  -11.7449   17.4624 H   0  0  0  0  0  0
  -29.6755  -13.4627   17.7699 H   0  0  0  0  0  0
  -27.8326  -11.3028   18.8352 H   0  0  0  0  0  0
  -27.3673  -12.6163   17.7938 H   0  0  0  0  0  0
  -27.6770  -14.2586   19.5314 H   0  0  0  0  0  0
  -28.6593  -12.0660   21.4287 H   0  0  0  0  0  0
  -28.4483  -13.7472   21.8223 H   0  0  0  0  0  0
  -25.2693   -9.5694   22.4696 H   0  0  0  0  0  0
  -23.9967   -7.4651   22.7435 H   0  0  0  0  0  0
  -21.0807   -8.8653   19.8963 H   0  0  0  0  0  0
  -22.3557  -10.9576   19.6153 H   0  0  0  0  0  0
  -21.1972   -7.6129   23.9609 H   0  0  0  0  0  0
  -21.1533   -6.0571   25.9038 H   0  0  0  0  0  0
  -22.0584   -2.7579   23.2888 H   0  0  0  0  0  0
  -22.4284  -11.9757   22.4713 H   0  0  0  0  0  0
  -21.1218  -13.1111   22.2759 H   0  0  0  0  0  0
  -24.6957  -15.8639   20.5307 H   0  0  0  0  0  0
  -26.3103  -15.5978   20.0956 H   0  0  0  0  0  0
  -26.7123  -32.5492   23.1118 H   0  0  0  0  0  0
  -25.0183  -33.9806   25.0516 H   0  0  0  0  0  0
  -22.6906  -31.3167   21.4219 H   0  0  0  0  0  0
  -23.3751  -35.9624   23.3317 H   0  0  0  0  0  0
  -24.3595  -36.8857   22.2040 H   0  0  0  0  0  0
  -23.7265  -37.6481   23.6646 H   0  0  0  0  0  0
  -26.0717  -31.5950   20.6263 H   0  0  0  0  0  0
  -26.8109  -30.8506   22.0155 H   0  0  0  0  0  0
  -28.0864  -29.0665   21.1998 H   0  0  0  0  0  0
  -25.9911  -26.0491   18.8885 H   0  0  0  0  0  0
  -23.9639  -27.3307   19.0144 H   0  0  0  0  0  0
  -23.7108  -30.6133   19.4102 H   0  0  0  0  0  0
  -22.7322  -29.2545   19.8790 H   0  0  0  0  0  0
  -25.1310  -36.1925   25.0805 H   0  0  0  0  0  0
  -20.9958  -28.3282   24.1413 H   0  0  0  0  0  0
  -20.5853  -26.2282   23.3617 H   0  0  0  0  0  0
  -21.6698  -26.7577   22.1160 H   0  0  0  0  0  0
  -19.7017  -25.6238   21.1338 H   0  0  0  0  0  0
  -19.6749  -27.3108   20.6713 H   0  0  0  0  0  0
  -17.4281  -26.6588   21.4017 H   0  0  0  0  0  0
  -18.0458  -26.0059   22.9053 H   0  0  0  0  0  0
  -19.7912  -30.7276   24.2235 H   0  0  0  0  0  0
  -17.4984  -31.6192   24.5235 H   0  0  0  0  0  0
  -15.5329  -30.2883   23.7728 H   0  0  0  0  0  0
  -15.8708  -28.0837   22.6881 H   0  0  0  0  0  0
  -24.5850  -30.7196   25.7771 H   0  0  0  0  0  0
  -24.9028  -32.2972   26.4923 H   0  0  0  0  0  0
  -25.8045  -30.8873   27.0207 H   0  0  0  0  0  0
  -26.2975  -29.6741   24.1208 H   0  0  0  0  0  0
  -27.4072  -29.7316   25.4708 H   0  0  0  0  0  0
  -27.8837  -30.4302   23.9423 H   0  0  0  0  0  0
  -27.2630  -33.3599   26.2141 H   0  0  0  0  0  0
  -28.3820  -32.7001   25.0294 H   0  0  0  0  0  0
  -28.0788  -31.8442   26.5339 H   0  0  0  0  0  0
  -28.2611  -38.0077   24.7490 H   0  0  0  0  0  0
  -28.1051  -36.2601   24.6330 H   0  0  0  0  0  0
  -27.2286  -37.1486   25.8868 H   0  0  0  0  0  0
  -20.9298  -29.8635   21.6762 H   0  0  0  0  0  0
  -26.0158  -38.2839   24.1411 H   0  0  0  0  0  0
  -32.0755  -20.0349   21.5427 H   0  0  0  0  0  0
  -31.3838  -22.3154   20.9606 H   0  0  0  0  0  0
  -27.9247  -18.8964   22.0926 H   0  0  0  0  0  0
  -29.6294  -19.2753   24.5555 H   0  0  0  0  0  0
  -31.1669  -18.4973   24.9112 H   0  0  0  0  0  0
  -29.6831  -17.9272   25.6728 H   0  0  0  0  0  0
  -27.3399  -24.8503   19.8026 H   0  0  0  0  0  0
  -28.5221  -25.2867   18.5689 H   0  0  0  0  0  0
  -28.8321  -17.1542   23.4552 H   0  0  0  0  0  0
  -30.3581  -16.3775   23.8356 H   0  0  0  0  0  0
  -31.5894  -17.9442   22.4587 H   0  0  0  0  0  0
  -27.7062  -23.1908   20.7279 H   0  0  0  0  0  0
  -29.5508  -15.3094   21.9744 H   0  0  0  0  0  0
  1 25  1  0  0  0
  1 30  2  0  0  0
  1 84  1  0  0  0
  2  3  1  0  0  0
  2 25  1  0  0  0
  2 88  1  0  0  0
  2 89  1  0  0  0
  3  4  1  0  0  0
  3 90  1  0  0  0
  3 91  1  0  0  0
  4  5  1  0  0  0
  4 92  1  0  0  0
  4 93  1  0  0  0
  5  6  1  0  0  0
  5 26  1  0  0  0
  5 94  1  0  0  0
  6 25  1  0  0  0
  6 95  1  0  0  0
  6 96  1  0  0  0
  7  8  2  0  0  0
  7 26  1  0  0  0
  7 29  1  0  0  0
  8  9  1  0  0  0
  8 22  1  0  0  0
  9 10  1  0  0  0
  9 27  2  0  0  0
 10 11  2  0  0  0
 10 15  1  0  0  0
 11 12  1  0  0  0
 11 97  1  0  0  0
 12 13  2  0  0  0
 12 98  1  0  0  0
 13 14  1  0  0  0
 13 31  1  0  0  0
 14 15  2  0  0  0
 14 99  1  0  0  0
 15100  1  0  0  0
 16 17  2  0  0  0
 16 21  1  0  0  0
 16 31  1  0  0  0
 17 18  1  0  0  0
 17101  1  0  0  0
 18 19  2  0  0  0
 18102  1  0  0  0
 19 20  1  0  0  0
 19 24  1  0  0  0
 20 21  2  0  0  0
 20103  1  0  0  0
 21 23  1  0  0  0
 22 28  1  0  0  0
 22 32  2  0  0  0
 26 27  1  0  0  0
 28104  1  0  0  0
 28105  1  0  0  0
 29106  1  0  0  0
 29107  1  0  0  0
 33 34  1  0  0  0
 33 66  1  0  0  0
 33 70  2  0  0  0
 34 36  1  0  0  0
 34 59  1  0  0  0
 34108  1  0  0  0
 35 44  2  0  0  0
 35 45  1  0  0  0
 35 68  1  0  0  0
 36 56  1  0  0  0
 36109  1  0  0  0
 37 39  1  0  0  0
 37 47  1  0  0  0
 37 66  1  0  0  0
 37110  1  0  0  0
 38 43  2  0  0  0
 38 46  1  0  0  0
 38 47  1  0  0  0
 39 64  1  0  0  0
 39 67  2  0  0  0
 40 52  1  0  0  0
 40 53  2  0  0  0
 40 58  1  0  0  0
 41111  1  0  0  0
 41112  1  0  0  0
 41113  1  0  0  0
 41 48  1  0  0  0
 42 43  1  0  0  0
 42 66  1  0  0  0
 42114  1  0  0  0
 42115  1  0  0  0
 43 44  1  0  0  0
 44116  1  0  0  0
 45 46  2  0  0  0
 45117  1  0  0  0
 46118  1  0  0  0
 47119  1  0  0  0
 47120  1  0  0  0
 48 56  1  0  0  0
 48 65  1  0  0  0
 48121  1  0  0  0
 49 50  1  0  0  0
 49 53  1  0  0  0
 49 64  1  0  0  0
 49122  1  0  0  0
 50 51  1  0  0  0
 50123  1  0  0  0
 50124  1  0  0  0
 51 52  1  0  0  0
 51125  1  0  0  0
 51126  1  0  0  0
 52127  1  0  0  0
 52128  1  0  0  0
 53 54  1  0  0  0
 54 55  2  0  0  0
 54129  1  0  0  0
 55 57  1  0  0  0
 55130  1  0  0  0
 56 69  2  0  0  0
 57 58  2  0  0  0
 57131  1  0  0  0
 58132  1  0  0  0
 59 60  1  0  0  0
 59 61  1  0  0  0
 59 62  1  0  0  0
 60133  1  0  0  0
 60134  1  0  0  0
 60135  1  0  0  0
 61136  1  0  0  0
 61137  1  0  0  0
 61138  1  0  0  0
 62139  1  0  0  0
 62140  1  0  0  0
 62141  1  0  0  0
 63 65  1  0  0  0
 63142  1  0  0  0
 63143  1  0  0  0
 63144  1  0  0  0
 64145  1  0  0  0
 65146  1  0  0  0
 68 80  1  0  0  0
 71 72  2  0  0  0
 71 74  1  0  0  0
 71147  1  0  0  0
 72 75  1  0  0  0
 72148  1  0  0  0
 73 74  2  0  0  0
 73 76  1  0  0  0
 73149  1  0  0  0
 74 82  1  0  0  0
 75 76  2  0  0  0
 75 83  1  0  0  0
 76 87  1  0  0  0
 77 80  1  0  0  0
 77 83  1  0  0  0
 77 85  2  0  0  0
 78 82  1  0  0  0
 78 84  1  0  0  0
 78 86  2  0  0  0
 79 81  1  0  0  0
 79150  1  0  0  0
 79151  1  0  0  0
 79152  1  0  0  0
 80153  1  0  0  0
 80154  1  0  0  0
 81155  1  0  0  0
 81156  1  0  0  0
 81 82  1  0  0  0
 82157  1  0  0  0
 83158  1  0  0  0
 84159  1  0  0  0
M  ISO  4   1 100  68 101  80 101  84 100
M  END
> <chiral flag>
0

> <version>
0

> <s_m_source_file>
/data/baiqing/PycharmProjects/Reinvent-master-3.2/result/LINK_invent/BTK/process_docking_weight1_custom_product_contain_oxygen_bond_distance_aromatic_linkinvent_7_9_3/rearranged_h_0093.sdf

> <i_m_source_file_index>
24

> <r_mmod_Potential_Energy-OPLS-2005>
-39.3468780517578

> <r_mmod_Stretch_Energy-OPLS-2005>
45.0629272460938

> <r_mmod_Bend_Energy-OPLS-2005>
124.58487701416

> <r_mmod_Torsional_Energy-OPLS-2005>
250.365020751953

> <r_mmod_Improper_Torsional_Energy-OPLS-2005>
2.60898470878601

> <r_mmod_Van_der_Waal_Energy-OPLS-2005>
172.585433959961

> <r_mmod_Electrostatic_Energy-OPLS-2005>
-406.820495605469

> <r_mmod_Solvation_Energy-OPLS-2005>
-247.44319152832

> <b_mmod_Minimization_Converged-OPLS-2005>
0

> <r_mmod_RMS_Derivative-OPLS-2005>
5.78640031814575

$$$$
25
                    3D
 Structure written by MMmdl.
162171  0  0  1  0            999 V2000
  -30.6894  -14.4953   20.5373 C   0  0  0  0  0  0
  -30.4218  -12.3208   19.4037 C   0  0  0  0  0  0
  -29.4855  -12.4926   18.1904 C   0  0  0  0  0  0
  -28.0074  -12.3675   18.6105 C   0  0  0  0  0  0
  -27.6569  -13.2080   19.8683 C   0  0  2  0  0  0
  -28.7059  -13.0011   20.9830 C   0  0  0  0  0  0
  -25.2583  -13.8154   20.5665 C   0  0  0  0  0  0
  -24.1850  -13.0437   20.9198 C   0  0  0  0  0  0
  -24.6406  -11.6910   20.8769 C   0  0  0  0  0  0
  -23.9088  -10.4286   21.0423 C   0  0  0  0  0  0
  -24.3631   -9.4207   21.9206 C   0  0  0  0  0  0
  -23.6292   -8.2253   22.0767 C   0  0  0  0  0  0
  -22.4288   -8.0289   21.3542 C   0  0  0  0  0  0
  -21.9930   -9.0261   20.4647 C   0  0  0  0  0  0
  -22.7268  -10.2135   20.3061 C   0  0  0  0  0  0
  -21.6856   -6.0745   22.5282 C   0  0  0  0  0  0
  -21.3990   -6.5644   23.8213 C   0  0  0  0  0  0
  -21.3643   -5.6788   24.9170 C   0  0  0  0  0  0
  -21.6050   -4.3059   24.7219 C   0  0  0  0  0  0
  -21.8835   -3.8147   23.4335 C   0  0  0  0  0  0
  -21.9192   -4.6965   22.3393 C   0  0  0  0  0  0
  -22.7872  -13.5252   21.1851 C   0  0  0  0  0  0
  -22.1669   -4.2172   21.0971 F   0  0  0  0  0  0
  -21.5628   -3.4549   25.7729 F   0  0  0  0  0  0
  -30.0237  -13.3147   20.4107 N   0  0  0  0  0  0
  -26.3018  -12.9315   20.3369 N   0  0  0  0  0  0
  -25.9342  -11.6483   20.5815 N   0  0  0  0  0  0
  -22.0516  -12.8218   22.0387 N   0  0  0  0  0  0
  -25.4236  -15.1873   20.3971 N   0  0  0  0  0  0
  -31.8411  -14.6516   20.1263 O   0  0  0  0  0  0
  -21.6654   -6.8893   21.4239 O   0  0  0  0  0  0
  -22.3571  -14.5573   20.6717 O   0  0  0  0  0  0
  -24.6219  -31.8693   23.2101 C   0  0  0  0  0  0
  -25.9118  -32.4814   23.8390 C   0  0  1  0  0  0
  -27.2268  -27.4120   20.0691 C   0  0  0  0  0  0
  -25.5973  -33.8603   24.2322 N   0  0  0  0  0  0
  -23.4059  -30.4959   21.5519 C   0  0  2  0  0  0
  -24.8457  -28.9630   20.1107 C   0  0  0  0  0  0
  -22.7427  -29.4700   22.4991 C   0  0  0  0  0  0
  -18.0281  -28.1377   22.8499 C   0  0  0  0  0  0
  -24.1453  -36.7231   23.2643 C   0  0  0  0  0  0
  -25.9403  -30.8213   21.3692 C   0  0  0  0  0  0
  -26.0100  -29.4550   20.7135 C   0  0  0  0  0  0
  -27.1990  -28.6828   20.7012 C   0  0  0  0  0  0
  -26.0362  -26.9456   19.4740 C   0  0  0  0  0  0
  -24.8544  -27.7034   19.4935 C   0  0  0  0  0  0
  -23.6109  -29.8378   20.1630 C   0  0  0  0  0  0
  -25.4081  -36.3085   24.0356 C   0  0  1  0  0  0
  -20.5883  -28.3688   23.1277 C   0  0  2  0  0  0
  -20.6781  -26.9408   22.5405 C   0  0  0  0  0  0
  -19.5750  -26.6385   21.5216 C   0  0  0  0  0  0
  -18.1913  -26.7937   22.1605 C   0  0  0  0  0  0
  -19.1536  -28.8845   23.2891 C   0  0  0  0  0  0
  -18.9479  -30.1445   23.8921 C   0  0  0  0  0  0
  -17.6487  -30.6594   24.0582 C   0  0  0  0  0  0
  -25.9062  -34.9472   23.5129 C   0  0  0  0  0  0
  -16.5372  -29.9097   23.6361 C   0  0  0  0  0  0
  -16.7273  -28.6502   23.0385 C   0  0  0  0  0  0
  -26.4511  -31.6603   25.0729 C   0  0  0  0  0  0
  -25.3781  -31.3710   26.1485 C   0  0  0  0  0  0
  -27.0360  -30.3054   24.6114 C   0  0  0  0  0  0
  -27.6099  -32.4321   25.7498 C   0  0  0  0  0  0
  -27.5564  -37.1745   24.8466 C   0  0  0  0  0  0
  -21.4152  -29.3064   22.3686 N   0  0  0  0  0  0
  -26.4231  -37.3810   23.9482 N   0  0  0  0  0  0
  -24.6736  -31.0782   22.0995 N   0  0  0  0  0  0
  -23.4181  -28.8253   23.3062 O   0  0  0  0  0  0
  -28.3898  -26.6562   20.0593 O   0  0  0  0  0  0
  -26.5597  -34.8943   22.4679 O   0  0  0  0  0  0
  -23.5404  -32.1464   23.7495 O   0  0  0  0  0  0
  -30.5815  -18.9421   19.9601 C   0  0  0  0  0  0
  -30.0987  -20.2115   19.5668 C   0  0  0  0  0  0
  -28.0963  -19.8404   20.8753 C   0  0  0  0  0  0
  -27.0442  -23.5955   18.8366 C   0  0  0  0  0  0
  -29.8432  -18.1082   20.8314 C   0  0  0  0  0  0
  -28.5611  -18.5523   21.2479 C   0  0  0  0  0  0
  -28.2596  -24.2346   19.2314 C   0  0  0  0  0  0
  -28.8637  -20.6961   20.0494 C   0  0  0  0  0  0
  -29.0582  -23.2334   19.7566 C   0  0  0  0  0  0
  -27.1371  -22.2734   19.1395 C   0  0  0  0  0  0
  -27.6732  -17.6788   22.1145 C   0  0  0  0  0  0
  -30.4497  -23.3442   20.3056 C   0  0  0  0  0  0
  -30.5113  -16.8413   21.4049 C   0  0  0  0  0  0
  -28.6198  -25.7132   18.9854 C   0  0  0  0  0  0
  -28.3838  -21.9995   19.6778 N   0  0  0  0  0  0
  -29.9697  -15.5260   21.0226 N   0  0  0  0  0  0
  -26.2065  -21.3012   18.9423 O   0  0  0  0  0  0
  -31.4649  -12.4264   19.0947 H   0  0  0  0  0  0
  -30.3362  -11.3116   19.8121 H   0  0  0  0  0  0
  -29.7199  -11.7445   17.4338 H   0  0  0  0  0  0
  -29.6532  -13.4622   17.7199 H   0  0  0  0  0  0
  -27.8092  -11.3123   18.7959 H   0  0  0  0  0  0
  -27.3588  -12.6518   17.7812 H   0  0  0  0  0  0
  -27.6969  -14.2566   19.5718 H   0  0  0  0  0  0
  -28.6944  -11.9683   21.3354 H   0  0  0  0  0  0
  -28.4770  -13.6114   21.8581 H   0  0  0  0  0  0
  -25.2774   -9.5698   22.4800 H   0  0  0  0  0  0
  -24.0007   -7.4645   22.7476 H   0  0  0  0  0  0
  -21.0889   -8.8770   19.8925 H   0  0  0  0  0  0
  -22.3738  -10.9684   19.6169 H   0  0  0  0  0  0
  -21.1969   -7.6147   23.9717 H   0  0  0  0  0  0
  -21.1444   -6.0518   25.9075 H   0  0  0  0  0  0
  -22.0624   -2.7611   23.2829 H   0  0  0  0  0  0
  -22.4075  -11.9828   22.4740 H   0  0  0  0  0  0
  -21.1118  -13.1233   22.2586 H   0  0  0  0  0  0
  -24.6425  -15.8300   20.4785 H   0  0  0  0  0  0
  -26.2532  -15.6237   20.0132 H   0  0  0  0  0  0
  -26.7194  -32.5480   23.1142 H   0  0  0  0  0  0
  -25.0271  -33.9785   25.0575 H   0  0  0  0  0  0
  -22.6969  -31.3160   21.4182 H   0  0  0  0  0  0
  -23.3805  -35.9469   23.3218 H   0  0  0  0  0  0
  -24.3575  -36.8943   22.2074 H   0  0  0  0  0  0
  -23.7076  -37.6349   23.6701 H   0  0  0  0  0  0
  -26.0669  -31.5886   20.6032 H   0  0  0  0  0  0
  -26.8245  -30.8664   21.9926 H   0  0  0  0  0  0
  -28.0959  -29.0662   21.1653 H   0  0  0  0  0  0
  -25.9961  -25.9899   18.9893 H   0  0  0  0  0  0
  -23.9607  -27.3126   19.0264 H   0  0  0  0  0  0
  -23.7209  -30.6206   19.4127 H   0  0  0  0  0  0
  -22.7317  -29.2658   19.8605 H   0  0  0  0  0  0
  -25.1253  -36.1900   25.0856 H   0  0  0  0  0  0
  -20.9996  -28.3266   24.1388 H   0  0  0  0  0  0
  -20.5692  -26.2316   23.3626 H   0  0  0  0  0  0
  -21.6637  -26.7448   22.1164 H   0  0  0  0  0  0
  -19.6905  -25.6300   21.1245 H   0  0  0  0  0  0
  -19.6687  -27.3216   20.6758 H   0  0  0  0  0  0
  -17.4202  -26.6772   21.3959 H   0  0  0  0  0  0
  -18.0232  -26.0027   22.8935 H   0  0  0  0  0  0
  -19.7966  -30.7246   24.2290 H   0  0  0  0  0  0
  -17.5056  -31.6293   24.5155 H   0  0  0  0  0  0
  -15.5381  -30.3033   23.7669 H   0  0  0  0  0  0
  -15.8648  -28.0831   22.7127 H   0  0  0  0  0  0
  -24.5963  -30.7035   25.7826 H   0  0  0  0  0  0
  -24.8963  -32.2857   26.4940 H   0  0  0  0  0  0
  -25.8130  -30.8868   27.0238 H   0  0  0  0  0  0
  -26.2887  -29.6764   24.1241 H   0  0  0  0  0  0
  -27.4248  -29.7331   25.4549 H   0  0  0  0  0  0
  -27.8674  -30.4399   23.9197 H   0  0  0  0  0  0
  -27.2748  -33.3690   26.1957 H   0  0  0  0  0  0
  -28.3966  -32.6740   25.0338 H   0  0  0  0  0  0
  -28.0664  -31.8496   26.5505 H   0  0  0  0  0  0
  -28.2501  -38.0126   24.7686 H   0  0  0  0  0  0
  -28.1146  -36.2687   24.6050 H   0  0  0  0  0  0
  -27.2329  -37.1095   25.8875 H   0  0  0  0  0  0
  -20.9309  -29.8780   21.6890 H   0  0  0  0  0  0
  -26.0100  -38.2841   24.1656 H   0  0  0  0  0  0
  -31.5536  -18.6254   19.6127 H   0  0  0  0  0  0
  -30.6940  -20.8246   18.9070 H   0  0  0  0  0  0
  -27.1352  -20.1847   21.2301 H   0  0  0  0  0  0
  -26.1891  -24.0410   18.3517 H   0  0  0  0  0  0
  -26.7129  -18.1548   22.3155 H   0  0  0  0  0  0
  -28.1450  -17.4615   23.0721 H   0  0  0  0  0  0
  -27.4634  -16.7354   21.6110 H   0  0  0  0  0  0
  -30.6323  -24.3439   20.7010 H   0  0  0  0  0  0
  -31.1914  -23.1604   19.5254 H   0  0  0  0  0  0
  -30.6253  -22.6406   21.1201 H   0  0  0  0  0  0
  -30.4407  -16.8970   22.4917 H   0  0  0  0  0  0
  -31.5832  -16.8934   21.2046 H   0  0  0  0  0  0
  -28.1410  -26.0487   18.0640 H   0  0  0  0  0  0
  -29.6850  -25.7539   18.7573 H   0  0  0  0  0  0
  -29.0092  -15.3355   21.2570 H   0  0  0  0  0  0
  -25.3885  -21.7287   18.7067 H   0  0  0  0  0  0
  1 25  1  0  0  0
  1 30  2  0  0  0
  1 86  1  0  0  0
  2  3  1  0  0  0
  2 25  1  0  0  0
  2 88  1  0  0  0
  2 89  1  0  0  0
  3  4  1  0  0  0
  3 90  1  0  0  0
  3 91  1  0  0  0
  4  5  1  0  0  0
  4 92  1  0  0  0
  4 93  1  0  0  0
  5  6  1  0  0  0
  5 26  1  0  0  0
  5 94  1  0  0  0
  6 25  1  0  0  0
  6 95  1  0  0  0
  6 96  1  0  0  0
  7  8  2  0  0  0
  7 26  1  0  0  0
  7 29  1  0  0  0
  8  9  1  0  0  0
  8 22  1  0  0  0
  9 10  1  0  0  0
  9 27  2  0  0  0
 10 11  2  0  0  0
 10 15  1  0  0  0
 11 12  1  0  0  0
 11 97  1  0  0  0
 12 13  2  0  0  0
 12 98  1  0  0  0
 13 14  1  0  0  0
 13 31  1  0  0  0
 14 15  2  0  0  0
 14 99  1  0  0  0
 15100  1  0  0  0
 16 17  2  0  0  0
 16 21  1  0  0  0
 16 31  1  0  0  0
 17 18  1  0  0  0
 17101  1  0  0  0
 18 19  2  0  0  0
 18102  1  0  0  0
 19 20  1  0  0  0
 19 24  1  0  0  0
 20 21  2  0  0  0
 20103  1  0  0  0
 21 23  1  0  0  0
 22 28  1  0  0  0
 22 32  2  0  0  0
 26 27  1  0  0  0
 28104  1  0  0  0
 28105  1  0  0  0
 29106  1  0  0  0
 29107  1  0  0  0
 33 34  1  0  0  0
 33 66  1  0  0  0
 33 70  2  0  0  0
 34 36  1  0  0  0
 34 59  1  0  0  0
 34108  1  0  0  0
 35 44  2  0  0  0
 35 45  1  0  0  0
 35 68  1  0  0  0
 36 56  1  0  0  0
 36109  1  0  0  0
 37 39  1  0  0  0
 37 47  1  0  0  0
 37 66  1  0  0  0
 37110  1  0  0  0
 38 43  2  0  0  0
 38 46  1  0  0  0
 38 47  1  0  0  0
 39 64  1  0  0  0
 39 67  2  0  0  0
 40 52  1  0  0  0
 40 53  2  0  0  0
 40 58  1  0  0  0
 41111  1  0  0  0
 41112  1  0  0  0
 41113  1  0  0  0
 41 48  1  0  0  0
 42 43  1  0  0  0
 42 66  1  0  0  0
 42114  1  0  0  0
 42115  1  0  0  0
 43 44  1  0  0  0
 44116  1  0  0  0
 45 46  2  0  0  0
 45117  1  0  0  0
 46118  1  0  0  0
 47119  1  0  0  0
 47120  1  0  0  0
 48 56  1  0  0  0
 48 65  1  0  0  0
 48121  1  0  0  0
 49 50  1  0  0  0
 49 53  1  0  0  0
 49 64  1  0  0  0
 49122  1  0  0  0
 50 51  1  0  0  0
 50123  1  0  0  0
 50124  1  0  0  0
 51 52  1  0  0  0
 51125  1  0  0  0
 51126  1  0  0  0
 52127  1  0  0  0
 52128  1  0  0  0
 53 54  1  0  0  0
 54 55  2  0  0  0
 54129  1  0  0  0
 55 57  1  0  0  0
 55130  1  0  0  0
 56 69  2  0  0  0
 57 58  2  0  0  0
 57131  1  0  0  0
 58132  1  0  0  0
 59 60  1  0  0  0
 59 61  1  0  0  0
 59 62  1  0  0  0
 60133  1  0  0  0
 60134  1  0  0  0
 60135  1  0  0  0
 61136  1  0  0  0
 61137  1  0  0  0
 61138  1  0  0  0
 62139  1  0  0  0
 62140  1  0  0  0
 62141  1  0  0  0
 63 65  1  0  0  0
 63142  1  0  0  0
 63143  1  0  0  0
 63144  1  0  0  0
 64145  1  0  0  0
 65146  1  0  0  0
 68 84  1  0  0  0
 71 72  2  0  0  0
 71 75  1  0  0  0
 71147  1  0  0  0
 72 78  1  0  0  0
 72148  1  0  0  0
 73 76  1  0  0  0
 73 78  2  0  0  0
 73149  1  0  0  0
 74 77  1  0  0  0
 74 80  2  0  0  0
 74150  1  0  0  0
 75 76  2  0  0  0
 75 83  1  0  0  0
 76 81  1  0  0  0
 77 79  2  0  0  0
 77 84  1  0  0  0
 78 85  1  0  0  0
 79 82  1  0  0  0
 79 85  1  0  0  0
 80 85  1  0  0  0
 80 87  1  0  0  0
 81151  1  0  0  0
 81152  1  0  0  0
 81153  1  0  0  0
 82154  1  0  0  0
 82155  1  0  0  0
 82156  1  0  0  0
 83 86  1  0  0  0
 83157  1  0  0  0
 83158  1  0  0  0
 84159  1  0  0  0
 84160  1  0  0  0
 86161  1  0  0  0
 87162  1  0  0  0
M  ISO  4   1 100  68 101  84 101  86 100
M  END
> <chiral flag>
0

> <version>
0

> <s_m_source_file>
/data/baiqing/PycharmProjects/Reinvent-master-3.2/result/LINK_invent/BTK/process_docking_weight1_custom_product_contain_oxygen_bond_distance_aromatic_linkinvent_7_9_3/rearranged_h_0093.sdf

> <i_m_source_file_index>
25

> <r_mmod_Potential_Energy-OPLS-2005>
-73.8092498779297

> <r_mmod_Stretch_Energy-OPLS-2005>
44.5957107543945

> <r_mmod_Bend_Energy-OPLS-2005>
108.403205871582

> <r_mmod_Torsional_Energy-OPLS-2005>
227.274688720703

> <r_mmod_Improper_Torsional_Energy-OPLS-2005>
4.23059892654419

> <r_mmod_Van_der_Waal_Energy-OPLS-2005>
146.979904174805

> <r_mmod_Electrostatic_Energy-OPLS-2005>
-403.131164550781

> <r_mmod_Solvation_Energy-OPLS-2005>
-219.457061767578

> <b_mmod_Minimization_Converged-OPLS-2005>
0

> <r_mmod_RMS_Derivative-OPLS-2005>
3.80271744728088

$$$$
26
                    3D
 Structure written by MMmdl.
161170  0  0  1  0            999 V2000
  -30.7098  -14.4794   20.5959 C   0  0  0  0  0  0
  -30.4224  -12.3246   19.4158 C   0  0  0  0  0  0
  -29.4908  -12.5101   18.2016 C   0  0  0  0  0  0
  -28.0139  -12.3642   18.6180 C   0  0  0  0  0  0
  -27.6589  -13.2086   19.8712 C   0  0  2  0  0  0
  -28.7015  -12.9979   20.9907 C   0  0  0  0  0  0
  -25.2580  -13.8165   20.5680 C   0  0  0  0  0  0
  -24.1833  -13.0439   20.9175 C   0  0  0  0  0  0
  -24.6389  -11.6907   20.8733 C   0  0  0  0  0  0
  -23.9057  -10.4292   21.0403 C   0  0  0  0  0  0
  -24.3611   -9.4209   21.9182 C   0  0  0  0  0  0
  -23.6289   -8.2244   22.0753 C   0  0  0  0  0  0
  -22.4271   -8.0280   21.3544 C   0  0  0  0  0  0
  -21.9904   -9.0253   20.4646 C   0  0  0  0  0  0
  -22.7230  -10.2133   20.3053 C   0  0  0  0  0  0
  -21.6852   -6.0734   22.5279 C   0  0  0  0  0  0
  -21.4013   -6.5639   23.8212 C   0  0  0  0  0  0
  -21.3659   -5.6792   24.9175 C   0  0  0  0  0  0
  -21.6044   -4.3055   24.7225 C   0  0  0  0  0  0
  -21.8820   -3.8146   23.4347 C   0  0  0  0  0  0
  -21.9193   -4.6962   22.3403 C   0  0  0  0  0  0
  -22.7857  -13.5238   21.1843 C   0  0  0  0  0  0
  -22.1662   -4.2148   21.0980 F   0  0  0  0  0  0
  -21.5629   -3.4538   25.7738 F   0  0  0  0  0  0
  -30.0285  -13.3113   20.4342 N   0  0  0  0  0  0
  -26.3011  -12.9335   20.3353 N   0  0  0  0  0  0
  -25.9315  -11.6493   20.5760 N   0  0  0  0  0  0
  -22.0498  -12.8231   22.0401 N   0  0  0  0  0  0
  -25.4311  -15.1883   20.4098 N   0  0  0  0  0  0
  -31.8294  -14.6686   20.1128 O   0  0  0  0  0  0
  -21.6638   -6.8876   21.4240 O   0  0  0  0  0  0
  -22.3543  -14.5547   20.6696 O   0  0  0  0  0  0
  -24.6166  -31.8667   23.2085 C   0  0  0  0  0  0
  -25.9052  -32.4816   23.8387 C   0  0  1  0  0  0
  -27.2304  -27.4165   20.1024 C   0  0  0  0  0  0
  -25.5903  -33.8614   24.2320 N   0  0  0  0  0  0
  -23.4053  -30.4904   21.5497 C   0  0  2  0  0  0
  -24.8515  -28.9544   20.1147 C   0  0  0  0  0  0
  -22.7421  -29.4655   22.4983 C   0  0  0  0  0  0
  -18.0274  -28.1377   22.8493 C   0  0  0  0  0  0
  -24.1486  -36.7311   23.2638 C   0  0  0  0  0  0
  -25.9361  -30.8289   21.3623 C   0  0  0  0  0  0
  -26.0144  -29.4626   20.7078 C   0  0  0  0  0  0
  -27.2104  -28.7043   20.6913 C   0  0  0  0  0  0
  -26.0496  -26.9281   19.5032 C   0  0  0  0  0  0
  -24.8650  -27.6875   19.5071 C   0  0  0  0  0  0
  -23.6142  -29.8228   20.1646 C   0  0  0  0  0  0
  -25.4107  -36.3108   24.0338 C   0  0  1  0  0  0
  -20.5867  -28.3666   23.1314 C   0  0  2  0  0  0
  -20.6765  -26.9401   22.5416 C   0  0  0  0  0  0
  -19.5744  -26.6385   21.5213 C   0  0  0  0  0  0
  -18.1922  -26.7924   22.1624 C   0  0  0  0  0  0
  -19.1524  -28.8838   23.2901 C   0  0  0  0  0  0
  -18.9452  -30.1444   23.8912 C   0  0  0  0  0  0
  -17.6454  -30.6584   24.0565 C   0  0  0  0  0  0
  -25.9036  -34.9473   23.5127 C   0  0  0  0  0  0
  -16.5345  -29.9086   23.6326 C   0  0  0  0  0  0
  -16.7263  -28.6503   23.0348 C   0  0  0  0  0  0
  -26.4474  -31.6596   25.0719 C   0  0  0  0  0  0
  -25.3740  -31.3703   26.1467 C   0  0  0  0  0  0
  -27.0303  -30.3039   24.6095 C   0  0  0  0  0  0
  -27.6050  -32.4314   25.7482 C   0  0  0  0  0  0
  -27.5580  -37.1810   24.8466 C   0  0  0  0  0  0
  -21.4146  -29.3034   22.3722 N   0  0  0  0  0  0
  -26.4293  -37.3793   23.9409 N   0  0  0  0  0  0
  -24.6712  -31.0761   22.0987 N   0  0  0  0  0  0
  -23.4187  -28.8197   23.3030 O   0  0  0  0  0  0
  -28.3808  -26.6497   20.1046 O   0  0  0  0  0  0
  -26.5599  -34.8927   22.4689 O   0  0  0  0  0  0
  -23.5355  -32.1421   23.7474 O   0  0  0  0  0  0
  -29.0063  -18.6256   21.2509 C   0  0  0  0  0  0
  -28.7190  -19.8956   20.6931 C   0  0  0  0  0  0
  -31.2077  -18.6853   20.2361 C   0  0  0  0  0  0
  -30.2603  -18.0113   21.0356 C   0  0  0  0  0  0
  -29.6680  -20.5766   19.8910 C   0  0  0  0  0  0
  -30.9290  -19.9513   19.6702 C   0  0  0  0  0  0
  -29.0620  -22.9605   20.1429 C   0  0  0  0  0  0
  -28.6024  -24.1648   19.7123 C   0  0  0  0  0  0
  -29.1773  -21.9586   17.9536 C   0  0  0  0  0  0
  -28.3274  -24.3783   18.2345 C   0  0  0  0  0  0
  -29.0767  -23.3664   17.3480 C   0  0  0  0  0  0
  -30.6516  -16.7099   21.7525 C   0  0  0  0  0  0
  -28.2530  -25.3208   20.6651 C   0  0  0  0  0  0
  -29.3303  -21.8505   19.3009 N   0  0  0  0  0  0
  -31.9426  -20.5650   18.9307 N   0  0  0  0  0  0
  -30.0606  -15.4558   21.2591 N   0  0  0  0  0  0
  -29.1432  -20.9894   17.1857 O   0  0  0  0  0  0
  -31.4652  -12.4301   19.1112 H   0  0  0  0  0  0
  -30.3322  -11.3147   19.8187 H   0  0  0  0  0  0
  -29.7335  -11.7830   17.4255 H   0  0  0  0  0  0
  -29.6522  -13.4947   17.7598 H   0  0  0  0  0  0
  -27.8304  -11.3082   18.8198 H   0  0  0  0  0  0
  -27.3600  -12.6312   17.7870 H   0  0  0  0  0  0
  -27.7007  -14.2556   19.5699 H   0  0  0  0  0  0
  -28.6851  -11.9625   21.3343 H   0  0  0  0  0  0
  -28.4563  -13.5971   21.8683 H   0  0  0  0  0  0
  -25.2758   -9.5687   22.4754 H   0  0  0  0  0  0
  -24.0000   -7.4636   22.7472 H   0  0  0  0  0  0
  -21.0836   -8.8769   19.8952 H   0  0  0  0  0  0
  -22.3689  -10.9670   19.6161 H   0  0  0  0  0  0
  -21.2004   -7.6147   23.9715 H   0  0  0  0  0  0
  -21.1480   -6.0522   25.9077 H   0  0  0  0  0  0
  -22.0600   -2.7609   23.2847 H   0  0  0  0  0  0
  -22.4110  -11.9888   22.4784 H   0  0  0  0  0  0
  -21.1118  -13.1260   22.2610 H   0  0  0  0  0  0
  -24.6668  -15.8461   20.5187 H   0  0  0  0  0  0
  -26.2875  -15.6262   20.0937 H   0  0  0  0  0  0
  -26.7124  -32.5523   23.1152 H   0  0  0  0  0  0
  -25.0061  -33.9774   25.0471 H   0  0  0  0  0  0
  -22.6948  -31.3076   21.4102 H   0  0  0  0  0  0
  -23.3745  -35.9647   23.3312 H   0  0  0  0  0  0
  -24.3579  -36.8913   22.2050 H   0  0  0  0  0  0
  -23.7241  -37.6521   23.6644 H   0  0  0  0  0  0
  -26.0499  -31.5955   20.5945 H   0  0  0  0  0  0
  -26.8234  -30.8817   21.9816 H   0  0  0  0  0  0
  -28.1095  -29.0934   21.1487 H   0  0  0  0  0  0
  -26.0377  -25.9560   19.0344 H   0  0  0  0  0  0
  -23.9715  -27.2902   19.0454 H   0  0  0  0  0  0
  -23.7233  -30.5977   19.4049 H   0  0  0  0  0  0
  -22.7376  -29.2436   19.8686 H   0  0  0  0  0  0
  -25.1285  -36.1973   25.0831 H   0  0  0  0  0  0
  -20.9959  -28.3230   24.1434 H   0  0  0  0  0  0
  -20.5669  -26.2273   23.3604 H   0  0  0  0  0  0
  -21.6636  -26.7445   22.1207 H   0  0  0  0  0  0
  -19.6906  -25.6300   21.1231 H   0  0  0  0  0  0
  -19.6684  -27.3205   20.6750 H   0  0  0  0  0  0
  -17.4194  -26.6674   21.4025 H   0  0  0  0  0  0
  -18.0323  -26.0061   22.9017 H   0  0  0  0  0  0
  -19.7928  -30.7255   24.2288 H   0  0  0  0  0  0
  -17.5011  -31.6266   24.5163 H   0  0  0  0  0  0
  -15.5346  -30.2994   23.7642 H   0  0  0  0  0  0
  -15.8663  -28.0828   22.7054 H   0  0  0  0  0  0
  -24.5909  -30.7056   25.7803 H   0  0  0  0  0  0
  -24.8937  -32.2859   26.4929 H   0  0  0  0  0  0
  -25.8093  -30.8860   27.0217 H   0  0  0  0  0  0
  -26.2846  -29.6803   24.1149 H   0  0  0  0  0  0
  -27.4075  -29.7272   25.4550 H   0  0  0  0  0  0
  -27.8680  -30.4358   23.9242 H   0  0  0  0  0  0
  -27.2671  -33.3604   26.2087 H   0  0  0  0  0  0
  -28.3847  -32.6889   25.0301 H   0  0  0  0  0  0
  -28.0733  -31.8420   26.5376 H   0  0  0  0  0  0
  -28.2605  -38.0100   24.7508 H   0  0  0  0  0  0
  -28.1067  -36.2633   24.6296 H   0  0  0  0  0  0
  -27.2299  -37.1466   25.8870 H   0  0  0  0  0  0
  -20.9307  -29.8760   21.6948 H   0  0  0  0  0  0
  -26.0183  -38.2873   24.1406 H   0  0  0  0  0  0
  -28.2680  -18.1382   21.8731 H   0  0  0  0  0  0
  -27.7537  -20.3463   20.8768 H   0  0  0  0  0  0
  -32.1772  -18.2304   20.0844 H   0  0  0  0  0  0
  -29.2393  -22.7534   21.1890 H   0  0  0  0  0  0
  -28.6188  -25.3875   17.9422 H   0  0  0  0  0  0
  -27.2540  -24.2955   18.0645 H   0  0  0  0  0  0
  -28.6159  -23.3173   16.3612 H   0  0  0  0  0  0
  -30.0985  -23.7140   17.1938 H   0  0  0  0  0  0
  -30.3576  -16.8114   22.7980 H   0  0  0  0  0  0
  -31.7402  -16.6298   21.7793 H   0  0  0  0  0  0
  -28.9103  -25.2619   21.5333 H   0  0  0  0  0  0
  -27.2492  -25.1402   21.0534 H   0  0  0  0  0  0
  -32.7204  -19.9936   18.6159 H   0  0  0  0  0  0
  -31.6988  -21.2865   18.2624 H   0  0  0  0  0  0
  -29.1278  -15.2389   21.5751 H   0  0  0  0  0  0
  1 25  1  0  0  0
  1 30  2  0  0  0
  1 86  1  0  0  0
  2  3  1  0  0  0
  2 25  1  0  0  0
  2 88  1  0  0  0
  2 89  1  0  0  0
  3  4  1  0  0  0
  3 90  1  0  0  0
  3 91  1  0  0  0
  4  5  1  0  0  0
  4 92  1  0  0  0
  4 93  1  0  0  0
  5  6  1  0  0  0
  5 26  1  0  0  0
  5 94  1  0  0  0
  6 25  1  0  0  0
  6 95  1  0  0  0
  6 96  1  0  0  0
  7  8  2  0  0  0
  7 26  1  0  0  0
  7 29  1  0  0  0
  8  9  1  0  0  0
  8 22  1  0  0  0
  9 10  1  0  0  0
  9 27  2  0  0  0
 10 11  2  0  0  0
 10 15  1  0  0  0
 11 12  1  0  0  0
 11 97  1  0  0  0
 12 13  2  0  0  0
 12 98  1  0  0  0
 13 14  1  0  0  0
 13 31  1  0  0  0
 14 15  2  0  0  0
 14 99  1  0  0  0
 15100  1  0  0  0
 16 17  2  0  0  0
 16 21  1  0  0  0
 16 31  1  0  0  0
 17 18  1  0  0  0
 17101  1  0  0  0
 18 19  2  0  0  0
 18102  1  0  0  0
 19 20  1  0  0  0
 19 24  1  0  0  0
 20 21  2  0  0  0
 20103  1  0  0  0
 21 23  1  0  0  0
 22 28  1  0  0  0
 22 32  2  0  0  0
 26 27  1  0  0  0
 28104  1  0  0  0
 28105  1  0  0  0
 29106  1  0  0  0
 29107  1  0  0  0
 33 34  1  0  0  0
 33 66  1  0  0  0
 33 70  2  0  0  0
 34 36  1  0  0  0
 34 59  1  0  0  0
 34108  1  0  0  0
 35 44  2  0  0  0
 35 45  1  0  0  0
 35 68  1  0  0  0
 36 56  1  0  0  0
 36109  1  0  0  0
 37 39  1  0  0  0
 37 47  1  0  0  0
 37 66  1  0  0  0
 37110  1  0  0  0
 38 43  2  0  0  0
 38 46  1  0  0  0
 38 47  1  0  0  0
 39 64  1  0  0  0
 39 67  2  0  0  0
 40 52  1  0  0  0
 40 53  2  0  0  0
 40 58  1  0  0  0
 41111  1  0  0  0
 41112  1  0  0  0
 41113  1  0  0  0
 41 48  1  0  0  0
 42 43  1  0  0  0
 42 66  1  0  0  0
 42114  1  0  0  0
 42115  1  0  0  0
 43 44  1  0  0  0
 44116  1  0  0  0
 45 46  2  0  0  0
 45117  1  0  0  0
 46118  1  0  0  0
 47119  1  0  0  0
 47120  1  0  0  0
 48 56  1  0  0  0
 48 65  1  0  0  0
 48121  1  0  0  0
 49 50  1  0  0  0
 49 53  1  0  0  0
 49 64  1  0  0  0
 49122  1  0  0  0
 50 51  1  0  0  0
 50123  1  0  0  0
 50124  1  0  0  0
 51 52  1  0  0  0
 51125  1  0  0  0
 51126  1  0  0  0
 52127  1  0  0  0
 52128  1  0  0  0
 53 54  1  0  0  0
 54 55  2  0  0  0
 54129  1  0  0  0
 55 57  1  0  0  0
 55130  1  0  0  0
 56 69  2  0  0  0
 57 58  2  0  0  0
 57131  1  0  0  0
 58132  1  0  0  0
 59 60  1  0  0  0
 59 61  1  0  0  0
 59 62  1  0  0  0
 60133  1  0  0  0
 60134  1  0  0  0
 60135  1  0  0  0
 61136  1  0  0  0
 61137  1  0  0  0
 61138  1  0  0  0
 62139  1  0  0  0
 62140  1  0  0  0
 62141  1  0  0  0
 63 65  1  0  0  0
 63142  1  0  0  0
 63143  1  0  0  0
 63144  1  0  0  0
 64145  1  0  0  0
 65146  1  0  0  0
 68 83  1  0  0  0
 71 72  2  0  0  0
 71 74  1  0  0  0
 71147  1  0  0  0
 72 75  1  0  0  0
 72148  1  0  0  0
 73 74  2  0  0  0
 73 76  1  0  0  0
 73149  1  0  0  0
 74 82  1  0  0  0
 75 76  2  0  0  0
 75 84  1  0  0  0
 76 85  1  0  0  0
 77 78  2  0  0  0
 77 84  1  0  0  0
 77150  1  0  0  0
 78 80  1  0  0  0
 78 83  1  0  0  0
 79 81  1  0  0  0
 79 84  1  0  0  0
 79 87  2  0  0  0
 80 81  1  0  0  0
 80151  1  0  0  0
 80152  1  0  0  0
 81153  1  0  0  0
 81154  1  0  0  0
 82 86  1  0  0  0
 82155  1  0  0  0
 82156  1  0  0  0
 83157  1  0  0  0
 83158  1  0  0  0
 85159  1  0  0  0
 85160  1  0  0  0
 86161  1  0  0  0
M  ISO  4   1 100  68 101  83 101  86 100
M  END
> <chiral flag>
0

> <version>
0

> <s_m_source_file>
/data/baiqing/PycharmProjects/Reinvent-master-3.2/result/LINK_invent/BTK/process_docking_weight1_custom_product_contain_oxygen_bond_distance_aromatic_linkinvent_7_9_3/rearranged_h_0093.sdf

> <i_m_source_file_index>
26

> <r_mmod_Potential_Energy-OPLS-2005>
-19.4726810455322

> <r_mmod_Stretch_Energy-OPLS-2005>
45.7715797424316

> <r_mmod_Bend_Energy-OPLS-2005>
100.365592956543

> <r_mmod_Torsional_Energy-OPLS-2005>
280.110900878906

> <r_mmod_Improper_Torsional_Energy-OPLS-2005>
5.95698308944702

> <r_mmod_Van_der_Waal_Energy-OPLS-2005>
165.643569946289

> <r_mmod_Electrostatic_Energy-OPLS-2005>
-400.625701904297

> <r_mmod_Solvation_Energy-OPLS-2005>
-231.033538818359

> <b_mmod_Minimization_Converged-OPLS-2005>
0

> <r_mmod_RMS_Derivative-OPLS-2005>
0.0958928763866425

$$$$
27
                    3D
 Structure written by MMmdl.
158166  0  0  1  0            999 V2000
  -30.7506  -14.3994   20.6192 C   0  0  0  0  0  0
  -30.4120  -12.2828   19.4043 C   0  0  0  0  0  0
  -29.4843  -12.5013   18.1939 C   0  0  0  0  0  0
  -28.0069  -12.3680   18.6095 C   0  0  0  0  0  0
  -27.6600  -13.2028   19.8704 C   0  0  2  0  0  0
  -28.6999  -12.9721   20.9889 C   0  0  0  0  0  0
  -25.2576  -13.8166   20.5671 C   0  0  0  0  0  0
  -24.1823  -13.0450   20.9176 C   0  0  0  0  0  0
  -24.6384  -11.6919   20.8739 C   0  0  0  0  0  0
  -23.9063  -10.4306   21.0411 C   0  0  0  0  0  0
  -24.3619   -9.4219   21.9184 C   0  0  0  0  0  0
  -23.6298   -8.2253   22.0754 C   0  0  0  0  0  0
  -22.4283   -8.0293   21.3536 C   0  0  0  0  0  0
  -21.9913   -9.0275   20.4644 C   0  0  0  0  0  0
  -22.7243  -10.2152   20.3056 C   0  0  0  0  0  0
  -21.6854   -6.0742   22.5280 C   0  0  0  0  0  0
  -21.4023   -6.5640   23.8217 C   0  0  0  0  0  0
  -21.3664   -5.6785   24.9173 C   0  0  0  0  0  0
  -21.6046   -4.3049   24.7217 C   0  0  0  0  0  0
  -21.8821   -3.8148   23.4337 C   0  0  0  0  0  0
  -21.9196   -4.6970   22.3398 C   0  0  0  0  0  0
  -22.7850  -13.5258   21.1843 C   0  0  0  0  0  0
  -22.1657   -4.2157   21.0971 F   0  0  0  0  0  0
  -21.5633   -3.4531   25.7727 F   0  0  0  0  0  0
  -30.0340  -13.2600   20.4337 N   0  0  0  0  0  0
  -26.3004  -12.9328   20.3333 N   0  0  0  0  0  0
  -25.9302  -11.6497   20.5747 N   0  0  0  0  0  0
  -22.0474  -12.8271   22.0399 N   0  0  0  0  0  0
  -25.4327  -15.1881   20.4091 N   0  0  0  0  0  0
  -31.8728  -14.5585   20.1269 O   0  0  0  0  0  0
  -21.6644   -6.8890   21.4243 O   0  0  0  0  0  0
  -22.3552  -14.5580   20.6714 O   0  0  0  0  0  0
  -24.6106  -31.8724   23.2119 C   0  0  0  0  0  0
  -25.9028  -32.4843   23.8398 C   0  0  1  0  0  0
  -27.2339  -27.4779   20.0855 C   0  0  0  0  0  0
  -25.5910  -33.8636   24.2356 N   0  0  0  0  0  0
  -23.3951  -30.4945   21.5525 C   0  0  2  0  0  0
  -24.8410  -28.9623   20.1168 C   0  0  0  0  0  0
  -22.7381  -29.4676   22.5018 C   0  0  0  0  0  0
  -18.0271  -28.1373   22.8496 C   0  0  0  0  0  0
  -24.1487  -36.7315   23.2630 C   0  0  0  0  0  0
  -25.9188  -30.8509   21.3562 C   0  0  0  0  0  0
  -25.9981  -29.4869   20.7065 C   0  0  0  0  0  0
  -27.2000  -28.7507   20.6884 C   0  0  0  0  0  0
  -26.0651  -26.9553   19.4943 C   0  0  0  0  0  0
  -24.8660  -27.6927   19.5109 C   0  0  0  0  0  0
  -23.6021  -29.8247   20.1670 C   0  0  0  0  0  0
  -25.4096  -36.3115   24.0344 C   0  0  1  0  0  0
  -20.5854  -28.3649   23.1341 C   0  0  2  0  0  0
  -20.6768  -26.9380   22.5439 C   0  0  0  0  0  0
  -19.5743  -26.6359   21.5243 C   0  0  0  0  0  0
  -18.1914  -26.7914   22.1633 C   0  0  0  0  0  0
  -19.1517  -28.8820   23.2916 C   0  0  0  0  0  0
  -18.9453  -30.1428   23.8921 C   0  0  0  0  0  0
  -17.6463  -30.6581   24.0562 C   0  0  0  0  0  0
  -25.9028  -34.9484   23.5133 C   0  0  0  0  0  0
  -16.5350  -29.9089   23.6318 C   0  0  0  0  0  0
  -16.7264  -28.6503   23.0335 C   0  0  0  0  0  0
  -26.4475  -31.6602   25.0705 C   0  0  0  0  0  0
  -25.3758  -31.3709   26.1475 C   0  0  0  0  0  0
  -27.0295  -30.3046   24.6040 C   0  0  0  0  0  0
  -27.6058  -32.4315   25.7468 C   0  0  0  0  0  0
  -27.5580  -37.1808   24.8461 C   0  0  0  0  0  0
  -21.4114  -29.3042   22.3764 N   0  0  0  0  0  0
  -26.4289  -37.3793   23.9419 N   0  0  0  0  0  0
  -24.6597  -31.0856   22.0996 N   0  0  0  0  0  0
  -23.4184  -28.8195   23.3018 O   0  0  0  0  0  0
  -28.4021  -26.7645   20.0747 O   0  0  0  0  0  0
  -26.5573  -34.8929   22.4682 O   0  0  0  0  0  0
  -23.5313  -32.1479   23.7535 O   0  0  0  0  0  0
  -28.6549  -17.8737   20.6199 C   0  0  0  0  0  0
  -27.8717  -19.0411   20.5571 C   0  0  0  0  0  0
  -29.6759  -18.6623   22.6891 C   0  0  0  0  0  0
  -29.5898  -17.6959   21.6653 C   0  0  0  0  0  0
  -28.0203  -20.0453   21.5425 C   0  0  0  0  0  0
  -28.8779  -19.8195   22.6433 C   0  0  0  0  0  0
  -30.5804  -16.5729   21.6129 C   0  0  0  0  0  0
  -27.0829  -22.0308   20.3826 C   0  0  0  0  0  0
  -26.8833  -23.5290   20.6086 C   0  0  0  0  0  0
  -28.1101  -24.3291   20.1157 C   0  0  0  0  0  0
  -28.3818  -25.6153   20.9159 C   0  0  0  0  0  0
  -28.9744  -20.7590   23.6716 N   0  0  0  0  0  0
  -27.3932  -21.3145   21.4739 N   0  0  0  0  0  0
  -30.0832  -15.3862   21.2353 N   0  0  0  0  0  0
  -31.7613  -16.7869   21.9127 O   0  0  0  0  0  0
  -26.9474  -21.5661   19.2491 O   0  0  0  0  0  0
  -31.4571  -12.3673   19.1002 H   0  0  0  0  0  0
  -30.3011  -11.2703   19.7965 H   0  0  0  0  0  0
  -29.7163  -11.7781   17.4112 H   0  0  0  0  0  0
  -29.6601  -13.4888   17.7636 H   0  0  0  0  0  0
  -27.8111  -11.3124   18.7994 H   0  0  0  0  0  0
  -27.3563  -12.6504   17.7812 H   0  0  0  0  0  0
  -27.7106  -14.2520   19.5773 H   0  0  0  0  0  0
  -28.6649  -11.9365   21.3314 H   0  0  0  0  0  0
  -28.4632  -13.5721   21.8690 H   0  0  0  0  0  0
  -25.2767   -9.5699   22.4749 H   0  0  0  0  0  0
  -24.0012   -7.4650   22.7483 H   0  0  0  0  0  0
  -21.0835   -8.8815   19.8952 H   0  0  0  0  0  0
  -22.3717  -10.9702   19.6166 H   0  0  0  0  0  0
  -21.2018   -7.6146   23.9726 H   0  0  0  0  0  0
  -21.1478   -6.0504   25.9075 H   0  0  0  0  0  0
  -22.0597   -2.7612   23.2830 H   0  0  0  0  0  0
  -22.4056  -11.9926   22.4800 H   0  0  0  0  0  0
  -21.1103  -13.1331   22.2605 H   0  0  0  0  0  0
  -24.6697  -15.8459   20.5199 H   0  0  0  0  0  0
  -26.2861  -15.6271   20.0913 H   0  0  0  0  0  0
  -26.7095  -32.5578   23.1166 H   0  0  0  0  0  0
  -25.0116  -33.9786   25.0541 H   0  0  0  0  0  0
  -22.6802  -31.3079   21.4130 H   0  0  0  0  0  0
  -23.3744  -35.9659   23.3298 H   0  0  0  0  0  0
  -24.3584  -36.8915   22.2045 H   0  0  0  0  0  0
  -23.7255  -37.6527   23.6636 H   0  0  0  0  0  0
  -26.0241  -31.6166   20.5865 H   0  0  0  0  0  0
  -26.8085  -30.9073   21.9711 H   0  0  0  0  0  0
  -28.0967  -29.1502   21.1409 H   0  0  0  0  0  0
  -26.0825  -25.9877   19.0146 H   0  0  0  0  0  0
  -23.9751  -27.2833   19.0530 H   0  0  0  0  0  0
  -23.7066  -30.5987   19.4060 H   0  0  0  0  0  0
  -22.7274  -29.2418   19.8726 H   0  0  0  0  0  0
  -25.1271  -36.1974   25.0839 H   0  0  0  0  0  0
  -20.9936  -28.3213   24.1471 H   0  0  0  0  0  0
  -20.5696  -26.2248   23.3631 H   0  0  0  0  0  0
  -21.6629  -26.7431   22.1199 H   0  0  0  0  0  0
  -19.6902  -25.6272   21.1278 H   0  0  0  0  0  0
  -19.6716  -27.3164   20.6772 H   0  0  0  0  0  0
  -17.4189  -26.6681   21.4022 H   0  0  0  0  0  0
  -18.0278  -26.0066   22.9028 H   0  0  0  0  0  0
  -19.7927  -30.7221   24.2319 H   0  0  0  0  0  0
  -17.5021  -31.6261   24.5154 H   0  0  0  0  0  0
  -15.5347  -30.2990   23.7631 H   0  0  0  0  0  0
  -15.8667  -28.0823   22.7038 H   0  0  0  0  0  0
  -24.5932  -30.7042   25.7837 H   0  0  0  0  0  0
  -24.8944  -32.2859   26.4931 H   0  0  0  0  0  0
  -25.8137  -30.8897   27.0226 H   0  0  0  0  0  0
  -26.2817  -29.6808   24.1130 H   0  0  0  0  0  0
  -27.4116  -29.7285   25.4476 H   0  0  0  0  0  0
  -27.8627  -30.4365   23.9136 H   0  0  0  0  0  0
  -27.2681  -33.3599   26.2088 H   0  0  0  0  0  0
  -28.3855  -32.6906   25.0294 H   0  0  0  0  0  0
  -28.0743  -31.8415   26.5358 H   0  0  0  0  0  0
  -28.2602  -38.0102   24.7501 H   0  0  0  0  0  0
  -28.1075  -36.2633   24.6290 H   0  0  0  0  0  0
  -27.2298  -37.1453   25.8864 H   0  0  0  0  0  0
  -20.9255  -29.8827   21.7051 H   0  0  0  0  0  0
  -26.0183  -38.2874   24.1416 H   0  0  0  0  0  0
  -28.5815  -17.1459   19.8227 H   0  0  0  0  0  0
  -27.1982  -19.1684   19.7221 H   0  0  0  0  0  0
  -30.3852  -18.5200   23.4932 H   0  0  0  0  0  0
  -26.7064  -23.7024   21.6699 H   0  0  0  0  0  0
  -25.9798  -23.8605   20.0960 H   0  0  0  0  0  0
  -27.9876  -24.5628   19.0578 H   0  0  0  0  0  0
  -29.0092  -23.7116   20.1654 H   0  0  0  0  0  0
  -29.3618  -25.5435   21.3886 H   0  0  0  0  0  0
  -27.6759  -25.7388   21.7392 H   0  0  0  0  0  0
  -29.5227  -20.4763   24.4771 H   0  0  0  0  0  0
  -28.1019  -21.1722   23.9806 H   0  0  0  0  0  0
  -27.4907  -21.8533   22.3226 H   0  0  0  0  0  0
  -29.0902  -15.2659   21.3298 H   0  0  0  0  0  0
  1 25  1  0  0  0
  1 30  2  0  0  0
  1 84  1  0  0  0
  2  3  1  0  0  0
  2 25  1  0  0  0
  2 87  1  0  0  0
  2 88  1  0  0  0
  3  4  1  0  0  0
  3 89  1  0  0  0
  3 90  1  0  0  0
  4  5  1  0  0  0
  4 91  1  0  0  0
  4 92  1  0  0  0
  5  6  1  0  0  0
  5 26  1  0  0  0
  5 93  1  0  0  0
  6 25  1  0  0  0
  6 94  1  0  0  0
  6 95  1  0  0  0
  7  8  2  0  0  0
  7 26  1  0  0  0
  7 29  1  0  0  0
  8  9  1  0  0  0
  8 22  1  0  0  0
  9 10  1  0  0  0
  9 27  2  0  0  0
 10 11  2  0  0  0
 10 15  1  0  0  0
 11 12  1  0  0  0
 11 96  1  0  0  0
 12 13  2  0  0  0
 12 97  1  0  0  0
 13 14  1  0  0  0
 13 31  1  0  0  0
 14 15  2  0  0  0
 14 98  1  0  0  0
 15 99  1  0  0  0
 16 17  2  0  0  0
 16 21  1  0  0  0
 16 31  1  0  0  0
 17 18  1  0  0  0
 17100  1  0  0  0
 18 19  2  0  0  0
 18101  1  0  0  0
 19 20  1  0  0  0
 19 24  1  0  0  0
 20 21  2  0  0  0
 20102  1  0  0  0
 21 23  1  0  0  0
 22 28  1  0  0  0
 22 32  2  0  0  0
 26 27  1  0  0  0
 28103  1  0  0  0
 28104  1  0  0  0
 29105  1  0  0  0
 29106  1  0  0  0
 33 34  1  0  0  0
 33 66  1  0  0  0
 33 70  2  0  0  0
 34 36  1  0  0  0
 34 59  1  0  0  0
 34107  1  0  0  0
 35 44  2  0  0  0
 35 45  1  0  0  0
 35 68  1  0  0  0
 36 56  1  0  0  0
 36108  1  0  0  0
 37 39  1  0  0  0
 37 47  1  0  0  0
 37 66  1  0  0  0
 37109  1  0  0  0
 38 43  2  0  0  0
 38 46  1  0  0  0
 38 47  1  0  0  0
 39 64  1  0  0  0
 39 67  2  0  0  0
 40 52  1  0  0  0
 40 53  2  0  0  0
 40 58  1  0  0  0
 41110  1  0  0  0
 41111  1  0  0  0
 41112  1  0  0  0
 41 48  1  0  0  0
 42 43  1  0  0  0
 42 66  1  0  0  0
 42113  1  0  0  0
 42114  1  0  0  0
 43 44  1  0  0  0
 44115  1  0  0  0
 45 46  2  0  0  0
 45116  1  0  0  0
 46117  1  0  0  0
 47118  1  0  0  0
 47119  1  0  0  0
 48 56  1  0  0  0
 48 65  1  0  0  0
 48120  1  0  0  0
 49 50  1  0  0  0
 49 53  1  0  0  0
 49 64  1  0  0  0
 49121  1  0  0  0
 50 51  1  0  0  0
 50122  1  0  0  0
 50123  1  0  0  0
 51 52  1  0  0  0
 51124  1  0  0  0
 51125  1  0  0  0
 52126  1  0  0  0
 52127  1  0  0  0
 53 54  1  0  0  0
 54 55  2  0  0  0
 54128  1  0  0  0
 55 57  1  0  0  0
 55129  1  0  0  0
 56 69  2  0  0  0
 57 58  2  0  0  0
 57130  1  0  0  0
 58131  1  0  0  0
 59 60  1  0  0  0
 59 61  1  0  0  0
 59 62  1  0  0  0
 60132  1  0  0  0
 60133  1  0  0  0
 60134  1  0  0  0
 61135  1  0  0  0
 61136  1  0  0  0
 61137  1  0  0  0
 62138  1  0  0  0
 62139  1  0  0  0
 62140  1  0  0  0
 63 65  1  0  0  0
 63141  1  0  0  0
 63142  1  0  0  0
 63143  1  0  0  0
 64144  1  0  0  0
 65145  1  0  0  0
 68 81  1  0  0  0
 71 72  2  0  0  0
 71 74  1  0  0  0
 71146  1  0  0  0
 72 75  1  0  0  0
 72147  1  0  0  0
 73 74  2  0  0  0
 73 76  1  0  0  0
 73148  1  0  0  0
 74 77  1  0  0  0
 75 76  2  0  0  0
 75 83  1  0  0  0
 76 82  1  0  0  0
 77 84  1  0  0  0
 77 85  2  0  0  0
 78 79  1  0  0  0
 78 83  1  0  0  0
 78 86  2  0  0  0
 79 80  1  0  0  0
 79149  1  0  0  0
 79150  1  0  0  0
 80 81  1  0  0  0
 80151  1  0  0  0
 80152  1  0  0  0
 81153  1  0  0  0
 81154  1  0  0  0
 82155  1  0  0  0
 82156  1  0  0  0
 83157  1  0  0  0
 84158  1  0  0  0
M  ISO  4   1 100  68 101  81 101  84 100
M  END
> <chiral flag>
0

> <version>
0

> <s_m_source_file>
/data/baiqing/PycharmProjects/Reinvent-master-3.2/result/LINK_invent/BTK/process_docking_weight1_custom_product_contain_oxygen_bond_distance_aromatic_linkinvent_7_9_3/rearranged_h_0093.sdf

> <i_m_source_file_index>
27

> <r_mmod_Potential_Energy-OPLS-2005>
-269.387451171875

> <r_mmod_Stretch_Energy-OPLS-2005>
31.2756423950195

> <r_mmod_Bend_Energy-OPLS-2005>
92.5424575805664

> <r_mmod_Torsional_Energy-OPLS-2005>
295.124481201172

> <r_mmod_Improper_Torsional_Energy-OPLS-2005>
10.0698986053467

> <r_mmod_Van_der_Waal_Energy-OPLS-2005>
167.913284301758

> <r_mmod_Electrostatic_Energy-OPLS-2005>
-623.718078613281

> <r_mmod_Solvation_Energy-OPLS-2005>
-252.647369384766

> <b_mmod_Minimization_Converged-OPLS-2005>
0

> <r_mmod_RMS_Derivative-OPLS-2005>
1.74799168109894

$$$$
28
                    3D
 Structure written by MMmdl.
152160  0  0  1  0            999 V2000
  -30.2454  -15.8086   20.3413 C   0  0  0  0  0  0
  -30.4004  -13.2060   19.5628 C   0  0  0  0  0  0
  -29.5597  -12.7184   18.3432 C   0  0  0  0  0  0
  -28.1334  -12.3323   18.7621 C   0  0  0  0  0  0
  -27.5819  -13.3298   19.8061 C   0  0  2  0  0  0
  -28.5810  -13.7114   20.9276 C   0  0  0  0  0  0
  -25.2213  -13.8262   20.5793 C   0  0  0  0  0  0
  -24.1661  -13.0396   20.9281 C   0  0  0  0  0  0
  -24.6403  -11.6928   20.8718 C   0  0  0  0  0  0
  -23.9129  -10.4282   21.0381 C   0  0  0  0  0  0
  -24.3682   -9.4209   21.9177 C   0  0  0  0  0  0
  -23.6330   -8.2258   22.0759 C   0  0  0  0  0  0
  -22.4307   -8.0294   21.3546 C   0  0  0  0  0  0
  -21.9944   -9.0258   20.4637 C   0  0  0  0  0  0
  -22.7291  -10.2118   20.3032 C   0  0  0  0  0  0
  -21.6862   -6.0746   22.5285 C   0  0  0  0  0  0
  -21.4022   -6.5647   23.8219 C   0  0  0  0  0  0
  -21.3671   -5.6794   24.9171 C   0  0  0  0  0  0
  -21.6045   -4.3053   24.7218 C   0  0  0  0  0  0
  -21.8826   -3.8150   23.4340 C   0  0  0  0  0  0
  -21.9196   -4.6972   22.3392 C   0  0  0  0  0  0
  -22.7672  -13.5121   21.1915 C   0  0  0  0  0  0
  -22.1678   -4.2173   21.0968 F   0  0  0  0  0  0
  -21.5627   -3.4534   25.7723 F   0  0  0  0  0  0
  -29.7306  -14.4086   20.2795 N   0  0  0  0  0  0
  -26.2684  -12.9656   20.3165 N   0  0  0  0  0  0
  -25.9346  -11.6699   20.5622 N   0  0  0  0  0  0
  -22.0342  -12.8116   22.0473 N   0  0  0  0  0  0
  -25.3690  -15.2004   20.4271 N   0  0  0  0  0  0
  -31.4758  -15.6775   20.1507 O   0  0  0  0  0  0
  -21.6653   -6.8904   21.4256 O   0  0  0  0  0  0
  -22.3365  -14.5429   20.6737 O   0  0  0  0  0  0
  -24.6971  -31.7853   23.1417 C   0  0  0  0  0  0
  -25.9482  -32.4394   23.8038 C   0  0  1  0  0  0
  -27.2310  -26.5518   20.2395 C   0  0  0  0  0  0
  -25.6016  -33.8231   24.1916 N   0  0  0  0  0  0
  -23.5339  -30.3760   21.4992 C   0  0  2  0  0  0
  -24.9927  -28.6839   20.1296 C   0  0  0  0  0  0
  -22.7842  -29.4228   22.4689 C   0  0  0  0  0  0
  -18.0341  -28.1423   22.8447 C   0  0  0  0  0  0
  -24.1490  -36.7128   23.2660 C   0  0  0  0  0  0
  -26.1195  -30.4610   21.4350 C   0  0  0  0  0  0
  -26.1820  -29.0081   20.7937 C   0  0  0  0  0  0
  -27.2790  -27.9722   20.8142 C   0  0  0  0  0  0
  -26.0079  -26.4754   19.5152 C   0  0  0  0  0  0
  -24.9504  -27.4428   19.4681 C   0  0  0  0  0  0
  -23.7990  -29.6599   20.1421 C   0  0  0  0  0  0
  -25.4142  -36.2860   24.0280 C   0  0  1  0  0  0
  -20.5984  -28.3799   23.1109 C   0  0  2  0  0  0
  -20.6806  -26.9434   22.5413 C   0  0  0  0  0  0
  -19.5787  -26.6370   21.5218 C   0  0  0  0  0  0
  -18.1971  -26.7955   22.1612 C   0  0  0  0  0  0
  -19.1613  -28.8932   23.2758 C   0  0  0  0  0  0
  -18.9524  -30.1509   23.8793 C   0  0  0  0  0  0
  -17.6518  -30.6602   24.0536 C   0  0  0  0  0  0
  -25.9140  -34.9241   23.4948 C   0  0  0  0  0  0
  -16.5399  -29.9082   23.6348 C   0  0  0  0  0  0
  -16.7321  -28.6508   23.0365 C   0  0  0  0  0  0
  -26.4611  -31.6494   25.0720 C   0  0  0  0  0  0
  -25.3642  -31.3825   26.1318 C   0  0  0  0  0  0
  -27.0568  -30.2817   24.6697 C   0  0  0  0  0  0
  -27.6048  -32.4377   25.7531 C   0  0  0  0  0  0
  -27.5569  -37.1718   24.8460 C   0  0  0  0  0  0
  -21.4476  -29.3034   22.3423 N   0  0  0  0  0  0
  -26.4264  -37.3641   23.9414 N   0  0  0  0  0  0
  -24.8088  -30.9124   22.0767 N   0  0  0  0  0  0
  -23.4194  -28.7847   23.3116 O   0  0  0  0  0  0
  -28.1791  -25.2666   20.2376 O   0  0  0  0  0  0
  -26.5783  -34.8840   22.4565 O   0  0  0  0  0  0
  -23.5962  -32.1015   23.6255 O   0  0  0  0  0  0
  -31.6130  -20.8710   18.6218 C   0  0  0  0  0  0
  -30.8969  -18.6398   19.0730 C   0  0  0  0  0  0
  -29.4932  -20.6571   20.0058 C   0  0  0  0  0  0
  -31.7463  -19.5127   18.4140 C   0  0  0  0  0  0
  -30.5621  -21.4085   19.3732 C   0  0  0  0  0  0
  -29.8393  -18.9533   19.9699 C   0  0  0  0  0  0
  -28.3784  -22.1031   20.4236 C   0  0  0  0  0  0
  -27.9456  -23.6426   20.4775 C   0  0  0  0  0  0
  -28.3324  -17.1920   21.2610 C   0  0  0  0  0  0
  -32.7431  -19.0124   17.5705 N   0  0  0  0  0  0
  -30.6667  -22.8067   19.4154 N   0  0  0  0  0  0
  -29.5316  -17.2695   20.4380 N   0  0  0  0  0  0
  -31.3901  -13.4794   19.1982 H   0  0  0  0  0  0
  -30.5832  -12.3804   20.2526 H   0  0  0  0  0  0
  -30.0531  -11.8774   17.8544 H   0  0  0  0  0  0
  -29.5157  -13.5219   17.6058 H   0  0  0  0  0  0
  -28.1647  -11.3277   19.1849 H   0  0  0  0  0  0
  -27.4827  -12.2827   17.8872 H   0  0  0  0  0  0
  -27.4267  -14.2410   19.2247 H   0  0  0  0  0  0
  -28.8741  -12.8372   21.5103 H   0  0  0  0  0  0
  -28.0995  -14.3873   21.6334 H   0  0  0  0  0  0
  -25.2843   -9.5683   22.4728 H   0  0  0  0  0  0
  -24.0035   -7.4655   22.7479 H   0  0  0  0  0  0
  -21.0877   -8.8767   19.8940 H   0  0  0  0  0  0
  -22.3766  -10.9646   19.6118 H   0  0  0  0  0  0
  -21.2020   -7.6151   23.9734 H   0  0  0  0  0  0
  -21.1493   -6.0515   25.9086 H   0  0  0  0  0  0
  -22.0586   -2.7616   23.2812 H   0  0  0  0  0  0
  -22.4002  -11.9804   22.4877 H   0  0  0  0  0  0
  -21.0941  -13.1089   22.2651 H   0  0  0  0  0  0
  -24.5974  -15.8427   20.5707 H   0  0  0  0  0  0
  -26.2031  -15.6501   20.0769 H   0  0  0  0  0  0
  -26.7579  -32.4807   23.0763 H   0  0  0  0  0  0
  -25.0065  -33.9253   25.0003 H   0  0  0  0  0  0
  -22.8683  -31.2163   21.2938 H   0  0  0  0  0  0
  -23.3793  -35.9421   23.3230 H   0  0  0  0  0  0
  -24.3573  -36.8885   22.2102 H   0  0  0  0  0  0
  -23.7203  -37.6258   23.6792 H   0  0  0  0  0  0
  -26.3286  -31.1647   20.6304 H   0  0  0  0  0  0
  -26.9725  -30.5492   22.0959 H   0  0  0  0  0  0
  -28.1729  -28.2247   21.3644 H   0  0  0  0  0  0
  -25.8276  -25.5460   18.9916 H   0  0  0  0  0  0
  -24.0586  -27.1817   18.9132 H   0  0  0  0  0  0
  -23.9898  -30.4143   19.3771 H   0  0  0  0  0  0
  -22.9024  -29.1331   19.8130 H   0  0  0  0  0  0
  -25.1345  -36.1637   25.0772 H   0  0  0  0  0  0
  -21.0035  -28.3425   24.1253 H   0  0  0  0  0  0
  -20.5661  -26.2420   23.3681 H   0  0  0  0  0  0
  -21.6674  -26.7362   22.1234 H   0  0  0  0  0  0
  -19.6948  -25.6262   21.1311 H   0  0  0  0  0  0
  -19.6748  -27.3113   20.6689 H   0  0  0  0  0  0
  -17.4249  -26.6679   21.4012 H   0  0  0  0  0  0
  -18.0348  -26.0111   22.9025 H   0  0  0  0  0  0
  -19.7992  -30.7346   24.2144 H   0  0  0  0  0  0
  -17.5056  -31.6268   24.5166 H   0  0  0  0  0  0
  -15.5387  -30.2951   23.7730 H   0  0  0  0  0  0
  -15.8726  -28.0779   22.7153 H   0  0  0  0  0  0
  -24.5868  -30.7124   25.7625 H   0  0  0  0  0  0
  -24.8794  -32.3042   26.4539 H   0  0  0  0  0  0
  -25.7830  -30.9143   27.0240 H   0  0  0  0  0  0
  -26.3316  -29.6402   24.1684 H   0  0  0  0  0  0
  -27.3939  -29.7303   25.5499 H   0  0  0  0  0  0
  -27.9319  -30.3940   24.0280 H   0  0  0  0  0  0
  -27.2582  -33.3767   26.1857 H   0  0  0  0  0  0
  -28.3979  -32.6803   25.0441 H   0  0  0  0  0  0
  -28.0565  -31.8675   26.5665 H   0  0  0  0  0  0
  -28.2515  -38.0084   24.7550 H   0  0  0  0  0  0
  -28.1140  -36.2612   24.6221 H   0  0  0  0  0  0
  -27.2291  -37.1245   25.8861 H   0  0  0  0  0  0
  -20.9804  -29.8673   21.6455 H   0  0  0  0  0  0
  -26.0088  -38.2685   24.1463 H   0  0  0  0  0  0
  -32.3319  -21.5295   18.1521 H   0  0  0  0  0  0
  -31.1172  -17.6217   18.8100 H   0  0  0  0  0  0
  -27.5367  -21.5999   20.8782 H   0  0  0  0  0  0
  -26.9705  -23.6582   20.9463 H   0  0  0  0  0  0
  -27.9623  -18.1823   21.5268 H   0  0  0  0  0  0
  -28.5245  -16.6625   22.1953 H   0  0  0  0  0  0
  -27.5482  -16.6729   20.7200 H   0  0  0  0  0  0
  -33.4105  -19.6415   17.1345 H   0  0  0  0  0  0
  -33.1020  -18.0686   17.7015 H   0  0  0  0  0  0
  -31.1757  -23.2674   18.6669 H   0  0  0  0  0  0
  -29.8255  -23.3132   19.6777 H   0  0  0  0  0  0
  1 25  1  0  0  0
  1 30  2  0  0  0
  1 82  1  0  0  0
  2  3  1  0  0  0
  2 25  1  0  0  0
  2 83  1  0  0  0
  2 84  1  0  0  0
  3  4  1  0  0  0
  3 85  1  0  0  0
  3 86  1  0  0  0
  4  5  1  0  0  0
  4 87  1  0  0  0
  4 88  1  0  0  0
  5  6  1  0  0  0
  5 26  1  0  0  0
  5 89  1  0  0  0
  6 25  1  0  0  0
  6 90  1  0  0  0
  6 91  1  0  0  0
  7  8  2  0  0  0
  7 26  1  0  0  0
  7 29  1  0  0  0
  8  9  1  0  0  0
  8 22  1  0  0  0
  9 10  1  0  0  0
  9 27  2  0  0  0
 10 11  2  0  0  0
 10 15  1  0  0  0
 11 12  1  0  0  0
 11 92  1  0  0  0
 12 13  2  0  0  0
 12 93  1  0  0  0
 13 14  1  0  0  0
 13 31  1  0  0  0
 14 15  2  0  0  0
 14 94  1  0  0  0
 15 95  1  0  0  0
 16 17  2  0  0  0
 16 21  1  0  0  0
 16 31  1  0  0  0
 17 18  1  0  0  0
 17 96  1  0  0  0
 18 19  2  0  0  0
 18 97  1  0  0  0
 19 20  1  0  0  0
 19 24  1  0  0  0
 20 21  2  0  0  0
 20 98  1  0  0  0
 21 23  1  0  0  0
 22 28  1  0  0  0
 22 32  2  0  0  0
 26 27  1  0  0  0
 28 99  1  0  0  0
 28100  1  0  0  0
 29101  1  0  0  0
 29102  1  0  0  0
 33 34  1  0  0  0
 33 66  1  0  0  0
 33 70  2  0  0  0
 34 36  1  0  0  0
 34 59  1  0  0  0
 34103  1  0  0  0
 35 44  2  0  0  0
 35 45  1  0  0  0
 35 68  1  0  0  0
 36 56  1  0  0  0
 36104  1  0  0  0
 37 39  1  0  0  0
 37 47  1  0  0  0
 37 66  1  0  0  0
 37105  1  0  0  0
 38 43  2  0  0  0
 38 46  1  0  0  0
 38 47  1  0  0  0
 39 64  1  0  0  0
 39 67  2  0  0  0
 40 52  1  0  0  0
 40 53  2  0  0  0
 40 58  1  0  0  0
 41106  1  0  0  0
 41107  1  0  0  0
 41108  1  0  0  0
 41 48  1  0  0  0
 42 43  1  0  0  0
 42 66  1  0  0  0
 42109  1  0  0  0
 42110  1  0  0  0
 43 44  1  0  0  0
 44111  1  0  0  0
 45 46  2  0  0  0
 45112  1  0  0  0
 46113  1  0  0  0
 47114  1  0  0  0
 47115  1  0  0  0
 48 56  1  0  0  0
 48 65  1  0  0  0
 48116  1  0  0  0
 49 50  1  0  0  0
 49 53  1  0  0  0
 49 64  1  0  0  0
 49117  1  0  0  0
 50 51  1  0  0  0
 50118  1  0  0  0
 50119  1  0  0  0
 51 52  1  0  0  0
 51120  1  0  0  0
 51121  1  0  0  0
 52122  1  0  0  0
 52123  1  0  0  0
 53 54  1  0  0  0
 54 55  2  0  0  0
 54124  1  0  0  0
 55 57  1  0  0  0
 55125  1  0  0  0
 56 69  2  0  0  0
 57 58  2  0  0  0
 57126  1  0  0  0
 58127  1  0  0  0
 59 60  1  0  0  0
 59 61  1  0  0  0
 59 62  1  0  0  0
 60128  1  0  0  0
 60129  1  0  0  0
 60130  1  0  0  0
 61131  1  0  0  0
 61132  1  0  0  0
 61133  1  0  0  0
 62134  1  0  0  0
 62135  1  0  0  0
 62136  1  0  0  0
 63 65  1  0  0  0
 63137  1  0  0  0
 63138  1  0  0  0
 63139  1  0  0  0
 64140  1  0  0  0
 65141  1  0  0  0
 68 78  1  0  0  0
 71 74  2  0  0  0
 71 75  1  0  0  0
 71142  1  0  0  0
 72 74  1  0  0  0
 72 76  2  0  0  0
 72143  1  0  0  0
 73 75  2  0  0  0
 73 76  1  0  0  0
 73 77  1  0  0  0
 74 80  1  0  0  0
 75 81  1  0  0  0
 76 82  1  0  0  0
 77 78  2  0  0  0
 77144  1  0  0  0
 78145  1  0  0  0
 79 82  1  0  0  0
 79146  1  0  0  0
 79147  1  0  0  0
 79148  1  0  0  0
 80149  1  0  0  0
 80150  1  0  0  0
 81151  1  0  0  0
 81152  1  0  0  0
M  ISO  4   1 100  68 101  78 101  82 100
M  END
> <chiral flag>
0

> <version>
0

> <s_m_source_file>
/data/baiqing/PycharmProjects/Reinvent-master-3.2/result/LINK_invent/BTK/process_docking_weight1_custom_product_contain_oxygen_bond_distance_aromatic_linkinvent_7_9_3/rearranged_h_0093.sdf

> <i_m_source_file_index>
28

> <r_mmod_Potential_Energy-OPLS-2005>
3553.05297851562

> <r_mmod_Stretch_Energy-OPLS-2005>
1446.755859375

> <r_mmod_Bend_Energy-OPLS-2005>
917.219604492188

> <r_mmod_Torsional_Energy-OPLS-2005>
289.524139404297

> <r_mmod_Improper_Torsional_Energy-OPLS-2005>
9.50307083129883

> <r_mmod_Van_der_Waal_Energy-OPLS-2005>
161.463729858398

> <r_mmod_Electrostatic_Energy-OPLS-2005>
-252.147964477539

> <r_mmod_Solvation_Energy-OPLS-2005>
-209.318786621094

> <b_mmod_Minimization_Converged-OPLS-2005>
0

> <r_mmod_RMS_Derivative-OPLS-2005>
4.31567811965942

$$$$
29
                    3D
 Structure written by MMmdl.
161170  0  0  1  0            999 V2000
  -30.7090  -14.5033   20.5661 C   0  0  0  0  0  0
  -30.4225  -12.3277   19.4260 C   0  0  0  0  0  0
  -29.4940  -12.5017   18.2071 C   0  0  0  0  0  0
  -28.0170  -12.3565   18.6231 C   0  0  0  0  0  0
  -27.6576  -13.2112   19.8683 C   0  0  2  0  0  0
  -28.7026  -13.0262   20.9918 C   0  0  0  0  0  0
  -25.2576  -13.8167   20.5684 C   0  0  0  0  0  0
  -24.1834  -13.0440   20.9187 C   0  0  0  0  0  0
  -24.6394  -11.6908   20.8741 C   0  0  0  0  0  0
  -23.9060  -10.4293   21.0406 C   0  0  0  0  0  0
  -24.3613   -9.4208   21.9183 C   0  0  0  0  0  0
  -23.6290   -8.2243   22.0753 C   0  0  0  0  0  0
  -22.4273   -8.0280   21.3543 C   0  0  0  0  0  0
  -21.9906   -9.0253   20.4646 C   0  0  0  0  0  0
  -22.7233  -10.2134   20.3055 C   0  0  0  0  0  0
  -21.6852   -6.0735   22.5279 C   0  0  0  0  0  0
  -21.4013   -6.5639   23.8213 C   0  0  0  0  0  0
  -21.3659   -5.6792   24.9175 C   0  0  0  0  0  0
  -21.6045   -4.3054   24.7225 C   0  0  0  0  0  0
  -21.8819   -3.8146   23.4347 C   0  0  0  0  0  0
  -21.9193   -4.6963   22.3403 C   0  0  0  0  0  0
  -22.7856  -13.5237   21.1849 C   0  0  0  0  0  0
  -22.1662   -4.2148   21.0981 F   0  0  0  0  0  0
  -21.5629   -3.4538   25.7738 F   0  0  0  0  0  0
  -30.0273  -13.3312   20.4280 N   0  0  0  0  0  0
  -26.3009  -12.9344   20.3348 N   0  0  0  0  0  0
  -25.9322  -11.6501   20.5767 N   0  0  0  0  0  0
  -22.0495  -12.8232   22.0405 N   0  0  0  0  0  0
  -25.4292  -15.1887   20.4087 N   0  0  0  0  0  0
  -31.8550  -14.6509   20.1324 O   0  0  0  0  0  0
  -21.6638   -6.8877   21.4240 O   0  0  0  0  0  0
  -22.3544  -14.5544   20.6698 O   0  0  0  0  0  0
  -24.6201  -31.8673   23.2118 C   0  0  0  0  0  0
  -25.9082  -32.4816   23.8412 C   0  0  1  0  0  0
  -27.2182  -27.3881   20.0891 C   0  0  0  0  0  0
  -25.5929  -33.8617   24.2337 N   0  0  0  0  0  0
  -23.4083  -30.4969   21.5543 C   0  0  2  0  0  0
  -24.8503  -28.9710   20.1111 C   0  0  0  0  0  0
  -22.7437  -29.4667   22.4976 C   0  0  0  0  0  0
  -18.0278  -28.1376   22.8492 C   0  0  0  0  0  0
  -24.1491  -36.7311   23.2638 C   0  0  0  0  0  0
  -25.9462  -30.8172   21.3761 C   0  0  0  0  0  0
  -26.0182  -29.4525   20.7155 C   0  0  0  0  0  0
  -27.2037  -28.6689   20.7052 C   0  0  0  0  0  0
  -26.0241  -26.9570   19.4539 C   0  0  0  0  0  0
  -24.8509  -27.7237   19.4769 C   0  0  0  0  0  0
  -23.6170  -29.8426   20.1656 C   0  0  0  0  0  0
  -25.4112  -36.3108   24.0338 C   0  0  1  0  0  0
  -20.5874  -28.3675   23.1300 C   0  0  2  0  0  0
  -20.6772  -26.9407   22.5409 C   0  0  0  0  0  0
  -19.5746  -26.6384   21.5211 C   0  0  0  0  0  0
  -18.1926  -26.7922   22.1625 C   0  0  0  0  0  0
  -19.1528  -28.8841   23.2894 C   0  0  0  0  0  0
  -18.9453  -30.1446   23.8907 C   0  0  0  0  0  0
  -17.6454  -30.6583   24.0562 C   0  0  0  0  0  0
  -25.9043  -34.9472   23.5130 C   0  0  0  0  0  0
  -16.5346  -29.9083   23.6327 C   0  0  0  0  0  0
  -16.7266  -28.6497   23.0353 C   0  0  0  0  0  0
  -26.4488  -31.6597   25.0748 C   0  0  0  0  0  0
  -25.3743  -31.3709   26.1488 C   0  0  0  0  0  0
  -27.0320  -30.3033   24.6155 C   0  0  0  0  0  0
  -27.6064  -32.4314   25.7508 C   0  0  0  0  0  0
  -27.5579  -37.1815   24.8466 C   0  0  0  0  0  0
  -21.4161  -29.3044   22.3708 N   0  0  0  0  0  0
  -26.4297  -37.3792   23.9404 N   0  0  0  0  0  0
  -24.6768  -31.0747   22.1044 N   0  0  0  0  0  0
  -23.4195  -28.8191   23.3015 O   0  0  0  0  0  0
  -28.3528  -26.5751   20.1333 O   0  0  0  0  0  0
  -26.5595  -34.8921   22.4686 O   0  0  0  0  0  0
  -23.5382  -32.1444   23.7487 O   0  0  0  0  0  0
  -31.3021  -19.4819   22.0983 C   0  0  0  0  0  0
  -29.6859  -18.0262   21.0044 C   0  0  0  0  0  0
  -31.6845  -17.0697   22.0165 C   0  0  0  0  0  0
  -30.1080  -19.3438   21.3541 C   0  0  0  0  0  0
  -32.0963  -18.3590   22.4083 C   0  0  0  0  0  0
  -30.4675  -16.8805   21.3233 C   0  0  0  0  0  0
  -28.8511  -22.8771   20.4940 C   0  0  0  0  0  0
  -29.2031  -24.1233   20.0658 C   0  0  0  0  0  0
  -30.6223  -24.4003   19.7729 C   0  0  0  0  0  0
  -29.2089  -20.5445   21.0874 C   0  0  0  0  0  0
  -31.6222  -23.3209   20.1888 C   0  0  0  0  0  0
  -31.0412  -21.9016   19.9984 C   0  0  0  0  0  0
  -33.3884  -18.5316   23.1814 C   0  0  0  0  0  0
  -28.1468  -25.1920   19.7283 C   0  0  0  0  0  0
  -29.7059  -21.7409   20.6131 N   0  0  0  0  0  0
  -29.9933  -15.5570   21.0258 N   0  0  0  0  0  0
  -31.0333  -25.4299   19.2328 O   0  0  0  0  0  0
  -28.0060  -20.3859   21.3306 O   0  0  0  0  0  0
  -31.4662  -12.4254   19.1222 H   0  0  0  0  0  0
  -30.3272  -11.3238   19.8425 H   0  0  0  0  0  0
  -29.7392  -11.7673   17.4386 H   0  0  0  0  0  0
  -29.6550  -13.4821   17.7559 H   0  0  0  0  0  0
  -27.8370  -11.3019   18.8349 H   0  0  0  0  0  0
  -27.3632  -12.6129   17.7888 H   0  0  0  0  0  0
  -27.6909  -14.2536   19.5507 H   0  0  0  0  0  0
  -28.6877  -11.9998   21.3615 H   0  0  0  0  0  0
  -28.4652  -13.6524   21.8531 H   0  0  0  0  0  0
  -25.2758   -9.5686   22.4756 H   0  0  0  0  0  0
  -24.0002   -7.4634   22.7470 H   0  0  0  0  0  0
  -21.0838   -8.8771   19.8952 H   0  0  0  0  0  0
  -22.3691  -10.9672   19.6164 H   0  0  0  0  0  0
  -21.2004   -7.6147   23.9716 H   0  0  0  0  0  0
  -21.1482   -6.0522   25.9078 H   0  0  0  0  0  0
  -22.0598   -2.7608   23.2846 H   0  0  0  0  0  0
  -22.4105  -11.9892   22.4795 H   0  0  0  0  0  0
  -21.1114  -13.1262   22.2610 H   0  0  0  0  0  0
  -24.6617  -15.8431   20.5152 H   0  0  0  0  0  0
  -26.2778  -15.6272   20.0743 H   0  0  0  0  0  0
  -26.7151  -32.5508   23.1169 H   0  0  0  0  0  0
  -25.0098  -33.9779   25.0496 H   0  0  0  0  0  0
  -22.6989  -31.3162   21.4206 H   0  0  0  0  0  0
  -23.3746  -35.9653   23.3317 H   0  0  0  0  0  0
  -24.3586  -36.8905   22.2049 H   0  0  0  0  0  0
  -23.7252  -37.6527   23.6636 H   0  0  0  0  0  0
  -26.0720  -31.5854   20.6117 H   0  0  0  0  0  0
  -26.8300  -30.8615   22.0009 H   0  0  0  0  0  0
  -28.0988  -29.0331   21.1900 H   0  0  0  0  0  0
  -25.9487  -26.0182   18.9270 H   0  0  0  0  0  0
  -23.9572  -27.3517   18.9950 H   0  0  0  0  0  0
  -23.7304  -30.6237   19.4129 H   0  0  0  0  0  0
  -22.7382  -29.2698   19.8637 H   0  0  0  0  0  0
  -25.1289  -36.1979   25.0833 H   0  0  0  0  0  0
  -20.9966  -28.3238   24.1421 H   0  0  0  0  0  0
  -20.5683  -26.2281   23.3599 H   0  0  0  0  0  0
  -21.6640  -26.7452   22.1194 H   0  0  0  0  0  0
  -19.6909  -25.6298   21.1233 H   0  0  0  0  0  0
  -19.6682  -27.3201   20.6746 H   0  0  0  0  0  0
  -17.4197  -26.6671   21.4026 H   0  0  0  0  0  0
  -18.0328  -26.0060   22.9018 H   0  0  0  0  0  0
  -19.7930  -30.7258   24.2283 H   0  0  0  0  0  0
  -17.5011  -31.6266   24.5156 H   0  0  0  0  0  0
  -15.5346  -30.2987   23.7648 H   0  0  0  0  0  0
  -15.8665  -28.0818   22.7067 H   0  0  0  0  0  0
  -24.5923  -30.7049   25.7821 H   0  0  0  0  0  0
  -24.8924  -32.2863   26.4934 H   0  0  0  0  0  0
  -25.8091  -30.8880   27.0248 H   0  0  0  0  0  0
  -26.2878  -29.6795   24.1190 H   0  0  0  0  0  0
  -27.4052  -29.7274   25.4633 H   0  0  0  0  0  0
  -27.8735  -30.4338   23.9347 H   0  0  0  0  0  0
  -27.2692  -33.3611   26.2105 H   0  0  0  0  0  0
  -28.3863  -32.6876   25.0323 H   0  0  0  0  0  0
  -28.0744  -31.8422   26.5404 H   0  0  0  0  0  0
  -28.2611  -38.0098   24.7499 H   0  0  0  0  0  0
  -28.1060  -36.2630   24.6312 H   0  0  0  0  0  0
  -27.2294  -37.1491   25.8869 H   0  0  0  0  0  0
  -20.9321  -29.8784   21.6946 H   0  0  0  0  0  0
  -26.0187  -38.2875   24.1387 H   0  0  0  0  0  0
  -31.6097  -20.4598   22.4444 H   0  0  0  0  0  0
  -28.7407  -17.8991   20.4942 H   0  0  0  0  0  0
  -32.2966  -16.2195   22.2851 H   0  0  0  0  0  0
  -27.8097  -22.6604   20.6870 H   0  0  0  0  0  0
  -31.8801  -23.4814   21.2355 H   0  0  0  0  0  0
  -32.5402  -23.4334   19.6121 H   0  0  0  0  0  0
  -31.7810  -21.1826   20.3336 H   0  0  0  0  0  0
  -30.9281  -21.7058   18.9311 H   0  0  0  0  0  0
  -33.4489  -19.5168   23.6453 H   0  0  0  0  0  0
  -34.2450  -18.4160   22.5166 H   0  0  0  0  0  0
  -33.4663  -17.7845   23.9721 H   0  0  0  0  0  0
  -27.2276  -24.8203   20.1838 H   0  0  0  0  0  0
  -28.0116  -25.1644   18.6457 H   0  0  0  0  0  0
  -29.0076  -15.3890   21.1566 H   0  0  0  0  0  0
  1 25  1  0  0  0
  1 30  2  0  0  0
  1 86  1  0  0  0
  2  3  1  0  0  0
  2 25  1  0  0  0
  2 89  1  0  0  0
  2 90  1  0  0  0
  3  4  1  0  0  0
  3 91  1  0  0  0
  3 92  1  0  0  0
  4  5  1  0  0  0
  4 93  1  0  0  0
  4 94  1  0  0  0
  5  6  1  0  0  0
  5 26  1  0  0  0
  5 95  1  0  0  0
  6 25  1  0  0  0
  6 96  1  0  0  0
  6 97  1  0  0  0
  7  8  2  0  0  0
  7 26  1  0  0  0
  7 29  1  0  0  0
  8  9  1  0  0  0
  8 22  1  0  0  0
  9 10  1  0  0  0
  9 27  2  0  0  0
 10 11  2  0  0  0
 10 15  1  0  0  0
 11 12  1  0  0  0
 11 98  1  0  0  0
 12 13  2  0  0  0
 12 99  1  0  0  0
 13 14  1  0  0  0
 13 31  1  0  0  0
 14 15  2  0  0  0
 14100  1  0  0  0
 15101  1  0  0  0
 16 17  2  0  0  0
 16 21  1  0  0  0
 16 31  1  0  0  0
 17 18  1  0  0  0
 17102  1  0  0  0
 18 19  2  0  0  0
 18103  1  0  0  0
 19 20  1  0  0  0
 19 24  1  0  0  0
 20 21  2  0  0  0
 20104  1  0  0  0
 21 23  1  0  0  0
 22 28  1  0  0  0
 22 32  2  0  0  0
 26 27  1  0  0  0
 28105  1  0  0  0
 28106  1  0  0  0
 29107  1  0  0  0
 29108  1  0  0  0
 33 34  1  0  0  0
 33 66  1  0  0  0
 33 70  2  0  0  0
 34 36  1  0  0  0
 34 59  1  0  0  0
 34109  1  0  0  0
 35 44  2  0  0  0
 35 45  1  0  0  0
 35 68  1  0  0  0
 36 56  1  0  0  0
 36110  1  0  0  0
 37 39  1  0  0  0
 37 47  1  0  0  0
 37 66  1  0  0  0
 37111  1  0  0  0
 38 43  2  0  0  0
 38 46  1  0  0  0
 38 47  1  0  0  0
 39 64  1  0  0  0
 39 67  2  0  0  0
 40 52  1  0  0  0
 40 53  2  0  0  0
 40 58  1  0  0  0
 41112  1  0  0  0
 41113  1  0  0  0
 41114  1  0  0  0
 41 48  1  0  0  0
 42 43  1  0  0  0
 42 66  1  0  0  0
 42115  1  0  0  0
 42116  1  0  0  0
 43 44  1  0  0  0
 44117  1  0  0  0
 45 46  2  0  0  0
 45118  1  0  0  0
 46119  1  0  0  0
 47120  1  0  0  0
 47121  1  0  0  0
 48 56  1  0  0  0
 48 65  1  0  0  0
 48122  1  0  0  0
 49 50  1  0  0  0
 49 53  1  0  0  0
 49 64  1  0  0  0
 49123  1  0  0  0
 50 51  1  0  0  0
 50124  1  0  0  0
 50125  1  0  0  0
 51 52  1  0  0  0
 51126  1  0  0  0
 51127  1  0  0  0
 52128  1  0  0  0
 52129  1  0  0  0
 53 54  1  0  0  0
 54 55  2  0  0  0
 54130  1  0  0  0
 55 57  1  0  0  0
 55131  1  0  0  0
 56 69  2  0  0  0
 57 58  2  0  0  0
 57132  1  0  0  0
 58133  1  0  0  0
 59 60  1  0  0  0
 59 61  1  0  0  0
 59 62  1  0  0  0
 60134  1  0  0  0
 60135  1  0  0  0
 60136  1  0  0  0
 61137  1  0  0  0
 61138  1  0  0  0
 61139  1  0  0  0
 62140  1  0  0  0
 62141  1  0  0  0
 62142  1  0  0  0
 63 65  1  0  0  0
 63143  1  0  0  0
 63144  1  0  0  0
 63145  1  0  0  0
 64146  1  0  0  0
 65147  1  0  0  0
 68 84  1  0  0  0
 71 74  2  0  0  0
 71 75  1  0  0  0
 71148  1  0  0  0
 72 74  1  0  0  0
 72 76  2  0  0  0
 72149  1  0  0  0
 73 75  2  0  0  0
 73 76  1  0  0  0
 73150  1  0  0  0
 74 80  1  0  0  0
 75 83  1  0  0  0
 76 86  1  0  0  0
 77 78  2  0  0  0
 77 85  1  0  0  0
 77151  1  0  0  0
 78 79  1  0  0  0
 78 84  1  0  0  0
 79 81  1  0  0  0
 79 87  2  0  0  0
 80 85  1  0  0  0
 80 88  2  0  0  0
 81 82  1  0  0  0
 81152  1  0  0  0
 81153  1  0  0  0
 82 85  1  0  0  0
 82154  1  0  0  0
 82155  1  0  0  0
 83156  1  0  0  0
 83157  1  0  0  0
 83158  1  0  0  0
 84159  1  0  0  0
 84160  1  0  0  0
 86161  1  0  0  0
M  ISO  4   1 100  68 101  84 101  86 100
M  END
> <chiral flag>
0

> <version>
0

> <s_m_source_file>
/data/baiqing/PycharmProjects/Reinvent-master-3.2/result/LINK_invent/BTK/process_docking_weight1_custom_product_contain_oxygen_bond_distance_aromatic_linkinvent_7_9_3/rearranged_h_0093.sdf

> <i_m_source_file_index>
29

> <r_mmod_Potential_Energy-OPLS-2005>
59.8952140808105

> <r_mmod_Stretch_Energy-OPLS-2005>
55.1900062561035

> <r_mmod_Bend_Energy-OPLS-2005>
116.700164794922

> <r_mmod_Torsional_Energy-OPLS-2005>
232.684967041016

> <r_mmod_Improper_Torsional_Energy-OPLS-2005>
5.40098571777344

> <r_mmod_Van_der_Waal_Energy-OPLS-2005>
186.648635864258

> <r_mmod_Electrostatic_Energy-OPLS-2005>
-320.574340820312

> <r_mmod_Solvation_Energy-OPLS-2005>
-238.61181640625

> <b_mmod_Minimization_Converged-OPLS-2005>
0

> <r_mmod_RMS_Derivative-OPLS-2005>
0.254105806350708

$$$$
30
                    3D
 Structure written by MMmdl.
143151  0  0  1  0            999 V2000
  -30.4034  -15.3320   20.3724 C   0  0  0  0  0  0
  -30.4447  -12.8570   19.5254 C   0  0  0  0  0  0
  -29.5389  -12.5852   18.2941 C   0  0  0  0  0  0
  -28.0903  -12.2953   18.7267 C   0  0  0  0  0  0
  -27.6095  -13.2784   19.8219 C   0  0  2  0  0  0
  -28.6433  -13.4742   20.9525 C   0  0  0  0  0  0
  -25.2368  -13.8246   20.5753 C   0  0  0  0  0  0
  -24.1723  -13.0434   20.9260 C   0  0  0  0  0  0
  -24.6384  -11.6934   20.8766 C   0  0  0  0  0  0
  -23.9090  -10.4297   21.0402 C   0  0  0  0  0  0
  -24.3631   -9.4206   21.9178 C   0  0  0  0  0  0
  -23.6301   -8.2242   22.0750 C   0  0  0  0  0  0
  -22.4284   -8.0280   21.3535 C   0  0  0  0  0  0
  -21.9922   -9.0260   20.4641 C   0  0  0  0  0  0
  -22.7259  -10.2136   20.3054 C   0  0  0  0  0  0
  -21.6858   -6.0731   22.5274 C   0  0  0  0  0  0
  -21.4013   -6.5636   23.8207 C   0  0  0  0  0  0
  -21.3662   -5.6787   24.9170 C   0  0  0  0  0  0
  -21.6044   -4.3049   24.7218 C   0  0  0  0  0  0
  -21.8821   -3.8144   23.4341 C   0  0  0  0  0  0
  -21.9191   -4.6959   22.3398 C   0  0  0  0  0  0
  -22.7742  -13.5174   21.1921 C   0  0  0  0  0  0
  -22.1662   -4.2145   21.0974 F   0  0  0  0  0  0
  -21.5631   -3.4539   25.7730 F   0  0  0  0  0  0
  -29.8646  -14.0077   20.3192 N   0  0  0  0  0  0
  -26.2807  -12.9533   20.3241 N   0  0  0  0  0  0
  -25.9327  -11.6637   20.5727 N   0  0  0  0  0  0
  -22.0411  -12.8155   22.0482 N   0  0  0  0  0  0
  -25.3982  -15.1981   20.4143 N   0  0  0  0  0  0
  -31.6338  -15.3373   20.2001 O   0  0  0  0  0  0
  -21.6643   -6.8880   21.4236 O   0  0  0  0  0  0
  -22.3421  -14.5475   20.6763 O   0  0  0  0  0  0
  -24.6657  -31.8180   23.1655 C   0  0  0  0  0  0
  -25.9325  -32.4556   23.8129 C   0  0  1  0  0  0
  -27.2319  -26.8871   20.1994 C   0  0  0  0  0  0
  -25.5989  -33.8371   24.2043 N   0  0  0  0  0  0
  -23.4846  -30.4258   21.5157 C   0  0  2  0  0  0
  -24.9415  -28.8023   20.1144 C   0  0  0  0  0  0
  -22.7687  -29.4410   22.4768 C   0  0  0  0  0  0
  -18.0329  -28.1412   22.8473 C   0  0  0  0  0  0
  -24.1488  -36.7184   23.2645 C   0  0  0  0  0  0
  -26.0563  -30.6119   21.4032 C   0  0  0  0  0  0
  -26.1254  -29.1975   20.7516 C   0  0  0  0  0  0
  -27.2620  -28.2625   20.7643 C   0  0  0  0  0  0
  -26.0189  -26.6530   19.5117 C   0  0  0  0  0  0
  -24.9172  -27.5512   19.4728 C   0  0  0  0  0  0
  -23.7281  -29.7346   20.1453 C   0  0  0  0  0  0
  -25.4135  -36.2944   24.0289 C   0  0  1  0  0  0
  -20.5958  -28.3748   23.1186 C   0  0  2  0  0  0
  -20.6805  -26.9422   22.5411 C   0  0  0  0  0  0
  -19.5782  -26.6374   21.5224 C   0  0  0  0  0  0
  -18.1961  -26.7947   22.1626 C   0  0  0  0  0  0
  -19.1591  -28.8908   23.2817 C   0  0  0  0  0  0
  -18.9502  -30.1505   23.8845 C   0  0  0  0  0  0
  -17.6498  -30.6607   24.0558 C   0  0  0  0  0  0
  -25.9107  -34.9333   23.4984 C   0  0  0  0  0  0
  -16.5386  -29.9090   23.6356 C   0  0  0  0  0  0
  -16.7312  -28.6510   23.0368 C   0  0  0  0  0  0
  -26.4573  -31.6522   25.0673 C   0  0  0  0  0  0
  -25.3689  -31.3811   26.1324 C   0  0  0  0  0  0
  -27.0473  -30.2876   24.6447 C   0  0  0  0  0  0
  -27.6057  -32.4345   25.7482 C   0  0  0  0  0  0
  -27.5577  -37.1735   24.8465 C   0  0  0  0  0  0
  -21.4349  -29.3034   22.3533 N   0  0  0  0  0  0
  -26.4274  -37.3692   23.9423 N   0  0  0  0  0  0
  -24.7570  -30.9794   22.0814 N   0  0  0  0  0  0
  -23.4211  -28.7991   23.3033 O   0  0  0  0  0  0
  -28.2366  -25.7703   20.2900 O   0  0  0  0  0  0
  -26.5722  -34.8889   22.4585 O   0  0  0  0  0  0
  -23.5723  -32.1164   23.6737 O   0  0  0  0  0  0
  -30.5345  -20.4528   20.8863 C   0  0  0  0  0  0
  -30.7119  -18.9583   20.8671 C   0  0  0  0  0  0
  -29.3564  -21.1073   20.4668 C   0  0  0  0  0  0
  -29.6894  -18.1070   20.4334 C   0  0  0  0  0  0
  -29.1443  -22.8166   20.4835 C   0  0  0  0  0  0
  -28.0034  -24.1179   20.1241 C   0  0  0  0  0  0
  -29.5884  -16.5908   20.3873 N   0  0  0  0  0  0
  -30.1778  -23.3486   20.9060 O   0  0  0  0  0  0
  -28.4257  -19.5105   20.0370 S   0  0  0  0  0  0
  -31.4553  -13.0859   19.1827 H   0  0  0  0  0  0
  -30.5390  -11.9639   20.1471 H   0  0  0  0  0  0
  -29.9311  -11.7508   17.7113 H   0  0  0  0  0  0
  -29.5546  -13.4558   17.6366 H   0  0  0  0  0  0
  -28.0586  -11.2758   19.1142 H   0  0  0  0  0  0
  -27.4202  -12.3186   17.8672 H   0  0  0  0  0  0
  -27.5150  -14.2392   19.3138 H   0  0  0  0  0  0
  -28.8309  -12.5418   21.4871 H   0  0  0  0  0  0
  -28.2707  -14.1875   21.6909 H   0  0  0  0  0  0
  -25.2774   -9.5677   22.4766 H   0  0  0  0  0  0
  -24.0005   -7.4623   22.7469 H   0  0  0  0  0  0
  -21.0858   -8.8777   19.8950 H   0  0  0  0  0  0
  -22.3708  -10.9673   19.6172 H   0  0  0  0  0  0
  -21.2007   -7.6144   23.9709 H   0  0  0  0  0  0
  -21.1483   -6.0518   25.9071 H   0  0  0  0  0  0
  -22.0599   -2.7609   23.2838 H   0  0  0  0  0  0
  -22.4047  -11.9814   22.4850 H   0  0  0  0  0  0
  -21.1025  -13.1160   22.2709 H   0  0  0  0  0  0
  -24.6226  -15.8440   20.5194 H   0  0  0  0  0  0
  -26.2266  -15.6378   20.0379 H   0  0  0  0  0  0
  -26.7385  -32.5082   23.0833 H   0  0  0  0  0  0
  -25.0094  -33.9433   25.0165 H   0  0  0  0  0  0
  -22.8012  -31.2592   21.3385 H   0  0  0  0  0  0
  -23.3771  -35.9492   23.3260 H   0  0  0  0  0  0
  -24.3575  -36.8873   22.2073 H   0  0  0  0  0  0
  -23.7221  -37.6348   23.6725 H   0  0  0  0  0  0
  -26.2428  -31.3499   20.6230 H   0  0  0  0  0  0
  -26.9127  -30.6688   22.0614 H   0  0  0  0  0  0
  -28.1574  -28.5657   21.2869 H   0  0  0  0  0  0
  -25.8905  -25.6973   19.0225 H   0  0  0  0  0  0
  -24.0172  -27.2422   18.9556 H   0  0  0  0  0  0
  -23.8901  -30.4996   19.3851 H   0  0  0  0  0  0
  -22.8379  -29.1908   19.8239 H   0  0  0  0  0  0
  -25.1328  -36.1719   25.0776 H   0  0  0  0  0  0
  -21.0046  -28.3353   24.1314 H   0  0  0  0  0  0
  -20.5691  -26.2363   23.3646 H   0  0  0  0  0  0
  -21.6662  -26.7408   22.1209 H   0  0  0  0  0  0
  -19.6932  -25.6271   21.1280 H   0  0  0  0  0  0
  -19.6718  -27.3173   20.6738 H   0  0  0  0  0  0
  -17.4225  -26.6699   21.4029 H   0  0  0  0  0  0
  -18.0349  -26.0109   22.9038 H   0  0  0  0  0  0
  -19.7979  -30.7350   24.2160 H   0  0  0  0  0  0
  -17.5046  -31.6277   24.5173 H   0  0  0  0  0  0
  -15.5382  -30.2975   23.7721 H   0  0  0  0  0  0
  -15.8710  -28.0825   22.7095 H   0  0  0  0  0  0
  -24.5883  -30.7145   25.7650 H   0  0  0  0  0  0
  -24.8875  -32.3029   26.4587 H   0  0  0  0  0  0
  -25.7907  -30.9090   27.0205 H   0  0  0  0  0  0
  -26.3152  -29.6544   24.1426 H   0  0  0  0  0  0
  -27.3961  -29.7245   25.5120 H   0  0  0  0  0  0
  -27.9109  -30.4051   23.9899 H   0  0  0  0  0  0
  -27.2604  -33.3685   26.1929 H   0  0  0  0  0  0
  -28.3933  -32.6841   25.0356 H   0  0  0  0  0  0
  -28.0649  -31.8556   26.5505 H   0  0  0  0  0  0
  -28.2538  -38.0091   24.7560 H   0  0  0  0  0  0
  -28.1117  -36.2607   24.6205 H   0  0  0  0  0  0
  -27.2300  -37.1282   25.8870 H   0  0  0  0  0  0
  -20.9602  -29.8699   21.6640 H   0  0  0  0  0  0
  -26.0101  -38.2726   24.1488 H   0  0  0  0  0  0
  -31.3644  -21.0370   21.2617 H   0  0  0  0  0  0
  -31.6515  -18.5599   21.2246 H   0  0  0  0  0  0
  -27.1045  -23.8823   20.6921 H   0  0  0  0  0  0
  -27.7185  -23.9627   19.0850 H   0  0  0  0  0  0
  -28.6207  -16.3080   20.3474 H   0  0  0  0  0  0
  1 25  1  0  0  0
  1 30  2  0  0  0
  1 77  1  0  0  0
  2  3  1  0  0  0
  2 25  1  0  0  0
  2 80  1  0  0  0
  2 81  1  0  0  0
  3  4  1  0  0  0
  3 82  1  0  0  0
  3 83  1  0  0  0
  4  5  1  0  0  0
  4 84  1  0  0  0
  4 85  1  0  0  0
  5  6  1  0  0  0
  5 26  1  0  0  0
  5 86  1  0  0  0
  6 25  1  0  0  0
  6 87  1  0  0  0
  6 88  1  0  0  0
  7  8  2  0  0  0
  7 26  1  0  0  0
  7 29  1  0  0  0
  8  9  1  0  0  0
  8 22  1  0  0  0
  9 10  1  0  0  0
  9 27  2  0  0  0
 10 11  2  0  0  0
 10 15  1  0  0  0
 11 12  1  0  0  0
 11 89  1  0  0  0
 12 13  2  0  0  0
 12 90  1  0  0  0
 13 14  1  0  0  0
 13 31  1  0  0  0
 14 15  2  0  0  0
 14 91  1  0  0  0
 15 92  1  0  0  0
 16 17  2  0  0  0
 16 21  1  0  0  0
 16 31  1  0  0  0
 17 18  1  0  0  0
 17 93  1  0  0  0
 18 19  2  0  0  0
 18 94  1  0  0  0
 19 20  1  0  0  0
 19 24  1  0  0  0
 20 21  2  0  0  0
 20 95  1  0  0  0
 21 23  1  0  0  0
 22 28  1  0  0  0
 22 32  2  0  0  0
 26 27  1  0  0  0
 28 96  1  0  0  0
 28 97  1  0  0  0
 29 98  1  0  0  0
 29 99  1  0  0  0
 33 34  1  0  0  0
 33 66  1  0  0  0
 33 70  2  0  0  0
 34 36  1  0  0  0
 34 59  1  0  0  0
 34100  1  0  0  0
 35 44  2  0  0  0
 35 45  1  0  0  0
 35 68  1  0  0  0
 36 56  1  0  0  0
 36101  1  0  0  0
 37 39  1  0  0  0
 37 47  1  0  0  0
 37 66  1  0  0  0
 37102  1  0  0  0
 38 43  2  0  0  0
 38 46  1  0  0  0
 38 47  1  0  0  0
 39 64  1  0  0  0
 39 67  2  0  0  0
 40 52  1  0  0  0
 40 53  2  0  0  0
 40 58  1  0  0  0
 41103  1  0  0  0
 41104  1  0  0  0
 41105  1  0  0  0
 41 48  1  0  0  0
 42 43  1  0  0  0
 42 66  1  0  0  0
 42106  1  0  0  0
 42107  1  0  0  0
 43 44  1  0  0  0
 44108  1  0  0  0
 45 46  2  0  0  0
 45109  1  0  0  0
 46110  1  0  0  0
 47111  1  0  0  0
 47112  1  0  0  0
 48 56  1  0  0  0
 48 65  1  0  0  0
 48113  1  0  0  0
 49 50  1  0  0  0
 49 53  1  0  0  0
 49 64  1  0  0  0
 49114  1  0  0  0
 50 51  1  0  0  0
 50115  1  0  0  0
 50116  1  0  0  0
 51 52  1  0  0  0
 51117  1  0  0  0
 51118  1  0  0  0
 52119  1  0  0  0
 52120  1  0  0  0
 53 54  1  0  0  0
 54 55  2  0  0  0
 54121  1  0  0  0
 55 57  1  0  0  0
 55122  1  0  0  0
 56 69  2  0  0  0
 57 58  2  0  0  0
 57123  1  0  0  0
 58124  1  0  0  0
 59 60  1  0  0  0
 59 61  1  0  0  0
 59 62  1  0  0  0
 60125  1  0  0  0
 60126  1  0  0  0
 60127  1  0  0  0
 61128  1  0  0  0
 61129  1  0  0  0
 61130  1  0  0  0
 62131  1  0  0  0
 62132  1  0  0  0
 62133  1  0  0  0
 63 65  1  0  0  0
 63134  1  0  0  0
 63135  1  0  0  0
 63136  1  0  0  0
 64137  1  0  0  0
 65138  1  0  0  0
 68 76  1  0  0  0
 71 72  1  0  0  0
 71 73  2  0  0  0
 71139  1  0  0  0
 72 74  2  0  0  0
 72140  1  0  0  0
 73 75  1  0  0  0
 73 79  1  0  0  0
 74 77  1  0  0  0
 74 79  1  0  0  0
 75 76  1  0  0  0
 75 78  2  0  0  0
 76141  1  0  0  0
 76142  1  0  0  0
 77143  1  0  0  0
M  ISO  4   1 100  68 101  76 101  77 100
M  END
> <chiral flag>
0

> <version>
0

> <s_m_source_file>
/data/baiqing/PycharmProjects/Reinvent-master-3.2/result/LINK_invent/BTK/process_docking_weight1_custom_product_contain_oxygen_bond_distance_aromatic_linkinvent_7_9_3/rearranged_h_0093.sdf

> <i_m_source_file_index>
30

> <r_mmod_Potential_Energy-OPLS-2005>
1421.65112304688

> <r_mmod_Stretch_Energy-OPLS-2005>
603.032165527344

> <r_mmod_Bend_Energy-OPLS-2005>
531.568176269531

> <r_mmod_Torsional_Energy-OPLS-2005>
214.890762329102

> <r_mmod_Improper_Torsional_Energy-OPLS-2005>
5.09522914886475

> <r_mmod_Van_der_Waal_Energy-OPLS-2005>
107.128463745117

> <r_mmod_Electrostatic_Energy-OPLS-2005>
-336.719177246094

> <r_mmod_Solvation_Energy-OPLS-2005>
-231.180862426758

> <b_mmod_Minimization_Converged-OPLS-2005>
0

> <r_mmod_RMS_Derivative-OPLS-2005>
3.57724380493164

$$$$
31
                    3D
 Structure written by MMmdl.
154162  0  0  1  0            999 V2000
  -30.6793  -14.6388   20.4804 C   0  0  0  0  0  0
  -30.4144  -12.3976   19.4456 C   0  0  0  0  0  0
  -29.4944  -12.4889   18.2121 C   0  0  0  0  0  0
  -28.0217  -12.3252   18.6361 C   0  0  0  0  0  0
  -27.6368  -13.2247   19.8415 C   0  0  2  0  0  0
  -28.6850  -13.1483   20.9730 C   0  0  0  0  0  0
  -25.2482  -13.8174   20.5672 C   0  0  0  0  0  0
  -24.1778  -13.0428   20.9218 C   0  0  0  0  0  0
  -24.6365  -11.6905   20.8757 C   0  0  0  0  0  0
  -23.9033  -10.4292   21.0423 C   0  0  0  0  0  0
  -24.3599   -9.4209   21.9191 C   0  0  0  0  0  0
  -23.6288   -8.2238   22.0754 C   0  0  0  0  0  0
  -22.4267   -8.0274   21.3550 C   0  0  0  0  0  0
  -21.9894   -9.0239   20.4647 C   0  0  0  0  0  0
  -22.7212  -10.2125   20.3060 C   0  0  0  0  0  0
  -21.6853   -6.0729   22.5276 C   0  0  0  0  0  0
  -21.4013   -6.5637   23.8210 C   0  0  0  0  0  0
  -21.3663   -5.6789   24.9171 C   0  0  0  0  0  0
  -21.6049   -4.3050   24.7223 C   0  0  0  0  0  0
  -21.8816   -3.8137   23.4343 C   0  0  0  0  0  0
  -21.9191   -4.6954   22.3398 C   0  0  0  0  0  0
  -22.7811  -13.5223   21.1873 C   0  0  0  0  0  0
  -22.1659   -4.2143   21.0977 F   0  0  0  0  0  0
  -21.5636   -3.4534   25.7737 F   0  0  0  0  0  0
  -29.9885  -13.4609   20.3776 N   0  0  0  0  0  0
  -26.2896  -12.9374   20.3229 N   0  0  0  0  0  0
  -25.9285  -11.6527   20.5731 N   0  0  0  0  0  0
  -22.0433  -12.8231   22.0429 N   0  0  0  0  0  0
  -25.4133  -15.1905   20.4079 N   0  0  0  0  0  0
  -31.8885  -14.6876   20.2350 O   0  0  0  0  0  0
  -21.6638   -6.8866   21.4243 O   0  0  0  0  0  0
  -22.3510  -14.5533   20.6705 O   0  0  0  0  0  0
  -24.6270  -31.8588   23.2038 C   0  0  0  0  0  0
  -25.9123  -32.4767   23.8357 C   0  0  1  0  0  0
  -27.2206  -27.3121   20.1023 C   0  0  0  0  0  0
  -25.5941  -33.8568   24.2286 N   0  0  0  0  0  0
  -23.4192  -30.4844   21.5468 C   0  0  2  0  0  0
  -24.8608  -28.9386   20.1119 C   0  0  0  0  0  0
  -22.7480  -29.4622   22.4950 C   0  0  0  0  0  0
  -18.0287  -28.1380   22.8474 C   0  0  0  0  0  0
  -24.1487  -36.7289   23.2640 C   0  0  0  0  0  0
  -25.9606  -30.7866   21.3756 C   0  0  0  0  0  0
  -26.0305  -29.4140   20.7153 C   0  0  0  0  0  0
  -27.2081  -28.6098   20.7043 C   0  0  0  0  0  0
  -26.0167  -26.8829   19.4961 C   0  0  0  0  0  0
  -24.8551  -27.6779   19.4987 C   0  0  0  0  0  0
  -23.6321  -29.8214   20.1612 C   0  0  0  0  0  0
  -25.4111  -36.3079   24.0328 C   0  0  1  0  0  0
  -20.5883  -28.3689   23.1282 C   0  0  2  0  0  0
  -20.6774  -26.9415   22.5423 C   0  0  0  0  0  0
  -19.5760  -26.6382   21.5213 C   0  0  0  0  0  0
  -18.1931  -26.7927   22.1608 C   0  0  0  0  0  0
  -19.1541  -28.8853   23.2865 C   0  0  0  0  0  0
  -18.9461  -30.1453   23.8889 C   0  0  0  0  0  0
  -17.6462  -30.6576   24.0571 C   0  0  0  0  0  0
  -25.9049  -34.9447   23.5106 C   0  0  0  0  0  0
  -16.5357  -29.9082   23.6325 C   0  0  0  0  0  0
  -16.7275  -28.6505   23.0337 C   0  0  0  0  0  0
  -26.4500  -31.6575   25.0728 C   0  0  0  0  0  0
  -25.3732  -31.3716   26.1459 C   0  0  0  0  0  0
  -27.0341  -30.2999   24.6185 C   0  0  0  0  0  0
  -27.6054  -32.4305   25.7499 C   0  0  0  0  0  0
  -27.5575  -37.1798   24.8459 C   0  0  0  0  0  0
  -21.4198  -29.3040   22.3688 N   0  0  0  0  0  0
  -26.4289  -37.3777   23.9407 N   0  0  0  0  0  0
  -24.6879  -31.0597   22.0992 N   0  0  0  0  0  0
  -23.4202  -28.8158   23.3028 O   0  0  0  0  0  0
  -28.3623  -26.4944   20.1622 O   0  0  0  0  0  0
  -26.5623  -34.8914   22.4675 O   0  0  0  0  0  0
  -23.5434  -32.1397   23.7367 O   0  0  0  0  0  0
  -29.7760  -19.5132   21.6399 C   0  0  0  0  0  0
  -29.4085  -20.8711   21.3794 C   0  0  0  0  0  0
  -29.4648  -18.9585   19.3184 C   0  0  0  0  0  0
  -29.8314  -18.5228   20.6166 C   0  0  0  0  0  0
  -29.1041  -21.3205   20.0669 C   0  0  0  0  0  0
  -29.1383  -20.3237   19.0454 C   0  0  0  0  0  0
  -30.4757  -17.1711   20.8546 C   0  0  0  0  0  0
  -28.7110  -23.8965   20.3276 C   0  0  0  0  0  0
  -28.4667  -25.1956   19.4521 C   0  0  0  0  0  0
  -28.8956  -20.6979   17.7202 N   0  0  0  0  0  0
  -28.7870  -22.6955   19.6714 N   0  0  0  0  0  0
  -29.9438  -15.9209   20.5929 N   0  0  0  0  0  0
  -31.7112  -17.2618   21.3633 N   0  3  0  0  0  0
  -28.8302  -23.9921   21.5525 O   0  0  0  0  0  0
  -31.4590  -12.4948   19.1463 H   0  0  0  0  0  0
  -30.3263  -11.4173   19.9165 H   0  0  0  0  0  0
  -29.7619  -11.7238   17.4819 H   0  0  0  0  0  0
  -29.6351  -13.4489   17.7127 H   0  0  0  0  0  0
  -27.8736  -11.2767   18.8989 H   0  0  0  0  0  0
  -27.3600  -12.5186   17.7923 H   0  0  0  0  0  0
  -27.6339  -14.2464   19.4632 H   0  0  0  0  0  0
  -28.6990  -12.1549   21.4245 H   0  0  0  0  0  0
  -28.4391  -13.8461   21.7752 H   0  0  0  0  0  0
  -25.2740   -9.5717   22.4767 H   0  0  0  0  0  0
  -24.0008   -7.4637   22.7477 H   0  0  0  0  0  0
  -21.0826   -8.8752   19.8955 H   0  0  0  0  0  0
  -22.3658  -10.9662   19.6174 H   0  0  0  0  0  0
  -21.2006   -7.6137   23.9711 H   0  0  0  0  0  0
  -21.1494   -6.0514   25.9077 H   0  0  0  0  0  0
  -22.0593   -2.7596   23.2836 H   0  0  0  0  0  0
  -22.4021  -11.9904   22.4861 H   0  0  0  0  0  0
  -21.1050  -13.1285   22.2613 H   0  0  0  0  0  0
  -24.6298  -15.8278   20.5041 H   0  0  0  0  0  0
  -26.2320  -15.6321   20.0114 H   0  0  0  0  0  0
  -26.7191  -32.5427   23.1096 H   0  0  0  0  0  0
  -25.0092  -33.9709   25.0439 H   0  0  0  0  0  0
  -22.7120  -31.3047   21.4072 H   0  0  0  0  0  0
  -23.3746  -35.9622   23.3303 H   0  0  0  0  0  0
  -24.3573  -36.8919   22.2053 H   0  0  0  0  0  0
  -23.7245  -37.6491   23.6666 H   0  0  0  0  0  0
  -26.0931  -31.5499   20.6077 H   0  0  0  0  0  0
  -26.8407  -30.8306   22.0056 H   0  0  0  0  0  0
  -28.1060  -28.9717   21.1848 H   0  0  0  0  0  0
  -25.9106  -25.9148   19.0371 H   0  0  0  0  0  0
  -23.9528  -27.3010   19.0360 H   0  0  0  0  0  0
  -23.7591  -30.5989   19.4077 H   0  0  0  0  0  0
  -22.7491  -29.2576   19.8548 H   0  0  0  0  0  0
  -25.1291  -36.1922   25.0821 H   0  0  0  0  0  0
  -20.9960  -28.3275   24.1409 H   0  0  0  0  0  0
  -20.5665  -26.2314   23.3629 H   0  0  0  0  0  0
  -21.6649  -26.7443   22.1235 H   0  0  0  0  0  0
  -19.6932  -25.6292   21.1246 H   0  0  0  0  0  0
  -19.6697  -27.3192   20.6738 H   0  0  0  0  0  0
  -17.4216  -26.6688   21.3992 H   0  0  0  0  0  0
  -18.0316  -26.0058   22.8989 H   0  0  0  0  0  0
  -19.7944  -30.7272   24.2248 H   0  0  0  0  0  0
  -17.5021  -31.6245   24.5204 H   0  0  0  0  0  0
  -15.5355  -30.2982   23.7649 H   0  0  0  0  0  0
  -15.8678  -28.0826   22.7039 H   0  0  0  0  0  0
  -24.5903  -30.7068   25.7799 H   0  0  0  0  0  0
  -24.8928  -32.2888   26.4875 H   0  0  0  0  0  0
  -25.8063  -30.8904   27.0241 H   0  0  0  0  0  0
  -26.2922  -29.6739   24.1225 H   0  0  0  0  0  0
  -27.4056  -29.7254   25.4679 H   0  0  0  0  0  0
  -27.8780  -30.4272   23.9403 H   0  0  0  0  0  0
  -27.2657  -33.3585   26.2105 H   0  0  0  0  0  0
  -28.3851  -32.6903   25.0327 H   0  0  0  0  0  0
  -28.0747  -31.8424   26.5394 H   0  0  0  0  0  0
  -28.2596  -38.0093   24.7507 H   0  0  0  0  0  0
  -28.1069  -36.2625   24.6275 H   0  0  0  0  0  0
  -27.2301  -37.1451   25.8867 H   0  0  0  0  0  0
  -20.9390  -29.8763   21.6892 H   0  0  0  0  0  0
  -26.0162  -38.2850   24.1413 H   0  0  0  0  0  0
  -30.0609  -19.2427   22.6484 H   0  0  0  0  0  0
  -29.4036  -21.5718   22.2013 H   0  0  0  0  0  0
  -29.5325  -18.2543   18.5005 H   0  0  0  0  0  0
  -27.6726  -24.9960   18.7415 H   0  0  0  0  0  0
  -29.3500  -25.2918   18.8212 H   0  0  0  0  0  0
  -29.0774  -19.9828   17.0228 H   0  0  0  0  0  0
  -29.3109  -21.5749   17.4255 H   0  0  0  0  0  0
  -28.6007  -22.7624   18.6811 H   0  0  0  0  0  0
  -28.9416  -15.9537   20.5289 H   0  0  0  0  0  0
  -32.1198  -18.1675   21.5365 H   0  0  0  0  0  0
  -32.3047  -16.4430   21.3647 H   0  0  0  0  0  0
  1 25  1  0  0  0
  1 30  2  0  0  0
  1 82  1  0  0  0
  2  3  1  0  0  0
  2 25  1  0  0  0
  2 85  1  0  0  0
  2 86  1  0  0  0
  3  4  1  0  0  0
  3 87  1  0  0  0
  3 88  1  0  0  0
  4  5  1  0  0  0
  4 89  1  0  0  0
  4 90  1  0  0  0
  5  6  1  0  0  0
  5 26  1  0  0  0
  5 91  1  0  0  0
  6 25  1  0  0  0
  6 92  1  0  0  0
  6 93  1  0  0  0
  7  8  2  0  0  0
  7 26  1  0  0  0
  7 29  1  0  0  0
  8  9  1  0  0  0
  8 22  1  0  0  0
  9 10  1  0  0  0
  9 27  2  0  0  0
 10 11  2  0  0  0
 10 15  1  0  0  0
 11 12  1  0  0  0
 11 94  1  0  0  0
 12 13  2  0  0  0
 12 95  1  0  0  0
 13 14  1  0  0  0
 13 31  1  0  0  0
 14 15  2  0  0  0
 14 96  1  0  0  0
 15 97  1  0  0  0
 16 17  2  0  0  0
 16 21  1  0  0  0
 16 31  1  0  0  0
 17 18  1  0  0  0
 17 98  1  0  0  0
 18 19  2  0  0  0
 18 99  1  0  0  0
 19 20  1  0  0  0
 19 24  1  0  0  0
 20 21  2  0  0  0
 20100  1  0  0  0
 21 23  1  0  0  0
 22 28  1  0  0  0
 22 32  2  0  0  0
 26 27  1  0  0  0
 28101  1  0  0  0
 28102  1  0  0  0
 29103  1  0  0  0
 29104  1  0  0  0
 33 34  1  0  0  0
 33 66  1  0  0  0
 33 70  2  0  0  0
 34 36  1  0  0  0
 34 59  1  0  0  0
 34105  1  0  0  0
 35 44  2  0  0  0
 35 45  1  0  0  0
 35 68  1  0  0  0
 36 56  1  0  0  0
 36106  1  0  0  0
 37 39  1  0  0  0
 37 47  1  0  0  0
 37 66  1  0  0  0
 37107  1  0  0  0
 38 43  2  0  0  0
 38 46  1  0  0  0
 38 47  1  0  0  0
 39 64  1  0  0  0
 39 67  2  0  0  0
 40 52  1  0  0  0
 40 53  2  0  0  0
 40 58  1  0  0  0
 41108  1  0  0  0
 41109  1  0  0  0
 41110  1  0  0  0
 41 48  1  0  0  0
 42 43  1  0  0  0
 42 66  1  0  0  0
 42111  1  0  0  0
 42112  1  0  0  0
 43 44  1  0  0  0
 44113  1  0  0  0
 45 46  2  0  0  0
 45114  1  0  0  0
 46115  1  0  0  0
 47116  1  0  0  0
 47117  1  0  0  0
 48 56  1  0  0  0
 48 65  1  0  0  0
 48118  1  0  0  0
 49 50  1  0  0  0
 49 53  1  0  0  0
 49 64  1  0  0  0
 49119  1  0  0  0
 50 51  1  0  0  0
 50120  1  0  0  0
 50121  1  0  0  0
 51 52  1  0  0  0
 51122  1  0  0  0
 51123  1  0  0  0
 52124  1  0  0  0
 52125  1  0  0  0
 53 54  1  0  0  0
 54 55  2  0  0  0
 54126  1  0  0  0
 55 57  1  0  0  0
 55127  1  0  0  0
 56 69  2  0  0  0
 57 58  2  0  0  0
 57128  1  0  0  0
 58129  1  0  0  0
 59 60  1  0  0  0
 59 61  1  0  0  0
 59 62  1  0  0  0
 60130  1  0  0  0
 60131  1  0  0  0
 60132  1  0  0  0
 61133  1  0  0  0
 61134  1  0  0  0
 61135  1  0  0  0
 62136  1  0  0  0
 62137  1  0  0  0
 62138  1  0  0  0
 63 65  1  0  0  0
 63139  1  0  0  0
 63140  1  0  0  0
 63141  1  0  0  0
 64142  1  0  0  0
 65143  1  0  0  0
 68 79  1  0  0  0
 71 72  2  0  0  0
 71 74  1  0  0  0
 71144  1  0  0  0
 72 75  1  0  0  0
 72145  1  0  0  0
 73 74  2  0  0  0
 73 76  1  0  0  0
 73146  1  0  0  0
 74 77  1  0  0  0
 75 76  2  0  0  0
 75 81  1  0  0  0
 76 80  1  0  0  0
 77 82  1  0  0  0
 77 83  2  0  0  0
 78 79  1  0  0  0
 78 81  1  0  0  0
 78 84  2  0  0  0
 79147  1  0  0  0
 79148  1  0  0  0
 80149  1  0  0  0
 80150  1  0  0  0
 81151  1  0  0  0
 82152  1  0  0  0
 83153  1  0  0  0
 83154  1  0  0  0
M  CHG  1  83   1
M  ISO  4   1 100  68 101  79 101  82 100
M  END
> <chiral flag>
0

> <version>
0

> <s_m_source_file>
/data/baiqing/PycharmProjects/Reinvent-master-3.2/result/LINK_invent/BTK/process_docking_weight1_custom_product_contain_oxygen_bond_distance_aromatic_linkinvent_7_9_3/rearranged_h_0093.sdf

> <i_m_source_file_index>
31

> <r_mmod_Potential_Energy-OPLS-2005>
-277.815948486328

> <r_mmod_Stretch_Energy-OPLS-2005>
80.8000106811523

> <r_mmod_Bend_Energy-OPLS-2005>
162.599197387695

> <r_mmod_Torsional_Energy-OPLS-2005>
238.647125244141

> <r_mmod_Improper_Torsional_Energy-OPLS-2005>
13.3492975234985

> <r_mmod_Van_der_Waal_Energy-OPLS-2005>
155.42121887207

> <r_mmod_Electrostatic_Energy-OPLS-2005>
-507.015747070312

> <r_mmod_Solvation_Energy-OPLS-2005>
-477.428894042969

> <b_mmod_Minimization_Converged-OPLS-2005>
0

> <r_mmod_RMS_Derivative-OPLS-2005>
1.95873296260834

$$$$
32
                    3D
 Structure written by MMmdl.
155164  0  0  1  0            999 V2000
  -30.5963  -14.7138   20.4746 C   0  0  0  0  0  0
  -30.4444  -12.4357   19.4571 C   0  0  0  0  0  0
  -29.5149  -12.5343   18.2257 C   0  0  0  0  0  0
  -28.0372  -12.3657   18.6334 C   0  0  0  0  0  0
  -27.6554  -13.2315   19.8621 C   0  0  2  0  0  0
  -28.7028  -13.1028   20.9911 C   0  0  0  0  0  0
  -25.2556  -13.8189   20.5685 C   0  0  0  0  0  0
  -24.1826  -13.0450   20.9198 C   0  0  0  0  0  0
  -24.6409  -11.6927   20.8732 C   0  0  0  0  0  0
  -23.9075  -10.4306   21.0403 C   0  0  0  0  0  0
  -24.3619   -9.4225   21.9182 C   0  0  0  0  0  0
  -23.6299   -8.2255   22.0754 C   0  0  0  0  0  0
  -22.4285   -8.0278   21.3547 C   0  0  0  0  0  0
  -21.9917   -9.0257   20.4651 C   0  0  0  0  0  0
  -22.7244  -10.2142   20.3059 C   0  0  0  0  0  0
  -21.6847   -6.0728   22.5282 C   0  0  0  0  0  0
  -21.3999   -6.5635   23.8215 C   0  0  0  0  0  0
  -21.3676   -5.6792   24.9183 C   0  0  0  0  0  0
  -21.6054   -4.3057   24.7229 C   0  0  0  0  0  0
  -21.8818   -3.8152   23.4355 C   0  0  0  0  0  0
  -21.9195   -4.6960   22.3405 C   0  0  0  0  0  0
  -22.7850  -13.5244   21.1862 C   0  0  0  0  0  0
  -22.1663   -4.2155   21.0973 F   0  0  0  0  0  0
  -21.5647   -3.4534   25.7739 F   0  0  0  0  0  0
  -30.0120  -13.4670   20.4262 N   0  0  0  0  0  0
  -26.3016  -12.9414   20.3319 N   0  0  0  0  0  0
  -25.9354  -11.6560   20.5742 N   0  0  0  0  0  0
  -22.0463  -12.8237   22.0394 N   0  0  0  0  0  0
  -25.4258  -15.1910   20.4099 N   0  0  0  0  0  0
  -31.7526  -14.8812   20.0716 O   0  0  0  0  0  0
  -21.6651   -6.8876   21.4253 O   0  0  0  0  0  0
  -22.3545  -14.5549   20.6715 O   0  0  0  0  0  0
  -24.6280  -31.8540   23.1963 C   0  0  0  0  0  0
  -25.9109  -32.4750   23.8332 C   0  0  1  0  0  0
  -27.2398  -27.2875   20.1135 C   0  0  0  0  0  0
  -25.5918  -33.8560   24.2259 N   0  0  0  0  0  0
  -23.4263  -30.4705   21.5385 C   0  0  2  0  0  0
  -24.8791  -28.9205   20.0997 C   0  0  0  0  0  0
  -22.7492  -29.4576   22.4920 C   0  0  0  0  0  0
  -18.0282  -28.1380   22.8497 C   0  0  0  0  0  0
  -24.1478  -36.7272   23.2646 C   0  0  0  0  0  0
  -25.9671  -30.7711   21.3742 C   0  0  0  0  0  0
  -26.0418  -29.3935   20.7194 C   0  0  0  0  0  0
  -27.2166  -28.5816   20.7299 C   0  0  0  0  0  0
  -26.0556  -26.8695   19.4684 C   0  0  0  0  0  0
  -24.8896  -27.6649   19.4659 C   0  0  0  0  0  0
  -23.6423  -29.7975   20.1560 C   0  0  0  0  0  0
  -25.4109  -36.3068   24.0330 C   0  0  1  0  0  0
  -20.5885  -28.3679   23.1290 C   0  0  2  0  0  0
  -20.6757  -26.9401   22.5415 C   0  0  0  0  0  0
  -19.5740  -26.6377   21.5218 C   0  0  0  0  0  0
  -18.1923  -26.7938   22.1621 C   0  0  0  0  0  0
  -19.1538  -28.8848   23.2886 C   0  0  0  0  0  0
  -18.9458  -30.1457   23.8893 C   0  0  0  0  0  0
  -17.6453  -30.6583   24.0554 C   0  0  0  0  0  0
  -25.9049  -34.9441   23.5095 C   0  0  0  0  0  0
  -16.5340  -29.9074   23.6333 C   0  0  0  0  0  0
  -16.7268  -28.6486   23.0368 C   0  0  0  0  0  0
  -26.4483  -31.6582   25.0721 C   0  0  0  0  0  0
  -25.3707  -31.3716   26.1431 C   0  0  0  0  0  0
  -27.0325  -30.3014   24.6193 C   0  0  0  0  0  0
  -27.6046  -32.4313   25.7494 C   0  0  0  0  0  0
  -27.5570  -37.1789   24.8466 C   0  0  0  0  0  0
  -21.4199  -29.3018   22.3671 N   0  0  0  0  0  0
  -26.4282  -37.3760   23.9405 N   0  0  0  0  0  0
  -24.6927  -31.0510   22.0927 N   0  0  0  0  0  0
  -23.4190  -28.8146   23.3037 O   0  0  0  0  0  0
  -28.3383  -26.4120   20.2381 O   0  0  0  0  0  0
  -26.5629  -34.8909   22.4667 O   0  0  0  0  0  0
  -23.5429  -32.1356   23.7255 O   0  0  0  0  0  0
  -30.4560  -19.3804   19.5524 C   0  0  0  0  0  0
  -30.6457  -17.9754   19.7954 C   0  0  0  0  0  0
  -28.4206  -23.0776   18.1247 C   0  0  0  0  0  0
  -28.7509  -18.0139   21.2546 C   0  0  0  0  0  0
  -29.0611  -22.8223   20.2309 C   0  0  0  0  0  0
  -28.6950  -23.8270   19.3090 C   0  0  0  0  0  0
  -29.3910  -20.1486   20.1210 C   0  0  0  0  0  0
  -29.7717  -17.2300   20.6379 C   0  0  0  0  0  0
  -28.5550  -19.4152   21.0149 C   0  0  0  0  0  0
  -28.6609  -21.7511   18.3309 C   0  0  0  0  0  0
  -28.6942  -25.4251   19.1985 C   0  0  0  0  0  0
  -29.0653  -21.5133   19.6338 N   0  0  0  0  0  0
  -27.4830  -20.0508   21.6447 N   0  0  0  0  0  0
  -29.7863  -15.7622   20.8662 N   0  0  0  0  0  0
  -28.5691  -20.7360   17.4277 O   0  0  0  0  0  0
  -31.4858  -12.5667   19.1562 H   0  0  0  0  0  0
  -30.3828  -11.4418   19.9014 H   0  0  0  0  0  0
  -29.7893  -11.7881   17.4788 H   0  0  0  0  0  0
  -29.6515  -13.5051   17.7461 H   0  0  0  0  0  0
  -27.8690  -11.3122   18.8553 H   0  0  0  0  0  0
  -27.3875  -12.6065   17.7903 H   0  0  0  0  0  0
  -27.6671  -14.2671   19.5218 H   0  0  0  0  0  0
  -28.7285  -12.0856   21.3790 H   0  0  0  0  0  0
  -28.4430  -13.7401   21.8377 H   0  0  0  0  0  0
  -25.2751   -9.5714   22.4764 H   0  0  0  0  0  0
  -24.0022   -7.4641   22.7463 H   0  0  0  0  0  0
  -21.0847   -8.8783   19.8942 H   0  0  0  0  0  0
  -22.3699  -10.9677   19.6169 H   0  0  0  0  0  0
  -21.1963   -7.6143   23.9722 H   0  0  0  0  0  0
  -21.1504   -6.0517   25.9092 H   0  0  0  0  0  0
  -22.0579   -2.7609   23.2847 H   0  0  0  0  0  0
  -22.4051  -11.9909   22.4822 H   0  0  0  0  0  0
  -21.1075  -13.1286   22.2552 H   0  0  0  0  0  0
  -24.6575  -15.8445   20.5142 H   0  0  0  0  0  0
  -26.2707  -15.6258   20.0615 H   0  0  0  0  0  0
  -26.7187  -32.5402   23.1080 H   0  0  0  0  0  0
  -25.0049  -33.9707   25.0397 H   0  0  0  0  0  0
  -22.7205  -31.2907   21.3902 H   0  0  0  0  0  0
  -23.3745  -35.9598   23.3298 H   0  0  0  0  0  0
  -24.3571  -36.8894   22.2066 H   0  0  0  0  0  0
  -23.7227  -37.6469   23.6665 H   0  0  0  0  0  0
  -26.1014  -31.5295   20.6014 H   0  0  0  0  0  0
  -26.8462  -30.8235   22.0053 H   0  0  0  0  0  0
  -28.1005  -28.9321   21.2451 H   0  0  0  0  0  0
  -26.0037  -25.8938   19.0053 H   0  0  0  0  0  0
  -23.9971  -27.2936   18.9808 H   0  0  0  0  0  0
  -23.7458  -30.5672   19.3900 H   0  0  0  0  0  0
  -22.7659  -29.2137   19.8686 H   0  0  0  0  0  0
  -25.1302  -36.1908   25.0824 H   0  0  0  0  0  0
  -20.9997  -28.3233   24.1406 H   0  0  0  0  0  0
  -20.5638  -26.2293   23.3616 H   0  0  0  0  0  0
  -21.6623  -26.7395   22.1216 H   0  0  0  0  0  0
  -19.6879  -25.6283   21.1267 H   0  0  0  0  0  0
  -19.6700  -27.3176   20.6746 H   0  0  0  0  0  0
  -17.4206  -26.6714   21.4001 H   0  0  0  0  0  0
  -18.0289  -26.0068   22.9004 H   0  0  0  0  0  0
  -19.7931  -30.7283   24.2254 H   0  0  0  0  0  0
  -17.5002  -31.6271   24.5138 H   0  0  0  0  0  0
  -15.5340  -30.2958   23.7661 H   0  0  0  0  0  0
  -15.8675  -28.0793   22.7091 H   0  0  0  0  0  0
  -24.5906  -30.7045   25.7737 H   0  0  0  0  0  0
  -24.8862  -32.2870   26.4839 H   0  0  0  0  0  0
  -25.8023  -30.8903   27.0213 H   0  0  0  0  0  0
  -26.2896  -29.6776   24.1209 H   0  0  0  0  0  0
  -27.4001  -29.7272   25.4702 H   0  0  0  0  0  0
  -27.8775  -30.4297   23.9430 H   0  0  0  0  0  0
  -27.2686  -33.3630   26.2054 H   0  0  0  0  0  0
  -28.3868  -32.6841   25.0324 H   0  0  0  0  0  0
  -28.0703  -31.8449   26.5420 H   0  0  0  0  0  0
  -28.2588  -38.0083   24.7491 H   0  0  0  0  0  0
  -28.1063  -36.2610   24.6305 H   0  0  0  0  0  0
  -27.2291  -37.1449   25.8871 H   0  0  0  0  0  0
  -20.9378  -29.8752   21.6891 H   0  0  0  0  0  0
  -26.0161  -38.2837   24.1381 H   0  0  0  0  0  0
  -31.1213  -19.8701   18.8548 H   0  0  0  0  0  0
  -31.4523  -17.4696   19.2846 H   0  0  0  0  0  0
  -28.1277  -23.4940   17.1709 H   0  0  0  0  0  0
  -28.0603  -17.5097   21.9156 H   0  0  0  0  0  0
  -29.3747  -22.9195   21.2619 H   0  0  0  0  0  0
  -28.1680  -25.6866   18.2811 H   0  0  0  0  0  0
  -29.7289  -25.6667   18.9659 H   0  0  0  0  0  0
  -26.7030  -19.4753   21.9475 H   0  0  0  0  0  0
  -27.1870  -20.9329   21.2394 H   0  0  0  0  0  0
  -28.9405  -15.4160   21.2971 H   0  0  0  0  0  0
  -28.4401  -21.1238   16.5680 H   0  0  0  0  0  0
  1 25  1  0  0  0
  1 30  2  0  0  0
  1 84  1  0  0  0
  2  3  1  0  0  0
  2 25  1  0  0  0
  2 86  1  0  0  0
  2 87  1  0  0  0
  3  4  1  0  0  0
  3 88  1  0  0  0
  3 89  1  0  0  0
  4  5  1  0  0  0
  4 90  1  0  0  0
  4 91  1  0  0  0
  5  6  1  0  0  0
  5 26  1  0  0  0
  5 92  1  0  0  0
  6 25  1  0  0  0
  6 93  1  0  0  0
  6 94  1  0  0  0
  7  8  2  0  0  0
  7 26  1  0  0  0
  7 29  1  0  0  0
  8  9  1  0  0  0
  8 22  1  0  0  0
  9 10  1  0  0  0
  9 27  2  0  0  0
 10 11  2  0  0  0
 10 15  1  0  0  0
 11 12  1  0  0  0
 11 95  1  0  0  0
 12 13  2  0  0  0
 12 96  1  0  0  0
 13 14  1  0  0  0
 13 31  1  0  0  0
 14 15  2  0  0  0
 14 97  1  0  0  0
 15 98  1  0  0  0
 16 17  2  0  0  0
 16 21  1  0  0  0
 16 31  1  0  0  0
 17 18  1  0  0  0
 17 99  1  0  0  0
 18 19  2  0  0  0
 18100  1  0  0  0
 19 20  1  0  0  0
 19 24  1  0  0  0
 20 21  2  0  0  0
 20101  1  0  0  0
 21 23  1  0  0  0
 22 28  1  0  0  0
 22 32  2  0  0  0
 26 27  1  0  0  0
 28102  1  0  0  0
 28103  1  0  0  0
 29104  1  0  0  0
 29105  1  0  0  0
 33 34  1  0  0  0
 33 66  1  0  0  0
 33 70  2  0  0  0
 34 36  1  0  0  0
 34 59  1  0  0  0
 34106  1  0  0  0
 35 44  2  0  0  0
 35 45  1  0  0  0
 35 68  1  0  0  0
 36 56  1  0  0  0
 36107  1  0  0  0
 37 39  1  0  0  0
 37 47  1  0  0  0
 37 66  1  0  0  0
 37108  1  0  0  0
 38 43  2  0  0  0
 38 46  1  0  0  0
 38 47  1  0  0  0
 39 64  1  0  0  0
 39 67  2  0  0  0
 40 52  1  0  0  0
 40 53  2  0  0  0
 40 58  1  0  0  0
 41109  1  0  0  0
 41110  1  0  0  0
 41111  1  0  0  0
 41 48  1  0  0  0
 42 43  1  0  0  0
 42 66  1  0  0  0
 42112  1  0  0  0
 42113  1  0  0  0
 43 44  1  0  0  0
 44114  1  0  0  0
 45 46  2  0  0  0
 45115  1  0  0  0
 46116  1  0  0  0
 47117  1  0  0  0
 47118  1  0  0  0
 48 56  1  0  0  0
 48 65  1  0  0  0
 48119  1  0  0  0
 49 50  1  0  0  0
 49 53  1  0  0  0
 49 64  1  0  0  0
 49120  1  0  0  0
 50 51  1  0  0  0
 50121  1  0  0  0
 50122  1  0  0  0
 51 52  1  0  0  0
 51123  1  0  0  0
 51124  1  0  0  0
 52125  1  0  0  0
 52126  1  0  0  0
 53 54  1  0  0  0
 54 55  2  0  0  0
 54127  1  0  0  0
 55 57  1  0  0  0
 55128  1  0  0  0
 56 69  2  0  0  0
 57 58  2  0  0  0
 57129  1  0  0  0
 58130  1  0  0  0
 59 60  1  0  0  0
 59 61  1  0  0  0
 59 62  1  0  0  0
 60131  1  0  0  0
 60132  1  0  0  0
 60133  1  0  0  0
 61134  1  0  0  0
 61135  1  0  0  0
 61136  1  0  0  0
 62137  1  0  0  0
 62138  1  0  0  0
 62139  1  0  0  0
 63 65  1  0  0  0
 63140  1  0  0  0
 63141  1  0  0  0
 63142  1  0  0  0
 64143  1  0  0  0
 65144  1  0  0  0
 68 81  1  0  0  0
 71 72  2  0  0  0
 71 77  1  0  0  0
 71145  1  0  0  0
 72 78  1  0  0  0
 72146  1  0  0  0
 73 76  1  0  0  0
 73 80  2  0  0  0
 73147  1  0  0  0
 74 78  2  0  0  0
 74 79  1  0  0  0
 74148  1  0  0  0
 75 76  2  0  0  0
 75 82  1  0  0  0
 75149  1  0  0  0
 76 81  1  0  0  0
 77 79  2  0  0  0
 77 82  1  0  0  0
 78 84  1  0  0  0
 79 83  1  0  0  0
 80 82  1  0  0  0
 80 85  1  0  0  0
 81150  1  0  0  0
 81151  1  0  0  0
 83152  1  0  0  0
 83153  1  0  0  0
 84154  1  0  0  0
 85155  1  0  0  0
M  ISO  4   1 100  68 101  81 101  84 100
M  END
> <chiral flag>
0

> <version>
0

> <s_m_source_file>
/data/baiqing/PycharmProjects/Reinvent-master-3.2/result/LINK_invent/BTK/process_docking_weight1_custom_product_contain_oxygen_bond_distance_aromatic_linkinvent_7_9_3/rearranged_h_0093.sdf

> <i_m_source_file_index>
32

> <r_mmod_Potential_Energy-OPLS-2005>
201.487258911133

> <r_mmod_Stretch_Energy-OPLS-2005>
106.812210083008

> <r_mmod_Bend_Energy-OPLS-2005>
203.382049560547

> <r_mmod_Torsional_Energy-OPLS-2005>
255.467346191406

> <r_mmod_Improper_Torsional_Energy-OPLS-2005>
10.1944370269775

> <r_mmod_Van_der_Waal_Energy-OPLS-2005>
132.249298095703

> <r_mmod_Electrostatic_Energy-OPLS-2005>
-348.548461914062

> <r_mmod_Solvation_Energy-OPLS-2005>
-231.159057617188

> <b_mmod_Minimization_Converged-OPLS-2005>
0

> <r_mmod_RMS_Derivative-OPLS-2005>
3.10602211952209

$$$$
33
                    3D
 Structure written by MMmdl.
149157  0  0  1  0            999 V2000
  -30.5293  -14.9376   20.4168 C   0  0  0  0  0  0
  -30.4583  -12.5791   19.4907 C   0  0  0  0  0  0
  -29.5318  -12.5389   18.2524 C   0  0  0  0  0  0
  -28.0609  -12.3290   18.6652 C   0  0  0  0  0  0
  -27.6386  -13.2475   19.8418 C   0  0  2  0  0  0
  -28.6862  -13.2479   20.9775 C   0  0  0  0  0  0
  -25.2493  -13.8196   20.5709 C   0  0  0  0  0  0
  -24.1796  -13.0427   20.9203 C   0  0  0  0  0  0
  -24.6408  -11.6916   20.8716 C   0  0  0  0  0  0
  -23.9076  -10.4289   21.0383 C   0  0  0  0  0  0
  -24.3615   -9.4211   21.9174 C   0  0  0  0  0  0
  -23.6286   -8.2243   22.0753 C   0  0  0  0  0  0
  -22.4270   -8.0283   21.3542 C   0  0  0  0  0  0
  -21.9900   -9.0258   20.4645 C   0  0  0  0  0  0
  -22.7229  -10.2137   20.3046 C   0  0  0  0  0  0
  -21.6859   -6.0733   22.5274 C   0  0  0  0  0  0
  -21.4019   -6.5633   23.8211 C   0  0  0  0  0  0
  -21.3660   -5.6783   24.9170 C   0  0  0  0  0  0
  -21.6046   -4.3045   24.7217 C   0  0  0  0  0  0
  -21.8820   -3.8142   23.4336 C   0  0  0  0  0  0
  -21.9195   -4.6961   22.3394 C   0  0  0  0  0  0
  -22.7813  -13.5215   21.1855 C   0  0  0  0  0  0
  -22.1668   -4.2153   21.0969 F   0  0  0  0  0  0
  -21.5628   -3.4527   25.7722 F   0  0  0  0  0  0
  -29.9696  -13.6615   20.3875 N   0  0  0  0  0  0
  -26.2940  -12.9449   20.3236 N   0  0  0  0  0  0
  -25.9350  -11.6572   20.5694 N   0  0  0  0  0  0
  -22.0437  -12.8232   22.0414 N   0  0  0  0  0  0
  -25.4067  -15.1932   20.4224 N   0  0  0  0  0  0
  -31.7271  -15.0539   20.1396 O   0  0  0  0  0  0
  -21.6644   -6.8874   21.4231 O   0  0  0  0  0  0
  -22.3489  -14.5516   20.6690 O   0  0  0  0  0  0
  -24.6415  -31.8454   23.1903 C   0  0  0  0  0  0
  -25.9191  -32.4701   23.8291 C   0  0  1  0  0  0
  -27.2159  -27.1411   20.1319 C   0  0  0  0  0  0
  -25.5936  -33.8508   24.2200 N   0  0  0  0  0  0
  -23.4434  -30.4685   21.5364 C   0  0  2  0  0  0
  -24.8932  -28.9015   20.1045 C   0  0  0  0  0  0
  -22.7550  -29.4560   22.4862 C   0  0  0  0  0  0
  -18.0301  -28.1383   22.8485 C   0  0  0  0  0  0
  -24.1487  -36.7264   23.2645 C   0  0  0  0  0  0
  -26.0003  -30.7184   21.3904 C   0  0  0  0  0  0
  -26.0704  -29.3300   20.7308 C   0  0  0  0  0  0
  -27.2290  -28.4639   20.7344 C   0  0  0  0  0  0
  -26.0123  -26.8224   19.4593 C   0  0  0  0  0  0
  -24.8779  -27.6604   19.4547 C   0  0  0  0  0  0
  -23.6673  -29.8021   20.1537 C   0  0  0  0  0  0
  -25.4114  -36.3042   24.0324 C   0  0  1  0  0  0
  -20.5914  -28.3709   23.1243 C   0  0  2  0  0  0
  -20.6778  -26.9412   22.5409 C   0  0  0  0  0  0
  -19.5753  -26.6372   21.5214 C   0  0  0  0  0  0
  -18.1937  -26.7925   22.1630 C   0  0  0  0  0  0
  -19.1557  -28.8867   23.2860 C   0  0  0  0  0  0
  -18.9470  -30.1465   23.8881 C   0  0  0  0  0  0
  -17.6466  -30.6589   24.0551 C   0  0  0  0  0  0
  -25.9062  -34.9414   23.5074 C   0  0  0  0  0  0
  -16.5360  -29.9077   23.6328 C   0  0  0  0  0  0
  -16.7286  -28.6491   23.0365 C   0  0  0  0  0  0
  -26.4516  -31.6565   25.0729 C   0  0  0  0  0  0
  -25.3712  -31.3755   26.1436 C   0  0  0  0  0  0
  -27.0361  -30.2956   24.6297 C   0  0  0  0  0  0
  -27.6062  -32.4323   25.7500 C   0  0  0  0  0  0
  -27.5573  -37.1786   24.8462 C   0  0  0  0  0  0
  -21.4244  -29.3039   22.3610 N   0  0  0  0  0  0
  -26.4278  -37.3751   23.9415 N   0  0  0  0  0  0
  -24.7153  -31.0310   22.0938 N   0  0  0  0  0  0
  -23.4205  -28.8096   23.2994 O   0  0  0  0  0  0
  -28.2624  -26.1440   20.2009 O   0  0  0  0  0  0
  -26.5652  -34.8907   22.4654 O   0  0  0  0  0  0
  -23.5539  -32.1330   23.7130 O   0  0  0  0  0  0
  -28.0389  -19.5460   20.0125 C   0  0  0  0  0  0
  -30.5770  -18.6130   20.5675 C   0  0  0  0  0  0
  -28.9811  -20.6093   20.1877 C   0  0  0  0  0  0
  -30.2879  -20.0555   20.4817 C   0  0  0  0  0  0
  -29.5931  -17.5662   20.3995 C   0  0  0  0  0  0
  -28.3133  -18.1330   20.1218 C   0  0  0  0  0  0
  -28.8659  -23.2934   20.2294 C   0  0  0  0  0  0
  -27.9582  -24.6510   19.8710 C   0  0  0  0  0  0
  -28.4769  -22.0191   20.0134 N   0  0  0  0  0  0
  -31.3287  -20.9542   20.7055 N   0  0  0  0  0  0
  -29.6569  -16.0403   20.5726 N   0  0  0  0  0  0
  -27.2811  -17.2710   19.9591 F   0  0  0  0  0  0
  -31.4902  -12.7516   19.1784 H   0  0  0  0  0  0
  -30.4608  -11.6203   20.0101 H   0  0  0  0  0  0
  -29.8487  -11.7506   17.5684 H   0  0  0  0  0  0
  -29.6246  -13.4755   17.6999 H   0  0  0  0  0  0
  -27.9460  -11.2843   18.9551 H   0  0  0  0  0  0
  -27.4041  -12.4851   17.8087 H   0  0  0  0  0  0
  -27.6052  -14.2555   19.4272 H   0  0  0  0  0  0
  -28.7653  -12.2634   21.4409 H   0  0  0  0  0  0
  -28.3890  -13.9357   21.7717 H   0  0  0  0  0  0
  -25.2766   -9.5707   22.4737 H   0  0  0  0  0  0
  -24.0011   -7.4647   22.7475 H   0  0  0  0  0  0
  -21.0832   -8.8770   19.8956 H   0  0  0  0  0  0
  -22.3679  -10.9673   19.6150 H   0  0  0  0  0  0
  -21.2015   -7.6141   23.9709 H   0  0  0  0  0  0
  -21.1483   -6.0513   25.9073 H   0  0  0  0  0  0
  -22.0600   -2.7605   23.2826 H   0  0  0  0  0  0
  -22.4042  -11.9926   22.4861 H   0  0  0  0  0  0
  -21.1052  -13.1285   22.2571 H   0  0  0  0  0  0
  -24.6290  -15.8292   20.5567 H   0  0  0  0  0  0
  -26.2462  -15.6758   20.1207 H   0  0  0  0  0  0
  -26.7251  -32.5310   23.1019 H   0  0  0  0  0  0
  -25.0038  -33.9622   25.0316 H   0  0  0  0  0  0
  -22.7442  -31.2949   21.3874 H   0  0  0  0  0  0
  -23.3749  -35.9594   23.3299 H   0  0  0  0  0  0
  -24.3577  -36.8903   22.2061 H   0  0  0  0  0  0
  -23.7243  -37.6459   23.6683 H   0  0  0  0  0  0
  -26.1525  -31.4736   20.6178 H   0  0  0  0  0  0
  -26.8715  -30.7693   22.0322 H   0  0  0  0  0  0
  -28.1194  -28.7835   21.2573 H   0  0  0  0  0  0
  -25.9047  -25.8838   18.9385 H   0  0  0  0  0  0
  -23.9829  -27.3313   18.9445 H   0  0  0  0  0  0
  -23.7937  -30.5786   19.3980 H   0  0  0  0  0  0
  -22.7804  -29.2444   19.8472 H   0  0  0  0  0  0
  -25.1302  -36.1877   25.0816 H   0  0  0  0  0  0
  -21.0016  -28.3304   24.1363 H   0  0  0  0  0  0
  -20.5661  -26.2326   23.3631 H   0  0  0  0  0  0
  -21.6647  -26.7409   22.1221 H   0  0  0  0  0  0
  -19.6906  -25.6275   21.1264 H   0  0  0  0  0  0
  -19.6688  -27.3170   20.6733 H   0  0  0  0  0  0
  -17.4203  -26.6678   21.4033 H   0  0  0  0  0  0
  -18.0329  -26.0072   22.9033 H   0  0  0  0  0  0
  -19.7947  -30.7285   24.2250 H   0  0  0  0  0  0
  -17.5018  -31.6273   24.5144 H   0  0  0  0  0  0
  -15.5355  -30.2971   23.7654 H   0  0  0  0  0  0
  -15.8690  -28.0794   22.7094 H   0  0  0  0  0  0
  -24.5861  -30.7136   25.7755 H   0  0  0  0  0  0
  -24.8930  -32.2937   26.4852 H   0  0  0  0  0  0
  -25.7999  -30.8917   27.0220 H   0  0  0  0  0  0
  -26.2958  -29.6695   24.1294 H   0  0  0  0  0  0
  -27.3954  -29.7247   25.4868 H   0  0  0  0  0  0
  -27.8890  -30.4183   23.9619 H   0  0  0  0  0  0
  -27.2664  -33.3643   26.2027 H   0  0  0  0  0  0
  -28.3886  -32.6847   25.0332 H   0  0  0  0  0  0
  -28.0705  -31.8476   26.5449 H   0  0  0  0  0  0
  -28.2589  -38.0083   24.7507 H   0  0  0  0  0  0
  -28.1074  -36.2619   24.6288 H   0  0  0  0  0  0
  -27.2303  -37.1438   25.8868 H   0  0  0  0  0  0
  -20.9436  -29.8765   21.6813 H   0  0  0  0  0  0
  -26.0155  -38.2824   24.1408 H   0  0  0  0  0  0
  -27.0179  -19.8192   19.7894 H   0  0  0  0  0  0
  -31.5858  -18.3015   20.7968 H   0  0  0  0  0  0
  -29.8409  -23.5221   20.6670 H   0  0  0  0  0  0
  -26.9759  -24.4395   20.2927 H   0  0  0  0  0  0
  -27.8168  -24.6212   18.7895 H   0  0  0  0  0  0
  -32.0674  -20.6601   21.3380 H   0  0  0  0  0  0
  -31.0628  -21.9179   20.8677 H   0  0  0  0  0  0
  -28.7274  -15.6817   20.7241 H   0  0  0  0  0  0
  1 25  1  0  0  0
  1 30  2  0  0  0
  1 81  1  0  0  0
  2  3  1  0  0  0
  2 25  1  0  0  0
  2 83  1  0  0  0
  2 84  1  0  0  0
  3  4  1  0  0  0
  3 85  1  0  0  0
  3 86  1  0  0  0
  4  5  1  0  0  0
  4 87  1  0  0  0
  4 88  1  0  0  0
  5  6  1  0  0  0
  5 26  1  0  0  0
  5 89  1  0  0  0
  6 25  1  0  0  0
  6 90  1  0  0  0
  6 91  1  0  0  0
  7  8  2  0  0  0
  7 26  1  0  0  0
  7 29  1  0  0  0
  8  9  1  0  0  0
  8 22  1  0  0  0
  9 10  1  0  0  0
  9 27  2  0  0  0
 10 11  2  0  0  0
 10 15  1  0  0  0
 11 12  1  0  0  0
 11 92  1  0  0  0
 12 13  2  0  0  0
 12 93  1  0  0  0
 13 14  1  0  0  0
 13 31  1  0  0  0
 14 15  2  0  0  0
 14 94  1  0  0  0
 15 95  1  0  0  0
 16 17  2  0  0  0
 16 21  1  0  0  0
 16 31  1  0  0  0
 17 18  1  0  0  0
 17 96  1  0  0  0
 18 19  2  0  0  0
 18 97  1  0  0  0
 19 20  1  0  0  0
 19 24  1  0  0  0
 20 21  2  0  0  0
 20 98  1  0  0  0
 21 23  1  0  0  0
 22 28  1  0  0  0
 22 32  2  0  0  0
 26 27  1  0  0  0
 28 99  1  0  0  0
 28100  1  0  0  0
 29101  1  0  0  0
 29102  1  0  0  0
 33 34  1  0  0  0
 33 66  1  0  0  0
 33 70  2  0  0  0
 34 36  1  0  0  0
 34 59  1  0  0  0
 34103  1  0  0  0
 35 44  2  0  0  0
 35 45  1  0  0  0
 35 68  1  0  0  0
 36 56  1  0  0  0
 36104  1  0  0  0
 37 39  1  0  0  0
 37 47  1  0  0  0
 37 66  1  0  0  0
 37105  1  0  0  0
 38 43  2  0  0  0
 38 46  1  0  0  0
 38 47  1  0  0  0
 39 64  1  0  0  0
 39 67  2  0  0  0
 40 52  1  0  0  0
 40 53  2  0  0  0
 40 58  1  0  0  0
 41106  1  0  0  0
 41107  1  0  0  0
 41108  1  0  0  0
 41 48  1  0  0  0
 42 43  1  0  0  0
 42 66  1  0  0  0
 42109  1  0  0  0
 42110  1  0  0  0
 43 44  1  0  0  0
 44111  1  0  0  0
 45 46  2  0  0  0
 45112  1  0  0  0
 46113  1  0  0  0
 47114  1  0  0  0
 47115  1  0  0  0
 48 56  1  0  0  0
 48 65  1  0  0  0
 48116  1  0  0  0
 49 50  1  0  0  0
 49 53  1  0  0  0
 49 64  1  0  0  0
 49117  1  0  0  0
 50 51  1  0  0  0
 50118  1  0  0  0
 50119  1  0  0  0
 51 52  1  0  0  0
 51120  1  0  0  0
 51121  1  0  0  0
 52122  1  0  0  0
 52123  1  0  0  0
 53 54  1  0  0  0
 54 55  2  0  0  0
 54124  1  0  0  0
 55 57  1  0  0  0
 55125  1  0  0  0
 56 69  2  0  0  0
 57 58  2  0  0  0
 57126  1  0  0  0
 58127  1  0  0  0
 59 60  1  0  0  0
 59 61  1  0  0  0
 59 62  1  0  0  0
 60128  1  0  0  0
 60129  1  0  0  0
 60130  1  0  0  0
 61131  1  0  0  0
 61132  1  0  0  0
 61133  1  0  0  0
 62134  1  0  0  0
 62135  1  0  0  0
 62136  1  0  0  0
 63 65  1  0  0  0
 63137  1  0  0  0
 63138  1  0  0  0
 63139  1  0  0  0
 64140  1  0  0  0
 65141  1  0  0  0
 68 78  1  0  0  0
 71 73  2  0  0  0
 71 76  1  0  0  0
 71142  1  0  0  0
 72 74  2  0  0  0
 72 75  1  0  0  0
 72143  1  0  0  0
 73 74  1  0  0  0
 73 79  1  0  0  0
 74 80  1  0  0  0
 75 76  2  0  0  0
 75 81  1  0  0  0
 76 82  1  0  0  0
 77 78  1  0  0  0
 77 79  2  0  0  0
 77144  1  0  0  0
 78145  1  0  0  0
 78146  1  0  0  0
 80147  1  0  0  0
 80148  1  0  0  0
 81149  1  0  0  0
M  ISO  4   1 100  68 101  78 101  81 100
M  END
> <chiral flag>
0

> <version>
0

> <s_m_source_file>
/data/baiqing/PycharmProjects/Reinvent-master-3.2/result/LINK_invent/BTK/process_docking_weight1_custom_product_contain_oxygen_bond_distance_aromatic_linkinvent_7_9_3/rearranged_h_0093.sdf

> <i_m_source_file_index>
33

> <r_mmod_Potential_Energy-OPLS-2005>
421.315795898438

> <r_mmod_Stretch_Energy-OPLS-2005>
231.161285400391

> <r_mmod_Bend_Energy-OPLS-2005>
311.824676513672

> <r_mmod_Torsional_Energy-OPLS-2005>
219.636322021484

> <r_mmod_Improper_Torsional_Energy-OPLS-2005>
8.91704177856445

> <r_mmod_Van_der_Waal_Energy-OPLS-2005>
133.481781005859

> <r_mmod_Electrostatic_Energy-OPLS-2005>
-453.586517333984

> <r_mmod_Solvation_Energy-OPLS-2005>
-218.451522827148

> <b_mmod_Minimization_Converged-OPLS-2005>
0

> <r_mmod_RMS_Derivative-OPLS-2005>
2.10135459899902

$$$$
34
                    3D
 Structure written by MMmdl.
157165  0  0  1  0            999 V2000
  -30.7889  -14.4022   20.5385 C   0  0  0  0  0  0
  -30.3917  -12.2568   19.4365 C   0  0  0  0  0  0
  -29.4908  -12.4831   18.2076 C   0  0  0  0  0  0
  -28.0079  -12.3728   18.6126 C   0  0  0  0  0  0
  -27.6566  -13.2203   19.8671 C   0  0  2  0  0  0
  -28.7008  -13.0449   20.9968 C   0  0  0  0  0  0
  -25.2550  -13.8196   20.5683 C   0  0  0  0  0  0
  -24.1838  -13.0462   20.9210 C   0  0  0  0  0  0
  -24.6416  -11.6923   20.8750 C   0  0  0  0  0  0
  -23.9080  -10.4304   21.0411 C   0  0  0  0  0  0
  -24.3632   -9.4223   21.9191 C   0  0  0  0  0  0
  -23.6309   -8.2261   22.0763 C   0  0  0  0  0  0
  -22.4296   -8.0295   21.3553 C   0  0  0  0  0  0
  -21.9922   -9.0263   20.4664 C   0  0  0  0  0  0
  -22.7246  -10.2144   20.3070 C   0  0  0  0  0  0
  -21.6857   -6.0747   22.5284 C   0  0  0  0  0  0
  -21.4017   -6.5648   23.8217 C   0  0  0  0  0  0
  -21.3655   -5.6806   24.9174 C   0  0  0  0  0  0
  -21.6035   -4.3058   24.7228 C   0  0  0  0  0  0
  -21.8818   -3.8156   23.4341 C   0  0  0  0  0  0
  -21.9201   -4.6974   22.3406 C   0  0  0  0  0  0
  -22.7847  -13.5233   21.1869 C   0  0  0  0  0  0
  -22.1665   -4.2157   21.0984 F   0  0  0  0  0  0
  -21.5629   -3.4553   25.7741 F   0  0  0  0  0  0
  -30.0323  -13.2805   20.4310 N   0  0  0  0  0  0
  -26.3006  -12.9399   20.3333 N   0  0  0  0  0  0
  -25.9348  -11.6537   20.5763 N   0  0  0  0  0  0
  -22.0476  -12.8240   22.0405 N   0  0  0  0  0  0
  -25.4236  -15.1917   20.4055 N   0  0  0  0  0  0
  -31.9619  -14.4318   20.1528 O   0  0  0  0  0  0
  -21.6649   -6.8891   21.4252 O   0  0  0  0  0  0
  -22.3540  -14.5533   20.6681 O   0  0  0  0  0  0
  -24.6110  -31.8696   23.2133 C   0  0  0  0  0  0
  -25.9053  -32.4816   23.8373 C   0  0  1  0  0  0
  -27.2194  -27.4479   20.0902 C   0  0  0  0  0  0
  -25.5936  -33.8607   24.2308 N   0  0  0  0  0  0
  -23.3931  -30.4991   21.5553 C   0  0  2  0  0  0
  -24.8340  -28.9698   20.1171 C   0  0  0  0  0  0
  -22.7344  -29.4691   22.5011 C   0  0  0  0  0  0
  -18.0276  -28.1309   22.8486 C   0  0  0  0  0  0
  -24.1504  -36.7319   23.2630 C   0  0  0  0  0  0
  -25.9198  -30.8388   21.3656 C   0  0  0  0  0  0
  -25.9930  -29.4715   20.7221 C   0  0  0  0  0  0
  -27.1817  -28.7133   20.7175 C   0  0  0  0  0  0
  -26.0424  -26.9755   19.4559 C   0  0  0  0  0  0
  -24.8514  -27.7153   19.4908 C   0  0  0  0  0  0
  -23.5978  -29.8361   20.1684 C   0  0  0  0  0  0
  -25.4113  -36.3082   24.0324 C   0  0  1  0  0  0
  -20.5853  -28.3659   23.1373 C   0  0  2  0  0  0
  -20.6771  -26.9433   22.5408 C   0  0  0  0  0  0
  -19.5801  -26.6505   21.5135 C   0  0  0  0  0  0
  -18.2006  -26.7847   22.1620 C   0  0  0  0  0  0
  -19.1494  -28.8790   23.2928 C   0  0  0  0  0  0
  -18.9370  -30.1389   23.8947 C   0  0  0  0  0  0
  -17.6381  -30.6538   24.0482 C   0  0  0  0  0  0
  -25.9033  -34.9460   23.5109 C   0  0  0  0  0  0
  -16.5295  -29.9030   23.6213 C   0  0  0  0  0  0
  -16.7250  -28.6432   23.0308 C   0  0  0  0  0  0
  -26.4484  -31.6579   25.0681 C   0  0  0  0  0  0
  -25.3754  -31.3740   26.1436 C   0  0  0  0  0  0
  -27.0325  -30.3025   24.6055 C   0  0  0  0  0  0
  -27.6048  -32.4269   25.7479 C   0  0  0  0  0  0
  -27.5575  -37.1822   24.8454 C   0  0  0  0  0  0
  -21.4074  -29.3072   22.3785 N   0  0  0  0  0  0
  -26.4288  -37.3774   23.9395 N   0  0  0  0  0  0
  -24.6597  -31.0815   22.1047 N   0  0  0  0  0  0
  -23.4133  -28.8203   23.3015 O   0  0  0  0  0  0
  -28.3998  -26.7362   20.1263 O   0  0  0  0  0  0
  -26.5575  -34.8900   22.4659 O   0  0  0  0  0  0
  -23.5333  -32.1467   23.7564 O   0  0  0  0  0  0
  -29.9322  -18.9934   19.6147 C   0  0  0  0  0  0
  -29.5045  -20.3184   19.7510 C   0  0  0  0  0  0
  -29.3408  -18.5505   21.9446 C   0  0  0  0  0  0
  -29.9140  -18.1254   20.7262 C   0  0  0  0  0  0
  -28.9265  -19.8962   22.0814 C   0  0  0  0  0  0
  -29.0725  -20.8113   21.0060 C   0  0  0  0  0  0
  -30.6662  -16.8790   20.6064 C   0  0  0  0  0  0
  -29.2531  -24.5212   20.7027 C   0  0  0  0  0  0
  -28.3778  -25.3550   19.7633 C   0  0  0  0  0  0
  -29.3169  -23.0581   20.2423 C   0  0  0  0  0  0
  -28.4118  -20.3471   23.2979 N   0  0  0  0  0  0
  -30.1273  -15.6496   20.8350 N   0  0  0  0  0  0
  -31.9349  -17.0631   20.2080 N   0  3  0  0  0  0
  -28.8229  -22.1545   21.2314 O   0  0  0  0  0  0
  -31.4418  -12.2849   19.1435 H   0  0  0  0  0  0
  -30.2329  -11.2615   19.8514 H   0  0  0  0  0  0
  -29.7207  -11.7554   17.4287 H   0  0  0  0  0  0
  -29.6900  -13.4649   17.7786 H   0  0  0  0  0  0
  -27.7984  -11.3188   18.8062 H   0  0  0  0  0  0
  -27.3707  -12.6600   17.7739 H   0  0  0  0  0  0
  -27.6882  -14.2621   19.5501 H   0  0  0  0  0  0
  -28.6537  -12.0339   21.4061 H   0  0  0  0  0  0
  -28.4932  -13.7153   21.8314 H   0  0  0  0  0  0
  -25.2774   -9.5701   22.4751 H   0  0  0  0  0  0
  -24.0014   -7.4661   22.7489 H   0  0  0  0  0  0
  -21.0841   -8.8792   19.8981 H   0  0  0  0  0  0
  -22.3703  -10.9686   19.6183 H   0  0  0  0  0  0
  -21.2004   -7.6161   23.9714 H   0  0  0  0  0  0
  -21.1473   -6.0540   25.9075 H   0  0  0  0  0  0
  -22.0598   -2.7620   23.2854 H   0  0  0  0  0  0
  -22.4105  -11.9916   22.4803 H   0  0  0  0  0  0
  -21.1095  -13.1275   22.2583 H   0  0  0  0  0  0
  -24.6461  -15.8366   20.4961 H   0  0  0  0  0  0
  -26.2491  -15.6262   20.0173 H   0  0  0  0  0  0
  -26.7121  -32.5551   23.1137 H   0  0  0  0  0  0
  -25.0136  -33.9775   25.0486 H   0  0  0  0  0  0
  -22.6840  -31.3173   21.4206 H   0  0  0  0  0  0
  -23.3746  -35.9681   23.3297 H   0  0  0  0  0  0
  -24.3612  -36.8933   22.2045 H   0  0  0  0  0  0
  -23.7291  -37.6544   23.6638 H   0  0  0  0  0  0
  -26.0163  -31.6019   20.5919 H   0  0  0  0  0  0
  -26.8159  -30.8965   21.9720 H   0  0  0  0  0  0
  -28.0641  -29.0906   21.2132 H   0  0  0  0  0  0
  -25.9972  -26.0425   18.9166 H   0  0  0  0  0  0
  -23.9649  -27.3211   19.0163 H   0  0  0  0  0  0
  -23.6949  -30.6064   19.4025 H   0  0  0  0  0  0
  -22.7229  -29.2478   19.8794 H   0  0  0  0  0  0
  -25.1295  -36.1940   25.0818 H   0  0  0  0  0  0
  -20.9878  -28.3253   24.1525 H   0  0  0  0  0  0
  -20.5626  -26.2248   23.3538 H   0  0  0  0  0  0
  -21.6667  -26.7541   22.1251 H   0  0  0  0  0  0
  -19.7066  -25.6545   21.0913 H   0  0  0  0  0  0
  -19.6671  -27.3512   20.6815 H   0  0  0  0  0  0
  -17.4249  -26.6509   21.4094 H   0  0  0  0  0  0
  -18.0587  -25.9964   22.9036 H   0  0  0  0  0  0
  -19.7815  -30.7234   24.2325 H   0  0  0  0  0  0
  -17.4905  -31.6229   24.5033 H   0  0  0  0  0  0
  -15.5292  -30.2933   23.7465 H   0  0  0  0  0  0
  -15.8652  -28.0750   22.6997 H   0  0  0  0  0  0
  -24.5900  -30.7106   25.7800 H   0  0  0  0  0  0
  -24.8988  -32.2935   26.4814 H   0  0  0  0  0  0
  -25.8095  -30.8946   27.0215 H   0  0  0  0  0  0
  -26.2891  -29.6796   24.1076 H   0  0  0  0  0  0
  -27.4084  -29.7223   25.4488 H   0  0  0  0  0  0
  -27.8695  -30.4349   23.9215 H   0  0  0  0  0  0
  -27.2650  -33.3541   26.2105 H   0  0  0  0  0  0
  -28.3875  -32.6878   25.0340 H   0  0  0  0  0  0
  -28.0697  -31.8347   26.5381 H   0  0  0  0  0  0
  -28.2587  -38.0117   24.7471 H   0  0  0  0  0  0
  -28.1071  -36.2652   24.6304 H   0  0  0  0  0  0
  -27.2286  -37.1477   25.8852 H   0  0  0  0  0  0
  -20.9178  -29.8865   21.7115 H   0  0  0  0  0  0
  -26.0177  -38.2854   24.1394 H   0  0  0  0  0  0
  -30.3507  -18.6816   18.6680 H   0  0  0  0  0  0
  -29.5903  -20.9494   18.8790 H   0  0  0  0  0  0
  -29.3044  -17.8724   22.7887 H   0  0  0  0  0  0
  -30.2601  -24.9354   20.7267 H   0  0  0  0  0  0
  -28.8599  -24.5849   21.7194 H   0  0  0  0  0  0
  -27.3956  -24.8919   19.8125 H   0  0  0  0  0  0
  -28.7225  -25.2677   18.7344 H   0  0  0  0  0  0
  -30.3519  -22.8314   19.9733 H   0  0  0  0  0  0
  -28.7098  -22.9308   19.3427 H   0  0  0  0  0  0
  -27.8960  -21.2212   23.2501 H   0  0  0  0  0  0
  -27.9755  -19.6636   23.9098 H   0  0  0  0  0  0
  -29.1696  -15.6911   21.1361 H   0  0  0  0  0  0
  -32.2997  -17.9808   20.0086 H   0  0  0  0  0  0
  -32.5102  -16.2355   20.0728 H   0  0  0  0  0  0
  1 25  1  0  0  0
  1 30  2  0  0  0
  1 82  1  0  0  0
  2  3  1  0  0  0
  2 25  1  0  0  0
  2 85  1  0  0  0
  2 86  1  0  0  0
  3  4  1  0  0  0
  3 87  1  0  0  0
  3 88  1  0  0  0
  4  5  1  0  0  0
  4 89  1  0  0  0
  4 90  1  0  0  0
  5  6  1  0  0  0
  5 26  1  0  0  0
  5 91  1  0  0  0
  6 25  1  0  0  0
  6 92  1  0  0  0
  6 93  1  0  0  0
  7  8  2  0  0  0
  7 26  1  0  0  0
  7 29  1  0  0  0
  8  9  1  0  0  0
  8 22  1  0  0  0
  9 10  1  0  0  0
  9 27  2  0  0  0
 10 11  2  0  0  0
 10 15  1  0  0  0
 11 12  1  0  0  0
 11 94  1  0  0  0
 12 13  2  0  0  0
 12 95  1  0  0  0
 13 14  1  0  0  0
 13 31  1  0  0  0
 14 15  2  0  0  0
 14 96  1  0  0  0
 15 97  1  0  0  0
 16 17  2  0  0  0
 16 21  1  0  0  0
 16 31  1  0  0  0
 17 18  1  0  0  0
 17 98  1  0  0  0
 18 19  2  0  0  0
 18 99  1  0  0  0
 19 20  1  0  0  0
 19 24  1  0  0  0
 20 21  2  0  0  0
 20100  1  0  0  0
 21 23  1  0  0  0
 22 28  1  0  0  0
 22 32  2  0  0  0
 26 27  1  0  0  0
 28101  1  0  0  0
 28102  1  0  0  0
 29103  1  0  0  0
 29104  1  0  0  0
 33 34  1  0  0  0
 33 66  1  0  0  0
 33 70  2  0  0  0
 34 36  1  0  0  0
 34 59  1  0  0  0
 34105  1  0  0  0
 35 44  2  0  0  0
 35 45  1  0  0  0
 35 68  1  0  0  0
 36 56  1  0  0  0
 36106  1  0  0  0
 37 39  1  0  0  0
 37 47  1  0  0  0
 37 66  1  0  0  0
 37107  1  0  0  0
 38 43  2  0  0  0
 38 46  1  0  0  0
 38 47  1  0  0  0
 39 64  1  0  0  0
 39 67  2  0  0  0
 40 52  1  0  0  0
 40 53  2  0  0  0
 40 58  1  0  0  0
 41108  1  0  0  0
 41109  1  0  0  0
 41110  1  0  0  0
 41 48  1  0  0  0
 42 43  1  0  0  0
 42 66  1  0  0  0
 42111  1  0  0  0
 42112  1  0  0  0
 43 44  1  0  0  0
 44113  1  0  0  0
 45 46  2  0  0  0
 45114  1  0  0  0
 46115  1  0  0  0
 47116  1  0  0  0
 47117  1  0  0  0
 48 56  1  0  0  0
 48 65  1  0  0  0
 48118  1  0  0  0
 49 50  1  0  0  0
 49 53  1  0  0  0
 49 64  1  0  0  0
 49119  1  0  0  0
 50 51  1  0  0  0
 50120  1  0  0  0
 50121  1  0  0  0
 51 52  1  0  0  0
 51122  1  0  0  0
 51123  1  0  0  0
 52124  1  0  0  0
 52125  1  0  0  0
 53 54  1  0  0  0
 54 55  2  0  0  0
 54126  1  0  0  0
 55 57  1  0  0  0
 55127  1  0  0  0
 56 69  2  0  0  0
 57 58  2  0  0  0
 57128  1  0  0  0
 58129  1  0  0  0
 59 60  1  0  0  0
 59 61  1  0  0  0
 59 62  1  0  0  0
 60130  1  0  0  0
 60131  1  0  0  0
 60132  1  0  0  0
 61133  1  0  0  0
 61134  1  0  0  0
 61135  1  0  0  0
 62136  1  0  0  0
 62137  1  0  0  0
 62138  1  0  0  0
 63 65  1  0  0  0
 63139  1  0  0  0
 63140  1  0  0  0
 63141  1  0  0  0
 64142  1  0  0  0
 65143  1  0  0  0
 68 79  1  0  0  0
 71 72  2  0  0  0
 71 74  1  0  0  0
 71144  1  0  0  0
 72 76  1  0  0  0
 72145  1  0  0  0
 73 74  2  0  0  0
 73 75  1  0  0  0
 73146  1  0  0  0
 74 77  1  0  0  0
 75 76  2  0  0  0
 75 81  1  0  0  0
 76 84  1  0  0  0
 77 82  1  0  0  0
 77 83  2  0  0  0
 78 79  1  0  0  0
 78 80  1  0  0  0
 78147  1  0  0  0
 78148  1  0  0  0
 79149  1  0  0  0
 79150  1  0  0  0
 80 84  1  0  0  0
 80151  1  0  0  0
 80152  1  0  0  0
 81153  1  0  0  0
 81154  1  0  0  0
 82155  1  0  0  0
 83156  1  0  0  0
 83157  1  0  0  0
M  CHG  1  83   1
M  ISO  4   1 100  68 101  79 101  82 100
M  END
> <chiral flag>
0

> <version>
0

> <s_m_source_file>
/data/baiqing/PycharmProjects/Reinvent-master-3.2/result/LINK_invent/BTK/process_docking_weight1_custom_product_contain_oxygen_bond_distance_aromatic_linkinvent_7_9_3/rearranged_h_0093.sdf

> <i_m_source_file_index>
34

> <r_mmod_Potential_Energy-OPLS-2005>
-264.600372314453

> <r_mmod_Stretch_Energy-OPLS-2005>
34.066837310791

> <r_mmod_Bend_Energy-OPLS-2005>
112.920059204102

> <r_mmod_Torsional_Energy-OPLS-2005>
235.149963378906

> <r_mmod_Improper_Torsional_Energy-OPLS-2005>
11.7139730453491

> <r_mmod_Van_der_Waal_Energy-OPLS-2005>
197.000610351562

> <r_mmod_Electrostatic_Energy-OPLS-2005>
-441.296752929688

> <r_mmod_Solvation_Energy-OPLS-2005>
-436.515625

> <b_mmod_Minimization_Converged-OPLS-2005>
0

> <r_mmod_RMS_Derivative-OPLS-2005>
5.06620121002197

$$$$
35
                    3D
 Structure written by MMmdl.
151159  0  0  1  0            999 V2000
  -30.6263  -14.6276   20.4945 C   0  0  0  0  0  0
  -30.4448  -12.3802   19.4608 C   0  0  0  0  0  0
  -29.5203  -12.4836   18.2295 C   0  0  0  0  0  0
  -28.0367  -12.3350   18.6339 C   0  0  0  0  0  0
  -27.6526  -13.2098   19.8589 C   0  0  2  0  0  0
  -28.6946  -13.0748   20.9894 C   0  0  0  0  0  0
  -25.2576  -13.8103   20.5653 C   0  0  0  0  0  0
  -24.1839  -13.0405   20.9226 C   0  0  0  0  0  0
  -24.6418  -11.6873   20.8815 C   0  0  0  0  0  0
  -23.9055  -10.4277   21.0451 C   0  0  0  0  0  0
  -24.3619   -9.4162   21.9175 C   0  0  0  0  0  0
  -23.6272   -8.2219   22.0776 C   0  0  0  0  0  0
  -22.4246   -8.0274   21.3584 C   0  0  0  0  0  0
  -21.9865   -9.0281   20.4714 C   0  0  0  0  0  0
  -22.7212  -10.2148   20.3125 C   0  0  0  0  0  0
  -21.6855   -6.0706   22.5292 C   0  0  0  0  0  0
  -21.3996   -6.5603   23.8220 C   0  0  0  0  0  0
  -21.3671   -5.6770   24.9195 C   0  0  0  0  0  0
  -21.6051   -4.3038   24.7273 C   0  0  0  0  0  0
  -21.8804   -3.8122   23.4395 C   0  0  0  0  0  0
  -21.9219   -4.6927   22.3444 C   0  0  0  0  0  0
  -22.7870  -13.5231   21.1854 C   0  0  0  0  0  0
  -22.1722   -4.2100   21.1034 F   0  0  0  0  0  0
  -21.5654   -3.4533   25.7797 F   0  0  0  0  0  0
  -30.0078  -13.4096   20.4214 N   0  0  0  0  0  0
  -26.2996  -12.9296   20.3319 N   0  0  0  0  0  0
  -25.9339  -11.6466   20.5853 N   0  0  0  0  0  0
  -22.0478  -12.8332   22.0472 N   0  0  0  0  0  0
  -25.4237  -15.1816   20.3976 N   0  0  0  0  0  0
  -31.8167  -14.7397   20.1823 O   0  0  0  0  0  0
  -21.6642   -6.8853   21.4252 O   0  0  0  0  0  0
  -22.3575  -14.5499   20.6628 O   0  0  0  0  0  0
  -24.6202  -31.8623   23.2085 C   0  0  0  0  0  0
  -25.9077  -32.4797   23.8397 C   0  0  1  0  0  0
  -27.2247  -27.3702   20.1216 C   0  0  0  0  0  0
  -25.5926  -33.8598   24.2315 N   0  0  0  0  0  0
  -23.4139  -30.4830   21.5527 C   0  0  2  0  0  0
  -24.8613  -28.9402   20.1186 C   0  0  0  0  0  0
  -22.7456  -29.4607   22.5016 C   0  0  0  0  0  0
  -18.0269  -28.1357   22.8480 C   0  0  0  0  0  0
  -24.1487  -36.7276   23.2634 C   0  0  0  0  0  0
  -25.9470  -30.8114   21.3691 C   0  0  0  0  0  0
  -26.0263  -29.4386   20.7188 C   0  0  0  0  0  0
  -27.2148  -28.6618   20.7158 C   0  0  0  0  0  0
  -26.0435  -26.9012   19.5124 C   0  0  0  0  0  0
  -24.8663  -27.6740   19.5095 C   0  0  0  0  0  0
  -23.6274  -29.8162   20.1682 C   0  0  0  0  0  0
  -25.4109  -36.3092   24.0330 C   0  0  1  0  0  0
  -20.5856  -28.3645   23.1315 C   0  0  2  0  0  0
  -20.6741  -26.9387   22.5421 C   0  0  0  0  0  0
  -19.5730  -26.6373   21.5202 C   0  0  0  0  0  0
  -18.1907  -26.7903   22.1613 C   0  0  0  0  0  0
  -19.1516  -28.8820   23.2881 C   0  0  0  0  0  0
  -18.9453  -30.1416   23.8910 C   0  0  0  0  0  0
  -17.6458  -30.6575   24.0529 C   0  0  0  0  0  0
  -25.9044  -34.9456   23.5118 C   0  0  0  0  0  0
  -16.5342  -29.9075   23.6319 C   0  0  0  0  0  0
  -16.7256  -28.6477   23.0364 C   0  0  0  0  0  0
  -26.4507  -31.6594   25.0742 C   0  0  0  0  0  0
  -25.3762  -31.3733   26.1501 C   0  0  0  0  0  0
  -27.0329  -30.3026   24.6133 C   0  0  0  0  0  0
  -27.6088  -32.4306   25.7515 C   0  0  0  0  0  0
  -27.5565  -37.1800   24.8481 C   0  0  0  0  0  0
  -21.4174  -29.3014   22.3755 N   0  0  0  0  0  0
  -26.4292  -37.3776   23.9413 N   0  0  0  0  0  0
  -24.6803  -31.0656   22.1025 N   0  0  0  0  0  0
  -23.4195  -28.8150   23.3075 O   0  0  0  0  0  0
  -28.3423  -26.5508   20.1136 O   0  0  0  0  0  0
  -26.5606  -34.8913   22.4684 O   0  0  0  0  0  0
  -23.5368  -32.1413   23.7420 O   0  0  0  0  0  0
  -29.0008  -19.3919   21.2811 C   0  0  0  0  0  0
  -28.9512  -19.4285   22.6592 C   0  0  0  0  0  0
  -28.9528  -21.6980   21.6545 C   0  0  0  0  0  0
  -30.0970  -17.0477   20.6541 C   0  0  0  0  0  0
  -28.4578  -24.0200   20.6012 C   0  0  0  0  0  0
  -28.9366  -18.0911   20.4466 C   0  0  0  0  0  0
  -28.3502  -25.4977   21.1244 C   0  0  0  0  0  0
  -28.9692  -20.7151   20.7179 N   0  0  0  0  0  0
  -28.8450  -18.3685   23.5544 N   0  0  0  0  0  0
  -28.9627  -23.1360   21.4987 N   0  0  0  0  0  0
  -29.8003  -15.7061   20.6796 N   0  0  0  0  0  0
  -31.2523  -17.4807   20.7357 O   0  0  0  0  0  0
  -28.0971  -23.7201   19.4590 O   0  0  0  0  0  0
  -28.9765  -21.0537   23.2917 S   0  0  0  0  0  0
  -31.4880  -12.5044   19.1587 H   0  0  0  0  0  0
  -30.3851  -11.3902   19.9153 H   0  0  0  0  0  0
  -29.7874  -11.7147   17.5037 H   0  0  0  0  0  0
  -29.6751  -13.4427   17.7337 H   0  0  0  0  0  0
  -27.8677  -11.2834   18.8640 H   0  0  0  0  0  0
  -27.3937  -12.5707   17.7856 H   0  0  0  0  0  0
  -27.6638  -14.2418   19.5108 H   0  0  0  0  0  0
  -28.7037  -12.0564   21.3802 H   0  0  0  0  0  0
  -28.4446  -13.7182   21.8342 H   0  0  0  0  0  0
  -25.2804   -9.5622   22.4670 H   0  0  0  0  0  0
  -23.9996   -7.4603   22.7488 H   0  0  0  0  0  0
  -21.0775   -8.8824   19.9044 H   0  0  0  0  0  0
  -22.3673  -10.9709   19.6258 H   0  0  0  0  0  0
  -21.1931   -7.6094   23.9711 H   0  0  0  0  0  0
  -21.1540   -6.0512   25.9104 H   0  0  0  0  0  0
  -22.0557   -2.7571   23.2942 H   0  0  0  0  0  0
  -22.4024  -12.0050   22.5009 H   0  0  0  0  0  0
  -21.1139  -13.1492   22.2694 H   0  0  0  0  0  0
  -24.6456  -15.8226   20.5029 H   0  0  0  0  0  0
  -26.2517  -15.6229   20.0232 H   0  0  0  0  0  0
  -26.7140  -32.5483   23.1151 H   0  0  0  0  0  0
  -25.0141  -33.9750   25.0514 H   0  0  0  0  0  0
  -22.7071  -31.3033   21.4110 H   0  0  0  0  0  0
  -23.3742  -35.9619   23.3358 H   0  0  0  0  0  0
  -24.3562  -36.8818   22.2032 H   0  0  0  0  0  0
  -23.7266  -37.6506   23.6621 H   0  0  0  0  0  0
  -26.0574  -31.5727   20.5959 H   0  0  0  0  0  0
  -26.8386  -30.8738   21.9822 H   0  0  0  0  0  0
  -28.1141  -29.0339   21.1880 H   0  0  0  0  0  0
  -26.0321  -25.9235   19.0497 H   0  0  0  0  0  0
  -23.9689  -27.2836   19.0454 H   0  0  0  0  0  0
  -23.7419  -30.5937   19.4124 H   0  0  0  0  0  0
  -22.7515  -29.2386   19.8684 H   0  0  0  0  0  0
  -25.1277  -36.1958   25.0815 H   0  0  0  0  0  0
  -20.9887  -28.3180   24.1452 H   0  0  0  0  0  0
  -20.5599  -26.2261   23.3606 H   0  0  0  0  0  0
  -21.6611  -26.7396   22.1226 H   0  0  0  0  0  0
  -19.6909  -25.6294   21.1219 H   0  0  0  0  0  0
  -19.6673  -27.3194   20.6742 H   0  0  0  0  0  0
  -17.4172  -26.6636   21.4021 H   0  0  0  0  0  0
  -18.0304  -26.0041   22.9008 H   0  0  0  0  0  0
  -19.7938  -30.7187   24.2317 H   0  0  0  0  0  0
  -17.5039  -31.6271   24.5102 H   0  0  0  0  0  0
  -15.5351  -30.2977   23.7652 H   0  0  0  0  0  0
  -15.8650  -28.0783   22.7112 H   0  0  0  0  0  0
  -24.5932  -30.7068   25.7883 H   0  0  0  0  0  0
  -24.8958  -32.2897   26.4920 H   0  0  0  0  0  0
  -25.8103  -30.8949   27.0291 H   0  0  0  0  0  0
  -26.2879  -29.6814   24.1141 H   0  0  0  0  0  0
  -27.4053  -29.7236   25.4598 H   0  0  0  0  0  0
  -27.8759  -30.4347   23.9344 H   0  0  0  0  0  0
  -27.2712  -33.3582   26.2156 H   0  0  0  0  0  0
  -28.3904  -32.6880   25.0357 H   0  0  0  0  0  0
  -28.0796  -31.8397   26.5383 H   0  0  0  0  0  0
  -28.2628  -38.0042   24.7419 H   0  0  0  0  0  0
  -28.1009  -36.2558   24.6450 H   0  0  0  0  0  0
  -27.2269  -37.1614   25.8884 H   0  0  0  0  0  0
  -20.9372  -29.8777   21.6992 H   0  0  0  0  0  0
  -26.0172  -38.2860   24.1403 H   0  0  0  0  0  0
  -28.8939  -18.3328   19.3848 H   0  0  0  0  0  0
  -27.9896  -17.5919   20.6477 H   0  0  0  0  0  0
  -29.1956  -25.6917   21.7865 H   0  0  0  0  0  0
  -27.4628  -25.5561   21.7601 H   0  0  0  0  0  0
  -28.4552  -17.4824   23.2482 H   0  0  0  0  0  0
  -28.5258  -18.5813   24.4950 H   0  0  0  0  0  0
  -29.2333  -23.6061   22.3512 H   0  0  0  0  0  0
  -28.8228  -15.4828   20.7537 H   0  0  0  0  0  0
  1 25  1  0  0  0
  1 30  2  0  0  0
  1 81  1  0  0  0
  2  3  1  0  0  0
  2 25  1  0  0  0
  2 85  1  0  0  0
  2 86  1  0  0  0
  3  4  1  0  0  0
  3 87  1  0  0  0
  3 88  1  0  0  0
  4  5  1  0  0  0
  4 89  1  0  0  0
  4 90  1  0  0  0
  5  6  1  0  0  0
  5 26  1  0  0  0
  5 91  1  0  0  0
  6 25  1  0  0  0
  6 92  1  0  0  0
  6 93  1  0  0  0
  7  8  2  0  0  0
  7 26  1  0  0  0
  7 29  1  0  0  0
  8  9  1  0  0  0
  8 22  1  0  0  0
  9 10  1  0  0  0
  9 27  2  0  0  0
 10 11  2  0  0  0
 10 15  1  0  0  0
 11 12  1  0  0  0
 11 94  1  0  0  0
 12 13  2  0  0  0
 12 95  1  0  0  0
 13 14  1  0  0  0
 13 31  1  0  0  0
 14 15  2  0  0  0
 14 96  1  0  0  0
 15 97  1  0  0  0
 16 17  2  0  0  0
 16 21  1  0  0  0
 16 31  1  0  0  0
 17 18  1  0  0  0
 17 98  1  0  0  0
 18 19  2  0  0  0
 18 99  1  0  0  0
 19 20  1  0  0  0
 19 24  1  0  0  0
 20 21  2  0  0  0
 20100  1  0  0  0
 21 23  1  0  0  0
 22 28  1  0  0  0
 22 32  2  0  0  0
 26 27  1  0  0  0
 28101  1  0  0  0
 28102  1  0  0  0
 29103  1  0  0  0
 29104  1  0  0  0
 33 34  1  0  0  0
 33 66  1  0  0  0
 33 70  2  0  0  0
 34 36  1  0  0  0
 34 59  1  0  0  0
 34105  1  0  0  0
 35 44  2  0  0  0
 35 45  1  0  0  0
 35 68  1  0  0  0
 36 56  1  0  0  0
 36106  1  0  0  0
 37 39  1  0  0  0
 37 47  1  0  0  0
 37 66  1  0  0  0
 37107  1  0  0  0
 38 43  2  0  0  0
 38 46  1  0  0  0
 38 47  1  0  0  0
 39 64  1  0  0  0
 39 67  2  0  0  0
 40 52  1  0  0  0
 40 53  2  0  0  0
 40 58  1  0  0  0
 41108  1  0  0  0
 41109  1  0  0  0
 41110  1  0  0  0
 41 48  1  0  0  0
 42 43  1  0  0  0
 42 66  1  0  0  0
 42111  1  0  0  0
 42112  1  0  0  0
 43 44  1  0  0  0
 44113  1  0  0  0
 45 46  2  0  0  0
 45114  1  0  0  0
 46115  1  0  0  0
 47116  1  0  0  0
 47117  1  0  0  0
 48 56  1  0  0  0
 48 65  1  0  0  0
 48118  1  0  0  0
 49 50  1  0  0  0
 49 53  1  0  0  0
 49 64  1  0  0  0
 49119  1  0  0  0
 50 51  1  0  0  0
 50120  1  0  0  0
 50121  1  0  0  0
 51 52  1  0  0  0
 51122  1  0  0  0
 51123  1  0  0  0
 52124  1  0  0  0
 52125  1  0  0  0
 53 54  1  0  0  0
 54 55  2  0  0  0
 54126  1  0  0  0
 55 57  1  0  0  0
 55127  1  0  0  0
 56 69  2  0  0  0
 57 58  2  0  0  0
 57128  1  0  0  0
 58129  1  0  0  0
 59 60  1  0  0  0
 59 61  1  0  0  0
 59 62  1  0  0  0
 60130  1  0  0  0
 60131  1  0  0  0
 60132  1  0  0  0
 61133  1  0  0  0
 61134  1  0  0  0
 61135  1  0  0  0
 62136  1  0  0  0
 62137  1  0  0  0
 62138  1  0  0  0
 63 65  1  0  0  0
 63139  1  0  0  0
 63140  1  0  0  0
 63141  1  0  0  0
 64142  1  0  0  0
 65143  1  0  0  0
 68 77  1  0  0  0
 71 72  2  0  0  0
 71 76  1  0  0  0
 71 78  1  0  0  0
 72 79  1  0  0  0
 72 84  1  0  0  0
 73 78  2  0  0  0
 73 80  1  0  0  0
 73 84  1  0  0  0
 74 76  1  0  0  0
 74 81  1  0  0  0
 74 82  2  0  0  0
 75 77  1  0  0  0
 75 80  1  0  0  0
 75 83  2  0  0  0
 76144  1  0  0  0
 76145  1  0  0  0
 77146  1  0  0  0
 77147  1  0  0  0
 79148  1  0  0  0
 79149  1  0  0  0
 80150  1  0  0  0
 81151  1  0  0  0
M  ISO  4   1 100  68 101  77 101  81 100
M  END
> <chiral flag>
0

> <version>
0

> <s_m_source_file>
/data/baiqing/PycharmProjects/Reinvent-master-3.2/result/LINK_invent/BTK/process_docking_weight1_custom_product_contain_oxygen_bond_distance_aromatic_linkinvent_7_9_3/rearranged_h_0093.sdf

> <i_m_source_file_index>
35

> <r_mmod_Potential_Energy-OPLS-2005>
-83.1579513549805

> <r_mmod_Stretch_Energy-OPLS-2005>
60.4668388366699

> <r_mmod_Bend_Energy-OPLS-2005>
144.913772583008

> <r_mmod_Torsional_Energy-OPLS-2005>
247.459838867188

> <r_mmod_Improper_Torsional_Energy-OPLS-2005>
11.1495714187622

> <r_mmod_Van_der_Waal_Energy-OPLS-2005>
116.593086242676

> <r_mmod_Electrostatic_Energy-OPLS-2005>
-402.383270263672

> <r_mmod_Solvation_Energy-OPLS-2005>
-300.518310546875

> <b_mmod_Minimization_Converged-OPLS-2005>
0

> <r_mmod_RMS_Derivative-OPLS-2005>
3.96546936035156

$$$$
36
                    3D
 Structure written by MMmdl.
155163  0  0  1  0            999 V2000
  -30.7256  -14.4325   20.5974 C   0  0  0  0  0  0
  -30.4041  -12.2995   19.3912 C   0  0  0  0  0  0
  -29.4736  -12.5009   18.1812 C   0  0  0  0  0  0
  -27.9983  -12.3616   18.6068 C   0  0  0  0  0  0
  -27.6525  -13.2025   19.8645 C   0  0  2  0  0  0
  -28.6954  -12.9840   20.9793 C   0  0  0  0  0  0
  -25.2570  -13.8140   20.5657 C   0  0  0  0  0  0
  -24.1824  -13.0439   20.9189 C   0  0  0  0  0  0
  -24.6373  -11.6898   20.8750 C   0  0  0  0  0  0
  -23.9047  -10.4293   21.0411 C   0  0  0  0  0  0
  -24.3607   -9.4201   21.9184 C   0  0  0  0  0  0
  -23.6291   -8.2235   22.0755 C   0  0  0  0  0  0
  -22.4265   -8.0277   21.3554 C   0  0  0  0  0  0
  -21.9896   -9.0252   20.4660 C   0  0  0  0  0  0
  -22.7223  -10.2137   20.3066 C   0  0  0  0  0  0
  -21.6847   -6.0728   22.5280 C   0  0  0  0  0  0
  -21.4005   -6.5633   23.8210 C   0  0  0  0  0  0
  -21.3651   -5.6796   24.9176 C   0  0  0  0  0  0
  -21.6052   -4.3056   24.7231 C   0  0  0  0  0  0
  -21.8822   -3.8141   23.4349 C   0  0  0  0  0  0
  -21.9190   -4.6958   22.3404 C   0  0  0  0  0  0
  -22.7865  -13.5252   21.1859 C   0  0  0  0  0  0
  -22.1662   -4.2142   21.0983 F   0  0  0  0  0  0
  -21.5639   -3.4537   25.7736 F   0  0  0  0  0  0
  -30.0163  -13.2874   20.4100 N   0  0  0  0  0  0
  -26.2972  -12.9297   20.3325 N   0  0  0  0  0  0
  -25.9290  -11.6461   20.5758 N   0  0  0  0  0  0
  -22.0503  -12.8263   22.0417 N   0  0  0  0  0  0
  -25.4343  -15.1842   20.3975 N   0  0  0  0  0  0
  -31.8688  -14.5626   20.1475 O   0  0  0  0  0  0
  -21.6636   -6.8866   21.4240 O   0  0  0  0  0  0
  -22.3559  -14.5559   20.6698 O   0  0  0  0  0  0
  -24.6141  -31.8660   23.2100 C   0  0  0  0  0  0
  -25.9046  -32.4822   23.8377 C   0  0  1  0  0  0
  -27.2246  -27.4293   20.1045 C   0  0  0  0  0  0
  -25.5897  -33.8622   24.2314 N   0  0  0  0  0  0
  -23.4005  -30.4901   21.5494 C   0  0  2  0  0  0
  -24.8450  -28.9511   20.1173 C   0  0  0  0  0  0
  -22.7410  -29.4652   22.4990 C   0  0  0  0  0  0
  -18.0269  -28.1371   22.8483 C   0  0  0  0  0  0
  -24.1474  -36.7316   23.2634 C   0  0  0  0  0  0
  -25.9299  -30.8306   21.3622 C   0  0  0  0  0  0
  -26.0055  -29.4650   20.7102 C   0  0  0  0  0  0
  -27.2028  -28.7139   20.6941 C   0  0  0  0  0  0
  -26.0505  -26.9255   19.5116 C   0  0  0  0  0  0
  -24.8616  -27.6808   19.5138 C   0  0  0  0  0  0
  -23.6095  -29.8208   20.1646 C   0  0  0  0  0  0
  -25.4103  -36.3122   24.0342 C   0  0  1  0  0  0
  -20.5855  -28.3648   23.1334 C   0  0  2  0  0  0
  -20.6765  -26.9380   22.5428 C   0  0  0  0  0  0
  -19.5758  -26.6371   21.5220 C   0  0  0  0  0  0
  -18.1930  -26.7913   22.1618 C   0  0  0  0  0  0
  -19.1516  -28.8827   23.2900 C   0  0  0  0  0  0
  -18.9453  -30.1449   23.8884 C   0  0  0  0  0  0
  -17.6456  -30.6573   24.0573 C   0  0  0  0  0  0
  -25.9027  -34.9491   23.5129 C   0  0  0  0  0  0
  -16.5345  -29.9071   23.6343 C   0  0  0  0  0  0
  -16.7262  -28.6495   23.0346 C   0  0  0  0  0  0
  -26.4471  -31.6602   25.0701 C   0  0  0  0  0  0
  -25.3749  -31.3737   26.1471 C   0  0  0  0  0  0
  -27.0279  -30.3026   24.6107 C   0  0  0  0  0  0
  -27.6065  -32.4287   25.7436 C   0  0  0  0  0  0
  -27.5586  -37.1814   24.8466 C   0  0  0  0  0  0
  -21.4133  -29.3004   22.3730 N   0  0  0  0  0  0
  -26.4295  -37.3812   23.9406 N   0  0  0  0  0  0
  -24.6666  -31.0777   22.0985 N   0  0  0  0  0  0
  -23.4176  -28.8216   23.3054 O   0  0  0  0  0  0
  -28.3874  -26.6931   20.0785 O   0  0  0  0  0  0
  -26.5603  -34.8948   22.4698 O   0  0  0  0  0  0
  -23.5342  -32.1399   23.7510 O   0  0  0  0  0  0
  -30.5579  -19.0971   21.8788 C   0  0  0  0  0  0
  -30.0100  -20.3702   21.6369 C   0  0  0  0  0  0
  -28.6315  -18.0467   20.8431 C   0  0  0  0  0  0
  -29.8966  -17.9160   21.4664 C   0  0  0  0  0  0
  -28.7827  -20.5081   20.9499 C   0  0  0  0  0  0
  -28.0845  -19.3279   20.5862 C   0  0  0  0  0  0
  -30.6137  -16.5886   21.6222 C   0  0  0  0  0  0
  -28.8654  -22.9432   20.3635 C   0  0  0  0  0  0
  -28.0309  -24.1864   19.9834 C   0  0  0  0  0  0
  -28.3723  -25.4571   20.8162 C   0  0  0  0  0  0
  -26.8634  -19.4206   19.9212 N   0  0  0  0  0  0
  -28.2184  -21.7865   20.6305 N   0  0  0  0  0  0
  -30.0441  -15.4700   21.1301 N   0  0  0  0  0  0
  -31.7225  -16.5807   22.1727 O   0  0  0  0  0  0
  -30.0947  -23.0408   20.3720 O   0  0  0  0  0  0
  -31.4475  -12.3877   19.0838 H   0  0  0  0  0  0
  -30.2954  -11.2874   19.7870 H   0  0  0  0  0  0
  -29.7025  -11.7733   17.4008 H   0  0  0  0  0  0
  -29.6384  -13.4849   17.7382 H   0  0  0  0  0  0
  -27.8141  -11.3070   18.8117 H   0  0  0  0  0  0
  -27.3378  -12.6304   17.7809 H   0  0  0  0  0  0
  -27.6987  -14.2491   19.5657 H   0  0  0  0  0  0
  -28.6734  -11.9478   21.3182 H   0  0  0  0  0  0
  -28.4682  -13.5825   21.8620 H   0  0  0  0  0  0
  -25.2748   -9.5680   22.4759 H   0  0  0  0  0  0
  -24.0005   -7.4618   22.7463 H   0  0  0  0  0  0
  -21.0828   -8.8776   19.8963 H   0  0  0  0  0  0
  -22.3674  -10.9684   19.6188 H   0  0  0  0  0  0
  -21.1978   -7.6143   23.9712 H   0  0  0  0  0  0
  -21.1482   -6.0522   25.9088 H   0  0  0  0  0  0
  -22.0602   -2.7600   23.2851 H   0  0  0  0  0  0
  -22.4093  -11.9911   22.4807 H   0  0  0  0  0  0
  -21.1141  -13.1327   22.2650 H   0  0  0  0  0  0
  -24.6679  -15.8433   20.4843 H   0  0  0  0  0  0
  -26.2683  -15.5971   20.0018 H   0  0  0  0  0  0
  -26.7106  -32.5521   23.1136 H   0  0  0  0  0  0
  -25.0072  -33.9782   25.0478 H   0  0  0  0  0  0
  -22.6856  -31.3050   21.4117 H   0  0  0  0  0  0
  -23.3751  -35.9637   23.3309 H   0  0  0  0  0  0
  -24.3571  -36.8904   22.2042 H   0  0  0  0  0  0
  -23.7212  -37.6522   23.6633 H   0  0  0  0  0  0
  -26.0455  -31.5977   20.5942 H   0  0  0  0  0  0
  -26.8160  -30.8783   21.9845 H   0  0  0  0  0  0
  -28.1032  -29.1117   21.1417 H   0  0  0  0  0  0
  -26.0525  -25.9550   19.0366 H   0  0  0  0  0  0
  -23.9694  -27.2795   19.0508 H   0  0  0  0  0  0
  -23.7217  -30.5926   19.4026 H   0  0  0  0  0  0
  -22.7307  -29.2421   19.8699 H   0  0  0  0  0  0
  -25.1281  -36.2000   25.0839 H   0  0  0  0  0  0
  -20.9953  -28.3228   24.1462 H   0  0  0  0  0  0
  -20.5679  -26.2258   23.3609 H   0  0  0  0  0  0
  -21.6647  -26.7438   22.1239 H   0  0  0  0  0  0
  -19.6915  -25.6289   21.1237 H   0  0  0  0  0  0
  -19.6720  -27.3209   20.6765 H   0  0  0  0  0  0
  -17.4219  -26.6685   21.3996 H   0  0  0  0  0  0
  -18.0312  -26.0041   22.8986 H   0  0  0  0  0  0
  -19.7934  -30.7276   24.2219 H   0  0  0  0  0  0
  -17.5014  -31.6264   24.5172 H   0  0  0  0  0  0
  -15.5345  -30.2975   23.7670 H   0  0  0  0  0  0
  -15.8666  -28.0837   22.7022 H   0  0  0  0  0  0
  -24.5958  -30.7015   25.7852 H   0  0  0  0  0  0
  -24.8912  -32.2901   26.4848 H   0  0  0  0  0  0
  -25.8137  -30.8993   27.0259 H   0  0  0  0  0  0
  -26.2815  -29.6786   24.1175 H   0  0  0  0  0  0
  -27.4011  -29.7278   25.4591 H   0  0  0  0  0  0
  -27.8671  -30.4281   23.9267 H   0  0  0  0  0  0
  -27.2718  -33.3582   26.2054 H   0  0  0  0  0  0
  -28.3867  -32.6838   25.0251 H   0  0  0  0  0  0
  -28.0754  -31.8378   26.5319 H   0  0  0  0  0  0
  -28.2641  -38.0068   24.7525 H   0  0  0  0  0  0
  -28.1042  -36.2632   24.6288 H   0  0  0  0  0  0
  -27.2322  -37.1460   25.8866 H   0  0  0  0  0  0
  -20.9278  -29.8685   21.6927 H   0  0  0  0  0  0
  -26.0201  -38.2891   24.1412 H   0  0  0  0  0  0
  -31.5274  -19.0426   22.3569 H   0  0  0  0  0  0
  -30.5662  -21.2357   21.9658 H   0  0  0  0  0  0
  -28.0975  -17.1642   20.5196 H   0  0  0  0  0  0
  -26.9655  -23.9663   20.0480 H   0  0  0  0  0  0
  -28.2365  -24.3813   18.9300 H   0  0  0  0  0  0
  -29.3668  -25.3650   21.2550 H   0  0  0  0  0  0
  -27.6934  -25.5266   21.6689 H   0  0  0  0  0  0
  -26.5506  -18.5846   19.4391 H   0  0  0  0  0  0
  -26.7280  -20.2402   19.3432 H   0  0  0  0  0  0
  -27.2159  -21.7879   20.5094 H   0  0  0  0  0  0
  -29.0407  -15.4376   21.0769 H   0  0  0  0  0  0
  1 25  1  0  0  0
  1 30  2  0  0  0
  1 83  1  0  0  0
  2  3  1  0  0  0
  2 25  1  0  0  0
  2 86  1  0  0  0
  2 87  1  0  0  0
  3  4  1  0  0  0
  3 88  1  0  0  0
  3 89  1  0  0  0
  4  5  1  0  0  0
  4 90  1  0  0  0
  4 91  1  0  0  0
  5  6  1  0  0  0
  5 26  1  0  0  0
  5 92  1  0  0  0
  6 25  1  0  0  0
  6 93  1  0  0  0
  6 94  1  0  0  0
  7  8  2  0  0  0
  7 26  1  0  0  0
  7 29  1  0  0  0
  8  9  1  0  0  0
  8 22  1  0  0  0
  9 10  1  0  0  0
  9 27  2  0  0  0
 10 11  2  0  0  0
 10 15  1  0  0  0
 11 12  1  0  0  0
 11 95  1  0  0  0
 12 13  2  0  0  0
 12 96  1  0  0  0
 13 14  1  0  0  0
 13 31  1  0  0  0
 14 15  2  0  0  0
 14 97  1  0  0  0
 15 98  1  0  0  0
 16 17  2  0  0  0
 16 21  1  0  0  0
 16 31  1  0  0  0
 17 18  1  0  0  0
 17 99  1  0  0  0
 18 19  2  0  0  0
 18100  1  0  0  0
 19 20  1  0  0  0
 19 24  1  0  0  0
 20 21  2  0  0  0
 20101  1  0  0  0
 21 23  1  0  0  0
 22 28  1  0  0  0
 22 32  2  0  0  0
 26 27  1  0  0  0
 28102  1  0  0  0
 28103  1  0  0  0
 29104  1  0  0  0
 29105  1  0  0  0
 33 34  1  0  0  0
 33 66  1  0  0  0
 33 70  2  0  0  0
 34 36  1  0  0  0
 34 59  1  0  0  0
 34106  1  0  0  0
 35 44  2  0  0  0
 35 45  1  0  0  0
 35 68  1  0  0  0
 36 56  1  0  0  0
 36107  1  0  0  0
 37 39  1  0  0  0
 37 47  1  0  0  0
 37 66  1  0  0  0
 37108  1  0  0  0
 38 43  2  0  0  0
 38 46  1  0  0  0
 38 47  1  0  0  0
 39 64  1  0  0  0
 39 67  2  0  0  0
 40 52  1  0  0  0
 40 53  2  0  0  0
 40 58  1  0  0  0
 41109  1  0  0  0
 41110  1  0  0  0
 41111  1  0  0  0
 41 48  1  0  0  0
 42 43  1  0  0  0
 42 66  1  0  0  0
 42112  1  0  0  0
 42113  1  0  0  0
 43 44  1  0  0  0
 44114  1  0  0  0
 45 46  2  0  0  0
 45115  1  0  0  0
 46116  1  0  0  0
 47117  1  0  0  0
 47118  1  0  0  0
 48 56  1  0  0  0
 48 65  1  0  0  0
 48119  1  0  0  0
 49 50  1  0  0  0
 49 53  1  0  0  0
 49 64  1  0  0  0
 49120  1  0  0  0
 50 51  1  0  0  0
 50121  1  0  0  0
 50122  1  0  0  0
 51 52  1  0  0  0
 51123  1  0  0  0
 51124  1  0  0  0
 52125  1  0  0  0
 52126  1  0  0  0
 53 54  1  0  0  0
 54 55  2  0  0  0
 54127  1  0  0  0
 55 57  1  0  0  0
 55128  1  0  0  0
 56 69  2  0  0  0
 57 58  2  0  0  0
 57129  1  0  0  0
 58130  1  0  0  0
 59 60  1  0  0  0
 59 61  1  0  0  0
 59 62  1  0  0  0
 60131  1  0  0  0
 60132  1  0  0  0
 60133  1  0  0  0
 61134  1  0  0  0
 61135  1  0  0  0
 61136  1  0  0  0
 62137  1  0  0  0
 62138  1  0  0  0
 62139  1  0  0  0
 63 65  1  0  0  0
 63140  1  0  0  0
 63141  1  0  0  0
 63142  1  0  0  0
 64143  1  0  0  0
 65144  1  0  0  0
 68 80  1  0  0  0
 71 72  2  0  0  0
 71 74  1  0  0  0
 71145  1  0  0  0
 72 75  1  0  0  0
 72146  1  0  0  0
 73 74  2  0  0  0
 73 76  1  0  0  0
 73147  1  0  0  0
 74 77  1  0  0  0
 75 76  2  0  0  0
 75 82  1  0  0  0
 76 81  1  0  0  0
 77 83  1  0  0  0
 77 84  2  0  0  0
 78 79  1  0  0  0
 78 82  1  0  0  0
 78 85  2  0  0  0
 79 80  1  0  0  0
 79148  1  0  0  0
 79149  1  0  0  0
 80150  1  0  0  0
 80151  1  0  0  0
 81152  1  0  0  0
 81153  1  0  0  0
 82154  1  0  0  0
 83155  1  0  0  0
M  ISO  4   1 100  68 101  80 101  83 100
M  END
> <chiral flag>
0

> <version>
0

> <s_m_source_file>
/data/baiqing/PycharmProjects/Reinvent-master-3.2/result/LINK_invent/BTK/process_docking_weight1_custom_product_contain_oxygen_bond_distance_aromatic_linkinvent_7_9_3/rearranged_h_0093.sdf

> <i_m_source_file_index>
36

> <r_mmod_Potential_Energy-OPLS-2005>
-237.449142456055

> <r_mmod_Stretch_Energy-OPLS-2005>
38.5876541137695

> <r_mmod_Bend_Energy-OPLS-2005>
98.1187744140625

> <r_mmod_Torsional_Energy-OPLS-2005>
278.358917236328

> <r_mmod_Improper_Torsional_Energy-OPLS-2005>
9.19681930541992

> <r_mmod_Van_der_Waal_Energy-OPLS-2005>
169.263717651367

> <r_mmod_Electrostatic_Energy-OPLS-2005>
-587.628662109375

> <r_mmod_Solvation_Energy-OPLS-2005>
-256.889831542969

> <b_mmod_Minimization_Converged-OPLS-2005>
0

> <r_mmod_RMS_Derivative-OPLS-2005>
2.8923282623291

$$$$
37
                    3D
 Structure written by MMmdl.
162171  0  0  1  0            999 V2000
  -30.5114  -14.5319   19.6198 C   0  0  0  0  0  0
  -30.7265  -12.1936   19.4242 C   0  0  0  0  0  0
  -29.6583  -11.9250   18.3685 C   0  0  0  0  0  0
  -28.3600  -11.8548   19.1631 C   0  0  0  0  0  0
  -28.0971  -13.1157   20.1835 C   0  0  2  0  0  0
  -29.2086  -13.1223   21.1393 C   0  0  0  0  0  0
  -25.9556  -14.2180   20.7493 C   0  0  0  0  0  0
  -24.1831  -13.6601   20.7190 C   0  0  0  0  0  0
  -23.9414  -12.4009   20.3889 C   0  0  0  0  0  0
  -23.6141  -10.8703   20.8944 C   0  0  0  0  0  0
  -24.1875   -9.8836   21.8171 C   0  0  0  0  0  0
  -23.6321   -8.5654   22.0314 C   0  0  0  0  0  0
  -22.4603   -8.1601   21.3418 C   0  0  0  0  0  0
  -21.9445   -9.0704   20.4092 C   0  0  0  0  0  0
  -22.5117  -10.3450   20.1937 C   0  0  0  0  0  0
  -21.7659   -6.1216   22.5261 C   0  0  0  0  0  0
  -21.4592   -6.6006   23.8190 C   0  0  0  0  0  0
  -21.3823   -5.7050   24.9079 C   0  0  0  0  0  0
  -21.6010   -4.3276   24.7116 C   0  0  0  0  0  0
  -21.8746   -3.8412   23.4223 C   0  0  0  0  0  0
  -21.9449   -4.7316   22.3352 C   0  0  0  0  0  0
  -22.6588  -14.0483   21.1620 C   0  0  0  0  0  0
  -22.1786   -4.2420   21.0932 F   0  0  0  0  0  0
  -21.5456   -3.4706   25.7593 F   0  0  0  0  0  0
  -30.2913  -13.3434   20.2044 N   0  0  0  0  0  0
  -26.8359  -13.7135   20.8362 N   0  0  0  0  0  0
  -24.9611  -13.5388   20.6251 N   0  0  0  0  0  0
  -22.0297  -13.2431   22.0454 N   0  0  0  0  0  0
  -26.9349  -15.3192   20.9087 N   0  0  0  0  0  0
  -31.5961  -15.0607   19.8764 O   0  0  0  0  0  0
  -21.8012   -6.9399   21.4165 O   0  0  0  0  0  0
  -22.0733  -14.9530   20.6049 O   0  0  0  0  0  0
  -24.7047  -31.7729   23.1464 C   0  0  0  0  0  0
  -25.9583  -32.4273   23.7988 C   0  0  1  0  0  0
  -26.5939  -26.2150   20.3652 C   0  0  0  0  0  0
  -25.6094  -33.8145   24.1815 N   0  0  0  0  0  0
  -23.5100  -30.4102   21.5111 C   0  0  2  0  0  0
  -24.8657  -28.7089   20.0848 C   0  0  0  0  0  0
  -22.7734  -29.4247   22.4603 C   0  0  0  0  0  0
  -18.0327  -28.1423   22.8446 C   0  0  0  0  0  0
  -24.1507  -36.7068   23.2653 C   0  0  0  0  0  0
  -26.0908  -30.3242   21.4852 C   0  0  0  0  0  0
  -26.0310  -28.8599   20.8371 C   0  0  0  0  0  0
  -26.9131  -27.6275   20.9469 C   0  0  0  0  0  0
  -25.5898  -26.4280   19.4155 C   0  0  0  0  0  0
  -24.7318  -27.5481   19.3199 C   0  0  0  0  0  0
  -23.7529  -29.7617   20.1205 C   0  0  0  0  0  0
  -25.4174  -36.2792   24.0251 C   0  0  1  0  0  0
  -20.5957  -28.3779   23.1101 C   0  0  2  0  0  0
  -20.6787  -26.9426   22.5395 C   0  0  0  0  0  0
  -19.5765  -26.6353   21.5211 C   0  0  0  0  0  0
  -18.1948  -26.7949   22.1612 C   0  0  0  0  0  0
  -19.1594  -28.8927   23.2759 C   0  0  0  0  0  0
  -18.9509  -30.1509   23.8809 C   0  0  0  0  0  0
  -17.6501  -30.6602   24.0549 C   0  0  0  0  0  0
  -25.9185  -34.9189   23.4876 C   0  0  0  0  0  0
  -16.5387  -29.9083   23.6357 C   0  0  0  0  0  0
  -16.7309  -28.6509   23.0365 C   0  0  0  0  0  0
  -26.4656  -31.6473   25.0762 C   0  0  0  0  0  0
  -25.3628  -31.3915   26.1315 C   0  0  0  0  0  0
  -27.0645  -30.2762   24.6992 C   0  0  0  0  0  0
  -27.6057  -32.4427   25.7553 C   0  0  0  0  0  0
  -27.5560  -37.1700   24.8463 C   0  0  0  0  0  0
  -21.4380  -29.3007   22.3376 N   0  0  0  0  0  0
  -26.4265  -37.3592   23.9404 N   0  0  0  0  0  0
  -24.8025  -30.8858   22.0925 N   0  0  0  0  0  0
  -23.4149  -28.7801   23.2942 O   0  0  0  0  0  0
  -26.9872  -24.6419   20.4865 O   0  0  0  0  0  0
  -26.5840  -34.8811   22.4506 O   0  0  0  0  0  0
  -23.6056  -32.1060   23.6265 O   0  0  0  0  0  0
  -25.6390  -12.6539   22.5206 C   0  0  0  0  0  0
  -26.1202  -11.6675   20.4855 C   0  0  0  0  0  0
  -24.9681  -14.8034   22.6421 C   0  0  0  0  0  0
  -25.0421  -20.1960   19.4938 C   0  0  0  0  0  0
  -25.9118  -13.1609   18.6742 C   0  0  0  0  0  0
  -25.7192  -20.8728   20.6074 C   0  0  0  0  0  0
  -24.7115  -16.1149   20.8256 C   0  0  0  0  0  0
  -25.0859  -15.1515   18.9292 C   0  0  0  0  0  0
  -25.6575  -19.4149   21.2704 C   0  0  0  0  0  0
  -24.7023  -18.7973   19.5385 C   0  0  0  0  0  0
  -26.2129  -19.2234   22.6436 C   0  0  0  0  0  0
  -27.0678  -13.5674   17.5458 C   0  0  0  0  0  0
  -26.0394  -22.9652   20.8269 C   0  0  0  0  0  0
  -28.3042  -14.7786   17.7096 C   0  0  0  0  0  0
  -25.0224  -17.9787   20.6769 N   0  0  0  0  0  0
  -29.7598  -14.8487   18.4335 N   0  0  0  0  0  0
  -24.0249  -18.1957   18.5260 O   0  0  0  0  0  0
  -25.1454  -15.9625   17.8459 F   0  0  0  0  0  0
  -31.7018  -12.3592   18.9593 H   0  0  0  0  0  0
  -30.8535  -11.3340   20.0841 H   0  0  0  0  0  0
  -29.8525  -10.9473   17.9251 H   0  0  0  0  0  0
  -29.6644  -12.6018   17.5209 H   0  0  0  0  0  0
  -28.5325  -11.0013   19.8215 H   0  0  0  0  0  0
  -27.5824  -11.4206   18.5419 H   0  0  0  0  0  0
  -28.1762  -13.9437   19.6584 H   0  0  0  0  0  0
  -29.3033  -12.1842   21.6864 H   0  0  0  0  0  0
  -29.1493  -13.9377   21.8637 H   0  0  0  0  0  0
  -25.0650  -10.1362   22.3906 H   0  0  0  0  0  0
  -24.1043   -7.8947   22.7344 H   0  0  0  0  0  0
  -21.0763   -8.7868   19.8312 H   0  0  0  0  0  0
  -22.0317  -10.9759   19.4587 H   0  0  0  0  0  0
  -21.2848   -7.6548   23.9781 H   0  0  0  0  0  0
  -21.1593   -6.0764   25.8975 H   0  0  0  0  0  0
  -22.0262   -2.7846   23.2643 H   0  0  0  0  0  0
  -22.5265  -12.4875   22.4949 H   0  0  0  0  0  0
  -21.0697  -13.4247   22.3006 H   0  0  0  0  0  0
  -26.5525  -16.0046   21.5450 H   0  0  0  0  0  0
  -27.0949  -15.8085   20.0413 H   0  0  0  0  0  0
  -26.7637  -32.4539   23.0631 H   0  0  0  0  0  0
  -25.0124  -33.9157   24.9893 H   0  0  0  0  0  0
  -22.8513  -31.2671   21.3507 H   0  0  0  0  0  0
  -23.3800  -35.9360   23.3234 H   0  0  0  0  0  0
  -24.3558  -36.8836   22.2081 H   0  0  0  0  0  0
  -23.7230  -37.6200   23.6809 H   0  0  0  0  0  0
  -26.3827  -31.0100   20.6885 H   0  0  0  0  0  0
  -26.9273  -30.3435   22.1687 H   0  0  0  0  0  0
  -27.7533  -27.6960   21.6228 H   0  0  0  0  0  0
  -25.3058  -25.5740   18.8170 H   0  0  0  0  0  0
  -23.8808  -27.4634   18.6578 H   0  0  0  0  0  0
  -24.0144  -30.5401   19.4027 H   0  0  0  0  0  0
  -22.8245  -29.3246   19.7492 H   0  0  0  0  0  0
  -25.1390  -36.1513   25.0738 H   0  0  0  0  0  0
  -21.0056  -28.3434   24.1221 H   0  0  0  0  0  0
  -20.5646  -26.2409   23.3670 H   0  0  0  0  0  0
  -21.6647  -26.7357   22.1213 H   0  0  0  0  0  0
  -19.6912  -25.6240   21.1296 H   0  0  0  0  0  0
  -19.6713  -27.3118   20.6705 H   0  0  0  0  0  0
  -17.4217  -26.6693   21.4014 H   0  0  0  0  0  0
  -18.0328  -26.0114   22.9031 H   0  0  0  0  0  0
  -19.7987  -30.7342   24.2141 H   0  0  0  0  0  0
  -17.5053  -31.6274   24.5168 H   0  0  0  0  0  0
  -15.5383  -30.2960   23.7732 H   0  0  0  0  0  0
  -15.8708  -28.0802   22.7126 H   0  0  0  0  0  0
  -24.5857  -30.7212   25.7615 H   0  0  0  0  0  0
  -24.8770  -32.3177   26.4401 H   0  0  0  0  0  0
  -25.7718  -30.9299   27.0312 H   0  0  0  0  0  0
  -26.3375  -29.6186   24.2218 H   0  0  0  0  0  0
  -27.4092  -29.7458   25.5881 H   0  0  0  0  0  0
  -27.9382  -30.3782   24.0553 H   0  0  0  0  0  0
  -27.2575  -33.3852   26.1794 H   0  0  0  0  0  0
  -28.4013  -32.6792   25.0474 H   0  0  0  0  0  0
  -28.0568  -31.8800   26.5736 H   0  0  0  0  0  0
  -28.2518  -38.0052   24.7528 H   0  0  0  0  0  0
  -28.1120  -36.2568   24.6277 H   0  0  0  0  0  0
  -27.2273  -37.1306   25.8865 H   0  0  0  0  0  0
  -20.9675  -29.8729   21.6502 H   0  0  0  0  0  0
  -26.0060  -38.2624   24.1423 H   0  0  0  0  0  0
  -25.7849  -12.0947   23.4333 H   0  0  0  0  0  0
  -26.5258  -10.6676   20.4285 H   0  0  0  0  0  0
  -24.8826  -15.2572   23.6184 H   0  0  0  0  0  0
  -24.7412  -20.7682   18.6267 H   0  0  0  0  0  0
  -26.6028  -20.1585   23.0463 H   0  0  0  0  0  0
  -27.0284  -18.4994   22.6343 H   0  0  0  0  0  0
  -25.4469  -18.8580   23.3279 H   0  0  0  0  0  0
  -27.4190  -12.7150   16.9686 H   0  0  0  0  0  0
  -26.4241  -14.0115   16.7865 H   0  0  0  0  0  0
  -26.0204  -23.0125   21.9160 H   0  0  0  0  0  0
  -25.0397  -23.2983   20.5471 H   0  0  0  0  0  0
  -27.7962  -15.6830   18.0436 H   0  0  0  0  0  0
  -28.5692  -15.0083   16.6771 H   0  0  0  0  0  0
  -30.3086  -15.5401   17.9422 H   0  0  0  0  0  0
  -24.4212  -17.3408   18.3658 H   0  0  0  0  0  0
  1 25  1  0  0  0
  1 30  2  0  0  0
  1 86  1  0  0  0
  2  3  1  0  0  0
  2 25  1  0  0  0
  2 89  1  0  0  0
  2 90  1  0  0  0
  3  4  1  0  0  0
  3 91  1  0  0  0
  3 92  1  0  0  0
  4  5  1  0  0  0
  4 93  1  0  0  0
  4 94  1  0  0  0
  5  6  1  0  0  0
  5 26  1  0  0  0
  5 95  1  0  0  0
  6 25  1  0  0  0
  6 96  1  0  0  0
  6 97  1  0  0  0
  7  8  2  0  0  0
  7 26  1  0  0  0
  7 29  1  0  0  0
  8  9  1  0  0  0
  8 22  1  0  0  0
  9 10  1  0  0  0
  9 27  2  0  0  0
 10 11  2  0  0  0
 10 15  1  0  0  0
 11 12  1  0  0  0
 11 98  1  0  0  0
 12 13  2  0  0  0
 12 99  1  0  0  0
 13 14  1  0  0  0
 13 31  1  0  0  0
 14 15  2  0  0  0
 14100  1  0  0  0
 15101  1  0  0  0
 16 17  2  0  0  0
 16 21  1  0  0  0
 16 31  1  0  0  0
 17 18  1  0  0  0
 17102  1  0  0  0
 18 19  2  0  0  0
 18103  1  0  0  0
 19 20  1  0  0  0
 19 24  1  0  0  0
 20 21  2  0  0  0
 20104  1  0  0  0
 21 23  1  0  0  0
 22 28  1  0  0  0
 22 32  2  0  0  0
 26 27  1  0  0  0
 28105  1  0  0  0
 28106  1  0  0  0
 29107  1  0  0  0
 29108  1  0  0  0
 33 34  1  0  0  0
 33 66  1  0  0  0
 33 70  2  0  0  0
 34 36  1  0  0  0
 34 59  1  0  0  0
 34109  1  0  0  0
 35 44  2  0  0  0
 35 45  1  0  0  0
 35 68  1  0  0  0
 36 56  1  0  0  0
 36110  1  0  0  0
 37 39  1  0  0  0
 37 47  1  0  0  0
 37 66  1  0  0  0
 37111  1  0  0  0
 38 43  2  0  0  0
 38 46  1  0  0  0
 38 47  1  0  0  0
 39 64  1  0  0  0
 39 67  2  0  0  0
 40 52  1  0  0  0
 40 53  2  0  0  0
 40 58  1  0  0  0
 41112  1  0  0  0
 41113  1  0  0  0
 41114  1  0  0  0
 41 48  1  0  0  0
 42 43  1  0  0  0
 42 66  1  0  0  0
 42115  1  0  0  0
 42116  1  0  0  0
 43 44  1  0  0  0
 44117  1  0  0  0
 45 46  2  0  0  0
 45118  1  0  0  0
 46119  1  0  0  0
 47120  1  0  0  0
 47121  1  0  0  0
 48 56  1  0  0  0
 48 65  1  0  0  0
 48122  1  0  0  0
 49 50  1  0  0  0
 49 53  1  0  0  0
 49 64  1  0  0  0
 49123  1  0  0  0
 50 51  1  0  0  0
 50124  1  0  0  0
 50125  1  0  0  0
 51 52  1  0  0  0
 51126  1  0  0  0
 51127  1  0  0  0
 52128  1  0  0  0
 52129  1  0  0  0
 53 54  1  0  0  0
 54 55  2  0  0  0
 54130  1  0  0  0
 55 57  1  0  0  0
 55131  1  0  0  0
 56 69  2  0  0  0
 57 58  2  0  0  0
 57132  1  0  0  0
 58133  1  0  0  0
 59 60  1  0  0  0
 59 61  1  0  0  0
 59 62  1  0  0  0
 60134  1  0  0  0
 60135  1  0  0  0
 60136  1  0  0  0
 61137  1  0  0  0
 61138  1  0  0  0
 61139  1  0  0  0
 62140  1  0  0  0
 62141  1  0  0  0
 62142  1  0  0  0
 63 65  1  0  0  0
 63143  1  0  0  0
 63144  1  0  0  0
 63145  1  0  0  0
 64146  1  0  0  0
 65147  1  0  0  0
 68 83  1  0  0  0
 71 72  2  0  0  0
 71 73  1  0  0  0
 71148  1  0  0  0
 72 75  1  0  0  0
 72149  1  0  0  0
 73 77  2  0  0  0
 73150  1  0  0  0
 74 76  1  0  0  0
 74 80  2  0  0  0
 74151  1  0  0  0
 75 78  2  0  0  0
 75 82  1  0  0  0
 76 79  2  0  0  0
 76 83  1  0  0  0
 77 78  1  0  0  0
 77 85  1  0  0  0
 78 88  1  0  0  0
 79 81  1  0  0  0
 79 85  1  0  0  0
 80 85  1  0  0  0
 80 87  1  0  0  0
 81152  1  0  0  0
 81153  1  0  0  0
 81154  1  0  0  0
 82 84  1  0  0  0
 82155  1  0  0  0
 82156  1  0  0  0
 83157  1  0  0  0
 83158  1  0  0  0
 84 86  1  0  0  0
 84159  1  0  0  0
 84160  1  0  0  0
 86161  1  0  0  0
 87162  1  0  0  0
M  ISO  4   1 100  68 101  83 101  86 100
M  END
> <chiral flag>
0

> <version>
0

> <s_m_source_file>
/data/baiqing/PycharmProjects/Reinvent-master-3.2/result/LINK_invent/BTK/process_docking_weight1_custom_product_contain_oxygen_bond_distance_aromatic_linkinvent_7_9_3/rearranged_h_0093.sdf

> <i_m_source_file_index>
37

> <r_mmod_Potential_Energy-OPLS-2005>
22209.009765625

> <r_mmod_Stretch_Energy-OPLS-2005>
12108.0537109375

> <r_mmod_Bend_Energy-OPLS-2005>
2792.529296875

> <r_mmod_Torsional_Energy-OPLS-2005>
659.084594726562

> <r_mmod_Improper_Torsional_Energy-OPLS-2005>
99.1466522216797

> <r_mmod_Van_der_Waal_Energy-OPLS-2005>
4425.1865234375

> <r_mmod_Electrostatic_Energy-OPLS-2005>
-390.181549072266

> <r_mmod_Solvation_Energy-OPLS-2005>
-227.397552490234

> <b_mmod_Minimization_Converged-OPLS-2005>
0

> <r_mmod_RMS_Derivative-OPLS-2005>
2.04236531257629

$$$$
38
                    3D
 Structure written by MMmdl.
144153  0  0  1  0            999 V2000
  -30.2194  -15.8447   20.3017 C   0  0  0  0  0  0
  -30.4146  -13.2434   19.5180 C   0  0  0  0  0  0
  -29.5563  -12.7017   18.3329 C   0  0  0  0  0  0
  -28.1493  -12.2974   18.7968 C   0  0  0  0  0  0
  -27.5882  -13.3224   19.8040 C   0  0  2  0  0  0
  -28.5989  -13.7511   20.8983 C   0  0  0  0  0  0
  -25.2290  -13.8268   20.5862 C   0  0  0  0  0  0
  -24.1694  -13.0397   20.9305 C   0  0  0  0  0  0
  -24.6430  -11.6924   20.8760 C   0  0  0  0  0  0
  -23.9134  -10.4273   21.0386 C   0  0  0  0  0  0
  -24.3662   -9.4190   21.9176 C   0  0  0  0  0  0
  -23.6315   -8.2237   22.0753 C   0  0  0  0  0  0
  -22.4294   -8.0284   21.3544 C   0  0  0  0  0  0
  -21.9945   -9.0259   20.4641 C   0  0  0  0  0  0
  -22.7297  -10.2124   20.3042 C   0  0  0  0  0  0
  -21.6857   -6.0740   22.5280 C   0  0  0  0  0  0
  -21.4018   -6.5642   23.8214 C   0  0  0  0  0  0
  -21.3660   -5.6793   24.9175 C   0  0  0  0  0  0
  -21.6043   -4.3056   24.7224 C   0  0  0  0  0  0
  -21.8819   -3.8149   23.4345 C   0  0  0  0  0  0
  -21.9194   -4.6967   22.3402 C   0  0  0  0  0  0
  -22.7703  -13.5125   21.1932 C   0  0  0  0  0  0
  -22.1661   -4.2153   21.0979 F   0  0  0  0  0  0
  -21.5627   -3.4538   25.7736 F   0  0  0  0  0  0
  -29.7278  -14.4412   20.2098 N   0  0  0  0  0  0
  -26.2772  -12.9645   20.3277 N   0  0  0  0  0  0
  -25.9386  -11.6696   20.5689 N   0  0  0  0  0  0
  -22.0370  -12.8105   22.0485 N   0  0  0  0  0  0
  -25.3808  -15.2012   20.4387 N   0  0  0  0  0  0
  -31.4681  -15.7452   20.2906 O   0  0  0  0  0  0
  -21.6645   -6.8888   21.4245 O   0  0  0  0  0  0
  -22.3378  -14.5425   20.6768 O   0  0  0  0  0  0
  -24.6982  -31.7839   23.1400 C   0  0  0  0  0  0
  -25.9493  -32.4389   23.7999 C   0  0  1  0  0  0
  -27.2339  -26.5573   20.2346 C   0  0  0  0  0  0
  -25.6010  -33.8222   24.1871 N   0  0  0  0  0  0
  -23.5311  -30.3798   21.4982 C   0  0  2  0  0  0
  -24.9899  -28.6888   20.1297 C   0  0  0  0  0  0
  -22.7832  -29.4234   22.4680 C   0  0  0  0  0  0
  -18.0350  -28.1429   22.8447 C   0  0  0  0  0  0
  -24.1496  -36.7119   23.2655 C   0  0  0  0  0  0
  -26.1189  -30.4700   21.4259 C   0  0  0  0  0  0
  -26.1843  -29.0173   20.7820 C   0  0  0  0  0  0
  -27.2877  -27.9869   20.7924 C   0  0  0  0  0  0
  -26.0008  -26.4753   19.5277 C   0  0  0  0  0  0
  -24.9455  -27.4443   19.4777 C   0  0  0  0  0  0
  -23.7941  -29.6630   20.1412 C   0  0  0  0  0  0
  -25.4151  -36.2849   24.0271 C   0  0  1  0  0  0
  -20.5992  -28.3798   23.1115 C   0  0  2  0  0  0
  -20.6809  -26.9444   22.5404 C   0  0  0  0  0  0
  -19.5787  -26.6367   21.5218 C   0  0  0  0  0  0
  -18.1970  -26.7954   22.1617 C   0  0  0  0  0  0
  -19.1619  -28.8941   23.2757 C   0  0  0  0  0  0
  -18.9521  -30.1521   23.8809 C   0  0  0  0  0  0
  -17.6508  -30.6607   24.0548 C   0  0  0  0  0  0
  -25.9141  -34.9244   23.4917 C   0  0  0  0  0  0
  -16.5398  -29.9085   23.6354 C   0  0  0  0  0  0
  -16.7329  -28.6509   23.0369 C   0  0  0  0  0  0
  -26.4622  -31.6483   25.0680 C   0  0  0  0  0  0
  -25.3646  -31.3838   26.1264 C   0  0  0  0  0  0
  -27.0579  -30.2805   24.6684 C   0  0  0  0  0  0
  -27.6037  -32.4379   25.7512 C   0  0  0  0  0  0
  -27.5560  -37.1715   24.8465 C   0  0  0  0  0  0
  -21.4466  -29.3019   22.3423 N   0  0  0  0  0  0
  -26.4264  -37.3626   23.9409 N   0  0  0  0  0  0
  -24.8080  -30.9142   22.0735 N   0  0  0  0  0  0
  -23.4206  -28.7855   23.3090 O   0  0  0  0  0  0
  -28.1817  -25.2720   20.2307 O   0  0  0  0  0  0
  -26.5801  -34.8850   22.4548 O   0  0  0  0  0  0
  -23.5969  -32.0980   23.6262 O   0  0  0  0  0  0
  -28.4412  -19.4625   19.2179 C   0  0  0  0  0  0
  -29.2665  -18.9998   20.1915 C   0  0  0  0  0  0
  -28.6744  -21.7024   20.1695 C   0  0  0  0  0  0
  -27.9085  -18.3689   18.3771 C   0  0  0  0  0  0
  -28.3764  -17.0190   19.0700 C   0  0  0  0  0  0
  -27.9257  -23.4822   20.4980 C   0  0  0  0  0  0
  -29.3353  -20.4802   20.8185 N   0  0  0  0  0  0
  -29.4275  -17.2400   20.1098 N   0  0  0  0  0  0
  -28.1049  -20.8969   19.1544 O   0  0  0  0  0  0
  -31.3825  -13.5523   19.1214 H   0  0  0  0  0  0
  -30.6430  -12.4480   20.2297 H   0  0  0  0  0  0
  -30.0538  -11.8582   17.8526 H   0  0  0  0  0  0
  -29.4725  -13.4805   17.5735 H   0  0  0  0  0  0
  -28.2212  -11.3211   19.2781 H   0  0  0  0  0  0
  -27.4790  -12.1753   17.9450 H   0  0  0  0  0  0
  -27.4135  -14.2071   19.1917 H   0  0  0  0  0  0
  -28.9172  -12.9086   21.5142 H   0  0  0  0  0  0
  -28.1286  -14.4630   21.5783 H   0  0  0  0  0  0
  -25.2799   -9.5663   22.4763 H   0  0  0  0  0  0
  -24.0011   -7.4631   22.7482 H   0  0  0  0  0  0
  -21.0873   -8.8791   19.8950 H   0  0  0  0  0  0
  -22.3758  -10.9666   19.6154 H   0  0  0  0  0  0
  -21.2013   -7.6151   23.9719 H   0  0  0  0  0  0
  -21.1482   -6.0522   25.9078 H   0  0  0  0  0  0
  -22.0597   -2.7611   23.2843 H   0  0  0  0  0  0
  -22.4012  -11.9782   22.4880 H   0  0  0  0  0  0
  -21.0976  -13.1100   22.2682 H   0  0  0  0  0  0
  -24.6098  -15.8463   20.5726 H   0  0  0  0  0  0
  -26.2359  -15.6566   20.1548 H   0  0  0  0  0  0
  -26.7589  -32.4827   23.0720 H   0  0  0  0  0  0
  -25.0047  -33.9234   24.9951 H   0  0  0  0  0  0
  -22.8648  -31.2208   21.2950 H   0  0  0  0  0  0
  -23.3779  -35.9425   23.3255 H   0  0  0  0  0  0
  -24.3559  -36.8853   22.2082 H   0  0  0  0  0  0
  -23.7237  -37.6267   23.6785 H   0  0  0  0  0  0
  -26.3351  -31.1835   20.6297 H   0  0  0  0  0  0
  -26.9648  -30.5458   22.0963 H   0  0  0  0  0  0
  -28.1898  -28.2572   21.3229 H   0  0  0  0  0  0
  -25.8095  -25.5458   19.0106 H   0  0  0  0  0  0
  -24.0491  -27.1803   18.9334 H   0  0  0  0  0  0
  -23.9843  -30.4161   19.3757 H   0  0  0  0  0  0
  -22.8957  -29.1380   19.8121 H   0  0  0  0  0  0
  -25.1368  -36.1589   25.0759 H   0  0  0  0  0  0
  -21.0069  -28.3432   24.1244 H   0  0  0  0  0  0
  -20.5662  -26.2426   23.3679 H   0  0  0  0  0  0
  -21.6669  -26.7364   22.1231 H   0  0  0  0  0  0
  -19.6940  -25.6254   21.1305 H   0  0  0  0  0  0
  -19.6734  -27.3128   20.6710 H   0  0  0  0  0  0
  -17.4240  -26.6698   21.4019 H   0  0  0  0  0  0
  -18.0352  -26.0117   22.9032 H   0  0  0  0  0  0
  -19.7996  -30.7360   24.2138 H   0  0  0  0  0  0
  -17.5058  -31.6277   24.5168 H   0  0  0  0  0  0
  -15.5394  -30.2959   23.7729 H   0  0  0  0  0  0
  -15.8730  -28.0798   22.7133 H   0  0  0  0  0  0
  -24.5878  -30.7138   25.7561 H   0  0  0  0  0  0
  -24.8783  -32.3070   26.4427 H   0  0  0  0  0  0
  -25.7790  -30.9178   27.0213 H   0  0  0  0  0  0
  -26.3327  -29.6375   24.1687 H   0  0  0  0  0  0
  -27.3962  -29.7308   25.5478 H   0  0  0  0  0  0
  -27.9323  -30.3899   24.0267 H   0  0  0  0  0  0
  -27.2553  -33.3765   26.1835 H   0  0  0  0  0  0
  -28.3980  -32.6807   25.0440 H   0  0  0  0  0  0
  -28.0563  -31.8683   26.5640 H   0  0  0  0  0  0
  -28.2531  -38.0053   24.7521 H   0  0  0  0  0  0
  -28.1103  -36.2573   24.6281 H   0  0  0  0  0  0
  -27.2276  -37.1333   25.8866 H   0  0  0  0  0  0
  -20.9807  -29.8653   21.6447 H   0  0  0  0  0  0
  -26.0077  -38.2665   24.1430 H   0  0  0  0  0  0
  -28.3189  -18.4453   17.3697 H   0  0  0  0  0  0
  -26.8222  -18.4212   18.2962 H   0  0  0  0  0  0
  -28.6804  -16.3007   18.3056 H   0  0  0  0  0  0
  -27.5226  -16.5859   19.5846 H   0  0  0  0  0  0
  -27.7663  -23.4641   21.5757 H   0  0  0  0  0  0
  -26.9169  -23.3713   20.1013 H   0  0  0  0  0  0
  1 25  1  0  0  0
  1 30  2  0  0  0
  1 78  1  0  0  0
  2  3  1  0  0  0
  2 25  1  0  0  0
  2 80  1  0  0  0
  2 81  1  0  0  0
  3  4  1  0  0  0
  3 82  1  0  0  0
  3 83  1  0  0  0
  4  5  1  0  0  0
  4 84  1  0  0  0
  4 85  1  0  0  0
  5  6  1  0  0  0
  5 26  1  0  0  0
  5 86  1  0  0  0
  6 25  1  0  0  0
  6 87  1  0  0  0
  6 88  1  0  0  0
  7  8  2  0  0  0
  7 26  1  0  0  0
  7 29  1  0  0  0
  8  9  1  0  0  0
  8 22  1  0  0  0
  9 10  1  0  0  0
  9 27  2  0  0  0
 10 11  2  0  0  0
 10 15  1  0  0  0
 11 12  1  0  0  0
 11 89  1  0  0  0
 12 13  2  0  0  0
 12 90  1  0  0  0
 13 14  1  0  0  0
 13 31  1  0  0  0
 14 15  2  0  0  0
 14 91  1  0  0  0
 15 92  1  0  0  0
 16 17  2  0  0  0
 16 21  1  0  0  0
 16 31  1  0  0  0
 17 18  1  0  0  0
 17 93  1  0  0  0
 18 19  2  0  0  0
 18 94  1  0  0  0
 19 20  1  0  0  0
 19 24  1  0  0  0
 20 21  2  0  0  0
 20 95  1  0  0  0
 21 23  1  0  0  0
 22 28  1  0  0  0
 22 32  2  0  0  0
 26 27  1  0  0  0
 28 96  1  0  0  0
 28 97  1  0  0  0
 29 98  1  0  0  0
 29 99  1  0  0  0
 33 34  1  0  0  0
 33 66  1  0  0  0
 33 70  2  0  0  0
 34 36  1  0  0  0
 34 59  1  0  0  0
 34100  1  0  0  0
 35 44  2  0  0  0
 35 45  1  0  0  0
 35 68  1  0  0  0
 36 56  1  0  0  0
 36101  1  0  0  0
 37 39  1  0  0  0
 37 47  1  0  0  0
 37 66  1  0  0  0
 37102  1  0  0  0
 38 43  2  0  0  0
 38 46  1  0  0  0
 38 47  1  0  0  0
 39 64  1  0  0  0
 39 67  2  0  0  0
 40 52  1  0  0  0
 40 53  2  0  0  0
 40 58  1  0  0  0
 41103  1  0  0  0
 41104  1  0  0  0
 41105  1  0  0  0
 41 48  1  0  0  0
 42 43  1  0  0  0
 42 66  1  0  0  0
 42106  1  0  0  0
 42107  1  0  0  0
 43 44  1  0  0  0
 44108  1  0  0  0
 45 46  2  0  0  0
 45109  1  0  0  0
 46110  1  0  0  0
 47111  1  0  0  0
 47112  1  0  0  0
 48 56  1  0  0  0
 48 65  1  0  0  0
 48113  1  0  0  0
 49 50  1  0  0  0
 49 53  1  0  0  0
 49 64  1  0  0  0
 49114  1  0  0  0
 50 51  1  0  0  0
 50115  1  0  0  0
 50116  1  0  0  0
 51 52  1  0  0  0
 51117  1  0  0  0
 51118  1  0  0  0
 52119  1  0  0  0
 52120  1  0  0  0
 53 54  1  0  0  0
 54 55  2  0  0  0
 54121  1  0  0  0
 55 57  1  0  0  0
 55122  1  0  0  0
 56 69  2  0  0  0
 57 58  2  0  0  0
 57123  1  0  0  0
 58124  1  0  0  0
 59 60  1  0  0  0
 59 61  1  0  0  0
 59 62  1  0  0  0
 60125  1  0  0  0
 60126  1  0  0  0
 60127  1  0  0  0
 61128  1  0  0  0
 61129  1  0  0  0
 61130  1  0  0  0
 62131  1  0  0  0
 62132  1  0  0  0
 62133  1  0  0  0
 63 65  1  0  0  0
 63134  1  0  0  0
 63135  1  0  0  0
 63136  1  0  0  0
 64137  1  0  0  0
 65138  1  0  0  0
 68 76  1  0  0  0
 71 72  2  0  0  0
 71 74  1  0  0  0
 71 79  1  0  0  0
 72 77  1  0  0  0
 72 78  1  0  0  0
 73 76  1  0  0  0
 73 77  2  0  0  0
 73 79  1  0  0  0
 74 75  1  0  0  0
 74139  1  0  0  0
 74140  1  0  0  0
 75 78  1  0  0  0
 75141  1  0  0  0
 75142  1  0  0  0
 76143  1  0  0  0
 76144  1  0  0  0
M  ISO  4   1 100  68 101  76 101  78 100
M  END
> <chiral flag>
0

> <version>
0

> <s_m_source_file>
/data/baiqing/PycharmProjects/Reinvent-master-3.2/result/LINK_invent/BTK/process_docking_weight1_custom_product_contain_oxygen_bond_distance_aromatic_linkinvent_7_9_3/rearranged_h_0093.sdf

> <i_m_source_file_index>
38

> <r_mmod_Potential_Energy-OPLS-2005>
3508.46875

> <r_mmod_Stretch_Energy-OPLS-2005>
1341.18579101562

> <r_mmod_Bend_Energy-OPLS-2005>
985.938781738281

> <r_mmod_Torsional_Energy-OPLS-2005>
312.292663574219

> <r_mmod_Improper_Torsional_Energy-OPLS-2005>
16.1000289916992

> <r_mmod_Van_der_Waal_Energy-OPLS-2005>
104.064826965332

> <r_mmod_Electrostatic_Energy-OPLS-2005>
-268.873199462891

> <r_mmod_Solvation_Energy-OPLS-2005>
-223.488052368164

> <b_mmod_Minimization_Converged-OPLS-2005>
0

> <r_mmod_RMS_Derivative-OPLS-2005>
0.180289715528488

$$$$
39
                    3D
 Structure written by MMmdl.
159168  0  0  1  0            999 V2000
  -30.6653  -14.6540   20.5725 C   0  0  0  0  0  0
  -30.4211  -12.4222   19.4560 C   0  0  0  0  0  0
  -29.5045  -12.5628   18.2227 C   0  0  0  0  0  0
  -28.0262  -12.3888   18.6205 C   0  0  0  0  0  0
  -27.6488  -13.2376   19.8656 C   0  0  2  0  0  0
  -28.6865  -13.0931   20.9953 C   0  0  0  0  0  0
  -25.2488  -13.8226   20.5697 C   0  0  0  0  0  0
  -24.1781  -13.0438   20.9226 C   0  0  0  0  0  0
  -24.6420  -11.6916   20.8757 C   0  0  0  0  0  0
  -23.9128  -10.4281   21.0414 C   0  0  0  0  0  0
  -24.3660   -9.4209   21.9196 C   0  0  0  0  0  0
  -23.6336   -8.2231   22.0759 C   0  0  0  0  0  0
  -22.4321   -8.0269   21.3536 C   0  0  0  0  0  0
  -21.9984   -9.0234   20.4633 C   0  0  0  0  0  0
  -22.7312  -10.2120   20.3045 C   0  0  0  0  0  0
  -21.6877   -6.0745   22.5286 C   0  0  0  0  0  0
  -21.4008   -6.5652   23.8215 C   0  0  0  0  0  0
  -21.3642   -5.6815   24.9176 C   0  0  0  0  0  0
  -21.6062   -4.3083   24.7251 C   0  0  0  0  0  0
  -21.8812   -3.8164   23.4382 C   0  0  0  0  0  0
  -21.9182   -4.6964   22.3426 C   0  0  0  0  0  0
  -22.7768  -13.5162   21.1916 C   0  0  0  0  0  0
  -22.1618   -4.2136   21.0991 F   0  0  0  0  0  0
  -21.5674   -3.4569   25.7768 F   0  0  0  0  0  0
  -30.0046  -13.4483   20.4443 N   0  0  0  0  0  0
  -26.2955  -12.9460   20.3321 N   0  0  0  0  0  0
  -25.9358  -11.6578   20.5758 N   0  0  0  0  0  0
  -22.0426  -12.8090   22.0445 N   0  0  0  0  0  0
  -25.4207  -15.1950   20.4087 N   0  0  0  0  0  0
  -31.7685  -14.8117   20.0384 O   0  0  0  0  0  0
  -21.6687   -6.8869   21.4238 O   0  0  0  0  0  0
  -22.3392  -14.5460   20.6772 O   0  0  0  0  0  0
  -24.6366  -31.8563   23.2052 C   0  0  0  0  0  0
  -25.9212  -32.4743   23.8391 C   0  0  1  0  0  0
  -27.2237  -27.2826   20.1176 C   0  0  0  0  0  0
  -25.6008  -33.8545   24.2315 N   0  0  0  0  0  0
  -23.4303  -30.4804   21.5501 C   0  0  2  0  0  0
  -24.8725  -28.9203   20.1302 C   0  0  0  0  0  0
  -22.7510  -29.4632   22.4981 C   0  0  0  0  0  0
  -18.0278  -28.1387   22.8479 C   0  0  0  0  0  0
  -24.1458  -36.7206   23.2675 C   0  0  0  0  0  0
  -25.9777  -30.7711   21.3840 C   0  0  0  0  0  0
  -26.0485  -29.3944   20.7258 C   0  0  0  0  0  0
  -27.2303  -28.5872   20.7120 C   0  0  0  0  0  0
  -26.0241  -26.8689   19.5067 C   0  0  0  0  0  0
  -24.8598  -27.6572   19.5203 C   0  0  0  0  0  0
  -23.6462  -29.8099   20.1694 C   0  0  0  0  0  0
  -25.4101  -36.3039   24.0353 C   0  0  1  0  0  0
  -20.5882  -28.3695   23.1235 C   0  0  2  0  0  0
  -20.6782  -26.9413   22.5364 C   0  0  0  0  0  0
  -19.5739  -26.6395   21.5184 C   0  0  0  0  0  0
  -18.1927  -26.7939   22.1597 C   0  0  0  0  0  0
  -19.1543  -28.8853   23.2853 C   0  0  0  0  0  0
  -18.9474  -30.1474   23.8866 C   0  0  0  0  0  0
  -17.6473  -30.6590   24.0557 C   0  0  0  0  0  0
  -25.9066  -34.9406   23.5109 C   0  0  0  0  0  0
  -16.5356  -29.9078   23.6362 C   0  0  0  0  0  0
  -16.7273  -28.6488   23.0388 C   0  0  0  0  0  0
  -26.4592  -31.6582   25.0783 C   0  0  0  0  0  0
  -25.3818  -31.3623   26.1481 C   0  0  0  0  0  0
  -27.0589  -30.3050   24.6304 C   0  0  0  0  0  0
  -27.6111  -32.4386   25.7560 C   0  0  0  0  0  0
  -27.5527  -37.1794   24.8495 C   0  0  0  0  0  0
  -21.4218  -29.3066   22.3654 N   0  0  0  0  0  0
  -26.4253  -37.3765   23.9413 N   0  0  0  0  0  0
  -24.7016  -31.0537   22.1036 N   0  0  0  0  0  0
  -23.4168  -28.8193   23.3139 O   0  0  0  0  0  0
  -28.3224  -26.4010   20.0895 O   0  0  0  0  0  0
  -26.5593  -34.8883   22.4659 O   0  0  0  0  0  0
  -23.5521  -32.1390   23.7334 O   0  0  0  0  0  0
  -29.6456  -18.8340   19.0266 C   0  0  0  0  0  0
  -29.9033  -17.4915   19.4623 C   0  0  0  0  0  0
  -29.2604  -19.5230   21.2621 C   0  0  0  0  0  0
  -29.3037  -19.9217   19.9028 C   0  0  0  0  0  0
  -29.8477  -17.0956   20.8279 C   0  0  0  0  0  0
  -29.5201  -18.1864   21.7103 C   0  0  0  0  0  0
  -28.8670  -22.4996   20.2107 C   0  0  0  0  0  0
  -28.3986  -23.7230   19.7452 C   0  0  0  0  0  0
  -27.9425  -22.5603   17.5059 C   0  0  0  0  0  0
  -27.9690  -23.8788   18.2898 C   0  0  0  0  0  0
  -28.7984  -21.3738   17.9915 C   0  0  0  0  0  0
  -30.1421  -15.4361   22.7497 C   0  0  0  0  0  0
  -28.1352  -25.0152   20.6303 C   0  0  0  0  0  0
  -29.0107  -21.2858   19.4518 N   0  0  0  0  0  0
  -30.0867  -15.6863   21.2943 N   0  0  0  0  0  0
  -27.2653  -22.4704   16.4765 O   0  0  0  0  0  0
  -29.4449  -17.9976   23.0481 F   0  0  0  0  0  0
  -31.4699  -12.5212   19.1645 H   0  0  0  0  0  0
  -30.3203  -11.4177   19.8704 H   0  0  0  0  0  0
  -29.7781  -11.8461   17.4464 H   0  0  0  0  0  0
  -29.6545  -13.5494   17.7809 H   0  0  0  0  0  0
  -27.8492  -11.3303   18.8171 H   0  0  0  0  0  0
  -27.3846  -12.6562   17.7807 H   0  0  0  0  0  0
  -27.6737  -14.2810   19.5493 H   0  0  0  0  0  0
  -28.7061  -12.0677   21.3697 H   0  0  0  0  0  0
  -28.3997  -13.7149   21.8420 H   0  0  0  0  0  0
  -25.2767   -9.5709   22.4828 H   0  0  0  0  0  0
  -24.0052   -7.4639   22.7494 H   0  0  0  0  0  0
  -21.0932   -8.8737   19.8938 H   0  0  0  0  0  0
  -22.3747  -10.9651   19.6180 H   0  0  0  0  0  0
  -21.1968   -7.6154   23.9722 H   0  0  0  0  0  0
  -21.1484   -6.0548   25.9084 H   0  0  0  0  0  0
  -22.0616   -2.7628   23.2915 H   0  0  0  0  0  0
  -22.4018  -11.9718   22.4802 H   0  0  0  0  0  0
  -21.1018  -13.1016   22.2632 H   0  0  0  0  0  0
  -24.6796  -15.8705   20.5606 H   0  0  0  0  0  0
  -26.2902  -15.6265   20.1214 H   0  0  0  0  0  0
  -26.7289  -32.5402   23.1145 H   0  0  0  0  0  0
  -25.0282  -33.9698   25.0546 H   0  0  0  0  0  0
  -22.7310  -31.3041   21.4004 H   0  0  0  0  0  0
  -23.3750  -35.9507   23.3362 H   0  0  0  0  0  0
  -24.3510  -36.8815   22.2083 H   0  0  0  0  0  0
  -23.7168  -37.6386   23.6697 H   0  0  0  0  0  0
  -26.1236  -31.5326   20.6162 H   0  0  0  0  0  0
  -26.8503  -30.8089   22.0265 H   0  0  0  0  0  0
  -28.1313  -28.9424   21.1884 H   0  0  0  0  0  0
  -25.9704  -25.9108   19.0224 H   0  0  0  0  0  0
  -23.9567  -27.2739   19.0675 H   0  0  0  0  0  0
  -23.7797  -30.5815   19.4120 H   0  0  0  0  0  0
  -22.7621  -29.2496   19.8629 H   0  0  0  0  0  0
  -25.1301  -36.1888   25.0848 H   0  0  0  0  0  0
  -20.9957  -28.3290   24.1359 H   0  0  0  0  0  0
  -20.5707  -26.2335   23.3590 H   0  0  0  0  0  0
  -21.6659  -26.7482   22.1131 H   0  0  0  0  0  0
  -19.6921  -25.6316   21.1211 H   0  0  0  0  0  0
  -19.6657  -27.3202   20.6702 H   0  0  0  0  0  0
  -17.4204  -26.6738   21.3989 H   0  0  0  0  0  0
  -18.0281  -26.0050   22.8947 H   0  0  0  0  0  0
  -19.7949  -30.7315   24.2210 H   0  0  0  0  0  0
  -17.5019  -31.6265   24.5164 H   0  0  0  0  0  0
  -15.5362  -30.2970   23.7722 H   0  0  0  0  0  0
  -15.8670  -28.0800   22.7147 H   0  0  0  0  0  0
  -24.6034  -30.6955   25.7737 H   0  0  0  0  0  0
  -24.8972  -32.2737   26.4989 H   0  0  0  0  0  0
  -25.8153  -30.8725   27.0214 H   0  0  0  0  0  0
  -26.3278  -29.6659   24.1355 H   0  0  0  0  0  0
  -27.4356  -29.7423   25.4861 H   0  0  0  0  0  0
  -27.9058  -30.4393   23.9572 H   0  0  0  0  0  0
  -27.2732  -33.3757   26.1987 H   0  0  0  0  0  0
  -28.3999  -32.6845   25.0439 H   0  0  0  0  0  0
  -28.0704  -31.8628   26.5612 H   0  0  0  0  0  0
  -28.2586  -38.0060   24.7508 H   0  0  0  0  0  0
  -28.0997  -36.2584   24.6401 H   0  0  0  0  0  0
  -27.2213  -37.1503   25.8896 H   0  0  0  0  0  0
  -20.9446  -29.8757   21.6796 H   0  0  0  0  0  0
  -26.0121  -38.2832   24.1402 H   0  0  0  0  0  0
  -29.7357  -19.0005   17.9623 H   0  0  0  0  0  0
  -30.1576  -16.7599   18.7079 H   0  0  0  0  0  0
  -29.0111  -20.2557   22.0128 H   0  0  0  0  0  0
  -29.1618  -22.4008   21.2458 H   0  0  0  0  0  0
  -28.5943  -24.6136   17.7807 H   0  0  0  0  0  0
  -26.9460  -24.2534   18.2743 H   0  0  0  0  0  0
  -29.7620  -21.3971   17.4790 H   0  0  0  0  0  0
  -28.2674  -20.4910   17.6389 H   0  0  0  0  0  0
  -29.2117  -15.7182   23.2410 H   0  0  0  0  0  0
  -30.9636  -15.9961   23.2018 H   0  0  0  0  0  0
  -30.2987  -14.3885   23.0156 H   0  0  0  0  0  0
  -28.7403  -24.9298   21.5351 H   0  0  0  0  0  0
  -27.1069  -24.9174   20.9779 H   0  0  0  0  0  0
  1 25  1  0  0  0
  1 30  2  0  0  0
  1 85  1  0  0  0
  2  3  1  0  0  0
  2 25  1  0  0  0
  2 88  1  0  0  0
  2 89  1  0  0  0
  3  4  1  0  0  0
  3 90  1  0  0  0
  3 91  1  0  0  0
  4  5  1  0  0  0
  4 92  1  0  0  0
  4 93  1  0  0  0
  5  6  1  0  0  0
  5 26  1  0  0  0
  5 94  1  0  0  0
  6 25  1  0  0  0
  6 95  1  0  0  0
  6 96  1  0  0  0
  7  8  2  0  0  0
  7 26  1  0  0  0
  7 29  1  0  0  0
  8  9  1  0  0  0
  8 22  1  0  0  0
  9 10  1  0  0  0
  9 27  2  0  0  0
 10 11  2  0  0  0
 10 15  1  0  0  0
 11 12  1  0  0  0
 11 97  1  0  0  0
 12 13  2  0  0  0
 12 98  1  0  0  0
 13 14  1  0  0  0
 13 31  1  0  0  0
 14 15  2  0  0  0
 14 99  1  0  0  0
 15100  1  0  0  0
 16 17  2  0  0  0
 16 21  1  0  0  0
 16 31  1  0  0  0
 17 18  1  0  0  0
 17101  1  0  0  0
 18 19  2  0  0  0
 18102  1  0  0  0
 19 20  1  0  0  0
 19 24  1  0  0  0
 20 21  2  0  0  0
 20103  1  0  0  0
 21 23  1  0  0  0
 22 28  1  0  0  0
 22 32  2  0  0  0
 26 27  1  0  0  0
 28104  1  0  0  0
 28105  1  0  0  0
 29106  1  0  0  0
 29107  1  0  0  0
 33 34  1  0  0  0
 33 66  1  0  0  0
 33 70  2  0  0  0
 34 36  1  0  0  0
 34 59  1  0  0  0
 34108  1  0  0  0
 35 44  2  0  0  0
 35 45  1  0  0  0
 35 68  1  0  0  0
 36 56  1  0  0  0
 36109  1  0  0  0
 37 39  1  0  0  0
 37 47  1  0  0  0
 37 66  1  0  0  0
 37110  1  0  0  0
 38 43  2  0  0  0
 38 46  1  0  0  0
 38 47  1  0  0  0
 39 64  1  0  0  0
 39 67  2  0  0  0
 40 52  1  0  0  0
 40 53  2  0  0  0
 40 58  1  0  0  0
 41111  1  0  0  0
 41112  1  0  0  0
 41113  1  0  0  0
 41 48  1  0  0  0
 42 43  1  0  0  0
 42 66  1  0  0  0
 42114  1  0  0  0
 42115  1  0  0  0
 43 44  1  0  0  0
 44116  1  0  0  0
 45 46  2  0  0  0
 45117  1  0  0  0
 46118  1  0  0  0
 47119  1  0  0  0
 47120  1  0  0  0
 48 56  1  0  0  0
 48 65  1  0  0  0
 48121  1  0  0  0
 49 50  1  0  0  0
 49 53  1  0  0  0
 49 64  1  0  0  0
 49122  1  0  0  0
 50 51  1  0  0  0
 50123  1  0  0  0
 50124  1  0  0  0
 51 52  1  0  0  0
 51125  1  0  0  0
 51126  1  0  0  0
 52127  1  0  0  0
 52128  1  0  0  0
 53 54  1  0  0  0
 54 55  2  0  0  0
 54129  1  0  0  0
 55 57  1  0  0  0
 55130  1  0  0  0
 56 69  2  0  0  0
 57 58  2  0  0  0
 57131  1  0  0  0
 58132  1  0  0  0
 59 60  1  0  0  0
 59 61  1  0  0  0
 59 62  1  0  0  0
 60133  1  0  0  0
 60134  1  0  0  0
 60135  1  0  0  0
 61136  1  0  0  0
 61137  1  0  0  0
 61138  1  0  0  0
 62139  1  0  0  0
 62140  1  0  0  0
 62141  1  0  0  0
 63 65  1  0  0  0
 63142  1  0  0  0
 63143  1  0  0  0
 63144  1  0  0  0
 64145  1  0  0  0
 65146  1  0  0  0
 68 83  1  0  0  0
 71 72  2  0  0  0
 71 74  1  0  0  0
 71147  1  0  0  0
 72 75  1  0  0  0
 72148  1  0  0  0
 73 74  2  0  0  0
 73 76  1  0  0  0
 73149  1  0  0  0
 74 84  1  0  0  0
 75 76  2  0  0  0
 75 85  1  0  0  0
 76 87  1  0  0  0
 77 78  2  0  0  0
 77 84  1  0  0  0
 77150  1  0  0  0
 78 80  1  0  0  0
 78 83  1  0  0  0
 79 80  1  0  0  0
 79 81  1  0  0  0
 79 86  2  0  0  0
 80151  1  0  0  0
 80152  1  0  0  0
 81 84  1  0  0  0
 81153  1  0  0  0
 81154  1  0  0  0
 82 85  1  0  0  0
 82155  1  0  0  0
 82156  1  0  0  0
 82157  1  0  0  0
 83158  1  0  0  0
 83159  1  0  0  0
M  ISO  4   1 100  68 101  83 101  85 100
M  END
> <chiral flag>
0

> <version>
0

> <s_m_source_file>
/data/baiqing/PycharmProjects/Reinvent-master-3.2/result/LINK_invent/BTK/process_docking_weight1_custom_product_contain_oxygen_bond_distance_aromatic_linkinvent_7_9_3/rearranged_h_0093.sdf

> <i_m_source_file_index>
39

> <r_mmod_Potential_Energy-OPLS-2005>
293.559143066406

> <r_mmod_Stretch_Energy-OPLS-2005>
120.699523925781

> <r_mmod_Bend_Energy-OPLS-2005>
164.644805908203

> <r_mmod_Torsional_Energy-OPLS-2005>
290.375091552734

> <r_mmod_Improper_Torsional_Energy-OPLS-2005>
2.78285026550293

> <r_mmod_Van_der_Waal_Energy-OPLS-2005>
168.847396850586

> <r_mmod_Electrostatic_Energy-OPLS-2005>
-306.428405761719

> <r_mmod_Solvation_Energy-OPLS-2005>
-204.618911743164

> <b_mmod_Minimization_Converged-OPLS-2005>
0

> <r_mmod_RMS_Derivative-OPLS-2005>
5.30332374572754

$$$$
40
                    3D
 Structure written by MMmdl.
156164  0  0  1  0            999 V2000
  -30.6445  -14.7141   20.4146 C   0  0  0  0  0  0
  -30.4284  -12.4266   19.4548 C   0  0  0  0  0  0
  -29.5006  -12.4677   18.2226 C   0  0  0  0  0  0
  -28.0279  -12.3026   18.6471 C   0  0  0  0  0  0
  -27.6356  -13.2081   19.8449 C   0  0  2  0  0  0
  -28.6929  -13.1821   20.9699 C   0  0  0  0  0  0
  -25.2535  -13.8119   20.5728 C   0  0  0  0  0  0
  -24.1798  -13.0407   20.9228 C   0  0  0  0  0  0
  -24.6360  -11.6876   20.8779 C   0  0  0  0  0  0
  -23.9033  -10.4272   21.0424 C   0  0  0  0  0  0
  -24.3598   -9.4190   21.9195 C   0  0  0  0  0  0
  -23.6282   -8.2223   22.0753 C   0  0  0  0  0  0
  -22.4266   -8.0264   21.3539 C   0  0  0  0  0  0
  -21.9894   -9.0239   20.4645 C   0  0  0  0  0  0
  -22.7213  -10.2124   20.3062 C   0  0  0  0  0  0
  -21.6845   -6.0729   22.5276 C   0  0  0  0  0  0
  -21.4008   -6.5636   23.8210 C   0  0  0  0  0  0
  -21.3660   -5.6790   24.9173 C   0  0  0  0  0  0
  -21.6047   -4.3053   24.7222 C   0  0  0  0  0  0
  -21.8821   -3.8141   23.4344 C   0  0  0  0  0  0
  -21.9194   -4.6958   22.3400 C   0  0  0  0  0  0
  -22.7832  -13.5223   21.1871 C   0  0  0  0  0  0
  -22.1660   -4.2142   21.0978 F   0  0  0  0  0  0
  -21.5635   -3.4537   25.7736 F   0  0  0  0  0  0
  -29.9876  -13.5061   20.3598 N   0  0  0  0  0  0
  -26.2922  -12.9268   20.3321 N   0  0  0  0  0  0
  -25.9281  -11.6442   20.5796 N   0  0  0  0  0  0
  -22.0465  -12.8222   22.0423 N   0  0  0  0  0  0
  -25.4286  -15.1829   20.4132 N   0  0  0  0  0  0
  -31.8652  -14.7518   20.2369 O   0  0  0  0  0  0
  -21.6632   -6.8863   21.4232 O   0  0  0  0  0  0
  -22.3534  -14.5533   20.6715 O   0  0  0  0  0  0
  -24.6270  -31.8581   23.2003 C   0  0  0  0  0  0
  -25.9113  -32.4764   23.8340 C   0  0  1  0  0  0
  -27.2288  -27.3054   20.1052 C   0  0  0  0  0  0
  -25.5923  -33.8567   24.2263 N   0  0  0  0  0  0
  -23.4211  -30.4805   21.5436 C   0  0  2  0  0  0
  -24.8666  -28.9310   20.1099 C   0  0  0  0  0  0
  -22.7475  -29.4616   22.4938 C   0  0  0  0  0  0
  -18.0282  -28.1382   22.8489 C   0  0  0  0  0  0
  -24.1492  -36.7292   23.2641 C   0  0  0  0  0  0
  -25.9631  -30.7826   21.3737 C   0  0  0  0  0  0
  -26.0351  -29.4084   20.7147 C   0  0  0  0  0  0
  -27.2137  -28.6053   20.7060 C   0  0  0  0  0  0
  -26.0281  -26.8742   19.4957 C   0  0  0  0  0  0
  -24.8650  -27.6691   19.4958 C   0  0  0  0  0  0
  -23.6354  -29.8125   20.1594 C   0  0  0  0  0  0
  -25.4120  -36.3080   24.0330 C   0  0  1  0  0  0
  -20.5884  -28.3689   23.1285 C   0  0  2  0  0  0
  -20.6773  -26.9411   22.5414 C   0  0  0  0  0  0
  -19.5748  -26.6379   21.5215 C   0  0  0  0  0  0
  -18.1928  -26.7927   22.1627 C   0  0  0  0  0  0
  -19.1536  -28.8853   23.2877 C   0  0  0  0  0  0
  -18.9460  -30.1453   23.8898 C   0  0  0  0  0  0
  -17.6462  -30.6588   24.0562 C   0  0  0  0  0  0
  -25.9054  -34.9447   23.5099 C   0  0  0  0  0  0
  -16.5350  -29.9087   23.6331 C   0  0  0  0  0  0
  -16.7269  -28.6502   23.0355 C   0  0  0  0  0  0
  -26.4489  -31.6586   25.0722 C   0  0  0  0  0  0
  -25.3721  -31.3735   26.1451 C   0  0  0  0  0  0
  -27.0327  -30.3003   24.6193 C   0  0  0  0  0  0
  -27.6049  -32.4323   25.7487 C   0  0  0  0  0  0
  -27.5579  -37.1802   24.8463 C   0  0  0  0  0  0
  -21.4190  -29.3040   22.3679 N   0  0  0  0  0  0
  -26.4294  -37.3775   23.9405 N   0  0  0  0  0  0
  -24.6893  -31.0582   22.0954 N   0  0  0  0  0  0
  -23.4195  -28.8163   23.3027 O   0  0  0  0  0  0
  -28.3685  -26.4836   20.1705 O   0  0  0  0  0  0
  -26.5631  -34.8919   22.4669 O   0  0  0  0  0  0
  -23.5430  -32.1391   23.7319 O   0  0  0  0  0  0
  -28.9839  -19.3195   21.5393 C   0  0  0  0  0  0
  -28.7465  -20.7026   21.2514 C   0  0  0  0  0  0
  -30.1916  -19.0725   19.4822 C   0  0  0  0  0  0
  -29.7038  -18.4516   20.6640 C   0  0  0  0  0  0
  -29.2338  -21.3134   20.0645 C   0  0  0  0  0  0
  -29.9627  -20.4532   19.1908 C   0  0  0  0  0  0
  -28.2028  -16.6554   18.6464 C   0  0  0  0  0  0
  -29.3708  -16.0552   18.9508 C   0  0  0  0  0  0
  -30.0502  -16.9871   21.0763 C   0  0  0  0  0  0
  -28.5869  -23.8520   20.2865 C   0  0  0  0  0  0
  -28.4998  -25.1951   19.4378 C   0  0  0  0  0  0
  -30.4956  -20.9809   18.0139 N   0  0  0  0  0  0
  -29.0191  -22.7096   19.6533 N   0  0  0  0  0  0
  -29.9034  -15.8811   20.2450 N   0  0  0  0  0  0
  -30.4386  -16.8463   22.2421 O   0  0  0  0  0  0
  -28.2725  -23.8644   21.4796 O   0  0  0  0  0  0
  -31.4686  -12.5423   19.1452 H   0  0  0  0  0  0
  -30.3680  -11.4590   19.9564 H   0  0  0  0  0  0
  -29.7748  -11.6795   17.5204 H   0  0  0  0  0  0
  -29.6283  -13.4072   17.6848 H   0  0  0  0  0  0
  -27.8838  -11.2559   18.9171 H   0  0  0  0  0  0
  -27.3672  -12.4898   17.7995 H   0  0  0  0  0  0
  -27.6011  -14.2132   19.4443 H   0  0  0  0  0  0
  -28.7301  -12.2052   21.4546 H   0  0  0  0  0  0
  -28.4425  -13.9084   21.7447 H   0  0  0  0  0  0
  -25.2743   -9.5671   22.4773 H   0  0  0  0  0  0
  -23.9993   -7.4615   22.7470 H   0  0  0  0  0  0
  -21.0827   -8.8760   19.8956 H   0  0  0  0  0  0
  -22.3670  -10.9671   19.6179 H   0  0  0  0  0  0
  -21.1989   -7.6142   23.9709 H   0  0  0  0  0  0
  -21.1484   -6.0519   25.9078 H   0  0  0  0  0  0
  -22.0602   -2.7603   23.2844 H   0  0  0  0  0  0
  -22.4070  -11.9876   22.4808 H   0  0  0  0  0  0
  -21.1091  -13.1269   22.2634 H   0  0  0  0  0  0
  -24.6681  -15.8452   20.5165 H   0  0  0  0  0  0
  -26.2843  -15.6053   20.0787 H   0  0  0  0  0  0
  -26.7183  -32.5423   23.1087 H   0  0  0  0  0  0
  -25.0055  -33.9708   25.0397 H   0  0  0  0  0  0
  -22.7150  -31.3013   21.3987 H   0  0  0  0  0  0
  -23.3747  -35.9628   23.3309 H   0  0  0  0  0  0
  -24.3581  -36.8906   22.2052 H   0  0  0  0  0  0
  -23.7248  -37.6498   23.6660 H   0  0  0  0  0  0
  -26.0999  -31.5454   20.6063 H   0  0  0  0  0  0
  -26.8413  -30.8280   22.0062 H   0  0  0  0  0  0
  -28.1111  -28.9695   21.1866 H   0  0  0  0  0  0
  -25.9388  -25.9018   19.0393 H   0  0  0  0  0  0
  -23.9646  -27.2912   19.0309 H   0  0  0  0  0  0
  -23.7546  -30.5874   19.4011 H   0  0  0  0  0  0
  -22.7547  -29.2419   19.8586 H   0  0  0  0  0  0
  -25.1298  -36.1929   25.0822 H   0  0  0  0  0  0
  -20.9974  -28.3265   24.1407 H   0  0  0  0  0  0
  -20.5672  -26.2304   23.3618 H   0  0  0  0  0  0
  -21.6640  -26.7445   22.1205 H   0  0  0  0  0  0
  -19.6911  -25.6289   21.1247 H   0  0  0  0  0  0
  -19.6682  -27.3189   20.6746 H   0  0  0  0  0  0
  -17.4200  -26.6675   21.4030 H   0  0  0  0  0  0
  -18.0326  -26.0066   22.9020 H   0  0  0  0  0  0
  -19.7935  -30.7264   24.2273 H   0  0  0  0  0  0
  -17.5016  -31.6269   24.5157 H   0  0  0  0  0  0
  -15.5350  -30.2990   23.7649 H   0  0  0  0  0  0
  -15.8670  -28.0813   22.7083 H   0  0  0  0  0  0
  -24.5880  -30.7106   25.7774 H   0  0  0  0  0  0
  -24.8939  -32.2910   26.4891 H   0  0  0  0  0  0
  -25.8043  -30.8889   27.0217 H   0  0  0  0  0  0
  -26.2905  -29.6754   24.1216 H   0  0  0  0  0  0
  -27.4004  -29.7259   25.4704 H   0  0  0  0  0  0
  -27.8785  -30.4267   23.9434 H   0  0  0  0  0  0
  -27.2658  -33.3617   26.2072 H   0  0  0  0  0  0
  -28.3855  -32.6894   25.0316 H   0  0  0  0  0  0
  -28.0730  -31.8452   26.5396 H   0  0  0  0  0  0
  -28.2599  -38.0095   24.7505 H   0  0  0  0  0  0
  -28.1072  -36.2628   24.6295 H   0  0  0  0  0  0
  -27.2302  -37.1458   25.8866 H   0  0  0  0  0  0
  -20.9372  -29.8761   21.6884 H   0  0  0  0  0  0
  -26.0174  -38.2850   24.1394 H   0  0  0  0  0  0
  -28.6073  -18.9170   22.4699 H   0  0  0  0  0  0
  -28.1806  -21.2910   21.9594 H   0  0  0  0  0  0
  -30.7771  -18.4770   18.7960 H   0  0  0  0  0  0
  -27.8819  -16.7469   17.6183 H   0  0  0  0  0  0
  -27.5493  -17.0641   19.4034 H   0  0  0  0  0  0
  -30.0081  -15.6637   18.1677 H   0  0  0  0  0  0
  -27.7729  -25.0681   18.6396 H   0  0  0  0  0  0
  -29.4497  -25.2704   18.9087 H   0  0  0  0  0  0
  -31.1500  -20.3888   17.5127 H   0  0  0  0  0  0
  -30.8466  -21.9302   18.0621 H   0  0  0  0  0  0
  -29.2619  -22.8583   18.6830 H   0  0  0  0  0  0
  1 25  1  0  0  0
  1 30  2  0  0  0
  1 84  1  0  0  0
  2  3  1  0  0  0
  2 25  1  0  0  0
  2 87  1  0  0  0
  2 88  1  0  0  0
  3  4  1  0  0  0
  3 89  1  0  0  0
  3 90  1  0  0  0
  4  5  1  0  0  0
  4 91  1  0  0  0
  4 92  1  0  0  0
  5  6  1  0  0  0
  5 26  1  0  0  0
  5 93  1  0  0  0
  6 25  1  0  0  0
  6 94  1  0  0  0
  6 95  1  0  0  0
  7  8  2  0  0  0
  7 26  1  0  0  0
  7 29  1  0  0  0
  8  9  1  0  0  0
  8 22  1  0  0  0
  9 10  1  0  0  0
  9 27  2  0  0  0
 10 11  2  0  0  0
 10 15  1  0  0  0
 11 12  1  0  0  0
 11 96  1  0  0  0
 12 13  2  0  0  0
 12 97  1  0  0  0
 13 14  1  0  0  0
 13 31  1  0  0  0
 14 15  2  0  0  0
 14 98  1  0  0  0
 15 99  1  0  0  0
 16 17  2  0  0  0
 16 21  1  0  0  0
 16 31  1  0  0  0
 17 18  1  0  0  0
 17100  1  0  0  0
 18 19  2  0  0  0
 18101  1  0  0  0
 19 20  1  0  0  0
 19 24  1  0  0  0
 20 21  2  0  0  0
 20102  1  0  0  0
 21 23  1  0  0  0
 22 28  1  0  0  0
 22 32  2  0  0  0
 26 27  1  0  0  0
 28103  1  0  0  0
 28104  1  0  0  0
 29105  1  0  0  0
 29106  1  0  0  0
 33 34  1  0  0  0
 33 66  1  0  0  0
 33 70  2  0  0  0
 34 36  1  0  0  0
 34 59  1  0  0  0
 34107  1  0  0  0
 35 44  2  0  0  0
 35 45  1  0  0  0
 35 68  1  0  0  0
 36 56  1  0  0  0
 36108  1  0  0  0
 37 39  1  0  0  0
 37 47  1  0  0  0
 37 66  1  0  0  0
 37109  1  0  0  0
 38 43  2  0  0  0
 38 46  1  0  0  0
 38 47  1  0  0  0
 39 64  1  0  0  0
 39 67  2  0  0  0
 40 52  1  0  0  0
 40 53  2  0  0  0
 40 58  1  0  0  0
 41110  1  0  0  0
 41111  1  0  0  0
 41112  1  0  0  0
 41 48  1  0  0  0
 42 43  1  0  0  0
 42 66  1  0  0  0
 42113  1  0  0  0
 42114  1  0  0  0
 43 44  1  0  0  0
 44115  1  0  0  0
 45 46  2  0  0  0
 45116  1  0  0  0
 46117  1  0  0  0
 47118  1  0  0  0
 47119  1  0  0  0
 48 56  1  0  0  0
 48 65  1  0  0  0
 48120  1  0  0  0
 49 50  1  0  0  0
 49 53  1  0  0  0
 49 64  1  0  0  0
 49121  1  0  0  0
 50 51  1  0  0  0
 50122  1  0  0  0
 50123  1  0  0  0
 51 52  1  0  0  0
 51124  1  0  0  0
 51125  1  0  0  0
 52126  1  0  0  0
 52127  1  0  0  0
 53 54  1  0  0  0
 54 55  2  0  0  0
 54128  1  0  0  0
 55 57  1  0  0  0
 55129  1  0  0  0
 56 69  2  0  0  0
 57 58  2  0  0  0
 57130  1  0  0  0
 58131  1  0  0  0
 59 60  1  0  0  0
 59 61  1  0  0  0
 59 62  1  0  0  0
 60132  1  0  0  0
 60133  1  0  0  0
 60134  1  0  0  0
 61135  1  0  0  0
 61136  1  0  0  0
 61137  1  0  0  0
 62138  1  0  0  0
 62139  1  0  0  0
 62140  1  0  0  0
 63 65  1  0  0  0
 63141  1  0  0  0
 63142  1  0  0  0
 63143  1  0  0  0
 64144  1  0  0  0
 65145  1  0  0  0
 68 81  1  0  0  0
 71 72  2  0  0  0
 71 74  1  0  0  0
 71146  1  0  0  0
 72 75  1  0  0  0
 72147  1  0  0  0
 73 74  2  0  0  0
 73 76  1  0  0  0
 73148  1  0  0  0
 74 79  1  0  0  0
 75 76  2  0  0  0
 75 83  1  0  0  0
 76 82  1  0  0  0
 77 78  2  0  0  0
 77149  1  0  0  0
 77150  1  0  0  0
 78 84  1  0  0  0
 78151  1  0  0  0
 79 84  1  0  0  0
 79 85  2  0  0  0
 80 81  1  0  0  0
 80 83  1  0  0  0
 80 86  2  0  0  0
 81152  1  0  0  0
 81153  1  0  0  0
 82154  1  0  0  0
 82155  1  0  0  0
 83156  1  0  0  0
M  ISO  4   1 100  68 101  81 101  84 100
M  END
> <chiral flag>
0

> <version>
0

> <s_m_source_file>
/data/baiqing/PycharmProjects/Reinvent-master-3.2/result/LINK_invent/BTK/process_docking_weight1_custom_product_contain_oxygen_bond_distance_aromatic_linkinvent_7_9_3/rearranged_h_0093.sdf

> <i_m_source_file_index>
40

> <r_mmod_Potential_Energy-OPLS-2005>
175.633514404297

> <r_mmod_Stretch_Energy-OPLS-2005>
94.8351745605469

> <r_mmod_Bend_Energy-OPLS-2005>
169.468032836914

> <r_mmod_Torsional_Energy-OPLS-2005>
347.03857421875

> <r_mmod_Improper_Torsional_Energy-OPLS-2005>
18.2644138336182

> <r_mmod_Van_der_Waal_Energy-OPLS-2005>
154.78662109375

> <r_mmod_Electrostatic_Energy-OPLS-2005>
-436.619445800781

> <r_mmod_Solvation_Energy-OPLS-2005>
-244.165740966797

> <b_mmod_Minimization_Converged-OPLS-2005>
0

> <r_mmod_RMS_Derivative-OPLS-2005>
1.00784778594971

$$$$
41
                    3D
 Structure written by MMmdl.
161170  0  0  1  0            999 V2000
  -30.6888  -14.4243   20.6003 C   0  0  0  0  0  0
  -30.4283  -12.2867   19.4066 C   0  0  0  0  0  0
  -29.4913  -12.5125   18.1999 C   0  0  0  0  0  0
  -28.0114  -12.3747   18.6090 C   0  0  0  0  0  0
  -27.6667  -13.1937   19.8807 C   0  0  2  0  0  0
  -28.7056  -12.9181   20.9909 C   0  0  0  0  0  0
  -25.2607  -13.8134   20.5668 C   0  0  0  0  0  0
  -24.1845  -13.0440   20.9147 C   0  0  0  0  0  0
  -24.6370  -11.6887   20.8707 C   0  0  0  0  0  0
  -23.9033  -10.4279   21.0367 C   0  0  0  0  0  0
  -24.3590   -9.4208   21.9154 C   0  0  0  0  0  0
  -23.6274   -8.2245   22.0748 C   0  0  0  0  0  0
  -22.4257   -8.0260   21.3541 C   0  0  0  0  0  0
  -21.9881   -9.0230   20.4646 C   0  0  0  0  0  0
  -22.7203  -10.2111   20.3039 C   0  0  0  0  0  0
  -21.6849   -6.0722   22.5278 C   0  0  0  0  0  0
  -21.4003   -6.5631   23.8211 C   0  0  0  0  0  0
  -21.3664   -5.6786   24.9171 C   0  0  0  0  0  0
  -21.6049   -4.3047   24.7216 C   0  0  0  0  0  0
  -21.8831   -3.8142   23.4344 C   0  0  0  0  0  0
  -21.9184   -4.6955   22.3396 C   0  0  0  0  0  0
  -22.7878  -13.5254   21.1836 C   0  0  0  0  0  0
  -22.1656   -4.2138   21.0975 F   0  0  0  0  0  0
  -21.5632   -3.4539   25.7735 F   0  0  0  0  0  0
  -30.0463  -13.2343   20.4626 N   0  0  0  0  0  0
  -26.3037  -12.9284   20.3381 N   0  0  0  0  0  0
  -25.9290  -11.6438   20.5727 N   0  0  0  0  0  0
  -22.0519  -12.8236   22.0369 N   0  0  0  0  0  0
  -25.4379  -15.1863   20.4127 N   0  0  0  0  0  0
  -31.7668  -14.6827   20.0530 O   0  0  0  0  0  0
  -21.6632   -6.8854   21.4236 O   0  0  0  0  0  0
  -22.3552  -14.5553   20.6670 O   0  0  0  0  0  0
  -24.6173  -31.8685   23.2142 C   0  0  0  0  0  0
  -25.9066  -32.4818   23.8424 C   0  0  1  0  0  0
  -27.2255  -27.4389   20.0826 C   0  0  0  0  0  0
  -25.5905  -33.8620   24.2335 N   0  0  0  0  0  0
  -23.4060  -30.4994   21.5524 C   0  0  2  0  0  0
  -24.8527  -28.9760   20.1124 C   0  0  0  0  0  0
  -22.7380  -29.4701   22.4950 C   0  0  0  0  0  0
  -18.0276  -28.1424   22.8428 C   0  0  0  0  0  0
  -24.1492  -36.7318   23.2631 C   0  0  0  0  0  0
  -25.9394  -30.8334   21.3749 C   0  0  0  0  0  0
  -26.0139  -29.4715   20.7190 C   0  0  0  0  0  0
  -27.2047  -28.7057   20.7150 C   0  0  0  0  0  0
  -26.0649  -27.0011   19.4142 C   0  0  0  0  0  0
  -24.8717  -27.7365   19.4578 C   0  0  0  0  0  0
  -23.6174  -29.8378   20.1656 C   0  0  0  0  0  0
  -25.4104  -36.3100   24.0339 C   0  0  1  0  0  0
  -20.5867  -28.3676   23.1193 C   0  0  2  0  0  0
  -20.6776  -26.9380   22.5351 C   0  0  0  0  0  0
  -19.5707  -26.6222   21.5234 C   0  0  0  0  0  0
  -18.1870  -26.7963   22.1573 C   0  0  0  0  0  0
  -19.1538  -28.8850   23.2835 C   0  0  0  0  0  0
  -18.9513  -30.1445   23.8877 C   0  0  0  0  0  0
  -17.6542  -30.6617   24.0538 C   0  0  0  0  0  0
  -25.9036  -34.9467   23.5122 C   0  0  0  0  0  0
  -16.5409  -29.9164   23.6274 C   0  0  0  0  0  0
  -16.7268  -28.6574   23.0283 C   0  0  0  0  0  0
  -26.4492  -31.6587   25.0746 C   0  0  0  0  0  0
  -25.3753  -31.3705   26.1483 C   0  0  0  0  0  0
  -27.0324  -30.3018   24.6140 C   0  0  0  0  0  0
  -27.6069  -32.4309   25.7524 C   0  0  0  0  0  0
  -27.5573  -37.1807   24.8465 C   0  0  0  0  0  0
  -21.4118  -29.3034   22.3579 N   0  0  0  0  0  0
  -26.4287  -37.3784   23.9405 N   0  0  0  0  0  0
  -24.6728  -31.0813   22.1058 N   0  0  0  0  0  0
  -23.4101  -28.8251   23.3051 O   0  0  0  0  0  0
  -28.3392  -26.6251   20.1048 O   0  0  0  0  0  0
  -26.5611  -34.8922   22.4695 O   0  0  0  0  0  0
  -23.5363  -32.1453   23.7501 O   0  0  0  0  0  0
  -29.6925  -19.0602   21.7237 C   0  0  0  0  0  0
  -29.9144  -17.6971   22.0265 C   0  0  0  0  0  0
  -29.6977  -17.1391   19.6697 C   0  0  0  0  0  0
  -29.4300  -19.4669   20.3944 C   0  0  0  0  0  0
  -29.9128  -16.7226   21.0034 C   0  0  0  0  0  0
  -29.4665  -18.4944   19.3720 C   0  0  0  0  0  0
  -28.0637  -22.0374   21.9684 C   0  0  0  0  0  0
  -27.7389  -23.4856   22.3028 C   0  0  0  0  0  0
  -29.2713  -23.3555   20.5220 C   0  0  0  0  0  0
  -28.0755  -24.2121   20.9878 C   0  0  1  0  0  0
  -26.9124  -24.0020   19.9889 C   0  0  0  0  0  0
  -29.0811  -20.9017   19.9728 C   0  0  0  0  0  0
  -28.3836  -25.7307   21.2376 C   0  0  0  0  0  0
  -28.9514  -21.9874   20.9597 N   0  0  0  0  0  0
  -30.0397  -15.3429   21.3370 N   0  0  0  0  0  0
  -27.4756  -21.0888   22.4915 O   0  0  0  0  0  0
  -29.2569  -18.8635   18.0843 F   0  0  0  0  0  0
  -31.4697  -12.4046   19.1011 H   0  0  0  0  0  0
  -30.3440  -11.2638   19.7766 H   0  0  0  0  0  0
  -29.7263  -11.8016   17.4064 H   0  0  0  0  0  0
  -29.6591  -13.5051   17.7812 H   0  0  0  0  0  0
  -27.8113  -11.3182   18.7870 H   0  0  0  0  0  0
  -27.3643  -12.6705   17.7816 H   0  0  0  0  0  0
  -27.7279  -14.2472   19.6116 H   0  0  0  0  0  0
  -28.6721  -11.8643   21.2730 H   0  0  0  0  0  0
  -28.4635  -13.4656   21.9004 H   0  0  0  0  0  0
  -25.2728   -9.5701   22.4724 H   0  0  0  0  0  0
  -23.9985   -7.4651   22.7491 H   0  0  0  0  0  0
  -21.0800   -8.8745   19.8962 H   0  0  0  0  0  0
  -22.3642  -10.9641   19.6153 H   0  0  0  0  0  0
  -21.1994   -7.6140   23.9707 H   0  0  0  0  0  0
  -21.1474   -6.0517   25.9076 H   0  0  0  0  0  0
  -22.0600   -2.7604   23.2849 H   0  0  0  0  0  0
  -22.4116  -11.9896   22.4742 H   0  0  0  0  0  0
  -21.1168  -13.1312   22.2606 H   0  0  0  0  0  0
  -24.6815  -15.8504   20.5374 H   0  0  0  0  0  0
  -26.3053  -15.6246   20.1270 H   0  0  0  0  0  0
  -26.7133  -32.5546   23.1181 H   0  0  0  0  0  0
  -25.0025  -33.9799   25.0455 H   0  0  0  0  0  0
  -22.6979  -31.3182   21.4110 H   0  0  0  0  0  0
  -23.3738  -35.9669   23.3314 H   0  0  0  0  0  0
  -24.3568  -36.8915   22.2036 H   0  0  0  0  0  0
  -23.7280  -37.6543   23.6651 H   0  0  0  0  0  0
  -26.0595  -31.6032   20.6098 H   0  0  0  0  0  0
  -26.8236  -30.8769   21.9989 H   0  0  0  0  0  0
  -28.0969  -29.0798   21.1978 H   0  0  0  0  0  0
  -26.0594  -26.0988   18.8296 H   0  0  0  0  0  0
  -23.9911  -27.3620   18.9527 H   0  0  0  0  0  0
  -23.7240  -30.6139   19.4087 H   0  0  0  0  0  0
  -22.7458  -29.2536   19.8679 H   0  0  0  0  0  0
  -25.1276  -36.1952   25.0837 H   0  0  0  0  0  0
  -21.0006  -28.3299   24.1298 H   0  0  0  0  0  0
  -20.5818  -26.2291   23.3589 H   0  0  0  0  0  0
  -21.6639  -26.7439   22.1106 H   0  0  0  0  0  0
  -19.6798  -25.6026   21.1525 H   0  0  0  0  0  0
  -19.6653  -27.2760   20.6545 H   0  0  0  0  0  0
  -17.4249  -26.6892   21.3866 H   0  0  0  0  0  0
  -18.0042  -26.0106   22.8938 H   0  0  0  0  0  0
  -19.8015  -30.7266   24.2181 H   0  0  0  0  0  0
  -17.5152  -31.6310   24.5129 H   0  0  0  0  0  0
  -15.5441  -30.3153   23.7628 H   0  0  0  0  0  0
  -15.8640  -28.0938   22.7007 H   0  0  0  0  0  0
  -24.5930  -30.7043   25.7820 H   0  0  0  0  0  0
  -24.8956  -32.2882   26.4912 H   0  0  0  0  0  0
  -25.8086  -30.8888   27.0252 H   0  0  0  0  0  0
  -26.2891  -29.6773   24.1169 H   0  0  0  0  0  0
  -27.4042  -29.7239   25.4609 H   0  0  0  0  0  0
  -27.8748  -30.4312   23.9334 H   0  0  0  0  0  0
  -27.2674  -33.3585   26.2138 H   0  0  0  0  0  0
  -28.3872  -32.6888   25.0358 H   0  0  0  0  0  0
  -28.0756  -31.8421   26.5414 H   0  0  0  0  0  0
  -28.2596  -38.0097   24.7482 H   0  0  0  0  0  0
  -28.1055  -36.2620   24.6321 H   0  0  0  0  0  0
  -27.2285  -37.1493   25.8868 H   0  0  0  0  0  0
  -20.9321  -29.8624   21.6652 H   0  0  0  0  0  0
  -26.0160  -38.2858   24.1404 H   0  0  0  0  0  0
  -29.7017  -19.7757   22.5318 H   0  0  0  0  0  0
  -30.0838  -17.4049   23.0535 H   0  0  0  0  0  0
  -29.6765  -16.4229   18.8629 H   0  0  0  0  0  0
  -28.3873  -23.8039   23.1178 H   0  0  0  0  0  0
  -26.6996  -23.6196   22.6094 H   0  0  0  0  0  0
  -30.2024  -23.6659   21.0039 H   0  0  0  0  0  0
  -29.4147  -23.4268   19.4430 H   0  0  0  0  0  0
  -26.6402  -22.9561   19.8495 H   0  0  0  0  0  0
  -27.1985  -24.3619   19.0030 H   0  0  0  0  0  0
  -26.0024  -24.4983   20.3236 H   0  0  0  0  0  0
  -28.1301  -20.8471   19.4382 H   0  0  0  0  0  0
  -29.8171  -21.1961   19.2242 H   0  0  0  0  0  0
  -29.3724  -25.8251   21.6903 H   0  0  0  0  0  0
  -27.6972  -26.0891   22.0062 H   0  0  0  0  0  0
  -29.3284  -14.9725   21.9510 H   0  0  0  0  0  0
  1 25  1  0  0  0
  1 30  2  0  0  0
  1 85  1  0  0  0
  2  3  1  0  0  0
  2 25  1  0  0  0
  2 88  1  0  0  0
  2 89  1  0  0  0
  3  4  1  0  0  0
  3 90  1  0  0  0
  3 91  1  0  0  0
  4  5  1  0  0  0
  4 92  1  0  0  0
  4 93  1  0  0  0
  5  6  1  0  0  0
  5 26  1  0  0  0
  5 94  1  0  0  0
  6 25  1  0  0  0
  6 95  1  0  0  0
  6 96  1  0  0  0
  7  8  2  0  0  0
  7 26  1  0  0  0
  7 29  1  0  0  0
  8  9  1  0  0  0
  8 22  1  0  0  0
  9 10  1  0  0  0
  9 27  2  0  0  0
 10 11  2  0  0  0
 10 15  1  0  0  0
 11 12  1  0  0  0
 11 97  1  0  0  0
 12 13  2  0  0  0
 12 98  1  0  0  0
 13 14  1  0  0  0
 13 31  1  0  0  0
 14 15  2  0  0  0
 14 99  1  0  0  0
 15100  1  0  0  0
 16 17  2  0  0  0
 16 21  1  0  0  0
 16 31  1  0  0  0
 17 18  1  0  0  0
 17101  1  0  0  0
 18 19  2  0  0  0
 18102  1  0  0  0
 19 20  1  0  0  0
 19 24  1  0  0  0
 20 21  2  0  0  0
 20103  1  0  0  0
 21 23  1  0  0  0
 22 28  1  0  0  0
 22 32  2  0  0  0
 26 27  1  0  0  0
 28104  1  0  0  0
 28105  1  0  0  0
 29106  1  0  0  0
 29107  1  0  0  0
 33 34  1  0  0  0
 33 66  1  0  0  0
 33 70  2  0  0  0
 34 36  1  0  0  0
 34 59  1  0  0  0
 34108  1  0  0  0
 35 44  2  0  0  0
 35 45  1  0  0  0
 35 68  1  0  0  0
 36 56  1  0  0  0
 36109  1  0  0  0
 37 39  1  0  0  0
 37 47  1  0  0  0
 37 66  1  0  0  0
 37110  1  0  0  0
 38 43  2  0  0  0
 38 46  1  0  0  0
 38 47  1  0  0  0
 39 64  1  0  0  0
 39 67  2  0  0  0
 40 52  1  0  0  0
 40 53  2  0  0  0
 40 58  1  0  0  0
 41111  1  0  0  0
 41112  1  0  0  0
 41113  1  0  0  0
 41 48  1  0  0  0
 42 43  1  0  0  0
 42 66  1  0  0  0
 42114  1  0  0  0
 42115  1  0  0  0
 43 44  1  0  0  0
 44116  1  0  0  0
 45 46  2  0  0  0
 45117  1  0  0  0
 46118  1  0  0  0
 47119  1  0  0  0
 47120  1  0  0  0
 48 56  1  0  0  0
 48 65  1  0  0  0
 48121  1  0  0  0
 49 50  1  0  0  0
 49 53  1  0  0  0
 49 64  1  0  0  0
 49122  1  0  0  0
 50 51  1  0  0  0
 50123  1  0  0  0
 50124  1  0  0  0
 51 52  1  0  0  0
 51125  1  0  0  0
 51126  1  0  0  0
 52127  1  0  0  0
 52128  1  0  0  0
 53 54  1  0  0  0
 54 55  2  0  0  0
 54129  1  0  0  0
 55 57  1  0  0  0
 55130  1  0  0  0
 56 69  2  0  0  0
 57 58  2  0  0  0
 57131  1  0  0  0
 58132  1  0  0  0
 59 60  1  0  0  0
 59 61  1  0  0  0
 59 62  1  0  0  0
 60133  1  0  0  0
 60134  1  0  0  0
 60135  1  0  0  0
 61136  1  0  0  0
 61137  1  0  0  0
 61138  1  0  0  0
 62139  1  0  0  0
 62140  1  0  0  0
 62141  1  0  0  0
 63 65  1  0  0  0
 63142  1  0  0  0
 63143  1  0  0  0
 63144  1  0  0  0
 64145  1  0  0  0
 65146  1  0  0  0
 68 83  1  0  0  0
 71 72  2  0  0  0
 71 74  1  0  0  0
 71147  1  0  0  0
 72 75  1  0  0  0
 72148  1  0  0  0
 73 75  2  0  0  0
 73 76  1  0  0  0
 73149  1  0  0  0
 74 76  2  0  0  0
 74 82  1  0  0  0
 75 85  1  0  0  0
 76 87  1  0  0  0
 77 78  1  0  0  0
 77 84  1  0  0  0
 77 86  2  0  0  0
 78 80  1  0  0  0
 78150  1  0  0  0
 78151  1  0  0  0
 79 80  1  0  0  0
 79 84  1  0  0  0
 79152  1  0  0  0
 79153  1  0  0  0
 80 81  1  0  0  0
 80 83  1  0  0  0
 81154  1  0  0  0
 81155  1  0  0  0
 81156  1  0  0  0
 82 84  1  0  0  0
 82157  1  0  0  0
 82158  1  0  0  0
 83159  1  0  0  0
 83160  1  0  0  0
 85161  1  0  0  0
M  ISO  4   1 100  68 101  83 101  85 100
M  END
> <chiral flag>
0

> <version>
0

> <s_m_source_file>
/data/baiqing/PycharmProjects/Reinvent-master-3.2/result/LINK_invent/BTK/process_docking_weight1_custom_product_contain_oxygen_bond_distance_aromatic_linkinvent_7_9_3/rearranged_h_0093.sdf

> <i_m_source_file_index>
41

> <r_mmod_Potential_Energy-OPLS-2005>
60.7651824951172

> <r_mmod_Stretch_Energy-OPLS-2005>
38.8059768676758

> <r_mmod_Bend_Energy-OPLS-2005>
144.744873046875

> <r_mmod_Torsional_Energy-OPLS-2005>
292.343292236328

> <r_mmod_Improper_Torsional_Energy-OPLS-2005>
7.06740045547485

> <r_mmod_Van_der_Waal_Energy-OPLS-2005>
161.371841430664

> <r_mmod_Electrostatic_Energy-OPLS-2005>
-374.354431152344

> <r_mmod_Solvation_Energy-OPLS-2005>
-222.524856567383

> <b_mmod_Minimization_Converged-OPLS-2005>
0

> <r_mmod_RMS_Derivative-OPLS-2005>
4.22072410583496

$$$$
42
                    3D
 Structure written by MMmdl.
157166  0  0  1  0            999 V2000
  -30.6283  -14.5639   20.5424 C   0  0  0  0  0  0
  -30.4439  -12.3544   19.4282 C   0  0  0  0  0  0
  -29.5046  -12.5127   18.2118 C   0  0  0  0  0  0
  -28.0250  -12.3616   18.6235 C   0  0  0  0  0  0
  -27.6628  -13.2043   19.8750 C   0  0  2  0  0  0
  -28.7077  -12.9885   20.9932 C   0  0  0  0  0  0
  -25.2606  -13.8147   20.5692 C   0  0  0  0  0  0
  -24.1850  -13.0429   20.9171 C   0  0  0  0  0  0
  -24.6398  -11.6894   20.8729 C   0  0  0  0  0  0
  -23.9056  -10.4290   21.0397 C   0  0  0  0  0  0
  -24.3608   -9.4207   21.9176 C   0  0  0  0  0  0
  -23.6286   -8.2244   22.0753 C   0  0  0  0  0  0
  -22.4267   -8.0281   21.3544 C   0  0  0  0  0  0
  -21.9895   -9.0251   20.4645 C   0  0  0  0  0  0
  -22.7226  -10.2129   20.3050 C   0  0  0  0  0  0
  -21.6849   -6.0727   22.5277 C   0  0  0  0  0  0
  -21.4008   -6.5631   23.8210 C   0  0  0  0  0  0
  -21.3661   -5.6785   24.9170 C   0  0  0  0  0  0
  -21.6050   -4.3052   24.7223 C   0  0  0  0  0  0
  -21.8820   -3.8138   23.4346 C   0  0  0  0  0  0
  -21.9194   -4.6956   22.3402 C   0  0  0  0  0  0
  -22.7876  -13.5235   21.1834 C   0  0  0  0  0  0
  -22.1668   -4.2143   21.0979 F   0  0  0  0  0  0
  -21.5629   -3.4539   25.7740 F   0  0  0  0  0  0
  -30.0310  -13.3376   20.4445 N   0  0  0  0  0  0
  -26.3036  -12.9306   20.3356 N   0  0  0  0  0  0
  -25.9321  -11.6473   20.5743 N   0  0  0  0  0  0
  -22.0507  -12.8237   22.0393 N   0  0  0  0  0  0
  -25.4322  -15.1867   20.4130 N   0  0  0  0  0  0
  -31.7591  -14.7845   20.0970 O   0  0  0  0  0  0
  -21.6638   -6.8873   21.4244 O   0  0  0  0  0  0
  -22.3577  -14.5552   20.6692 O   0  0  0  0  0  0
  -24.6197  -31.8645   23.2046 C   0  0  0  0  0  0
  -25.9061  -32.4804   23.8383 C   0  0  1  0  0  0
  -27.2346  -27.3834   20.1083 C   0  0  0  0  0  0
  -25.5887  -33.8599   24.2307 N   0  0  0  0  0  0
  -23.4137  -30.4852   21.5462 C   0  0  2  0  0  0
  -24.8635  -28.9464   20.1133 C   0  0  0  0  0  0
  -22.7460  -29.4634   22.4956 C   0  0  0  0  0  0
  -18.0286  -28.1392   22.8504 C   0  0  0  0  0  0
  -24.1476  -36.7301   23.2639 C   0  0  0  0  0  0
  -25.9480  -30.8151   21.3674 C   0  0  0  0  0  0
  -26.0279  -29.4450   20.7138 C   0  0  0  0  0  0
  -27.2203  -28.6721   20.7058 C   0  0  0  0  0  0
  -26.0541  -26.9134   19.4993 C   0  0  0  0  0  0
  -24.8743  -27.6812   19.5012 C   0  0  0  0  0  0
  -23.6267  -29.8180   20.1620 C   0  0  0  0  0  0
  -25.4096  -36.3097   24.0340 C   0  0  1  0  0  0
  -20.5885  -28.3683   23.1305 C   0  0  2  0  0  0
  -20.6759  -26.9409   22.5415 C   0  0  0  0  0  0
  -19.5728  -26.6396   21.5218 C   0  0  0  0  0  0
  -18.1916  -26.7938   22.1641 C   0  0  0  0  0  0
  -19.1539  -28.8857   23.2899 C   0  0  0  0  0  0
  -18.9461  -30.1465   23.8909 C   0  0  0  0  0  0
  -17.6456  -30.6589   24.0573 C   0  0  0  0  0  0
  -25.9041  -34.9464   23.5128 C   0  0  0  0  0  0
  -16.5347  -29.9091   23.6334 C   0  0  0  0  0  0
  -16.7271  -28.6509   23.0355 C   0  0  0  0  0  0
  -26.4458  -31.6596   25.0737 C   0  0  0  0  0  0
  -25.3717  -31.3750   26.1496 C   0  0  0  0  0  0
  -27.0267  -30.3013   24.6163 C   0  0  0  0  0  0
  -27.6069  -32.4298   25.7471 C   0  0  0  0  0  0
  -27.5575  -37.1800   24.8465 C   0  0  0  0  0  0
  -21.4175  -29.3031   22.3696 N   0  0  0  0  0  0
  -26.4277  -37.3789   23.9424 N   0  0  0  0  0  0
  -24.6787  -31.0707   22.0972 N   0  0  0  0  0  0
  -23.4208  -28.8176   23.3018 O   0  0  0  0  0  0
  -28.3387  -26.5439   20.1170 O   0  0  0  0  0  0
  -26.5616  -34.8918   22.4700 O   0  0  0  0  0  0
  -23.5369  -32.1418   23.7394 O   0  0  0  0  0  0
  -28.5128  -19.0365   21.4445 C   0  0  0  0  0  0
  -28.6626  -17.6296   21.4911 C   0  0  0  0  0  0
  -30.7522  -17.8002   20.3039 C   0  0  0  0  0  0
  -29.4818  -19.8807   20.8410 C   0  0  0  0  0  0
  -29.7856  -16.9748   20.9373 C   0  0  0  0  0  0
  -30.6028  -19.2189   20.2532 C   0  0  0  0  0  0
  -28.8342  -24.2674   20.9934 C   0  0  0  0  0  0
  -28.3047  -25.5257   21.0617 C   0  0  0  0  0  0
  -29.5780  -23.6306   19.8143 C   0  0  0  0  0  0
  -28.8196  -23.3605   22.2202 C   0  0  0  0  0  0
  -29.3423  -22.0864   19.6261 C   0  0  0  0  0  0
  -28.4820  -21.8844   21.9157 C   0  0  0  0  0  0
  -29.3507  -21.3130   20.8823 N   0  0  0  0  0  0
  -29.8272  -15.5309   21.0625 N   0  0  0  0  0  0
  -31.5799  -19.9487   19.6585 F   0  0  0  0  0  0
  -31.4833  -12.4875   19.1223 H   0  0  0  0  0  0
  -30.3797  -11.3443   19.8353 H   0  0  0  0  0  0
  -29.7545  -11.7783   17.4447 H   0  0  0  0  0  0
  -29.6586  -13.4924   17.7579 H   0  0  0  0  0  0
  -27.8417  -11.3053   18.8227 H   0  0  0  0  0  0
  -27.3753  -12.6301   17.7898 H   0  0  0  0  0  0
  -27.7006  -14.2507   19.5719 H   0  0  0  0  0  0
  -28.7067  -11.9447   21.3129 H   0  0  0  0  0  0
  -28.4563  -13.5617   21.8864 H   0  0  0  0  0  0
  -25.2748   -9.5687   22.4755 H   0  0  0  0  0  0
  -23.9993   -7.4635   22.7471 H   0  0  0  0  0  0
  -21.0822   -8.8764   19.8955 H   0  0  0  0  0  0
  -22.3676  -10.9665   19.6166 H   0  0  0  0  0  0
  -21.1999   -7.6138   23.9707 H   0  0  0  0  0  0
  -21.1486   -6.0517   25.9071 H   0  0  0  0  0  0
  -22.0601   -2.7600   23.2849 H   0  0  0  0  0  0
  -22.4113  -11.9895   22.4781 H   0  0  0  0  0  0
  -21.1131  -13.1281   22.2595 H   0  0  0  0  0  0
  -24.6609  -15.8362   20.5201 H   0  0  0  0  0  0
  -26.2750  -15.6278   20.0674 H   0  0  0  0  0  0
  -26.7141  -32.5502   23.1157 H   0  0  0  0  0  0
  -24.9983  -33.9750   25.0413 H   0  0  0  0  0  0
  -22.7052  -31.3030   21.4036 H   0  0  0  0  0  0
  -23.3748  -35.9626   23.3276 H   0  0  0  0  0  0
  -24.3570  -36.8942   22.2060 H   0  0  0  0  0  0
  -23.7214  -37.6486   23.6676 H   0  0  0  0  0  0
  -26.0688  -31.5801   20.5987 H   0  0  0  0  0  0
  -26.8315  -30.8687   21.9922 H   0  0  0  0  0  0
  -28.1185  -29.0468   21.1761 H   0  0  0  0  0  0
  -26.0472  -25.9361   19.0382 H   0  0  0  0  0  0
  -23.9800  -27.2903   19.0361 H   0  0  0  0  0  0
  -23.7410  -30.5934   19.4036 H   0  0  0  0  0  0
  -22.7494  -29.2419   19.8621 H   0  0  0  0  0  0
  -25.1264  -36.1961   25.0832 H   0  0  0  0  0  0
  -20.9988  -28.3250   24.1422 H   0  0  0  0  0  0
  -20.5659  -26.2283   23.3601 H   0  0  0  0  0  0
  -21.6624  -26.7437   22.1204 H   0  0  0  0  0  0
  -19.6869  -25.6314   21.1224 H   0  0  0  0  0  0
  -19.6641  -27.3222   20.6757 H   0  0  0  0  0  0
  -17.4168  -26.6691   21.4055 H   0  0  0  0  0  0
  -18.0316  -26.0088   22.9042 H   0  0  0  0  0  0
  -19.7932  -30.7292   24.2264 H   0  0  0  0  0  0
  -17.5002  -31.6266   24.5178 H   0  0  0  0  0  0
  -15.5345  -30.2982   23.7655 H   0  0  0  0  0  0
  -15.8674  -28.0822   22.7068 H   0  0  0  0  0  0
  -24.5799  -30.7215   25.7815 H   0  0  0  0  0  0
  -24.9022  -32.2928   26.5044 H   0  0  0  0  0  0
  -25.8028  -30.8794   27.0204 H   0  0  0  0  0  0
  -26.2810  -29.6789   24.1201 H   0  0  0  0  0  0
  -27.3968  -29.7255   25.4657 H   0  0  0  0  0  0
  -27.8685  -30.4275   23.9355 H   0  0  0  0  0  0
  -27.2757  -33.3647   26.2002 H   0  0  0  0  0  0
  -28.3898  -32.6760   25.0285 H   0  0  0  0  0  0
  -28.0702  -31.8434   26.5415 H   0  0  0  0  0  0
  -28.2601  -38.0094   24.7532 H   0  0  0  0  0  0
  -28.1061  -36.2630   24.6258 H   0  0  0  0  0  0
  -27.2301  -37.1435   25.8871 H   0  0  0  0  0  0
  -20.9353  -29.8747   21.6897 H   0  0  0  0  0  0
  -26.0160  -38.2859   24.1443 H   0  0  0  0  0  0
  -27.6225  -19.4491   21.8956 H   0  0  0  0  0  0
  -27.8879  -17.0514   21.9750 H   0  0  0  0  0  0
  -31.6319  -17.3616   19.8578 H   0  0  0  0  0  0
  -27.8273  -25.8681   21.9709 H   0  0  0  0  0  0
  -30.6415  -23.7975   19.9911 H   0  0  0  0  0  0
  -29.3384  -24.1662   18.8944 H   0  0  0  0  0  0
  -28.1270  -23.7507   22.9671 H   0  0  0  0  0  0
  -29.8106  -23.4072   22.6739 H   0  0  0  0  0  0
  -30.0794  -21.6931   18.9255 H   0  0  0  0  0  0
  -28.3717  -21.9327   19.1514 H   0  0  0  0  0  0
  -27.4412  -21.8048   21.5944 H   0  0  0  0  0  0
  -28.5728  -21.3148   22.8420 H   0  0  0  0  0  0
  -28.9981  -15.1318   21.4757 H   0  0  0  0  0  0
  1 25  1  0  0  0
  1 30  2  0  0  0
  1 84  1  0  0  0
  2  3  1  0  0  0
  2 25  1  0  0  0
  2 86  1  0  0  0
  2 87  1  0  0  0
  3  4  1  0  0  0
  3 88  1  0  0  0
  3 89  1  0  0  0
  4  5  1  0  0  0
  4 90  1  0  0  0
  4 91  1  0  0  0
  5  6  1  0  0  0
  5 26  1  0  0  0
  5 92  1  0  0  0
  6 25  1  0  0  0
  6 93  1  0  0  0
  6 94  1  0  0  0
  7  8  2  0  0  0
  7 26  1  0  0  0
  7 29  1  0  0  0
  8  9  1  0  0  0
  8 22  1  0  0  0
  9 10  1  0  0  0
  9 27  2  0  0  0
 10 11  2  0  0  0
 10 15  1  0  0  0
 11 12  1  0  0  0
 11 95  1  0  0  0
 12 13  2  0  0  0
 12 96  1  0  0  0
 13 14  1  0  0  0
 13 31  1  0  0  0
 14 15  2  0  0  0
 14 97  1  0  0  0
 15 98  1  0  0  0
 16 17  2  0  0  0
 16 21  1  0  0  0
 16 31  1  0  0  0
 17 18  1  0  0  0
 17 99  1  0  0  0
 18 19  2  0  0  0
 18100  1  0  0  0
 19 20  1  0  0  0
 19 24  1  0  0  0
 20 21  2  0  0  0
 20101  1  0  0  0
 21 23  1  0  0  0
 22 28  1  0  0  0
 22 32  2  0  0  0
 26 27  1  0  0  0
 28102  1  0  0  0
 28103  1  0  0  0
 29104  1  0  0  0
 29105  1  0  0  0
 33 34  1  0  0  0
 33 66  1  0  0  0
 33 70  2  0  0  0
 34 36  1  0  0  0
 34 59  1  0  0  0
 34106  1  0  0  0
 35 44  2  0  0  0
 35 45  1  0  0  0
 35 68  1  0  0  0
 36 56  1  0  0  0
 36107  1  0  0  0
 37 39  1  0  0  0
 37 47  1  0  0  0
 37 66  1  0  0  0
 37108  1  0  0  0
 38 43  2  0  0  0
 38 46  1  0  0  0
 38 47  1  0  0  0
 39 64  1  0  0  0
 39 67  2  0  0  0
 40 52  1  0  0  0
 40 53  2  0  0  0
 40 58  1  0  0  0
 41109  1  0  0  0
 41110  1  0  0  0
 41111  1  0  0  0
 41 48  1  0  0  0
 42 43  1  0  0  0
 42 66  1  0  0  0
 42112  1  0  0  0
 42113  1  0  0  0
 43 44  1  0  0  0
 44114  1  0  0  0
 45 46  2  0  0  0
 45115  1  0  0  0
 46116  1  0  0  0
 47117  1  0  0  0
 47118  1  0  0  0
 48 56  1  0  0  0
 48 65  1  0  0  0
 48119  1  0  0  0
 49 50  1  0  0  0
 49 53  1  0  0  0
 49 64  1  0  0  0
 49120  1  0  0  0
 50 51  1  0  0  0
 50121  1  0  0  0
 50122  1  0  0  0
 51 52  1  0  0  0
 51123  1  0  0  0
 51124  1  0  0  0
 52125  1  0  0  0
 52126  1  0  0  0
 53 54  1  0  0  0
 54 55  2  0  0  0
 54127  1  0  0  0
 55 57  1  0  0  0
 55128  1  0  0  0
 56 69  2  0  0  0
 57 58  2  0  0  0
 57129  1  0  0  0
 58130  1  0  0  0
 59 60  1  0  0  0
 59 61  1  0  0  0
 59 62  1  0  0  0
 60131  1  0  0  0
 60132  1  0  0  0
 60133  1  0  0  0
 61134  1  0  0  0
 61135  1  0  0  0
 61136  1  0  0  0
 62137  1  0  0  0
 62138  1  0  0  0
 62139  1  0  0  0
 63 65  1  0  0  0
 63140  1  0  0  0
 63141  1  0  0  0
 63142  1  0  0  0
 64143  1  0  0  0
 65144  1  0  0  0
 68 78  1  0  0  0
 71 72  2  0  0  0
 71 74  1  0  0  0
 71145  1  0  0  0
 72 75  1  0  0  0
 72146  1  0  0  0
 73 75  2  0  0  0
 73 76  1  0  0  0
 73147  1  0  0  0
 74 76  2  0  0  0
 74 83  1  0  0  0
 75 84  1  0  0  0
 76 85  1  0  0  0
 77 78  2  0  0  0
 77 79  1  0  0  0
 77 80  1  0  0  0
 78148  1  0  0  0
 79 81  1  0  0  0
 79149  1  0  0  0
 79150  1  0  0  0
 80 82  1  0  0  0
 80151  1  0  0  0
 80152  1  0  0  0
 81 83  1  0  0  0
 81153  1  0  0  0
 81154  1  0  0  0
 82 83  1  0  0  0
 82155  1  0  0  0
 82156  1  0  0  0
 84157  1  0  0  0
M  ISO  4   1 100  68 101  78 101  84 100
M  END
> <chiral flag>
0

> <version>
0

> <s_m_source_file>
/data/baiqing/PycharmProjects/Reinvent-master-3.2/result/LINK_invent/BTK/process_docking_weight1_custom_product_contain_oxygen_bond_distance_aromatic_linkinvent_7_9_3/rearranged_h_0093.sdf

> <i_m_source_file_index>
42

> <r_mmod_Potential_Energy-OPLS-2005>
62.9040565490723

> <r_mmod_Stretch_Energy-OPLS-2005>
55.2041625976562

> <r_mmod_Bend_Energy-OPLS-2005>
132.968444824219

> <r_mmod_Torsional_Energy-OPLS-2005>
244.494415283203

> <r_mmod_Improper_Torsional_Energy-OPLS-2005>
6.58099126815796

> <r_mmod_Van_der_Waal_Energy-OPLS-2005>
151.609573364258

> <r_mmod_Electrostatic_Energy-OPLS-2005>
-340.788818359375

> <r_mmod_Solvation_Energy-OPLS-2005>
-214.811569213867

> <b_mmod_Minimization_Converged-OPLS-2005>
0

> <r_mmod_RMS_Derivative-OPLS-2005>
1.50652980804443

$$$$
43
                    3D
 Structure written by MMmdl.
157165  0  0  1  0            999 V2000
  -30.6463  -14.6770   20.4606 C   0  0  0  0  0  0
  -30.4145  -12.4085   19.4667 C   0  0  0  0  0  0
  -29.5027  -12.4860   18.2249 C   0  0  0  0  0  0
  -28.0230  -12.3335   18.6319 C   0  0  0  0  0  0
  -27.6334  -13.2309   19.8386 C   0  0  2  0  0  0
  -28.6759  -13.1625   20.9749 C   0  0  0  0  0  0
  -25.2463  -13.8208   20.5682 C   0  0  0  0  0  0
  -24.1773  -13.0444   20.9216 C   0  0  0  0  0  0
  -24.6371  -11.6925   20.8753 C   0  0  0  0  0  0
  -23.9053  -10.4302   21.0399 C   0  0  0  0  0  0
  -24.3622   -9.4218   21.9167 C   0  0  0  0  0  0
  -23.6305   -8.2245   22.0738 C   0  0  0  0  0  0
  -22.4287   -8.0279   21.3528 C   0  0  0  0  0  0
  -21.9915   -9.0247   20.4631 C   0  0  0  0  0  0
  -22.7228  -10.2134   20.3042 C   0  0  0  0  0  0
  -21.6868   -6.0735   22.5280 C   0  0  0  0  0  0
  -21.4010   -6.5638   23.8209 C   0  0  0  0  0  0
  -21.3659   -5.6787   24.9167 C   0  0  0  0  0  0
  -21.6054   -4.3053   24.7218 C   0  0  0  0  0  0
  -21.8817   -3.8144   23.4339 C   0  0  0  0  0  0
  -21.9192   -4.6962   22.3399 C   0  0  0  0  0  0
  -22.7801  -13.5217   21.1876 C   0  0  0  0  0  0
  -22.1667   -4.2148   21.0979 F   0  0  0  0  0  0
  -21.5626   -3.4538   25.7728 F   0  0  0  0  0  0
  -29.9777  -13.4817   20.3817 N   0  0  0  0  0  0
  -26.2883  -12.9419   20.3218 N   0  0  0  0  0  0
  -25.9289  -11.6563   20.5714 N   0  0  0  0  0  0
  -22.0481  -12.8196   22.0450 N   0  0  0  0  0  0
  -25.4127  -15.1931   20.4113 N   0  0  0  0  0  0
  -31.8544  -14.7033   20.2059 O   0  0  0  0  0  0
  -21.6649   -6.8880   21.4239 O   0  0  0  0  0  0
  -22.3498  -14.5521   20.6718 O   0  0  0  0  0  0
  -24.6309  -31.8582   23.2058 C   0  0  0  0  0  0
  -25.9173  -32.4754   23.8374 C   0  0  1  0  0  0
  -27.1842  -27.2998   20.0857 C   0  0  0  0  0  0
  -25.6010  -33.8565   24.2289 N   0  0  0  0  0  0
  -23.4177  -30.4954   21.5469 C   0  0  2  0  0  0
  -24.8501  -28.9573   20.1063 C   0  0  0  0  0  0
  -22.7471  -29.4665   22.4908 C   0  0  0  0  0  0
  -18.0293  -28.1384   22.8466 C   0  0  0  0  0  0
  -24.1496  -36.7299   23.2616 C   0  0  0  0  0  0
  -25.9626  -30.7859   21.3755 C   0  0  0  0  0  0
  -26.0265  -29.4160   20.7102 C   0  0  0  0  0  0
  -27.1953  -28.5971   20.6947 C   0  0  0  0  0  0
  -25.9719  -26.9044   19.4707 C   0  0  0  0  0  0
  -24.8241  -27.7079   19.4836 C   0  0  0  0  0  0
  -23.6276  -29.8457   20.1586 C   0  0  0  0  0  0
  -25.4108  -36.3068   24.0308 C   0  0  1  0  0  0
  -20.5888  -28.3714   23.1247 C   0  0  2  0  0  0
  -20.6789  -26.9425   22.5406 C   0  0  0  0  0  0
  -19.5769  -26.6374   21.5216 C   0  0  0  0  0  0
  -18.1938  -26.7927   22.1600 C   0  0  0  0  0  0
  -19.1538  -28.8858   23.2857 C   0  0  0  0  0  0
  -18.9463  -30.1455   23.8888 C   0  0  0  0  0  0
  -17.6468  -30.6587   24.0558 C   0  0  0  0  0  0
  -25.9053  -34.9442   23.5078 C   0  0  0  0  0  0
  -16.5362  -29.9077   23.6326 C   0  0  0  0  0  0
  -16.7277  -28.6486   23.0344 C   0  0  0  0  0  0
  -26.4522  -31.6564   25.0755 C   0  0  0  0  0  0
  -25.3737  -31.3762   26.1477 C   0  0  0  0  0  0
  -27.0327  -30.2949   24.6268 C   0  0  0  0  0  0
  -27.6085  -32.4302   25.7522 C   0  0  0  0  0  0
  -27.5555  -37.1779   24.8428 C   0  0  0  0  0  0
  -21.4182  -29.3086   22.3648 N   0  0  0  0  0  0
  -26.4245  -37.3781   23.9423 N   0  0  0  0  0  0
  -24.6896  -31.0630   22.0987 N   0  0  0  0  0  0
  -23.4199  -28.8166   23.2946 O   0  0  0  0  0  0
  -28.2979  -26.4397   20.1354 O   0  0  0  0  0  0
  -26.5570  -34.8907   22.4612 O   0  0  0  0  0  0
  -23.5486  -32.1397   23.7407 O   0  0  0  0  0  0
  -28.7263  -20.1911   18.9601 C   0  0  0  0  0  0
  -28.9710  -20.7205   21.2836 C   0  0  0  0  0  0
  -29.5702  -18.4131   20.4896 C   0  0  0  0  0  0
  -29.1991  -18.8576   19.1799 C   0  0  0  0  0  0
  -28.6429  -21.1725   19.9847 C   0  0  0  0  0  0
  -29.4127  -19.3835   21.5314 C   0  0  0  0  0  0
  -30.3814  -17.1190   20.7595 C   0  0  0  0  0  0
  -29.3742  -17.9624   17.9608 C   0  0  0  0  0  0
  -29.3729  -25.2119   18.3914 C   0  0  0  0  0  0
  -28.5458  -23.7887   20.3720 C   0  0  0  0  0  0
  -28.3097  -25.0989   19.4867 C   0  0  1  0  0  0
  -28.2290  -22.5074   19.6591 N   0  0  0  0  0  0
  -29.9006  -15.8395   20.5555 N   0  0  0  0  0  0
  -31.5313  -17.3087   21.1720 O   0  0  0  0  0  0
  -29.7325  -19.0524   22.8066 F   0  0  0  0  0  0
  -31.4616  -12.5055   19.1731 H   0  0  0  0  0  0
  -30.3312  -11.4345   19.9524 H   0  0  0  0  0  0
  -29.7772  -11.7103   17.5096 H   0  0  0  0  0  0
  -29.6495  -13.4410   17.7169 H   0  0  0  0  0  0
  -27.8599  -11.2855   18.8826 H   0  0  0  0  0  0
  -27.3744  -12.5461   17.7817 H   0  0  0  0  0  0
  -27.6262  -14.2523   19.4570 H   0  0  0  0  0  0
  -28.6957  -12.1708   21.4306 H   0  0  0  0  0  0
  -28.4228  -13.8650   21.7713 H   0  0  0  0  0  0
  -25.2779   -9.5698   22.4731 H   0  0  0  0  0  0
  -24.0029   -7.4641   22.7459 H   0  0  0  0  0  0
  -21.0845   -8.8747   19.8949 H   0  0  0  0  0  0
  -22.3678  -10.9660   19.6145 H   0  0  0  0  0  0
  -21.2007   -7.6152   23.9708 H   0  0  0  0  0  0
  -21.1484   -6.0521   25.9067 H   0  0  0  0  0  0
  -22.0602   -2.7608   23.2834 H   0  0  0  0  0  0
  -22.4129  -11.9859   22.4808 H   0  0  0  0  0  0
  -21.1088  -13.1158   22.2680 H   0  0  0  0  0  0
  -24.6358  -15.8369   20.5200 H   0  0  0  0  0  0
  -26.2454  -15.6394   20.0537 H   0  0  0  0  0  0
  -26.7246  -32.5382   23.1127 H   0  0  0  0  0  0
  -25.0296  -33.9745   25.0533 H   0  0  0  0  0  0
  -22.7130  -31.3174   21.4106 H   0  0  0  0  0  0
  -23.3746  -35.9632   23.3243 H   0  0  0  0  0  0
  -24.3603  -36.8961   22.2032 H   0  0  0  0  0  0
  -23.7249  -37.6486   23.6669 H   0  0  0  0  0  0
  -26.0944  -31.5556   20.6126 H   0  0  0  0  0  0
  -26.8432  -30.8275   22.0053 H   0  0  0  0  0  0
  -28.0917  -28.9470   21.1811 H   0  0  0  0  0  0
  -25.8185  -25.9655   18.9734 H   0  0  0  0  0  0
  -23.9175  -27.3479   19.0164 H   0  0  0  0  0  0
  -23.7596  -30.6273   19.4095 H   0  0  0  0  0  0
  -22.7437  -29.2868   19.8456 H   0  0  0  0  0  0
  -25.1287  -36.1893   25.0790 H   0  0  0  0  0  0
  -20.9975  -28.3292   24.1371 H   0  0  0  0  0  0
  -20.5690  -26.2325   23.3618 H   0  0  0  0  0  0
  -21.6651  -26.7454   22.1197 H   0  0  0  0  0  0
  -19.6937  -25.6288   21.1239 H   0  0  0  0  0  0
  -19.6703  -27.3181   20.6753 H   0  0  0  0  0  0
  -17.4214  -26.6682   21.3999 H   0  0  0  0  0  0
  -18.0313  -26.0090   22.9010 H   0  0  0  0  0  0
  -19.7960  -30.7264   24.2233 H   0  0  0  0  0  0
  -17.5037  -31.6258   24.5169 H   0  0  0  0  0  0
  -15.5362  -30.2966   23.7670 H   0  0  0  0  0  0
  -15.8681  -28.0808   22.7049 H   0  0  0  0  0  0
  -24.5991  -30.6991   25.7861 H   0  0  0  0  0  0
  -24.8840  -32.2934   26.4761 H   0  0  0  0  0  0
  -25.8064  -30.9086   27.0339 H   0  0  0  0  0  0
  -26.2901  -29.6727   24.1252 H   0  0  0  0  0  0
  -27.3892  -29.7193   25.4825 H   0  0  0  0  0  0
  -27.8852  -30.4143   23.9573 H   0  0  0  0  0  0
  -27.2698  -33.3657   26.2010 H   0  0  0  0  0  0
  -28.3921  -32.6785   25.0342 H   0  0  0  0  0  0
  -28.0716  -31.8474   26.5501 H   0  0  0  0  0  0
  -28.2528  -38.0125   24.7533 H   0  0  0  0  0  0
  -28.1084  -36.2646   24.6158 H   0  0  0  0  0  0
  -27.2277  -37.1323   25.8831 H   0  0  0  0  0  0
  -20.9320  -29.8861   21.6933 H   0  0  0  0  0  0
  -26.0105  -38.2822   24.1539 H   0  0  0  0  0  0
  -28.4723  -20.4833   17.9490 H   0  0  0  0  0  0
  -28.8964  -21.4077   22.1150 H   0  0  0  0  0  0
  -29.3177  -18.5399   17.0356 H   0  0  0  0  0  0
  -28.5924  -17.2029   17.9238 H   0  0  0  0  0  0
  -30.3458  -17.4671   17.9671 H   0  0  0  0  0  0
  -29.4045  -24.3141   17.7707 H   0  0  0  0  0  0
  -30.3604  -25.3599   18.8261 H   0  0  0  0  0  0
  -29.1634  -26.0567   17.7346 H   0  0  0  0  0  0
  -27.9201  -23.8492   21.2642 H   0  0  0  0  0  0
  -29.5823  -23.7638   20.7155 H   0  0  0  0  0  0
  -27.4024  -24.8785   18.9439 H   0  0  0  0  0  0
  -27.7802  -22.6327   18.7550 H   0  0  0  0  0  0
  -28.9068  -15.7539   20.4323 H   0  0  0  0  0  0
  1 25  1  0  0  0
  1 30  2  0  0  0
  1 83  1  0  0  0
  2  3  1  0  0  0
  2 25  1  0  0  0
  2 86  1  0  0  0
  2 87  1  0  0  0
  3  4  1  0  0  0
  3 88  1  0  0  0
  3 89  1  0  0  0
  4  5  1  0  0  0
  4 90  1  0  0  0
  4 91  1  0  0  0
  5  6  1  0  0  0
  5 26  1  0  0  0
  5 92  1  0  0  0
  6 25  1  0  0  0
  6 93  1  0  0  0
  6 94  1  0  0  0
  7  8  2  0  0  0
  7 26  1  0  0  0
  7 29  1  0  0  0
  8  9  1  0  0  0
  8 22  1  0  0  0
  9 10  1  0  0  0
  9 27  2  0  0  0
 10 11  2  0  0  0
 10 15  1  0  0  0
 11 12  1  0  0  0
 11 95  1  0  0  0
 12 13  2  0  0  0
 12 96  1  0  0  0
 13 14  1  0  0  0
 13 31  1  0  0  0
 14 15  2  0  0  0
 14 97  1  0  0  0
 15 98  1  0  0  0
 16 17  2  0  0  0
 16 21  1  0  0  0
 16 31  1  0  0  0
 17 18  1  0  0  0
 17 99  1  0  0  0
 18 19  2  0  0  0
 18100  1  0  0  0
 19 20  1  0  0  0
 19 24  1  0  0  0
 20 21  2  0  0  0
 20101  1  0  0  0
 21 23  1  0  0  0
 22 28  1  0  0  0
 22 32  2  0  0  0
 26 27  1  0  0  0
 28102  1  0  0  0
 28103  1  0  0  0
 29104  1  0  0  0
 29105  1  0  0  0
 33 34  1  0  0  0
 33 66  1  0  0  0
 33 70  2  0  0  0
 34 36  1  0  0  0
 34 59  1  0  0  0
 34106  1  0  0  0
 35 44  2  0  0  0
 35 45  1  0  0  0
 35 68  1  0  0  0
 36 56  1  0  0  0
 36107  1  0  0  0
 37 39  1  0  0  0
 37 47  1  0  0  0
 37 66  1  0  0  0
 37108  1  0  0  0
 38 43  2  0  0  0
 38 46  1  0  0  0
 38 47  1  0  0  0
 39 64  1  0  0  0
 39 67  2  0  0  0
 40 52  1  0  0  0
 40 53  2  0  0  0
 40 58  1  0  0  0
 41109  1  0  0  0
 41110  1  0  0  0
 41111  1  0  0  0
 41 48  1  0  0  0
 42 43  1  0  0  0
 42 66  1  0  0  0
 42112  1  0  0  0
 42113  1  0  0  0
 43 44  1  0  0  0
 44114  1  0  0  0
 45 46  2  0  0  0
 45115  1  0  0  0
 46116  1  0  0  0
 47117  1  0  0  0
 47118  1  0  0  0
 48 56  1  0  0  0
 48 65  1  0  0  0
 48119  1  0  0  0
 49 50  1  0  0  0
 49 53  1  0  0  0
 49 64  1  0  0  0
 49120  1  0  0  0
 50 51  1  0  0  0
 50121  1  0  0  0
 50122  1  0  0  0
 51 52  1  0  0  0
 51123  1  0  0  0
 51124  1  0  0  0
 52125  1  0  0  0
 52126  1  0  0  0
 53 54  1  0  0  0
 54 55  2  0  0  0
 54127  1  0  0  0
 55 57  1  0  0  0
 55128  1  0  0  0
 56 69  2  0  0  0
 57 58  2  0  0  0
 57129  1  0  0  0
 58130  1  0  0  0
 59 60  1  0  0  0
 59 61  1  0  0  0
 59 62  1  0  0  0
 60131  1  0  0  0
 60132  1  0  0  0
 60133  1  0  0  0
 61134  1  0  0  0
 61135  1  0  0  0
 61136  1  0  0  0
 62137  1  0  0  0
 62138  1  0  0  0
 62139  1  0  0  0
 63 65  1  0  0  0
 63140  1  0  0  0
 63141  1  0  0  0
 63142  1  0  0  0
 64143  1  0  0  0
 65144  1  0  0  0
 68 81  1  0  0  0
 71 74  2  0  0  0
 71 75  1  0  0  0
 71145  1  0  0  0
 72 75  2  0  0  0
 72 76  1  0  0  0
 72146  1  0  0  0
 73 74  1  0  0  0
 73 76  2  0  0  0
 73 77  1  0  0  0
 74 78  1  0  0  0
 75 82  1  0  0  0
 76 85  1  0  0  0
 77 83  1  0  0  0
 77 84  2  0  0  0
 78147  1  0  0  0
 78148  1  0  0  0
 78149  1  0  0  0
 79150  1  0  0  0
 79151  1  0  0  0
 79152  1  0  0  0
 79 81  1  0  0  0
 80 81  1  0  0  0
 80 82  1  0  0  0
 80153  1  0  0  0
 80154  1  0  0  0
 81155  1  0  0  0
 82156  1  0  0  0
 83157  1  0  0  0
M  ISO  4   1 100  68 101  81 101  83 100
M  END
> <chiral flag>
0

> <version>
0

> <s_m_source_file>
/data/baiqing/PycharmProjects/Reinvent-master-3.2/result/LINK_invent/BTK/process_docking_weight1_custom_product_contain_oxygen_bond_distance_aromatic_linkinvent_7_9_3/rearranged_h_0093.sdf

> <i_m_source_file_index>
43

> <r_mmod_Potential_Energy-OPLS-2005>
125.026138305664

> <r_mmod_Stretch_Energy-OPLS-2005>
85.2926483154297

> <r_mmod_Bend_Energy-OPLS-2005>
168.180450439453

> <r_mmod_Torsional_Energy-OPLS-2005>
241.524536132812

> <r_mmod_Improper_Torsional_Energy-OPLS-2005>
8.81345748901367

> <r_mmod_Van_der_Waal_Energy-OPLS-2005>
153.76985168457

> <r_mmod_Electrostatic_Energy-OPLS-2005>
-369.437377929688

> <r_mmod_Solvation_Energy-OPLS-2005>
-229.64794921875

> <b_mmod_Minimization_Converged-OPLS-2005>
0

> <r_mmod_RMS_Derivative-OPLS-2005>
4.20619916915894

$$$$
44
                    3D
 Structure written by MMmdl.
156165  0  0  1  0            999 V2000
  -30.5709  -14.7319   20.4787 C   0  0  0  0  0  0
  -30.4505  -12.4480   19.4621 C   0  0  0  0  0  0
  -29.5155  -12.5115   18.2316 C   0  0  0  0  0  0
  -28.0403  -12.3307   18.6448 C   0  0  0  0  0  0
  -27.6488  -13.2167   19.8562 C   0  0  2  0  0  0
  -28.6948  -13.1071   20.9886 C   0  0  0  0  0  0
  -25.2546  -13.8154   20.5668 C   0  0  0  0  0  0
  -24.1826  -13.0428   20.9214 C   0  0  0  0  0  0
  -24.6393  -11.6899   20.8752 C   0  0  0  0  0  0
  -23.9060  -10.4286   21.0414 C   0  0  0  0  0  0
  -24.3613   -9.4201   21.9188 C   0  0  0  0  0  0
  -23.6288   -8.2237   22.0754 C   0  0  0  0  0  0
  -22.4270   -8.0278   21.3544 C   0  0  0  0  0  0
  -21.9906   -9.0253   20.4648 C   0  0  0  0  0  0
  -22.7234  -10.2132   20.3060 C   0  0  0  0  0  0
  -21.6851   -6.0732   22.5277 C   0  0  0  0  0  0
  -21.4013   -6.5637   23.8210 C   0  0  0  0  0  0
  -21.3659   -5.6790   24.9173 C   0  0  0  0  0  0
  -21.6045   -4.3053   24.7225 C   0  0  0  0  0  0
  -21.8820   -3.8143   23.4346 C   0  0  0  0  0  0
  -21.9193   -4.6959   22.3401 C   0  0  0  0  0  0
  -22.7849  -13.5227   21.1868 C   0  0  0  0  0  0
  -22.1662   -4.2144   21.0979 F   0  0  0  0  0  0
  -21.5628   -3.4538   25.7738 F   0  0  0  0  0  0
  -30.0001  -13.4804   20.4205 N   0  0  0  0  0  0
  -26.2965  -12.9332   20.3276 N   0  0  0  0  0  0
  -25.9318  -11.6493   20.5750 N   0  0  0  0  0  0
  -22.0484  -12.8225   22.0422 N   0  0  0  0  0  0
  -25.4241  -15.1868   20.4013 N   0  0  0  0  0  0
  -31.7468  -14.9045   20.1420 O   0  0  0  0  0  0
  -21.6636   -6.8874   21.4239 O   0  0  0  0  0  0
  -22.3544  -14.5535   20.6708 O   0  0  0  0  0  0
  -24.6296  -31.8561   23.1990 C   0  0  0  0  0  0
  -25.9125  -32.4762   23.8338 C   0  0  1  0  0  0
  -27.2294  -27.2847   20.1301 C   0  0  0  0  0  0
  -25.5924  -33.8562   24.2262 N   0  0  0  0  0  0
  -23.4276  -30.4766   21.5415 C   0  0  2  0  0  0
  -24.8794  -28.9223   20.1152 C   0  0  0  0  0  0
  -22.7499  -29.4600   22.4918 C   0  0  0  0  0  0
  -18.0291  -28.1386   22.8484 C   0  0  0  0  0  0
  -24.1489  -36.7289   23.2641 C   0  0  0  0  0  0
  -25.9716  -30.7748   21.3777 C   0  0  0  0  0  0
  -26.0494  -29.3964   20.7256 C   0  0  0  0  0  0
  -27.2311  -28.5880   20.7267 C   0  0  0  0  0  0
  -26.0409  -26.8678   19.5006 C   0  0  0  0  0  0
  -24.8778  -27.6629   19.4938 C   0  0  0  0  0  0
  -23.6479  -29.8068   20.1594 C   0  0  0  0  0  0
  -25.4115  -36.3073   24.0327 C   0  0  1  0  0  0
  -20.5894  -28.3696   23.1271 C   0  0  2  0  0  0
  -20.6778  -26.9413   22.5408 C   0  0  0  0  0  0
  -19.5754  -26.6382   21.5211 C   0  0  0  0  0  0
  -18.1935  -26.7928   22.1623 C   0  0  0  0  0  0
  -19.1545  -28.8858   23.2872 C   0  0  0  0  0  0
  -18.9466  -30.1458   23.8891 C   0  0  0  0  0  0
  -17.6465  -30.6587   24.0561 C   0  0  0  0  0  0
  -25.9052  -34.9443   23.5098 C   0  0  0  0  0  0
  -16.5356  -29.9083   23.6331 C   0  0  0  0  0  0
  -16.7277  -28.6501   23.0353 C   0  0  0  0  0  0
  -26.4499  -31.6581   25.0721 C   0  0  0  0  0  0
  -25.3724  -31.3730   26.1443 C   0  0  0  0  0  0
  -27.0350  -30.2999   24.6201 C   0  0  0  0  0  0
  -27.6051  -32.4324   25.7496 C   0  0  0  0  0  0
  -27.5578  -37.1801   24.8466 C   0  0  0  0  0  0
  -21.4207  -29.3042   22.3660 N   0  0  0  0  0  0
  -26.4292  -37.3770   23.9406 N   0  0  0  0  0  0
  -24.6949  -31.0536   22.0961 N   0  0  0  0  0  0
  -23.4199  -28.8147   23.3022 O   0  0  0  0  0  0
  -28.2978  -26.3691   20.1137 O   0  0  0  0  0  0
  -26.5626  -34.8916   22.4668 O   0  0  0  0  0  0
  -23.5448  -32.1375   23.7290 O   0  0  0  0  0  0
  -30.8476  -18.1134   20.6499 C   0  0  0  0  0  0
  -28.4615  -17.9508   20.6401 C   0  0  0  0  0  0
  -29.4728  -20.2389   20.7314 C   0  0  0  0  0  0
  -29.7078  -17.2560   20.6526 C   0  0  0  0  0  0
  -30.7308  -19.5506   20.6965 C   0  0  0  0  0  0
  -28.3374  -19.3776   20.6714 C   0  0  0  0  0  0
  -28.6312  -24.0392   21.2136 C   0  0  0  0  0  0
  -28.3413  -25.3997   21.1353 C   0  0  0  0  0  0
  -28.6784  -23.4002   22.5859 C   0  0  0  0  0  0
  -28.9849  -22.8594   20.2356 C   0  0  0  0  0  0
  -28.8918  -21.8900   22.4057 C   0  0  0  0  0  0
  -29.3965  -21.6608   21.0571 N   0  0  0  0  0  0
  -31.8885  -20.3279   20.7740 N   0  0  0  0  0  0
  -29.6927  -15.7708   20.7342 N   0  0  0  0  0  0
  -27.0927  -19.9164   20.7090 F   0  0  0  0  0  0
  -31.4868  -12.6012   19.1560 H   0  0  0  0  0  0
  -30.4165  -11.4603   19.9243 H   0  0  0  0  0  0
  -29.7960  -11.7473   17.5053 H   0  0  0  0  0  0
  -29.6383  -13.4714   17.7274 H   0  0  0  0  0  0
  -27.8957  -11.2794   18.8968 H   0  0  0  0  0  0
  -27.3826  -12.5330   17.7986 H   0  0  0  0  0  0
  -27.6532  -14.2437   19.4917 H   0  0  0  0  0  0
  -28.7296  -12.0907   21.3837 H   0  0  0  0  0  0
  -28.4268  -13.7453   21.8322 H   0  0  0  0  0  0
  -25.2758   -9.5675   22.4763 H   0  0  0  0  0  0
  -23.9995   -7.4628   22.7473 H   0  0  0  0  0  0
  -21.0836   -8.8774   19.8955 H   0  0  0  0  0  0
  -22.3694  -10.9672   19.6171 H   0  0  0  0  0  0
  -21.2006   -7.6146   23.9712 H   0  0  0  0  0  0
  -21.1480   -6.0521   25.9076 H   0  0  0  0  0  0
  -22.0600   -2.7605   23.2848 H   0  0  0  0  0  0
  -22.4094  -11.9887   22.4816 H   0  0  0  0  0  0
  -21.1103  -13.1257   22.2624 H   0  0  0  0  0  0
  -24.6421  -15.8279   20.4801 H   0  0  0  0  0  0
  -26.2340  -15.6050   19.9643 H   0  0  0  0  0  0
  -26.7195  -32.5427   23.1086 H   0  0  0  0  0  0
  -25.0063  -33.9702   25.0402 H   0  0  0  0  0  0
  -22.7234  -31.2978   21.3930 H   0  0  0  0  0  0
  -23.3748  -35.9625   23.3306 H   0  0  0  0  0  0
  -24.3578  -36.8908   22.2054 H   0  0  0  0  0  0
  -23.7248  -37.6493   23.6663 H   0  0  0  0  0  0
  -26.1061  -31.5335   20.6056 H   0  0  0  0  0  0
  -26.8503  -30.8281   22.0088 H   0  0  0  0  0  0
  -28.1301  -28.9454   21.2088 H   0  0  0  0  0  0
  -26.0108  -25.8953   19.0296 H   0  0  0  0  0  0
  -23.9821  -27.2920   19.0147 H   0  0  0  0  0  0
  -23.7711  -30.5812   19.4013 H   0  0  0  0  0  0
  -22.7679  -29.2372   19.8554 H   0  0  0  0  0  0
  -25.1297  -36.1923   25.0821 H   0  0  0  0  0  0
  -20.9986  -28.3274   24.1392 H   0  0  0  0  0  0
  -20.5675  -26.2306   23.3613 H   0  0  0  0  0  0
  -21.6647  -26.7435   22.1204 H   0  0  0  0  0  0
  -19.6916  -25.6291   21.1244 H   0  0  0  0  0  0
  -19.6691  -27.3190   20.6739 H   0  0  0  0  0  0
  -17.4204  -26.6673   21.4027 H   0  0  0  0  0  0
  -18.0337  -26.0071   22.9021 H   0  0  0  0  0  0
  -19.7942  -30.7276   24.2257 H   0  0  0  0  0  0
  -17.5019  -31.6267   24.5164 H   0  0  0  0  0  0
  -15.5356  -30.2983   23.7659 H   0  0  0  0  0  0
  -15.8678  -28.0817   22.7072 H   0  0  0  0  0  0
  -24.5900  -30.7078   25.7771 H   0  0  0  0  0  0
  -24.8916  -32.2900   26.4858 H   0  0  0  0  0  0
  -25.8042  -30.8913   27.0224 H   0  0  0  0  0  0
  -26.2935  -29.6743   24.1217 H   0  0  0  0  0  0
  -27.4026  -29.7264   25.4720 H   0  0  0  0  0  0
  -27.8813  -30.4276   23.9448 H   0  0  0  0  0  0
  -27.2654  -33.3625   26.2065 H   0  0  0  0  0  0
  -28.3866  -32.6883   25.0328 H   0  0  0  0  0  0
  -28.0714  -31.8456   26.5420 H   0  0  0  0  0  0
  -28.2600  -38.0093   24.7501 H   0  0  0  0  0  0
  -28.1068  -36.2623   24.6304 H   0  0  0  0  0  0
  -27.2295  -37.1466   25.8869 H   0  0  0  0  0  0
  -20.9394  -29.8761   21.6860 H   0  0  0  0  0  0
  -26.0171  -38.2845   24.1399 H   0  0  0  0  0  0
  -31.8302  -17.6632   20.6587 H   0  0  0  0  0  0
  -27.5453  -17.3801   20.6423 H   0  0  0  0  0  0
  -28.1388  -25.9033   22.0714 H   0  0  0  0  0  0
  -27.7742  -23.6123   23.1583 H   0  0  0  0  0  0
  -29.5199  -23.8288   23.1322 H   0  0  0  0  0  0
  -29.7883  -23.1606   19.5620 H   0  0  0  0  0  0
  -28.1118  -22.6142   19.6289 H   0  0  0  0  0  0
  -27.9405  -21.3735   22.5431 H   0  0  0  0  0  0
  -29.5817  -21.4998   23.1562 H   0  0  0  0  0  0
  -32.6739  -19.9373   21.2829 H   0  0  0  0  0  0
  -31.6834  -21.2843   21.0555 H   0  0  0  0  0  0
  -28.7806  -15.3972   20.9467 H   0  0  0  0  0  0
  1 25  1  0  0  0
  1 30  2  0  0  0
  1 84  1  0  0  0
  2  3  1  0  0  0
  2 25  1  0  0  0
  2 86  1  0  0  0
  2 87  1  0  0  0
  3  4  1  0  0  0
  3 88  1  0  0  0
  3 89  1  0  0  0
  4  5  1  0  0  0
  4 90  1  0  0  0
  4 91  1  0  0  0
  5  6  1  0  0  0
  5 26  1  0  0  0
  5 92  1  0  0  0
  6 25  1  0  0  0
  6 93  1  0  0  0
  6 94  1  0  0  0
  7  8  2  0  0  0
  7 26  1  0  0  0
  7 29  1  0  0  0
  8  9  1  0  0  0
  8 22  1  0  0  0
  9 10  1  0  0  0
  9 27  2  0  0  0
 10 11  2  0  0  0
 10 15  1  0  0  0
 11 12  1  0  0  0
 11 95  1  0  0  0
 12 13  2  0  0  0
 12 96  1  0  0  0
 13 14  1  0  0  0
 13 31  1  0  0  0
 14 15  2  0  0  0
 14 97  1  0  0  0
 15 98  1  0  0  0
 16 17  2  0  0  0
 16 21  1  0  0  0
 16 31  1  0  0  0
 17 18  1  0  0  0
 17 99  1  0  0  0
 18 19  2  0  0  0
 18100  1  0  0  0
 19 20  1  0  0  0
 19 24  1  0  0  0
 20 21  2  0  0  0
 20101  1  0  0  0
 21 23  1  0  0  0
 22 28  1  0  0  0
 22 32  2  0  0  0
 26 27  1  0  0  0
 28102  1  0  0  0
 28103  1  0  0  0
 29104  1  0  0  0
 29105  1  0  0  0
 33 34  1  0  0  0
 33 66  1  0  0  0
 33 70  2  0  0  0
 34 36  1  0  0  0
 34 59  1  0  0  0
 34106  1  0  0  0
 35 44  2  0  0  0
 35 45  1  0  0  0
 35 68  1  0  0  0
 36 56  1  0  0  0
 36107  1  0  0  0
 37 39  1  0  0  0
 37 47  1  0  0  0
 37 66  1  0  0  0
 37108  1  0  0  0
 38 43  2  0  0  0
 38 46  1  0  0  0
 38 47  1  0  0  0
 39 64  1  0  0  0
 39 67  2  0  0  0
 40 52  1  0  0  0
 40 53  2  0  0  0
 40 58  1  0  0  0
 41109  1  0  0  0
 41110  1  0  0  0
 41111  1  0  0  0
 41 48  1  0  0  0
 42 43  1  0  0  0
 42 66  1  0  0  0
 42112  1  0  0  0
 42113  1  0  0  0
 43 44  1  0  0  0
 44114  1  0  0  0
 45 46  2  0  0  0
 45115  1  0  0  0
 46116  1  0  0  0
 47117  1  0  0  0
 47118  1  0  0  0
 48 56  1  0  0  0
 48 65  1  0  0  0
 48119  1  0  0  0
 49 50  1  0  0  0
 49 53  1  0  0  0
 49 64  1  0  0  0
 49120  1  0  0  0
 50 51  1  0  0  0
 50121  1  0  0  0
 50122  1  0  0  0
 51 52  1  0  0  0
 51123  1  0  0  0
 51124  1  0  0  0
 52125  1  0  0  0
 52126  1  0  0  0
 53 54  1  0  0  0
 54 55  2  0  0  0
 54127  1  0  0  0
 55 57  1  0  0  0
 55128  1  0  0  0
 56 69  2  0  0  0
 57 58  2  0  0  0
 57129  1  0  0  0
 58130  1  0  0  0
 59 60  1  0  0  0
 59 61  1  0  0  0
 59 62  1  0  0  0
 60131  1  0  0  0
 60132  1  0  0  0
 60133  1  0  0  0
 61134  1  0  0  0
 61135  1  0  0  0
 61136  1  0  0  0
 62137  1  0  0  0
 62138  1  0  0  0
 62139  1  0  0  0
 63 65  1  0  0  0
 63140  1  0  0  0
 63141  1  0  0  0
 63142  1  0  0  0
 64143  1  0  0  0
 65144  1  0  0  0
 68 78  1  0  0  0
 71 74  2  0  0  0
 71 75  1  0  0  0
 71145  1  0  0  0
 72 74  1  0  0  0
 72 76  2  0  0  0
 72146  1  0  0  0
 73 75  2  0  0  0
 73 76  1  0  0  0
 73 82  1  0  0  0
 74 84  1  0  0  0
 75 83  1  0  0  0
 76 85  1  0  0  0
 77 78  2  0  0  0
 77 79  1  0  0  0
 77 80  1  0  0  0
 78147  1  0  0  0
 79 81  1  0  0  0
 79148  1  0  0  0
 79149  1  0  0  0
 80 82  1  0  0  0
 80150  1  0  0  0
 80151  1  0  0  0
 81 82  1  0  0  0
 81152  1  0  0  0
 81153  1  0  0  0
 83154  1  0  0  0
 83155  1  0  0  0
 84156  1  0  0  0
M  ISO  4   1 100  68 101  78 101  84 100
M  END
> <chiral flag>
0

> <version>
0

> <s_m_source_file>
/data/baiqing/PycharmProjects/Reinvent-master-3.2/result/LINK_invent/BTK/process_docking_weight1_custom_product_contain_oxygen_bond_distance_aromatic_linkinvent_7_9_3/rearranged_h_0093.sdf

> <i_m_source_file_index>
44

> <r_mmod_Potential_Energy-OPLS-2005>
308.517547607422

> <r_mmod_Stretch_Energy-OPLS-2005>
100.110946655273

> <r_mmod_Bend_Energy-OPLS-2005>
232.499008178711

> <r_mmod_Torsional_Energy-OPLS-2005>
288.138122558594

> <r_mmod_Improper_Torsional_Energy-OPLS-2005>
15.0625276565552

> <r_mmod_Van_der_Waal_Energy-OPLS-2005>
130.899642944336

> <r_mmod_Electrostatic_Energy-OPLS-2005>
-316.074951171875

> <r_mmod_Solvation_Energy-OPLS-2005>
-220.402252197266

> <b_mmod_Minimization_Converged-OPLS-2005>
0

> <r_mmod_RMS_Derivative-OPLS-2005>
0.227839276194572

$$$$
45
                    3D
 Structure written by MMmdl.
160169  0  0  1  0            999 V2000
  -30.6939  -14.5199   20.5188 C   0  0  0  0  0  0
  -30.4378  -12.3227   19.4401 C   0  0  0  0  0  0
  -29.4953  -12.4990   18.2282 C   0  0  0  0  0  0
  -28.0160  -12.3740   18.6443 C   0  0  0  0  0  0
  -27.6674  -13.2239   19.8934 C   0  0  2  0  0  0
  -28.7155  -13.0249   21.0110 C   0  0  0  0  0  0
  -25.2616  -13.8240   20.5686 C   0  0  0  0  0  0
  -24.1838  -13.0533   20.9158 C   0  0  0  0  0  0
  -24.6377  -11.6992   20.8696 C   0  0  0  0  0  0
  -23.9078  -10.4358   21.0378 C   0  0  0  0  0  0
  -24.3638   -9.4251   21.9148 C   0  0  0  0  0  0
  -23.6273   -8.2314   22.0752 C   0  0  0  0  0  0
  -22.4255   -8.0339   21.3527 C   0  0  0  0  0  0
  -21.9856   -9.0350   20.4668 C   0  0  0  0  0  0
  -22.7216  -10.2221   20.3050 C   0  0  0  0  0  0
  -21.6846   -6.0757   22.5243 C   0  0  0  0  0  0
  -21.4033   -6.5662   23.8187 C   0  0  0  0  0  0
  -21.3626   -5.6814   24.9145 C   0  0  0  0  0  0
  -21.5992   -4.3057   24.7204 C   0  0  0  0  0  0
  -21.8809   -3.8181   23.4334 C   0  0  0  0  0  0
  -21.9193   -4.6972   22.3388 C   0  0  0  0  0  0
  -22.7835  -13.5355   21.1738 C   0  0  0  0  0  0
  -22.1668   -4.2173   21.0968 F   0  0  0  0  0  0
  -21.5589   -3.4549   25.7724 F   0  0  0  0  0  0
  -30.0501  -13.3193   20.4533 N   0  0  0  0  0  0
  -26.3092  -12.9427   20.3525 N   0  0  0  0  0  0
  -25.9336  -11.6566   20.5824 N   0  0  0  0  0  0
  -22.0348  -12.8571   22.0376 N   0  0  0  0  0  0
  -25.4424  -15.1946   20.3971 N   0  0  0  0  0  0
  -31.8061  -14.7001   20.0115 O   0  0  0  0  0  0
  -21.6652   -6.8911   21.4207 O   0  0  0  0  0  0
  -22.3591  -14.5543   20.6352 O   0  0  0  0  0  0
  -24.6196  -31.8688   23.2107 C   0  0  0  0  0  0
  -25.9091  -32.4809   23.8403 C   0  0  1  0  0  0
  -27.2153  -27.3910   20.1105 C   0  0  0  0  0  0
  -25.5927  -33.8602   24.2358 N   0  0  0  0  0  0
  -23.4075  -30.4997   21.5518 C   0  0  2  0  0  0
  -24.8501  -28.9729   20.1164 C   0  0  0  0  0  0
  -22.7447  -29.4669   22.4934 C   0  0  0  0  0  0
  -18.0284  -28.1368   22.8499 C   0  0  0  0  0  0
  -24.1496  -36.7324   23.2637 C   0  0  0  0  0  0
  -25.9448  -30.8265   21.3720 C   0  0  0  0  0  0
  -26.0188  -29.4623   20.7115 C   0  0  0  0  0  0
  -27.2074  -28.6843   20.6989 C   0  0  0  0  0  0
  -26.0238  -26.9475   19.5001 C   0  0  0  0  0  0
  -24.8517  -27.7176   19.5004 C   0  0  0  0  0  0
  -23.6180  -29.8478   20.1621 C   0  0  0  0  0  0
  -25.4100  -36.3107   24.0359 C   0  0  1  0  0  0
  -20.5886  -28.3668   23.1297 C   0  0  2  0  0  0
  -20.6769  -26.9403   22.5399 C   0  0  0  0  0  0
  -19.5727  -26.6394   21.5211 C   0  0  0  0  0  0
  -18.1917  -26.7915   22.1640 C   0  0  0  0  0  0
  -19.1540  -28.8828   23.2894 C   0  0  0  0  0  0
  -18.9473  -30.1436   23.8897 C   0  0  0  0  0  0
  -17.6472  -30.6570   24.0565 C   0  0  0  0  0  0
  -25.9033  -34.9470   23.5158 C   0  0  0  0  0  0
  -16.5358  -29.9071   23.6323 C   0  0  0  0  0  0
  -16.7277  -28.6492   23.0344 C   0  0  0  0  0  0
  -26.4507  -31.6552   25.0725 C   0  0  0  0  0  0
  -25.3759  -31.3652   26.1454 C   0  0  0  0  0  0
  -27.0333  -30.2972   24.6133 C   0  0  0  0  0  0
  -27.6092  -32.4239   25.7485 C   0  0  0  0  0  0
  -27.5574  -37.1815   24.8472 C   0  0  0  0  0  0
  -21.4166  -29.3040   22.3684 N   0  0  0  0  0  0
  -26.4280  -37.3793   23.9435 N   0  0  0  0  0  0
  -24.6751  -31.0814   22.1003 N   0  0  0  0  0  0
  -23.4229  -28.8188   23.2943 O   0  0  0  0  0  0
  -28.3579  -26.5994   20.1080 O   0  0  0  0  0  0
  -26.5600  -34.8929   22.4718 O   0  0  0  0  0  0
  -23.5397  -32.1431   23.7522 O   0  0  0  0  0  0
  -29.2920  -18.2987   18.6085 C   0  0  0  0  0  0
  -29.7614  -17.0746   19.1370 C   0  0  0  0  0  0
  -28.9810  -19.1894   20.8386 C   0  0  0  0  0  0
  -28.8529  -19.3648   19.4367 C   0  0  0  0  0  0
  -29.4488  -17.9516   21.3765 C   0  0  0  0  0  0
  -29.7961  -16.8597   20.5327 C   0  0  0  0  0  0
  -28.7640  -22.6420   19.7527 C   0  0  0  0  0  0
  -28.0248  -20.4540   18.7566 C   0  0  0  0  0  0
  -27.3908  -24.0380   18.3884 C   0  0  0  0  0  0
  -27.4550  -22.6283   17.8544 C   0  0  0  0  0  0
  -28.5398  -24.1441   19.3806 C   0  0  2  0  0  0
  -29.5546  -17.7900   22.8842 C   0  0  0  0  0  0
  -28.2348  -25.1936   20.5053 C   0  0  0  0  0  0
  -28.1170  -21.8187   18.8864 N   0  0  0  0  0  0
  -30.0157  -15.5440   21.0822 N   0  0  0  0  0  0
  -29.4738  -22.3029   20.7028 O   0  0  0  0  0  0
  -27.2276  -20.0014   17.9231 O   0  0  0  0  0  0
  -31.4776  -12.4288   19.1212 H   0  0  0  0  0  0
  -30.3663  -11.3150   19.8587 H   0  0  0  0  0  0
  -29.7213  -11.7485   17.4714 H   0  0  0  0  0  0
  -29.6655  -13.4725   17.7625 H   0  0  0  0  0  0
  -27.8237  -11.3235   18.8585 H   0  0  0  0  0  0
  -27.3634  -12.6365   17.8115 H   0  0  0  0  0  0
  -27.7011  -14.2698   19.5945 H   0  0  0  0  0  0
  -28.6855  -11.9985   21.3836 H   0  0  0  0  0  0
  -28.4818  -13.6474   21.8760 H   0  0  0  0  0  0
  -25.2785   -9.5723   22.4711 H   0  0  0  0  0  0
  -23.9916   -7.4758   22.7564 H   0  0  0  0  0  0
  -21.0742   -8.8973   19.9048 H   0  0  0  0  0  0
  -22.3621  -10.9836   19.6247 H   0  0  0  0  0  0
  -21.2087   -7.6184   23.9721 H   0  0  0  0  0  0
  -21.1402   -6.0527   25.9045 H   0  0  0  0  0  0
  -22.0604   -2.7638   23.2827 H   0  0  0  0  0  0
  -22.3892  -12.0549   22.5340 H   0  0  0  0  0  0
  -21.0971  -13.1802   22.2370 H   0  0  0  0  0  0
  -26.3121  -15.6181   20.0963 H   0  0  0  0  0  0
  -24.7017  -15.8744   20.5301 H   0  0  0  0  0  0
  -26.7138  -32.5534   23.1141 H   0  0  0  0  0  0
  -25.0032  -33.9739   25.0473 H   0  0  0  0  0  0
  -22.6937  -31.3163   21.4193 H   0  0  0  0  0  0
  -23.3738  -35.9667   23.3289 H   0  0  0  0  0  0
  -24.3591  -36.8936   22.2045 H   0  0  0  0  0  0
  -23.7263  -37.6543   23.6635 H   0  0  0  0  0  0
  -26.0766  -31.5973   20.6117 H   0  0  0  0  0  0
  -26.8248  -30.8636   22.0008 H   0  0  0  0  0  0
  -28.1056  -29.0693   21.1616 H   0  0  0  0  0  0
  -25.9630  -26.0110   18.9963 H   0  0  0  0  0  0
  -23.9605  -27.3446   19.0193 H   0  0  0  0  0  0
  -23.7308  -30.6319   19.4102 H   0  0  0  0  0  0
  -22.7409  -29.2742   19.8580 H   0  0  0  0  0  0
  -25.1261  -36.1953   25.0843 H   0  0  0  0  0  0
  -20.9989  -28.3225   24.1414 H   0  0  0  0  0  0
  -20.5685  -26.2267   23.3591 H   0  0  0  0  0  0
  -21.6635  -26.7418   22.1183 H   0  0  0  0  0  0
  -19.6878  -25.6321   21.1193 H   0  0  0  0  0  0
  -19.6643  -27.3243   20.6781 H   0  0  0  0  0  0
  -17.4184  -26.6681   21.4036 H   0  0  0  0  0  0
  -18.0301  -26.0038   22.9024 H   0  0  0  0  0  0
  -19.7955  -30.7254   24.2260 H   0  0  0  0  0  0
  -17.5030  -31.6256   24.5175 H   0  0  0  0  0  0
  -15.5357  -30.2979   23.7640 H   0  0  0  0  0  0
  -15.8688  -28.0821   22.7038 H   0  0  0  0  0  0
  -24.5981  -30.6944   25.7784 H   0  0  0  0  0  0
  -24.8911  -32.2796   26.4871 H   0  0  0  0  0  0
  -25.8114  -30.8851   27.0228 H   0  0  0  0  0  0
  -26.2888  -29.6700   24.1217 H   0  0  0  0  0  0
  -27.4081  -29.7231   25.4623 H   0  0  0  0  0  0
  -27.8738  -30.4248   23.9311 H   0  0  0  0  0  0
  -27.2745  -33.3541   26.2082 H   0  0  0  0  0  0
  -28.3898  -32.6758   25.0292 H   0  0  0  0  0  0
  -28.0745  -31.8322   26.5379 H   0  0  0  0  0  0
  -28.2612  -38.0101   24.7505 H   0  0  0  0  0  0
  -28.1059  -36.2629   24.6303 H   0  0  0  0  0  0
  -27.2303  -37.1477   25.8884 H   0  0  0  0  0  0
  -20.9301  -29.8792   21.6942 H   0  0  0  0  0  0
  -26.0168  -38.2867   24.1428 H   0  0  0  0  0  0
  -29.1879  -18.3873   17.5360 H   0  0  0  0  0  0
  -29.9997  -16.2757   18.4479 H   0  0  0  0  0  0
  -28.6428  -19.9685   21.5090 H   0  0  0  0  0  0
  -26.4461  -24.0989   18.9192 H   0  0  0  0  0  0
  -27.4131  -24.7963   17.6055 H   0  0  0  0  0  0
  -28.0507  -22.5969   16.9407 H   0  0  0  0  0  0
  -26.4430  -22.2980   17.6072 H   0  0  0  0  0  0
  -29.4417  -24.4533   18.8518 H   0  0  0  0  0  0
  -29.5407  -18.7579   23.3874 H   0  0  0  0  0  0
  -30.4838  -17.2850   23.1521 H   0  0  0  0  0  0
  -28.7264  -17.1984   23.2712 H   0  0  0  0  0  0
  -28.9458  -25.0457   21.3194 H   0  0  0  0  0  0
  -27.2559  -24.9990   20.9501 H   0  0  0  0  0  0
  -29.3437  -15.2599   21.7818 H   0  0  0  0  0  0
  1 25  1  0  0  0
  1 30  2  0  0  0
  1 85  1  0  0  0
  2  3  1  0  0  0
  2 25  1  0  0  0
  2 88  1  0  0  0
  2 89  1  0  0  0
  3  4  1  0  0  0
  3 90  1  0  0  0
  3 91  1  0  0  0
  4  5  1  0  0  0
  4 92  1  0  0  0
  4 93  1  0  0  0
  5  6  1  0  0  0
  5 26  1  0  0  0
  5 94  1  0  0  0
  6 25  1  0  0  0
  6 95  1  0  0  0
  6 96  1  0  0  0
  7  8  2  0  0  0
  7 26  1  0  0  0
  7 29  1  0  0  0
  8  9  1  0  0  0
  8 22  1  0  0  0
  9 10  1  0  0  0
  9 27  2  0  0  0
 10 11  2  0  0  0
 10 15  1  0  0  0
 11 12  1  0  0  0
 11 97  1  0  0  0
 12 13  2  0  0  0
 12 98  1  0  0  0
 13 14  1  0  0  0
 13 31  1  0  0  0
 14 15  2  0  0  0
 14 99  1  0  0  0
 15100  1  0  0  0
 16 17  2  0  0  0
 16 21  1  0  0  0
 16 31  1  0  0  0
 17 18  1  0  0  0
 17101  1  0  0  0
 18 19  2  0  0  0
 18102  1  0  0  0
 19 20  1  0  0  0
 19 24  1  0  0  0
 20 21  2  0  0  0
 20103  1  0  0  0
 21 23  1  0  0  0
 22 28  1  0  0  0
 22 32  2  0  0  0
 26 27  1  0  0  0
 28104  1  0  0  0
 28105  1  0  0  0
 29106  1  0  0  0
 29107  1  0  0  0
 33 34  1  0  0  0
 33 66  1  0  0  0
 33 70  2  0  0  0
 34 36  1  0  0  0
 34 59  1  0  0  0
 34108  1  0  0  0
 35 44  2  0  0  0
 35 45  1  0  0  0
 35 68  1  0  0  0
 36 56  1  0  0  0
 36109  1  0  0  0
 37 39  1  0  0  0
 37 47  1  0  0  0
 37 66  1  0  0  0
 37110  1  0  0  0
 38 43  2  0  0  0
 38 46  1  0  0  0
 38 47  1  0  0  0
 39 64  1  0  0  0
 39 67  2  0  0  0
 40 52  1  0  0  0
 40 53  2  0  0  0
 40 58  1  0  0  0
 41111  1  0  0  0
 41112  1  0  0  0
 41113  1  0  0  0
 41 48  1  0  0  0
 42 43  1  0  0  0
 42 66  1  0  0  0
 42114  1  0  0  0
 42115  1  0  0  0
 43 44  1  0  0  0
 44116  1  0  0  0
 45 46  2  0  0  0
 45117  1  0  0  0
 46118  1  0  0  0
 47119  1  0  0  0
 47120  1  0  0  0
 48 56  1  0  0  0
 48 65  1  0  0  0
 48121  1  0  0  0
 49 50  1  0  0  0
 49 53  1  0  0  0
 49 64  1  0  0  0
 49122  1  0  0  0
 50 51  1  0  0  0
 50123  1  0  0  0
 50124  1  0  0  0
 51 52  1  0  0  0
 51125  1  0  0  0
 51126  1  0  0  0
 52127  1  0  0  0
 52128  1  0  0  0
 53 54  1  0  0  0
 54 55  2  0  0  0
 54129  1  0  0  0
 55 57  1  0  0  0
 55130  1  0  0  0
 56 69  2  0  0  0
 57 58  2  0  0  0
 57131  1  0  0  0
 58132  1  0  0  0
 59 60  1  0  0  0
 59 61  1  0  0  0
 59 62  1  0  0  0
 60133  1  0  0  0
 60134  1  0  0  0
 60135  1  0  0  0
 61136  1  0  0  0
 61137  1  0  0  0
 61138  1  0  0  0
 62139  1  0  0  0
 62140  1  0  0  0
 62141  1  0  0  0
 63 65  1  0  0  0
 63142  1  0  0  0
 63143  1  0  0  0
 63144  1  0  0  0
 64145  1  0  0  0
 65146  1  0  0  0
 68 83  1  0  0  0
 71 72  2  0  0  0
 71 74  1  0  0  0
 71147  1  0  0  0
 72 76  1  0  0  0
 72148  1  0  0  0
 73 74  2  0  0  0
 73 75  1  0  0  0
 73149  1  0  0  0
 74 78  1  0  0  0
 75 76  2  0  0  0
 75 82  1  0  0  0
 76 85  1  0  0  0
 77 81  1  0  0  0
 77 84  1  0  0  0
 77 86  2  0  0  0
 78 84  1  0  0  0
 78 87  2  0  0  0
 79 80  1  0  0  0
 79 81  1  0  0  0
 79150  1  0  0  0
 79151  1  0  0  0
 80 84  1  0  0  0
 80152  1  0  0  0
 80153  1  0  0  0
 81 83  1  0  0  0
 81154  1  0  0  0
 82155  1  0  0  0
 82156  1  0  0  0
 82157  1  0  0  0
 83158  1  0  0  0
 83159  1  0  0  0
 85160  1  0  0  0
M  ISO  4   1 100  68 101  83 101  85 100
M  END
> <chiral flag>
0

> <version>
0

> <s_m_source_file>
/data/baiqing/PycharmProjects/Reinvent-master-3.2/result/LINK_invent/BTK/process_docking_weight1_custom_product_contain_oxygen_bond_distance_aromatic_linkinvent_7_9_3/rearranged_h_0093.sdf

> <i_m_source_file_index>
45

> <r_mmod_Potential_Energy-OPLS-2005>
114.265899658203

> <r_mmod_Stretch_Energy-OPLS-2005>
57.0015525817871

> <r_mmod_Bend_Energy-OPLS-2005>
186.069137573242

> <r_mmod_Torsional_Energy-OPLS-2005>
304.716125488281

> <r_mmod_Improper_Torsional_Energy-OPLS-2005>
7.42666244506836

> <r_mmod_Van_der_Waal_Energy-OPLS-2005>
159.551498413086

> <r_mmod_Electrostatic_Energy-OPLS-2005>
-399.226440429688

> <r_mmod_Solvation_Energy-OPLS-2005>
-222.774200439453

> <b_mmod_Minimization_Converged-OPLS-2005>
0

> <r_mmod_RMS_Derivative-OPLS-2005>
6.33592653274536

$$$$
46
                    3D
 Structure written by MMmdl.
150158  0  0  1  0            999 V2000
  -30.4932  -15.1074   20.3065 C   0  0  0  0  0  0
  -30.4574  -12.6776   19.4715 C   0  0  0  0  0  0
  -29.5204  -12.4396   18.2624 C   0  0  0  0  0  0
  -28.0605  -12.2326   18.7122 C   0  0  0  0  0  0
  -27.6187  -13.2109   19.8296 C   0  0  2  0  0  0
  -28.6830  -13.3689   20.9329 C   0  0  0  0  0  0
  -25.2492  -13.8099   20.5840 C   0  0  0  0  0  0
  -24.1759  -13.0381   20.9288 C   0  0  0  0  0  0
  -24.6338  -11.6858   20.8828 C   0  0  0  0  0  0
  -23.9024  -10.4258   21.0447 C   0  0  0  0  0  0
  -24.3593   -9.4176   21.9211 C   0  0  0  0  0  0
  -23.6275   -8.2211   22.0759 C   0  0  0  0  0  0
  -22.4261   -8.0258   21.3537 C   0  0  0  0  0  0
  -21.9891   -9.0236   20.4648 C   0  0  0  0  0  0
  -22.7213  -10.2116   20.3072 C   0  0  0  0  0  0
  -21.6846   -6.0724   22.5273 C   0  0  0  0  0  0
  -21.4011   -6.5636   23.8206 C   0  0  0  0  0  0
  -21.3656   -5.6788   24.9169 C   0  0  0  0  0  0
  -21.6039   -4.3050   24.7217 C   0  0  0  0  0  0
  -21.8827   -3.8141   23.4341 C   0  0  0  0  0  0
  -21.9198   -4.6956   22.3398 C   0  0  0  0  0  0
  -22.7792  -13.5202   21.1900 C   0  0  0  0  0  0
  -22.1675   -4.2145   21.0974 F   0  0  0  0  0  0
  -21.5623   -3.4534   25.7731 F   0  0  0  0  0  0
  -29.9138  -13.8207   20.2605 N   0  0  0  0  0  0
  -26.2873  -12.9249   20.3393 N   0  0  0  0  0  0
  -25.9266  -11.6430   20.5881 N   0  0  0  0  0  0
  -22.0406  -12.8201   22.0434 N   0  0  0  0  0  0
  -25.4185  -15.1823   20.4329 N   0  0  0  0  0  0
  -31.7300  -15.1130   20.3260 O   0  0  0  0  0  0
  -21.6627   -6.8858   21.4232 O   0  0  0  0  0  0
  -22.3510  -14.5519   20.6739 O   0  0  0  0  0  0
  -24.6484  -31.8391   23.1835 C   0  0  0  0  0  0
  -25.9232  -32.4672   23.8244 C   0  0  1  0  0  0
  -27.2288  -27.0872   20.1578 C   0  0  0  0  0  0
  -25.5958  -33.8478   24.2162 N   0  0  0  0  0  0
  -23.4558  -30.4558   21.5295 C   0  0  2  0  0  0
  -24.9099  -28.8740   20.1083 C   0  0  0  0  0  0
  -22.7600  -29.4520   22.4835 C   0  0  0  0  0  0
  -18.0312  -28.1398   22.8476 C   0  0  0  0  0  0
  -24.1491  -36.7246   23.2643 C   0  0  0  0  0  0
  -26.0154  -30.6950   21.3930 C   0  0  0  0  0  0
  -26.0872  -29.3016   20.7348 C   0  0  0  0  0  0
  -27.2428  -28.4244   20.7443 C   0  0  0  0  0  0
  -26.0276  -26.7808   19.4770 C   0  0  0  0  0  0
  -24.8963  -27.6285   19.4627 C   0  0  0  0  0  0
  -23.6868  -29.7805   20.1508 C   0  0  0  0  0  0
  -25.4126  -36.3021   24.0314 C   0  0  1  0  0  0
  -20.5930  -28.3733   23.1218 C   0  0  2  0  0  0
  -20.6790  -26.9427   22.5403 C   0  0  0  0  0  0
  -19.5762  -26.6378   21.5212 C   0  0  0  0  0  0
  -18.1946  -26.7934   22.1625 C   0  0  0  0  0  0
  -19.1570  -28.8883   23.2837 C   0  0  0  0  0  0
  -18.9483  -30.1477   23.8868 C   0  0  0  0  0  0
  -17.6478  -30.6591   24.0558 C   0  0  0  0  0  0
  -25.9078  -34.9397   23.5052 C   0  0  0  0  0  0
  -16.5370  -29.9084   23.6337 C   0  0  0  0  0  0
  -16.7295  -28.6502   23.0359 C   0  0  0  0  0  0
  -26.4530  -31.6562   25.0711 C   0  0  0  0  0  0
  -25.3692  -31.3779   26.1394 C   0  0  0  0  0  0
  -27.0405  -30.2946   24.6346 C   0  0  0  0  0  0
  -27.6049  -32.4343   25.7498 C   0  0  0  0  0  0
  -27.5576  -37.1782   24.8467 C   0  0  0  0  0  0
  -21.4286  -29.3049   22.3582 N   0  0  0  0  0  0
  -26.4289  -37.3738   23.9406 N   0  0  0  0  0  0
  -24.7263  -31.0197   22.0898 N   0  0  0  0  0  0
  -23.4216  -28.8073   23.3010 O   0  0  0  0  0  0
  -28.2641  -26.0659   20.2585 O   0  0  0  0  0  0
  -26.5672  -34.8905   22.4636 O   0  0  0  0  0  0
  -23.5589  -32.1289   23.7022 O   0  0  0  0  0  0
  -29.6988  -19.8947   21.4464 C   0  0  0  0  0  0
  -29.9518  -18.4214   21.4096 C   0  0  0  0  0  0
  -29.2687  -20.5452   20.2873 C   0  0  0  0  0  0
  -29.7530  -17.7234   20.2155 C   0  0  0  0  0  0
  -29.1938  -16.1072   18.6200 C   0  0  0  0  0  0
  -28.8735  -23.2246   20.5054 C   0  0  0  0  0  0
  -27.7536  -16.5763   18.3668 C   0  0  0  0  0  0
  -28.0197  -24.5451   19.9001 C   0  0  0  0  0  0
  -28.8132  -21.8954   19.9644 N   0  0  0  0  0  0
  -29.7735  -16.2940   19.8384 N   0  0  0  0  0  0
  -29.8166  -15.6762   17.6451 O   0  0  0  0  0  0
  -29.5854  -23.4260   21.4931 O   0  0  0  0  0  0
  -29.3116  -19.1536   19.1163 S   0  0  0  0  0  0
  -31.4688  -12.8861   19.1186 H   0  0  0  0  0  0
  -30.5314  -11.7818   20.0900 H   0  0  0  0  0  0
  -29.8572  -11.5659   17.7027 H   0  0  0  0  0  0
  -29.5754  -13.2651   17.5588 H   0  0  0  0  0  0
  -27.9881  -11.2106   19.0860 H   0  0  0  0  0  0
  -27.3835  -12.2903   17.8590 H   0  0  0  0  0  0
  -27.5232  -14.1643   19.3378 H   0  0  0  0  0  0
  -28.8373  -12.4357   21.4768 H   0  0  0  0  0  0
  -28.3639  -14.1119   21.6661 H   0  0  0  0  0  0
  -25.2732   -9.5661   22.4795 H   0  0  0  0  0  0
  -23.9985   -7.4602   22.7474 H   0  0  0  0  0  0
  -21.0820   -8.8762   19.8956 H   0  0  0  0  0  0
  -22.3676  -10.9670   19.6195 H   0  0  0  0  0  0
  -21.2004   -7.6145   23.9707 H   0  0  0  0  0  0
  -21.1470   -6.0515   25.9070 H   0  0  0  0  0  0
  -22.0611   -2.7602   23.2837 H   0  0  0  0  0  0
  -22.4014  -11.9865   22.4831 H   0  0  0  0  0  0
  -21.1031  -13.1247   22.2636 H   0  0  0  0  0  0
  -24.6520  -15.8335   20.5630 H   0  0  0  0  0  0
  -26.2839  -15.6351   20.1785 H   0  0  0  0  0  0
  -26.7299  -32.5265   23.0967 H   0  0  0  0  0  0
  -25.0073  -33.9577   25.0289 H   0  0  0  0  0  0
  -22.7611  -31.2832   21.3704 H   0  0  0  0  0  0
  -23.3762  -35.9569   23.3293 H   0  0  0  0  0  0
  -24.3571  -36.8890   22.2059 H   0  0  0  0  0  0
  -23.7234  -37.6434   23.6687 H   0  0  0  0  0  0
  -26.1798  -31.4466   20.6196 H   0  0  0  0  0  0
  -26.8817  -30.7460   22.0407 H   0  0  0  0  0  0
  -28.1342  -28.7453   21.2647 H   0  0  0  0  0  0
  -25.9245  -25.8354   18.9674 H   0  0  0  0  0  0
  -24.0015  -27.2979   18.9535 H   0  0  0  0  0  0
  -23.8262  -30.5532   19.3939 H   0  0  0  0  0  0
  -22.8008  -29.2241   19.8396 H   0  0  0  0  0  0
  -25.1314  -36.1846   25.0805 H   0  0  0  0  0  0
  -21.0023  -28.3329   24.1339 H   0  0  0  0  0  0
  -20.5674  -26.2349   23.3632 H   0  0  0  0  0  0
  -21.6654  -26.7416   22.1205 H   0  0  0  0  0  0
  -19.6918  -25.6281   21.1261 H   0  0  0  0  0  0
  -19.6694  -27.3172   20.6729 H   0  0  0  0  0  0
  -17.4212  -26.6682   21.4031 H   0  0  0  0  0  0
  -18.0342  -26.0083   22.9027 H   0  0  0  0  0  0
  -19.7958  -30.7302   24.2224 H   0  0  0  0  0  0
  -17.5030  -31.6269   24.5165 H   0  0  0  0  0  0
  -15.5368  -30.2974   23.7674 H   0  0  0  0  0  0
  -15.8698  -28.0808   22.7092 H   0  0  0  0  0  0
  -24.5879  -30.7117   25.7712 H   0  0  0  0  0  0
  -24.8869  -32.2971   26.4732 H   0  0  0  0  0  0
  -25.7952  -30.9008   27.0229 H   0  0  0  0  0  0
  -26.3040  -29.6655   24.1336 H   0  0  0  0  0  0
  -27.3966  -29.7268   25.4952 H   0  0  0  0  0  0
  -27.8968  -30.4162   23.9709 H   0  0  0  0  0  0
  -27.2633  -33.3667   26.2005 H   0  0  0  0  0  0
  -28.3892  -32.6870   25.0349 H   0  0  0  0  0  0
  -28.0682  -31.8518   26.5473 H   0  0  0  0  0  0
  -28.2593  -38.0079   24.7510 H   0  0  0  0  0  0
  -28.1073  -36.2610   24.6301 H   0  0  0  0  0  0
  -27.2293  -37.1436   25.8869 H   0  0  0  0  0  0
  -20.9511  -29.8758   21.6749 H   0  0  0  0  0  0
  -26.0157  -38.2808   24.1404 H   0  0  0  0  0  0
  -29.8152  -20.4230   22.3823 H   0  0  0  0  0  0
  -30.2437  -17.9207   22.3216 H   0  0  0  0  0  0
  -27.1521  -15.7738   17.9428 H   0  0  0  0  0  0
  -27.7432  -17.3806   17.6322 H   0  0  0  0  0  0
  -27.2719  -16.9323   19.2764 H   0  0  0  0  0  0
  -26.9884  -24.3199   20.1708 H   0  0  0  0  0  0
  -28.0595  -24.4700   18.8135 H   0  0  0  0  0  0
  -28.2857  -21.9124   19.1007 H   0  0  0  0  0  0
  1 25  1  0  0  0
  1 30  2  0  0  0
  1 80  1  0  0  0
  2  3  1  0  0  0
  2 25  1  0  0  0
  2 84  1  0  0  0
  2 85  1  0  0  0
  3  4  1  0  0  0
  3 86  1  0  0  0
  3 87  1  0  0  0
  4  5  1  0  0  0
  4 88  1  0  0  0
  4 89  1  0  0  0
  5  6  1  0  0  0
  5 26  1  0  0  0
  5 90  1  0  0  0
  6 25  1  0  0  0
  6 91  1  0  0  0
  6 92  1  0  0  0
  7  8  2  0  0  0
  7 26  1  0  0  0
  7 29  1  0  0  0
  8  9  1  0  0  0
  8 22  1  0  0  0
  9 10  1  0  0  0
  9 27  2  0  0  0
 10 11  2  0  0  0
 10 15  1  0  0  0
 11 12  1  0  0  0
 11 93  1  0  0  0
 12 13  2  0  0  0
 12 94  1  0  0  0
 13 14  1  0  0  0
 13 31  1  0  0  0
 14 15  2  0  0  0
 14 95  1  0  0  0
 15 96  1  0  0  0
 16 17  2  0  0  0
 16 21  1  0  0  0
 16 31  1  0  0  0
 17 18  1  0  0  0
 17 97  1  0  0  0
 18 19  2  0  0  0
 18 98  1  0  0  0
 19 20  1  0  0  0
 19 24  1  0  0  0
 20 21  2  0  0  0
 20 99  1  0  0  0
 21 23  1  0  0  0
 22 28  1  0  0  0
 22 32  2  0  0  0
 26 27  1  0  0  0
 28100  1  0  0  0
 28101  1  0  0  0
 29102  1  0  0  0
 29103  1  0  0  0
 33 34  1  0  0  0
 33 66  1  0  0  0
 33 70  2  0  0  0
 34 36  1  0  0  0
 34 59  1  0  0  0
 34104  1  0  0  0
 35 44  2  0  0  0
 35 45  1  0  0  0
 35 68  1  0  0  0
 36 56  1  0  0  0
 36105  1  0  0  0
 37 39  1  0  0  0
 37 47  1  0  0  0
 37 66  1  0  0  0
 37106  1  0  0  0
 38 43  2  0  0  0
 38 46  1  0  0  0
 38 47  1  0  0  0
 39 64  1  0  0  0
 39 67  2  0  0  0
 40 52  1  0  0  0
 40 53  2  0  0  0
 40 58  1  0  0  0
 41107  1  0  0  0
 41108  1  0  0  0
 41109  1  0  0  0
 41 48  1  0  0  0
 42 43  1  0  0  0
 42 66  1  0  0  0
 42110  1  0  0  0
 42111  1  0  0  0
 43 44  1  0  0  0
 44112  1  0  0  0
 45 46  2  0  0  0
 45113  1  0  0  0
 46114  1  0  0  0
 47115  1  0  0  0
 47116  1  0  0  0
 48 56  1  0  0  0
 48 65  1  0  0  0
 48117  1  0  0  0
 49 50  1  0  0  0
 49 53  1  0  0  0
 49 64  1  0  0  0
 49118  1  0  0  0
 50 51  1  0  0  0
 50119  1  0  0  0
 50120  1  0  0  0
 51 52  1  0  0  0
 51121  1  0  0  0
 51122  1  0  0  0
 52123  1  0  0  0
 52124  1  0  0  0
 53 54  1  0  0  0
 54 55  2  0  0  0
 54125  1  0  0  0
 55 57  1  0  0  0
 55126  1  0  0  0
 56 69  2  0  0  0
 57 58  2  0  0  0
 57127  1  0  0  0
 58128  1  0  0  0
 59 60  1  0  0  0
 59 61  1  0  0  0
 59 62  1  0  0  0
 60129  1  0  0  0
 60130  1  0  0  0
 60131  1  0  0  0
 61132  1  0  0  0
 61133  1  0  0  0
 61134  1  0  0  0
 62135  1  0  0  0
 62136  1  0  0  0
 62137  1  0  0  0
 63 65  1  0  0  0
 63138  1  0  0  0
 63139  1  0  0  0
 63140  1  0  0  0
 64141  1  0  0  0
 65142  1  0  0  0
 68 78  1  0  0  0
 71 72  1  0  0  0
 71 73  2  0  0  0
 71143  1  0  0  0
 72 74  2  0  0  0
 72144  1  0  0  0
 73 79  1  0  0  0
 73 83  1  0  0  0
 74 80  1  0  0  0
 74 83  1  0  0  0
 75 77  1  0  0  0
 75 80  1  0  0  0
 75 81  2  0  0  0
 76 78  1  0  0  0
 76 79  1  0  0  0
 76 82  2  0  0  0
 77145  1  0  0  0
 77146  1  0  0  0
 77147  1  0  0  0
 78148  1  0  0  0
 78149  1  0  0  0
 79150  1  0  0  0
M  ISO  4   1 100  68 101  78 101  80 100
M  END
> <chiral flag>
0

> <version>
0

> <s_m_source_file>
/data/baiqing/PycharmProjects/Reinvent-master-3.2/result/LINK_invent/BTK/process_docking_weight1_custom_product_contain_oxygen_bond_distance_aromatic_linkinvent_7_9_3/rearranged_h_0093.sdf

> <i_m_source_file_index>
46

> <r_mmod_Potential_Energy-OPLS-2005>
802.871337890625

> <r_mmod_Stretch_Energy-OPLS-2005>
301.780822753906

> <r_mmod_Bend_Energy-OPLS-2005>
315.293304443359

> <r_mmod_Torsional_Energy-OPLS-2005>
324.90576171875

> <r_mmod_Improper_Torsional_Energy-OPLS-2005>
18.2405090332031

> <r_mmod_Van_der_Waal_Energy-OPLS-2005>
132.72200012207

> <r_mmod_Electrostatic_Energy-OPLS-2005>
-344.407958984375

> <r_mmod_Solvation_Energy-OPLS-2005>
-243.409622192383

> <b_mmod_Minimization_Converged-OPLS-2005>
0

> <r_mmod_RMS_Derivative-OPLS-2005>
0.66633677482605

$$$$
47
                    3D
 Structure written by MMmdl.
161169  0  0  1  0            999 V2000
  -29.3433  -14.6480   21.0516 C   0  0  0  0  0  0
  -30.3997  -12.6802   19.6586 C   0  0  0  0  0  0
  -29.6495  -12.5737   18.2863 C   0  0  0  0  0  0
  -28.1823  -12.1364   18.4537 C   0  0  0  0  0  0
  -27.6313  -12.8867   19.6345 C   0  0  2  0  0  0
  -28.4076  -12.5345   20.9042 C   0  0  0  0  0  0
  -25.3595  -13.6859   19.7884 C   0  0  0  0  0  0
  -24.3943  -13.2126   20.5459 C   0  0  0  0  0  0
  -24.5963  -11.7699   20.7158 C   0  0  0  0  0  0
  -23.8236  -10.5465   21.0507 C   0  0  0  0  0  0
  -24.3285   -9.5211   21.8985 C   0  0  0  0  0  0
  -23.6305   -8.2997   22.0656 C   0  0  0  0  0  0
  -22.4224   -8.0716   21.3637 C   0  0  0  0  0  0
  -21.9491   -9.0696   20.4917 C   0  0  0  0  0  0
  -22.6360  -10.2891   20.3403 C   0  0  0  0  0  0
  -21.7039   -6.0863   22.5234 C   0  0  0  0  0  0
  -21.4130   -6.5738   23.8162 C   0  0  0  0  0  0
  -21.3679   -5.6868   24.9110 C   0  0  0  0  0  0
  -21.6032   -4.3125   24.7166 C   0  0  0  0  0  0
  -21.8827   -3.8224   23.4292 C   0  0  0  0  0  0
  -21.9258   -4.7062   22.3355 C   0  0  0  0  0  0
  -23.8910  -14.3593   21.3709 C   0  0  0  0  0  0
  -22.1695   -4.2203   21.0944 F   0  0  0  0  0  0
  -21.5615   -3.4618   25.7693 F   0  0  0  0  0  0
  -29.5286  -13.3265   20.7169 N   0  0  0  0  0  0
  -26.2804  -12.7041   19.8671 N   0  0  0  0  0  0
  -25.8385  -11.5274   20.3477 N   0  0  0  0  0  0
  -24.4645  -15.0727   23.2490 N   0  0  0  0  0  0
  -25.6046  -14.9930   19.3382 N   0  0  0  0  0  0
  -30.4226  -15.2524   20.7311 O   0  0  0  0  0  0
  -21.6931   -6.9040   21.4200 O   0  0  0  0  0  0
  -22.8792  -14.6451   20.6511 O   0  0  0  0  0  0
  -24.6627  -31.8310   23.1860 C   0  0  0  0  0  0
  -25.9354  -32.4603   23.8246 C   0  0  1  0  0  0
  -26.8971  -26.8134   20.2712 C   0  0  0  0  0  0
  -25.6041  -33.8430   24.2115 N   0  0  0  0  0  0
  -23.4604  -30.4745   21.5364 C   0  0  2  0  0  0
  -24.8639  -28.8891   20.0839 C   0  0  0  0  0  0
  -22.7624  -29.4526   22.4739 C   0  0  0  0  0  0
  -18.0325  -28.1413   22.8462 C   0  0  0  0  0  0
  -24.1488  -36.7195   23.2643 C   0  0  0  0  0  0
  -26.0365  -30.6021   21.4335 C   0  0  0  0  0  0
  -26.0465  -29.1971   20.7679 C   0  0  0  0  0  0
  -27.0853  -28.1665   20.8484 C   0  0  0  0  0  0
  -25.7938  -26.7346   19.4161 C   0  0  0  0  0  0
  -24.7761  -27.6961   19.3669 C   0  0  0  0  0  0
  -23.6867  -29.8482   20.1383 C   0  0  0  0  0  0
  -25.4138  -36.2970   24.0294 C   0  0  1  0  0  0
  -20.5941  -28.3757   23.1166 C   0  0  2  0  0  0
  -20.6803  -26.9436   22.5393 C   0  0  0  0  0  0
  -19.5767  -26.6364   21.5217 C   0  0  0  0  0  0
  -18.1948  -26.7946   22.1626 C   0  0  0  0  0  0
  -19.1585  -28.8905   23.2805 C   0  0  0  0  0  0
  -18.9499  -30.1495   23.8837 C   0  0  0  0  0  0
  -17.6491  -30.6598   24.0553 C   0  0  0  0  0  0
  -25.9121  -34.9359   23.5013 C   0  0  0  0  0  0
  -16.5379  -29.9077   23.6352 C   0  0  0  0  0  0
  -16.7308  -28.6502   23.0364 C   0  0  0  0  0  0
  -26.4567  -31.6573   25.0801 C   0  0  0  0  0  0
  -25.3663  -31.3866   26.1439 C   0  0  0  0  0  0
  -27.0466  -30.2916   24.6630 C   0  0  0  0  0  0
  -27.6053  -32.4398   25.7584 C   0  0  0  0  0  0
  -27.5572  -37.1759   24.8462 C   0  0  0  0  0  0
  -21.4302  -29.3055   22.3497 N   0  0  0  0  0  0
  -26.4271  -37.3716   23.9419 N   0  0  0  0  0  0
  -24.7439  -30.9987   22.1015 N   0  0  0  0  0  0
  -23.4236  -28.8045   23.2896 O   0  0  0  0  0  0
  -27.5453  -25.4984   20.4913 O   0  0  0  0  0  0
  -26.5704  -34.8877   22.4594 O   0  0  0  0  0  0
  -23.5716  -32.1328   23.6973 O   0  0  0  0  0  0
  -23.0045  -16.4225   22.3463 C   0  0  0  0  0  0
  -25.5983  -13.2673   22.8140 C   0  0  0  0  0  0
  -24.9706  -16.6313   21.7606 C   0  0  0  0  0  0
  -22.3192  -14.6471   23.1760 C   0  0  0  0  0  0
  -26.2977  -15.0177   21.9748 C   0  0  0  0  0  0
  -23.6196  -13.0628   23.3916 C   0  0  0  0  0  0
  -25.3302  -18.3626   21.6820 C   0  0  0  0  0  0
  -24.5403  -18.9769   22.8289 C   0  0  0  0  0  0
  -28.0210  -22.0766   21.8642 C   0  0  0  0  0  0
  -26.6692  -24.0549   20.6282 C   0  0  0  0  0  0
  -26.9126  -22.2387   20.8251 C   0  0  2  0  0  0
  -26.0958  -19.3708   21.0300 N   0  0  0  0  0  0
  -21.0181  -14.5000   23.6408 N   0  0  0  0  0  0
  -23.1568  -11.9004   24.0036 N   0  0  0  0  0  0
  -27.9667  -15.2067   21.5625 N   0  0  0  0  0  0
  -25.8820  -20.9970   21.2371 O   0  0  0  0  0  0
  -31.3367  -13.2274   19.5398 H   0  0  0  0  0  0
  -30.6876  -11.6828   19.9886 H   0  0  0  0  0  0
  -30.1716  -11.8954   17.6118 H   0  0  0  0  0  0
  -29.6768  -13.5515   17.8031 H   0  0  0  0  0  0
  -28.1351  -11.0615   18.6404 H   0  0  0  0  0  0
  -27.6022  -12.3291   17.5496 H   0  0  0  0  0  0
  -27.7368  -13.9183   19.3031 H   0  0  0  0  0  0
  -28.6410  -11.4671   20.9501 H   0  0  0  0  0  0
  -27.9165  -12.7502   21.8446 H   0  0  0  0  0  0
  -25.2718   -9.6743   22.4027 H   0  0  0  0  0  0
  -24.0410   -7.5425   22.7182 H   0  0  0  0  0  0
  -21.0415   -8.8975   19.9290 H   0  0  0  0  0  0
  -22.2573  -11.0277   19.6468 H   0  0  0  0  0  0
  -21.2170   -7.6254   23.9671 H   0  0  0  0  0  0
  -21.1446   -6.0600   25.8995 H   0  0  0  0  0  0
  -22.0580   -2.7688   23.2767 H   0  0  0  0  0  0
  -25.2476  -14.6612   23.7399 H   0  0  0  0  0  0
  -23.9545  -15.8493   23.6501 H   0  0  0  0  0  0
  -24.8584  -15.6683   19.2342 H   0  0  0  0  0  0
  -26.4412  -15.2578   18.8319 H   0  0  0  0  0  0
  -26.7404  -32.5049   23.0924 H   0  0  0  0  0  0
  -25.0148  -33.9515   25.0236 H   0  0  0  0  0  0
  -22.7727  -31.3125   21.4025 H   0  0  0  0  0  0
  -23.3776  -35.9494   23.3264 H   0  0  0  0  0  0
  -24.3561  -36.8889   22.2062 H   0  0  0  0  0  0
  -23.7201  -37.6355   23.6730 H   0  0  0  0  0  0
  -26.2515  -31.3427   20.6619 H   0  0  0  0  0  0
  -26.8907  -30.6266   22.0970 H   0  0  0  0  0  0
  -27.9480  -28.3499   21.4723 H   0  0  0  0  0  0
  -25.6130  -25.8402   18.8415 H   0  0  0  0  0  0
  -23.8880  -27.4861   18.7851 H   0  0  0  0  0  0
  -23.8757  -30.6442   19.4179 H   0  0  0  0  0  0
  -22.7784  -29.3516   19.7929 H   0  0  0  0  0  0
  -25.1323  -36.1766   25.0780 H   0  0  0  0  0  0
  -21.0054  -28.3384   24.1280 H   0  0  0  0  0  0
  -20.5696  -26.2380   23.3642 H   0  0  0  0  0  0
  -21.6665  -26.7413   22.1187 H   0  0  0  0  0  0
  -19.6921  -25.6250   21.1294 H   0  0  0  0  0  0
  -19.6710  -27.3130   20.6711 H   0  0  0  0  0  0
  -17.4219  -26.6687   21.4028 H   0  0  0  0  0  0
  -18.0342  -26.0106   22.9039 H   0  0  0  0  0  0
  -19.7972  -30.7332   24.2175 H   0  0  0  0  0  0
  -17.5042  -31.6277   24.5166 H   0  0  0  0  0  0
  -15.5376  -30.2964   23.7720 H   0  0  0  0  0  0
  -15.8704  -28.0807   22.7113 H   0  0  0  0  0  0
  -24.5849  -30.7211   25.7758 H   0  0  0  0  0  0
  -24.8843  -32.3082   26.4710 H   0  0  0  0  0  0
  -25.7854  -30.9134   27.0327 H   0  0  0  0  0  0
  -26.3147  -29.6557   24.1645 H   0  0  0  0  0  0
  -27.3930  -29.7343   25.5347 H   0  0  0  0  0  0
  -27.9132  -30.4056   24.0115 H   0  0  0  0  0  0
  -27.2625  -33.3752   26.2015 H   0  0  0  0  0  0
  -28.3929  -32.6879   25.0459 H   0  0  0  0  0  0
  -28.0655  -31.8638   26.5621 H   0  0  0  0  0  0
  -28.2548  -38.0097   24.7547 H   0  0  0  0  0  0
  -28.1110  -36.2625   24.6241 H   0  0  0  0  0  0
  -27.2299  -37.1339   25.8865 H   0  0  0  0  0  0
  -20.9535  -29.8801   21.6685 H   0  0  0  0  0  0
  -26.0114  -38.2767   24.1457 H   0  0  0  0  0  0
  -22.3383  -17.2695   22.2703 H   0  0  0  0  0  0
  -26.2513  -12.4337   23.0128 H   0  0  0  0  0  0
  -24.3926  -18.2591   23.6348 H   0  0  0  0  0  0
  -23.5716  -19.3357   22.4841 H   0  0  0  0  0  0
  -25.0770  -19.8099   23.2813 H   0  0  0  0  0  0
  -28.8635  -22.7299   21.6336 H   0  0  0  0  0  0
  -28.3885  -21.0518   21.8983 H   0  0  0  0  0  0
  -27.6559  -22.3397   22.8572 H   0  0  0  0  0  0
  -25.9683  -24.3044   21.4256 H   0  0  0  0  0  0
  -26.0472  -24.0532   19.7365 H   0  0  0  0  0  0
  -27.3223  -21.9254   19.8648 H   0  0  0  0  0  0
  -20.6004  -15.3341   24.0379 H   0  0  0  0  0  0
  -20.8837  -13.6961   24.2458 H   0  0  0  0  0  0
  -23.6657  -11.0325   23.8717 H   0  0  0  0  0  0
  -22.1579  -11.7712   24.1015 H   0  0  0  0  0  0
  -28.1379  -16.2030   21.5820 H   0  0  0  0  0  0
  1 25  1  0  0  0
  1 30  2  0  0  0
  1 85  1  0  0  0
  2  3  1  0  0  0
  2 25  1  0  0  0
  2 87  1  0  0  0
  2 88  1  0  0  0
  3  4  1  0  0  0
  3 89  1  0  0  0
  3 90  1  0  0  0
  4  5  1  0  0  0
  4 91  1  0  0  0
  4 92  1  0  0  0
  5  6  1  0  0  0
  5 26  1  0  0  0
  5 93  1  0  0  0
  6 25  1  0  0  0
  6 94  1  0  0  0
  6 95  1  0  0  0
  7  8  2  0  0  0
  7 26  1  0  0  0
  7 29  1  0  0  0
  8  9  1  0  0  0
  8 22  1  0  0  0
  9 10  1  0  0  0
  9 27  2  0  0  0
 10 11  2  0  0  0
 10 15  1  0  0  0
 11 12  1  0  0  0
 11 96  1  0  0  0
 12 13  2  0  0  0
 12 97  1  0  0  0
 13 14  1  0  0  0
 13 31  1  0  0  0
 14 15  2  0  0  0
 14 98  1  0  0  0
 15 99  1  0  0  0
 16 17  2  0  0  0
 16 21  1  0  0  0
 16 31  1  0  0  0
 17 18  1  0  0  0
 17100  1  0  0  0
 18 19  2  0  0  0
 18101  1  0  0  0
 19 20  1  0  0  0
 19 24  1  0  0  0
 20 21  2  0  0  0
 20102  1  0  0  0
 21 23  1  0  0  0
 22 28  1  0  0  0
 22 32  2  0  0  0
 26 27  1  0  0  0
 28103  1  0  0  0
 28104  1  0  0  0
 29105  1  0  0  0
 29106  1  0  0  0
 33 34  1  0  0  0
 33 66  1  0  0  0
 33 70  2  0  0  0
 34 36  1  0  0  0
 34 59  1  0  0  0
 34107  1  0  0  0
 35 44  2  0  0  0
 35 45  1  0  0  0
 35 68  1  0  0  0
 36 56  1  0  0  0
 36108  1  0  0  0
 37 39  1  0  0  0
 37 47  1  0  0  0
 37 66  1  0  0  0
 37109  1  0  0  0
 38 43  2  0  0  0
 38 46  1  0  0  0
 38 47  1  0  0  0
 39 64  1  0  0  0
 39 67  2  0  0  0
 40 52  1  0  0  0
 40 53  2  0  0  0
 40 58  1  0  0  0
 41110  1  0  0  0
 41111  1  0  0  0
 41112  1  0  0  0
 41 48  1  0  0  0
 42 43  1  0  0  0
 42 66  1  0  0  0
 42113  1  0  0  0
 42114  1  0  0  0
 43 44  1  0  0  0
 44115  1  0  0  0
 45 46  2  0  0  0
 45116  1  0  0  0
 46117  1  0  0  0
 47118  1  0  0  0
 47119  1  0  0  0
 48 56  1  0  0  0
 48 65  1  0  0  0
 48120  1  0  0  0
 49 50  1  0  0  0
 49 53  1  0  0  0
 49 64  1  0  0  0
 49121  1  0  0  0
 50 51  1  0  0  0
 50122  1  0  0  0
 50123  1  0  0  0
 51 52  1  0  0  0
 51124  1  0  0  0
 51125  1  0  0  0
 52126  1  0  0  0
 52127  1  0  0  0
 53 54  1  0  0  0
 54 55  2  0  0  0
 54128  1  0  0  0
 55 57  1  0  0  0
 55129  1  0  0  0
 56 69  2  0  0  0
 57 58  2  0  0  0
 57130  1  0  0  0
 58131  1  0  0  0
 59 60  1  0  0  0
 59 61  1  0  0  0
 59 62  1  0  0  0
 60132  1  0  0  0
 60133  1  0  0  0
 60134  1  0  0  0
 61135  1  0  0  0
 61136  1  0  0  0
 61137  1  0  0  0
 62138  1  0  0  0
 62139  1  0  0  0
 62140  1  0  0  0
 63 65  1  0  0  0
 63141  1  0  0  0
 63142  1  0  0  0
 63143  1  0  0  0
 64144  1  0  0  0
 65145  1  0  0  0
 68 80  1  0  0  0
 71 73  2  0  0  0
 71 74  1  0  0  0
 71146  1  0  0  0
 72 75  2  0  0  0
 72 76  1  0  0  0
 72147  1  0  0  0
 73 75  1  0  0  0
 73 77  1  0  0  0
 74 76  2  0  0  0
 74 83  1  0  0  0
 75 85  1  0  0  0
 76 84  1  0  0  0
 77 78  1  0  0  0
 77 82  2  0  0  0
 78148  1  0  0  0
 78149  1  0  0  0
 78150  1  0  0  0
 79151  1  0  0  0
 79152  1  0  0  0
 79153  1  0  0  0
 79 81  1  0  0  0
 80 81  1  0  0  0
 80154  1  0  0  0
 80155  1  0  0  0
 81 86  1  0  0  0
 81156  1  0  0  0
 82 86  1  0  0  0
 83157  1  0  0  0
 83158  1  0  0  0
 84159  1  0  0  0
 84160  1  0  0  0
 85161  1  0  0  0
M  ISO  4   1 100  68 101  80 101  85 100
M  END
> <chiral flag>
0

> <version>
0

> <s_m_source_file>
/data/baiqing/PycharmProjects/Reinvent-master-3.2/result/LINK_invent/BTK/process_docking_weight1_custom_product_contain_oxygen_bond_distance_aromatic_linkinvent_7_9_3/rearranged_h_0093.sdf

> <i_m_source_file_index>
47

> <r_mmod_Potential_Energy-OPLS-2005>
13824.7734375

> <r_mmod_Stretch_Energy-OPLS-2005>
7462.064453125

> <r_mmod_Bend_Energy-OPLS-2005>
763.340209960938

> <r_mmod_Torsional_Energy-OPLS-2005>
397.850402832031

> <r_mmod_Improper_Torsional_Energy-OPLS-2005>
40.138801574707

> <r_mmod_Van_der_Waal_Energy-OPLS-2005>
3124.78076171875

> <r_mmod_Electrostatic_Energy-OPLS-2005>
-459.437896728516

> <r_mmod_Solvation_Energy-OPLS-2005>
-234.753601074219

> <b_mmod_Minimization_Converged-OPLS-2005>
0

> <r_mmod_RMS_Derivative-OPLS-2005>
7.10135364532471

$$$$
48
                    3D
 Structure written by MMmdl.
159168  0  0  1  0            999 V2000
  -30.7366  -14.4537   20.6250 C   0  0  0  0  0  0
  -30.4190  -12.3189   19.4169 C   0  0  0  0  0  0
  -29.4897  -12.5151   18.2034 C   0  0  0  0  0  0
  -28.0132  -12.3695   18.6191 C   0  0  0  0  0  0
  -27.6608  -13.2105   19.8751 C   0  0  2  0  0  0
  -28.7026  -12.9952   20.9952 C   0  0  0  0  0  0
  -25.2582  -13.8165   20.5693 C   0  0  0  0  0  0
  -24.1831  -13.0439   20.9180 C   0  0  0  0  0  0
  -24.6391  -11.6907   20.8730 C   0  0  0  0  0  0
  -23.9051  -10.4293   21.0397 C   0  0  0  0  0  0
  -24.3602   -9.4211   21.9183 C   0  0  0  0  0  0
  -23.6284   -8.2243   22.0750 C   0  0  0  0  0  0
  -22.4267   -8.0280   21.3539 C   0  0  0  0  0  0
  -21.9897   -9.0253   20.4641 C   0  0  0  0  0  0
  -22.7220  -10.2139   20.3051 C   0  0  0  0  0  0
  -21.6849   -6.0732   22.5277 C   0  0  0  0  0  0
  -21.4009   -6.5637   23.8211 C   0  0  0  0  0  0
  -21.3664   -5.6790   24.9176 C   0  0  0  0  0  0
  -21.6049   -4.3052   24.7225 C   0  0  0  0  0  0
  -21.8821   -3.8143   23.4345 C   0  0  0  0  0  0
  -21.9189   -4.6959   22.3400 C   0  0  0  0  0  0
  -22.7852  -13.5237   21.1841 C   0  0  0  0  0  0
  -22.1658   -4.2145   21.0980 F   0  0  0  0  0  0
  -21.5631   -3.4540   25.7740 F   0  0  0  0  0  0
  -30.0347  -13.3004   20.4454 N   0  0  0  0  0  0
  -26.3021  -12.9343   20.3375 N   0  0  0  0  0  0
  -25.9319  -11.6498   20.5765 N   0  0  0  0  0  0
  -22.0491  -12.8236   22.0406 N   0  0  0  0  0  0
  -25.4304  -15.1885   20.4118 N   0  0  0  0  0  0
  -31.8291  -14.6556   20.0886 O   0  0  0  0  0  0
  -21.6630   -6.8874   21.4239 O   0  0  0  0  0  0
  -22.3535  -14.5535   20.6677 O   0  0  0  0  0  0
  -24.6174  -31.8686   23.2123 C   0  0  0  0  0  0
  -25.9067  -32.4823   23.8414 C   0  0  1  0  0  0
  -27.2203  -27.4059   20.1008 C   0  0  0  0  0  0
  -25.5918  -33.8622   24.2337 N   0  0  0  0  0  0
  -23.4065  -30.4947   21.5535 C   0  0  2  0  0  0
  -24.8524  -28.9641   20.1156 C   0  0  0  0  0  0
  -22.7426  -29.4663   22.4985 C   0  0  0  0  0  0
  -18.0282  -28.1367   22.8490 C   0  0  0  0  0  0
  -24.1484  -36.7315   23.2635 C   0  0  0  0  0  0
  -25.9410  -30.8187   21.3794 C   0  0  0  0  0  0
  -26.0134  -29.4503   20.7321 C   0  0  0  0  0  0
  -27.2004  -28.6732   20.7361 C   0  0  0  0  0  0
  -26.0611  -26.9814   19.4245 C   0  0  0  0  0  0
  -24.8715  -27.7257   19.4591 C   0  0  0  0  0  0
  -23.6174  -29.8346   20.1664 C   0  0  0  0  0  0
  -25.4105  -36.3113   24.0335 C   0  0  1  0  0  0
  -20.5873  -28.3667   23.1307 C   0  0  2  0  0  0
  -20.6776  -26.9401   22.5416 C   0  0  0  0  0  0
  -19.5758  -26.6380   21.5209 C   0  0  0  0  0  0
  -18.1936  -26.7913   22.1624 C   0  0  0  0  0  0
  -19.1529  -28.8835   23.2895 C   0  0  0  0  0  0
  -18.9452  -30.1441   23.8907 C   0  0  0  0  0  0
  -17.6453  -30.6578   24.0558 C   0  0  0  0  0  0
  -25.9036  -34.9476   23.5130 C   0  0  0  0  0  0
  -16.5346  -29.9077   23.6321 C   0  0  0  0  0  0
  -16.7270  -28.6490   23.0350 C   0  0  0  0  0  0
  -26.4486  -31.6596   25.0740 C   0  0  0  0  0  0
  -25.3749  -31.3705   26.1483 C   0  0  0  0  0  0
  -27.0315  -30.3026   24.6137 C   0  0  0  0  0  0
  -27.6058  -32.4319   25.7502 C   0  0  0  0  0  0
  -27.5578  -37.1811   24.8467 C   0  0  0  0  0  0
  -21.4149  -29.3042   22.3720 N   0  0  0  0  0  0
  -26.4294  -37.3795   23.9410 N   0  0  0  0  0  0
  -24.6728  -31.0759   22.1053 N   0  0  0  0  0  0
  -23.4188  -28.8196   23.3028 O   0  0  0  0  0  0
  -28.3471  -26.6033   20.0619 O   0  0  0  0  0  0
  -26.5589  -34.8930   22.4683 O   0  0  0  0  0  0
  -23.5357  -32.1462   23.7489 O   0  0  0  0  0  0
  -29.3166  -18.0879   20.3465 C   0  0  0  0  0  0
  -30.4734  -19.1351   22.1986 C   0  0  0  0  0  0
  -28.7504  -19.3392   20.0123 C   0  0  0  0  0  0
  -29.9068  -20.3876   21.8619 C   0  0  0  0  0  0
  -30.1716  -17.9661   21.4611 C   0  0  0  0  0  0
  -29.0115  -20.5108   20.7751 C   0  0  0  0  0  0
  -28.7949  -23.0422   20.7789 C   0  0  0  0  0  0
  -28.0043  -24.1523   20.7145 C   0  0  0  0  0  0
  -26.0135  -22.6232   20.5981 C   0  0  0  0  0  0
  -26.5380  -24.0214   20.3126 C   0  0  0  0  0  0
  -26.9324  -21.5007   20.1266 C   0  0  0  0  0  0
  -30.7990  -16.6272   21.8812 C   0  0  0  0  0  0
  -28.4647  -25.5839   21.0888 C   0  0  0  0  0  0
  -28.3392  -21.7336   20.5011 N   0  0  0  0  0  0
  -30.1566  -15.3928   21.3953 N   0  0  0  0  0  0
  -24.9286  -22.4184   21.1493 O   0  0  0  0  0  0
  -31.4617  -12.4173   19.1106 H   0  0  0  0  0  0
  -30.3222  -11.3070   19.8138 H   0  0  0  0  0  0
  -29.7314  -11.7933   17.4218 H   0  0  0  0  0  0
  -29.6540  -13.5036   17.7704 H   0  0  0  0  0  0
  -27.8266  -11.3129   18.8155 H   0  0  0  0  0  0
  -27.3585  -12.6409   17.7900 H   0  0  0  0  0  0
  -27.7047  -14.2589   19.5797 H   0  0  0  0  0  0
  -28.6818  -11.9591   21.3357 H   0  0  0  0  0  0
  -28.4557  -13.5931   21.8727 H   0  0  0  0  0  0
  -25.2750   -9.5692   22.4755 H   0  0  0  0  0  0
  -23.9996   -7.4634   22.7469 H   0  0  0  0  0  0
  -21.0827   -8.8766   19.8945 H   0  0  0  0  0  0
  -22.3674  -10.9671   19.6155 H   0  0  0  0  0  0
  -21.1997   -7.6144   23.9714 H   0  0  0  0  0  0
  -21.1485   -6.0521   25.9079 H   0  0  0  0  0  0
  -22.0597   -2.7603   23.2845 H   0  0  0  0  0  0
  -22.4099  -11.9897   22.4796 H   0  0  0  0  0  0
  -21.1111  -13.1270   22.2604 H   0  0  0  0  0  0
  -24.6683  -15.8467   20.5298 H   0  0  0  0  0  0
  -26.2891  -15.6282   20.1053 H   0  0  0  0  0  0
  -26.7134  -32.5528   23.1174 H   0  0  0  0  0  0
  -25.0090  -33.9787   25.0495 H   0  0  0  0  0  0
  -22.6970  -31.3130   21.4165 H   0  0  0  0  0  0
  -23.3742  -35.9653   23.3311 H   0  0  0  0  0  0
  -24.3580  -36.8913   22.2049 H   0  0  0  0  0  0
  -23.7243  -37.6527   23.6637 H   0  0  0  0  0  0
  -26.0631  -31.5806   20.6081 H   0  0  0  0  0  0
  -26.8267  -30.8695   22.0008 H   0  0  0  0  0  0
  -28.0937  -29.0408   21.2217 H   0  0  0  0  0  0
  -26.0701  -26.0828   18.8350 H   0  0  0  0  0  0
  -23.9933  -27.3596   18.9452 H   0  0  0  0  0  0
  -23.7302  -30.6134   19.4114 H   0  0  0  0  0  0
  -22.7404  -29.2587   19.8657 H   0  0  0  0  0  0
  -25.1281  -36.1979   25.0829 H   0  0  0  0  0  0
  -20.9955  -28.3233   24.1431 H   0  0  0  0  0  0
  -20.5672  -26.2275   23.3604 H   0  0  0  0  0  0
  -21.6650  -26.7442   22.1216 H   0  0  0  0  0  0
  -19.6924  -25.6292   21.1237 H   0  0  0  0  0  0
  -19.6694  -27.3194   20.6742 H   0  0  0  0  0  0
  -17.4206  -26.6652   21.4027 H   0  0  0  0  0  0
  -18.0344  -26.0053   22.9019 H   0  0  0  0  0  0
  -19.7927  -30.7254   24.2281 H   0  0  0  0  0  0
  -17.5009  -31.6257   24.5154 H   0  0  0  0  0  0
  -15.5347  -30.2982   23.7634 H   0  0  0  0  0  0
  -15.8670  -28.0806   22.7068 H   0  0  0  0  0  0
  -24.5927  -30.7043   25.7827 H   0  0  0  0  0  0
  -24.8938  -32.2861   26.4933 H   0  0  0  0  0  0
  -25.8108  -30.8880   27.0238 H   0  0  0  0  0  0
  -26.2863  -29.6792   24.1180 H   0  0  0  0  0  0
  -27.4055  -29.7264   25.4610 H   0  0  0  0  0  0
  -27.8721  -30.4333   23.9317 H   0  0  0  0  0  0
  -27.2667  -33.3607   26.2104 H   0  0  0  0  0  0
  -28.3854  -32.6897   25.0321 H   0  0  0  0  0  0
  -28.0740  -31.8429   26.5399 H   0  0  0  0  0  0
  -28.2606  -38.0099   24.7506 H   0  0  0  0  0  0
  -28.1062  -36.2631   24.6300 H   0  0  0  0  0  0
  -27.2294  -37.1473   25.8870 H   0  0  0  0  0  0
  -20.9298  -29.8792   21.6971 H   0  0  0  0  0  0
  -26.0181  -38.2874   24.1405 H   0  0  0  0  0  0
  -29.0822  -17.2230   19.7418 H   0  0  0  0  0  0
  -31.1353  -19.0726   23.0512 H   0  0  0  0  0  0
  -28.0943  -19.3799   19.1551 H   0  0  0  0  0  0
  -30.1353  -21.2451   22.4783 H   0  0  0  0  0  0
  -29.8357  -23.1016   21.0704 H   0  0  0  0  0  0
  -26.4487  -24.1818   19.2413 H   0  0  0  0  0  0
  -25.9259  -24.7473   20.8471 H   0  0  0  0  0  0
  -26.8529  -21.4204   19.0424 H   0  0  0  0  0  0
  -26.5545  -20.5699   20.5515 H   0  0  0  0  0  0
  -30.7898  -16.5778   22.9710 H   0  0  0  0  0  0
  -31.8542  -16.6540   21.6044 H   0  0  0  0  0  0
  -29.5155  -25.5389   21.3769 H   0  0  0  0  0  0
  -27.9266  -25.8933   21.9866 H   0  0  0  0  0  0
  -29.2470  -15.1734   21.7716 H   0  0  0  0  0  0
  1 25  1  0  0  0
  1 30  2  0  0  0
  1 85  1  0  0  0
  2  3  1  0  0  0
  2 25  1  0  0  0
  2 87  1  0  0  0
  2 88  1  0  0  0
  3  4  1  0  0  0
  3 89  1  0  0  0
  3 90  1  0  0  0
  4  5  1  0  0  0
  4 91  1  0  0  0
  4 92  1  0  0  0
  5  6  1  0  0  0
  5 26  1  0  0  0
  5 93  1  0  0  0
  6 25  1  0  0  0
  6 94  1  0  0  0
  6 95  1  0  0  0
  7  8  2  0  0  0
  7 26  1  0  0  0
  7 29  1  0  0  0
  8  9  1  0  0  0
  8 22  1  0  0  0
  9 10  1  0  0  0
  9 27  2  0  0  0
 10 11  2  0  0  0
 10 15  1  0  0  0
 11 12  1  0  0  0
 11 96  1  0  0  0
 12 13  2  0  0  0
 12 97  1  0  0  0
 13 14  1  0  0  0
 13 31  1  0  0  0
 14 15  2  0  0  0
 14 98  1  0  0  0
 15 99  1  0  0  0
 16 17  2  0  0  0
 16 21  1  0  0  0
 16 31  1  0  0  0
 17 18  1  0  0  0
 17100  1  0  0  0
 18 19  2  0  0  0
 18101  1  0  0  0
 19 20  1  0  0  0
 19 24  1  0  0  0
 20 21  2  0  0  0
 20102  1  0  0  0
 21 23  1  0  0  0
 22 28  1  0  0  0
 22 32  2  0  0  0
 26 27  1  0  0  0
 28103  1  0  0  0
 28104  1  0  0  0
 29105  1  0  0  0
 29106  1  0  0  0
 33 34  1  0  0  0
 33 66  1  0  0  0
 33 70  2  0  0  0
 34 36  1  0  0  0
 34 59  1  0  0  0
 34107  1  0  0  0
 35 44  2  0  0  0
 35 45  1  0  0  0
 35 68  1  0  0  0
 36 56  1  0  0  0
 36108  1  0  0  0
 37 39  1  0  0  0
 37 47  1  0  0  0
 37 66  1  0  0  0
 37109  1  0  0  0
 38 43  2  0  0  0
 38 46  1  0  0  0
 38 47  1  0  0  0
 39 64  1  0  0  0
 39 67  2  0  0  0
 40 52  1  0  0  0
 40 53  2  0  0  0
 40 58  1  0  0  0
 41110  1  0  0  0
 41111  1  0  0  0
 41112  1  0  0  0
 41 48  1  0  0  0
 42 43  1  0  0  0
 42 66  1  0  0  0
 42113  1  0  0  0
 42114  1  0  0  0
 43 44  1  0  0  0
 44115  1  0  0  0
 45 46  2  0  0  0
 45116  1  0  0  0
 46117  1  0  0  0
 47118  1  0  0  0
 47119  1  0  0  0
 48 56  1  0  0  0
 48 65  1  0  0  0
 48120  1  0  0  0
 49 50  1  0  0  0
 49 53  1  0  0  0
 49 64  1  0  0  0
 49121  1  0  0  0
 50 51  1  0  0  0
 50122  1  0  0  0
 50123  1  0  0  0
 51 52  1  0  0  0
 51124  1  0  0  0
 51125  1  0  0  0
 52126  1  0  0  0
 52127  1  0  0  0
 53 54  1  0  0  0
 54 55  2  0  0  0
 54128  1  0  0  0
 55 57  1  0  0  0
 55129  1  0  0  0
 56 69  2  0  0  0
 57 58  2  0  0  0
 57130  1  0  0  0
 58131  1  0  0  0
 59 60  1  0  0  0
 59 61  1  0  0  0
 59 62  1  0  0  0
 60132  1  0  0  0
 60133  1  0  0  0
 60134  1  0  0  0
 61135  1  0  0  0
 61136  1  0  0  0
 61137  1  0  0  0
 62138  1  0  0  0
 62139  1  0  0  0
 62140  1  0  0  0
 63 65  1  0  0  0
 63141  1  0  0  0
 63142  1  0  0  0
 63143  1  0  0  0
 64144  1  0  0  0
 65145  1  0  0  0
 68 83  1  0  0  0
 71 73  2  0  0  0
 71 75  1  0  0  0
 71146  1  0  0  0
 72 74  1  0  0  0
 72 75  2  0  0  0
 72147  1  0  0  0
 73 76  1  0  0  0
 73148  1  0  0  0
 74 76  2  0  0  0
 74149  1  0  0  0
 75 82  1  0  0  0
 76 84  1  0  0  0
 77 78  2  0  0  0
 77 84  1  0  0  0
 77150  1  0  0  0
 78 80  1  0  0  0
 78 83  1  0  0  0
 79 80  1  0  0  0
 79 81  1  0  0  0
 79 86  2  0  0  0
 80151  1  0  0  0
 80152  1  0  0  0
 81 84  1  0  0  0
 81153  1  0  0  0
 81154  1  0  0  0
 82 85  1  0  0  0
 82155  1  0  0  0
 82156  1  0  0  0
 83157  1  0  0  0
 83158  1  0  0  0
 85159  1  0  0  0
M  ISO  4   1 100  68 101  83 101  85 100
M  END
> <chiral flag>
0

> <version>
0

> <s_m_source_file>
/data/baiqing/PycharmProjects/Reinvent-master-3.2/result/LINK_invent/BTK/process_docking_weight1_custom_product_contain_oxygen_bond_distance_aromatic_linkinvent_7_9_3/rearranged_h_0093.sdf

> <i_m_source_file_index>
48

> <r_mmod_Potential_Energy-OPLS-2005>
-54.8004531860352

> <r_mmod_Stretch_Energy-OPLS-2005>
46.3572654724121

> <r_mmod_Bend_Energy-OPLS-2005>
102.818702697754

> <r_mmod_Torsional_Energy-OPLS-2005>
228.618118286133

> <r_mmod_Improper_Torsional_Energy-OPLS-2005>
2.65953683853149

> <r_mmod_Van_der_Waal_Energy-OPLS-2005>
172.312225341797

> <r_mmod_Electrostatic_Energy-OPLS-2005>
-397.964233398438

> <r_mmod_Solvation_Energy-OPLS-2005>
-224.743499755859

> <b_mmod_Minimization_Converged-OPLS-2005>
0

> <r_mmod_RMS_Derivative-OPLS-2005>
0.959255754947662

$$$$
49
                    3D
 Structure written by MMmdl.
159168  0  0  1  0            999 V2000
  -30.6716  -14.7002   20.3781 C   0  0  0  0  0  0
  -30.4365  -12.4013   19.4523 C   0  0  0  0  0  0
  -29.4944  -12.3774   18.2245 C   0  0  0  0  0  0
  -28.0173  -12.2949   18.6496 C   0  0  0  0  0  0
  -27.6449  -13.2268   19.8371 C   0  0  2  0  0  0
  -28.7081  -13.1904   20.9568 C   0  0  0  0  0  0
  -25.2571  -13.8223   20.5743 C   0  0  0  0  0  0
  -24.1846  -13.0472   20.9230 C   0  0  0  0  0  0
  -24.6425  -11.6946   20.8788 C   0  0  0  0  0  0
  -23.9099  -10.4314   21.0440 C   0  0  0  0  0  0
  -24.3642   -9.4221   21.9209 C   0  0  0  0  0  0
  -23.6312   -8.2256   22.0764 C   0  0  0  0  0  0
  -22.4294   -8.0308   21.3556 C   0  0  0  0  0  0
  -21.9943   -9.0286   20.4653 C   0  0  0  0  0  0
  -22.7280  -10.2160   20.3077 C   0  0  0  0  0  0
  -21.6849   -6.0764   22.5294 C   0  0  0  0  0  0
  -21.4001   -6.5656   23.8231 C   0  0  0  0  0  0
  -21.3655   -5.6806   24.9190 C   0  0  0  0  0  0
  -21.6047   -4.3071   24.7239 C   0  0  0  0  0  0
  -21.8808   -3.8167   23.4353 C   0  0  0  0  0  0
  -21.9188   -4.6990   22.3414 C   0  0  0  0  0  0
  -22.7862  -13.5250   21.1869 C   0  0  0  0  0  0
  -22.1659   -4.2175   21.0994 F   0  0  0  0  0  0
  -21.5629   -3.4552   25.7747 F   0  0  0  0  0  0
  -30.0035  -13.4989   20.3389 N   0  0  0  0  0  0
  -26.3005  -12.9417   20.3342 N   0  0  0  0  0  0
  -25.9367  -11.6571   20.5855 N   0  0  0  0  0  0
  -22.0491  -12.8233   22.0400 N   0  0  0  0  0  0
  -25.4285  -15.1937   20.4138 N   0  0  0  0  0  0
  -31.9023  -14.7208   20.3041 O   0  0  0  0  0  0
  -21.6646   -6.8919   21.4259 O   0  0  0  0  0  0
  -22.3553  -14.5571   20.6733 O   0  0  0  0  0  0
  -24.6258  -31.8636   23.2063 C   0  0  0  0  0  0
  -25.9119  -32.4796   23.8384 C   0  0  1  0  0  0
  -27.2184  -27.3236   20.1278 C   0  0  0  0  0  0
  -25.5931  -33.8596   24.2317 N   0  0  0  0  0  0
  -23.4187  -30.4924   21.5473 C   0  0  2  0  0  0
  -24.8671  -28.9598   20.1058 C   0  0  0  0  0  0
  -22.7485  -29.4657   22.4917 C   0  0  0  0  0  0
  -18.0302  -28.1369   22.8497 C   0  0  0  0  0  0
  -24.1480  -36.7291   23.2635 C   0  0  0  0  0  0
  -25.9616  -30.7990   21.3783 C   0  0  0  0  0  0
  -26.0354  -29.4287   20.7190 C   0  0  0  0  0  0
  -27.2121  -28.6213   20.7266 C   0  0  0  0  0  0
  -26.0307  -26.9292   19.4585 C   0  0  0  0  0  0
  -24.8684  -27.7163   19.4643 C   0  0  0  0  0  0
  -23.6317  -29.8339   20.1599 C   0  0  0  0  0  0
  -25.4096  -36.3100   24.0350 C   0  0  1  0  0  0
  -20.5901  -28.3677   23.1278 C   0  0  2  0  0  0
  -20.6775  -26.9394   22.5417 C   0  0  0  0  0  0
  -19.5742  -26.6370   21.5226 C   0  0  0  0  0  0
  -18.1921  -26.7920   22.1632 C   0  0  0  0  0  0
  -19.1549  -28.8838   23.2890 C   0  0  0  0  0  0
  -18.9472  -30.1435   23.8909 C   0  0  0  0  0  0
  -17.6471  -30.6574   24.0558 C   0  0  0  0  0  0
  -25.9054  -34.9467   23.5141 C   0  0  0  0  0  0
  -16.5362  -29.9069   23.6334 C   0  0  0  0  0  0
  -16.7291  -28.6485   23.0367 C   0  0  0  0  0  0
  -26.4496  -31.6597   25.0747 C   0  0  0  0  0  0
  -25.3722  -31.3727   26.1469 C   0  0  0  0  0  0
  -27.0342  -30.3024   24.6194 C   0  0  0  0  0  0
  -27.6064  -32.4324   25.7503 C   0  0  0  0  0  0
  -27.5597  -37.1764   24.8440 C   0  0  0  0  0  0
  -21.4193  -29.3044   22.3664 N   0  0  0  0  0  0
  -26.4260  -37.3808   23.9465 N   0  0  0  0  0  0
  -24.6876  -31.0673   22.0998 N   0  0  0  0  0  0
  -23.4219  -28.8196   23.2990 O   0  0  0  0  0  0
  -28.3102  -26.4387   20.2312 O   0  0  0  0  0  0
  -26.5606  -34.8924   22.4696 O   0  0  0  0  0  0
  -23.5427  -32.1419   23.7411 O   0  0  0  0  0  0
  -28.7198  -19.3367   19.6804 C   0  0  0  0  0  0
  -28.8479  -17.9346   19.5147 C   0  0  0  0  0  0
  -30.4130  -19.2684   21.3723 C   0  0  0  0  0  0
  -29.5246  -20.0725   20.5895 C   0  0  0  0  0  0
  -29.7962  -17.1433   20.2204 C   0  0  0  0  0  0
  -30.5528  -17.8487   21.2008 C   0  0  0  0  0  0
  -28.8782  -23.8202   20.5062 C   0  0  0  0  0  0
  -29.6684  -23.7158   21.5811 C   0  0  0  0  0  0
  -28.7676  -22.4604   19.9400 C   0  0  0  0  0  0
  -30.1290  -22.2857   21.7894 C   0  0  0  0  0  0
  -30.0218  -24.7850   22.5959 C   0  0  0  0  0  0
  -30.0846  -15.6862   18.2956 C   0  0  0  0  0  0
  -28.0123  -25.0104   19.9656 C   0  0  0  0  0  0
  -29.4363  -21.5468   20.7257 N   0  0  0  0  0  0
  -30.0030  -15.7511   19.7721 N   0  0  0  0  0  0
  -28.1597  -22.1905   18.8993 O   0  0  0  0  0  0
  -31.4595  -17.1861   21.9575 F   0  0  0  0  0  0
  -31.4711  -12.5210   19.1257 H   0  0  0  0  0  0
  -30.3947  -11.4510   19.9872 H   0  0  0  0  0  0
  -29.7390  -11.5173   17.6006 H   0  0  0  0  0  0
  -29.6376  -13.2319   17.5729 H   0  0  0  0  0  0
  -27.8305  -11.2576   18.9260 H   0  0  0  0  0  0
  -27.3701  -12.4971   17.7958 H   0  0  0  0  0  0
  -27.6293  -14.2394   19.4337 H   0  0  0  0  0  0
  -28.7385  -12.2121   21.4376 H   0  0  0  0  0  0
  -28.4731  -13.9175   21.7354 H   0  0  0  0  0  0
  -25.2786   -9.5690   22.4795 H   0  0  0  0  0  0
  -24.0020   -7.4640   22.7476 H   0  0  0  0  0  0
  -21.0880   -8.8821   19.8949 H   0  0  0  0  0  0
  -22.3760  -10.9712   19.6191 H   0  0  0  0  0  0
  -21.1979   -7.6157   23.9751 H   0  0  0  0  0  0
  -21.1488   -6.0530   25.9097 H   0  0  0  0  0  0
  -22.0582   -2.7628   23.2851 H   0  0  0  0  0  0
  -22.4065  -11.9866   22.4776 H   0  0  0  0  0  0
  -21.1116  -13.1270   22.2611 H   0  0  0  0  0  0
  -24.6676  -15.8540   20.5333 H   0  0  0  0  0  0
  -26.2951  -15.6324   20.1270 H   0  0  0  0  0  0
  -26.7193  -32.5471   23.1143 H   0  0  0  0  0  0
  -25.0090  -33.9754   25.0467 H   0  0  0  0  0  0
  -22.7143  -31.3147   21.4069 H   0  0  0  0  0  0
  -23.3777  -35.9584   23.3238 H   0  0  0  0  0  0
  -24.3605  -36.8970   22.2068 H   0  0  0  0  0  0
  -23.7185  -37.6456   23.6683 H   0  0  0  0  0  0
  -26.0941  -31.5636   20.6109 H   0  0  0  0  0  0
  -26.8431  -30.8464   22.0059 H   0  0  0  0  0  0
  -28.0989  -28.9717   21.2358 H   0  0  0  0  0  0
  -25.9519  -25.9879   18.9357 H   0  0  0  0  0  0
  -23.9766  -27.3573   18.9703 H   0  0  0  0  0  0
  -23.7424  -30.6125   19.4037 H   0  0  0  0  0  0
  -22.7548  -29.2584   19.8590 H   0  0  0  0  0  0
  -25.1255  -36.1948   25.0836 H   0  0  0  0  0  0
  -21.0015  -28.3253   24.1391 H   0  0  0  0  0  0
  -20.5670  -26.2289   23.3624 H   0  0  0  0  0  0
  -21.6636  -26.7412   22.1198 H   0  0  0  0  0  0
  -19.6899  -25.6288   21.1230 H   0  0  0  0  0  0
  -19.6675  -27.3196   20.6768 H   0  0  0  0  0  0
  -17.4203  -26.6718   21.4013 H   0  0  0  0  0  0
  -18.0282  -26.0043   22.8999 H   0  0  0  0  0  0
  -19.7942  -30.7241   24.2287 H   0  0  0  0  0  0
  -17.5023  -31.6257   24.5135 H   0  0  0  0  0  0
  -15.5353  -30.2966   23.7643 H   0  0  0  0  0  0
  -15.8698  -28.0790   22.7095 H   0  0  0  0  0  0
  -24.5935  -30.7034   25.7800 H   0  0  0  0  0  0
  -24.8852  -32.2874   26.4854 H   0  0  0  0  0  0
  -25.8035  -30.8951   27.0275 H   0  0  0  0  0  0
  -26.2922  -29.6769   24.1214 H   0  0  0  0  0  0
  -27.4050  -29.7293   25.4703 H   0  0  0  0  0  0
  -27.8784  -30.4329   23.9418 H   0  0  0  0  0  0
  -27.2718  -33.3663   26.2034 H   0  0  0  0  0  0
  -28.3885  -32.6823   25.0318 H   0  0  0  0  0  0
  -28.0708  -31.8463   26.5452 H   0  0  0  0  0  0
  -28.2498  -38.0171   24.7668 H   0  0  0  0  0  0
  -28.1203  -36.2724   24.6014 H   0  0  0  0  0  0
  -27.2352  -37.1110   25.8835 H   0  0  0  0  0  0
  -20.9373  -29.8795   21.6892 H   0  0  0  0  0  0
  -26.0143  -38.2857   24.1567 H   0  0  0  0  0  0
  -27.9876  -19.8274   19.0590 H   0  0  0  0  0  0
  -28.2198  -17.4728   18.7665 H   0  0  0  0  0  0
  -31.0413  -19.7438   22.1108 H   0  0  0  0  0  0
  -29.8284  -21.9214   22.7724 H   0  0  0  0  0  0
  -31.2126  -22.2154   21.6932 H   0  0  0  0  0  0
  -29.7099  -25.7775   22.2732 H   0  0  0  0  0  0
  -31.0994  -24.8066   22.7620 H   0  0  0  0  0  0
  -29.5402  -24.5696   23.5499 H   0  0  0  0  0  0
  -29.1154  -15.4308   17.8692 H   0  0  0  0  0  0
  -30.8243  -14.9749   17.9257 H   0  0  0  0  0  0
  -30.4004  -16.6347   17.8589 H   0  0  0  0  0  0
  -27.0296  -24.7722   20.3739 H   0  0  0  0  0  0
  -27.9446  -24.8930   18.8840 H   0  0  0  0  0  0
  1 25  1  0  0  0
  1 30  2  0  0  0
  1 85  1  0  0  0
  2  3  1  0  0  0
  2 25  1  0  0  0
  2 88  1  0  0  0
  2 89  1  0  0  0
  3  4  1  0  0  0
  3 90  1  0  0  0
  3 91  1  0  0  0
  4  5  1  0  0  0
  4 92  1  0  0  0
  4 93  1  0  0  0
  5  6  1  0  0  0
  5 26  1  0  0  0
  5 94  1  0  0  0
  6 25  1  0  0  0
  6 95  1  0  0  0
  6 96  1  0  0  0
  7  8  2  0  0  0
  7 26  1  0  0  0
  7 29  1  0  0  0
  8  9  1  0  0  0
  8 22  1  0  0  0
  9 10  1  0  0  0
  9 27  2  0  0  0
 10 11  2  0  0  0
 10 15  1  0  0  0
 11 12  1  0  0  0
 11 97  1  0  0  0
 12 13  2  0  0  0
 12 98  1  0  0  0
 13 14  1  0  0  0
 13 31  1  0  0  0
 14 15  2  0  0  0
 14 99  1  0  0  0
 15100  1  0  0  0
 16 17  2  0  0  0
 16 21  1  0  0  0
 16 31  1  0  0  0
 17 18  1  0  0  0
 17101  1  0  0  0
 18 19  2  0  0  0
 18102  1  0  0  0
 19 20  1  0  0  0
 19 24  1  0  0  0
 20 21  2  0  0  0
 20103  1  0  0  0
 21 23  1  0  0  0
 22 28  1  0  0  0
 22 32  2  0  0  0
 26 27  1  0  0  0
 28104  1  0  0  0
 28105  1  0  0  0
 29106  1  0  0  0
 29107  1  0  0  0
 33 34  1  0  0  0
 33 66  1  0  0  0
 33 70  2  0  0  0
 34 36  1  0  0  0
 34 59  1  0  0  0
 34108  1  0  0  0
 35 44  2  0  0  0
 35 45  1  0  0  0
 35 68  1  0  0  0
 36 56  1  0  0  0
 36109  1  0  0  0
 37 39  1  0  0  0
 37 47  1  0  0  0
 37 66  1  0  0  0
 37110  1  0  0  0
 38 43  2  0  0  0
 38 46  1  0  0  0
 38 47  1  0  0  0
 39 64  1  0  0  0
 39 67  2  0  0  0
 40 52  1  0  0  0
 40 53  2  0  0  0
 40 58  1  0  0  0
 41111  1  0  0  0
 41112  1  0  0  0
 41113  1  0  0  0
 41 48  1  0  0  0
 42 43  1  0  0  0
 42 66  1  0  0  0
 42114  1  0  0  0
 42115  1  0  0  0
 43 44  1  0  0  0
 44116  1  0  0  0
 45 46  2  0  0  0
 45117  1  0  0  0
 46118  1  0  0  0
 47119  1  0  0  0
 47120  1  0  0  0
 48 56  1  0  0  0
 48 65  1  0  0  0
 48121  1  0  0  0
 49 50  1  0  0  0
 49 53  1  0  0  0
 49 64  1  0  0  0
 49122  1  0  0  0
 50 51  1  0  0  0
 50123  1  0  0  0
 50124  1  0  0  0
 51 52  1  0  0  0
 51125  1  0  0  0
 51126  1  0  0  0
 52127  1  0  0  0
 52128  1  0  0  0
 53 54  1  0  0  0
 54 55  2  0  0  0
 54129  1  0  0  0
 55 57  1  0  0  0
 55130  1  0  0  0
 56 69  2  0  0  0
 57 58  2  0  0  0
 57131  1  0  0  0
 58132  1  0  0  0
 59 60  1  0  0  0
 59 61  1  0  0  0
 59 62  1  0  0  0
 60133  1  0  0  0
 60134  1  0  0  0
 60135  1  0  0  0
 61136  1  0  0  0
 61137  1  0  0  0
 61138  1  0  0  0
 62139  1  0  0  0
 62140  1  0  0  0
 62141  1  0  0  0
 63 65  1  0  0  0
 63142  1  0  0  0
 63143  1  0  0  0
 63144  1  0  0  0
 64145  1  0  0  0
 65146  1  0  0  0
 68 83  1  0  0  0
 71 72  2  0  0  0
 71 74  1  0  0  0
 71147  1  0  0  0
 72 75  1  0  0  0
 72148  1  0  0  0
 73 74  2  0  0  0
 73 76  1  0  0  0
 73149  1  0  0  0
 74 84  1  0  0  0
 75 76  2  0  0  0
 75 85  1  0  0  0
 76 87  1  0  0  0
 77 78  2  0  0  0
 77 79  1  0  0  0
 77 83  1  0  0  0
 78 80  1  0  0  0
 78 81  1  0  0  0
 79 84  1  0  0  0
 79 86  2  0  0  0
 80 84  1  0  0  0
 80150  1  0  0  0
 80151  1  0  0  0
 81152  1  0  0  0
 81153  1  0  0  0
 81154  1  0  0  0
 82 85  1  0  0  0
 82155  1  0  0  0
 82156  1  0  0  0
 82157  1  0  0  0
 83158  1  0  0  0
 83159  1  0  0  0
M  ISO  4   1 100  68 101  83 101  85 100
M  END
> <chiral flag>
0

> <version>
0

> <s_m_source_file>
/data/baiqing/PycharmProjects/Reinvent-master-3.2/result/LINK_invent/BTK/process_docking_weight1_custom_product_contain_oxygen_bond_distance_aromatic_linkinvent_7_9_3/rearranged_h_0093.sdf

> <i_m_source_file_index>
49

> <r_mmod_Potential_Energy-OPLS-2005>
425.930541992188

> <r_mmod_Stretch_Energy-OPLS-2005>
89.1935729980469

> <r_mmod_Bend_Energy-OPLS-2005>
210.366897583008

> <r_mmod_Torsional_Energy-OPLS-2005>
334.273651123047

> <r_mmod_Improper_Torsional_Energy-OPLS-2005>
31.3538589477539

> <r_mmod_Van_der_Waal_Energy-OPLS-2005>
162.050064086914

> <r_mmod_Electrostatic_Energy-OPLS-2005>
-284.398162841797

> <r_mmod_Solvation_Energy-OPLS-2005>
-197.404388427734

> <b_mmod_Minimization_Converged-OPLS-2005>
0

> <r_mmod_RMS_Derivative-OPLS-2005>
2.35052275657654

$$$$
50
                    3D
 Structure written by MMmdl.
153161  0  0  1  0            999 V2000
  -30.7620  -14.4286   20.6078 C   0  0  0  0  0  0
  -30.4102  -12.3070   19.3958 C   0  0  0  0  0  0
  -29.4783  -12.5062   18.1867 C   0  0  0  0  0  0
  -28.0026  -12.3705   18.6081 C   0  0  0  0  0  0
  -27.6588  -13.2099   19.8688 C   0  0  2  0  0  0
  -28.7067  -13.0014   20.9839 C   0  0  0  0  0  0
  -25.2638  -13.8198   20.5744 C   0  0  0  0  0  0
  -24.1865  -13.0473   20.9199 C   0  0  0  0  0  0
  -24.6412  -11.6929   20.8745 C   0  0  0  0  0  0
  -23.9074  -10.4309   21.0421 C   0  0  0  0  0  0
  -24.3625   -9.4228   21.9204 C   0  0  0  0  0  0
  -23.6312   -8.2255   22.0761 C   0  0  0  0  0  0
  -22.4290   -8.0286   21.3561 C   0  0  0  0  0  0
  -21.9934   -9.0252   20.4650 C   0  0  0  0  0  0
  -22.7253  -10.2142   20.3065 C   0  0  0  0  0  0
  -21.6856   -6.0755   22.5288 C   0  0  0  0  0  0
  -21.4013   -6.5658   23.8221 C   0  0  0  0  0  0
  -21.3654   -5.6805   24.9185 C   0  0  0  0  0  0
  -21.6037   -4.3066   24.7228 C   0  0  0  0  0  0
  -21.8819   -3.8164   23.4347 C   0  0  0  0  0  0
  -21.9193   -4.6985   22.3408 C   0  0  0  0  0  0
  -22.7884  -13.5283   21.1819 C   0  0  0  0  0  0
  -22.1662   -4.2168   21.0984 F   0  0  0  0  0  0
  -21.5619   -3.4537   25.7741 F   0  0  0  0  0  0
  -30.0294  -13.2984   20.4135 N   0  0  0  0  0  0
  -26.3036  -12.9348   20.3373 N   0  0  0  0  0  0
  -25.9336  -11.6499   20.5757 N   0  0  0  0  0  0
  -22.0494  -12.8265   22.0342 N   0  0  0  0  0  0
  -25.4474  -15.1916   20.4213 N   0  0  0  0  0  0
  -31.8969  -14.5502   20.1353 O   0  0  0  0  0  0
  -21.6652   -6.8889   21.4250 O   0  0  0  0  0  0
  -22.3581  -14.5595   20.6671 O   0  0  0  0  0  0
  -24.6158  -31.8663   23.2076 C   0  0  0  0  0  0
  -25.9050  -32.4809   23.8383 C   0  0  1  0  0  0
  -27.2446  -27.4391   20.1059 C   0  0  0  0  0  0
  -25.5898  -33.8603   24.2328 N   0  0  0  0  0  0
  -23.4043  -30.4889   21.5470 C   0  0  2  0  0  0
  -24.8524  -28.9470   20.1225 C   0  0  0  0  0  0
  -22.7408  -29.4677   22.4997 C   0  0  0  0  0  0
  -18.0272  -28.1403   22.8496 C   0  0  0  0  0  0
  -24.1482  -36.7305   23.2628 C   0  0  0  0  0  0
  -25.9293  -30.8376   21.3533 C   0  0  0  0  0  0
  -26.0105  -29.4655   20.7156 C   0  0  0  0  0  0
  -27.2106  -28.7199   20.7025 C   0  0  0  0  0  0
  -26.0703  -26.9260   19.5172 C   0  0  0  0  0  0
  -24.8762  -27.6748   19.5229 C   0  0  0  0  0  0
  -23.6120  -29.8130   20.1645 C   0  0  0  0  0  0
  -25.4090  -36.3104   24.0355 C   0  0  1  0  0  0
  -20.5850  -28.3680   23.1323 C   0  0  2  0  0  0
  -20.6770  -26.9411   22.5434 C   0  0  0  0  0  0
  -19.5740  -26.6403   21.5237 C   0  0  0  0  0  0
  -18.1915  -26.7959   22.1631 C   0  0  0  0  0  0
  -19.1520  -28.8858   23.2908 C   0  0  0  0  0  0
  -18.9460  -30.1466   23.8918 C   0  0  0  0  0  0
  -17.6462  -30.6601   24.0577 C   0  0  0  0  0  0
  -25.9021  -34.9471   23.5142 C   0  0  0  0  0  0
  -16.5340  -29.9116   23.6328 C   0  0  0  0  0  0
  -16.7264  -28.6530   23.0340 C   0  0  0  0  0  0
  -26.4467  -31.6568   25.0702 C   0  0  0  0  0  0
  -25.3729  -31.3669   26.1445 C   0  0  0  0  0  0
  -27.0267  -30.3025   24.6026 C   0  0  0  0  0  0
  -27.6075  -32.4228   25.7474 C   0  0  0  0  0  0
  -27.5608  -37.1744   24.8435 C   0  0  0  0  0  0
  -21.4131  -29.3040   22.3723 N   0  0  0  0  0  0
  -26.4252  -37.3818   23.9471 N   0  0  0  0  0  0
  -24.6684  -31.0788   22.0956 N   0  0  0  0  0  0
  -23.4163  -28.8203   23.3045 O   0  0  0  0  0  0
  -28.4194  -26.7266   20.0342 O   0  0  0  0  0  0
  -26.5591  -34.8943   22.4711 O   0  0  0  0  0  0
  -23.5354  -32.1394   23.7502 O   0  0  0  0  0  0
  -30.4618  -19.0488   22.2082 C   0  0  0  0  0  0
  -29.9206  -20.3367   21.9997 C   0  0  0  0  0  0
  -28.3324  -19.3882   20.4329 C   0  0  0  0  0  0
  -29.9683  -17.9098   21.5177 C   0  0  0  0  0  0
  -28.8653  -20.5246   21.0793 C   0  0  0  0  0  0
  -28.8688  -18.0970   20.6426 C   0  0  0  0  0  0
  -30.7157  -16.5942   21.6265 C   0  0  0  0  0  0
  -28.4576  -24.2646   20.3740 C   0  0  0  0  0  0
  -28.9212  -23.0540   21.2164 C   0  0  0  0  0  0
  -28.5819  -25.6733   20.9996 C   0  0  0  0  0  0
  -28.3233  -21.7871   20.7692 N   0  0  0  0  0  0
  -30.1220  -15.4638   21.1874 N   0  0  0  0  0  0
  -31.8495  -16.5994   22.1248 O   0  0  0  0  0  0
  -27.9987  -24.0953   19.2361 O   0  0  0  0  0  0
  -28.3214  -17.0535   19.9662 F   0  0  0  0  0  0
  -31.4515  -12.3940   19.0816 H   0  0  0  0  0  0
  -30.3065  -11.2984   19.7957 H   0  0  0  0  0  0
  -29.7127  -11.7800   17.4074 H   0  0  0  0  0  0
  -29.6454  -13.4896   17.7441 H   0  0  0  0  0  0
  -27.8078  -11.3144   18.7962 H   0  0  0  0  0  0
  -27.3487  -12.6532   17.7819 H   0  0  0  0  0  0
  -27.7015  -14.2564   19.5663 H   0  0  0  0  0  0
  -28.6865  -11.9692   21.3388 H   0  0  0  0  0  0
  -28.4800  -13.6164   21.8556 H   0  0  0  0  0  0
  -25.2768   -9.5706   22.4776 H   0  0  0  0  0  0
  -24.0016   -7.4660   22.7485 H   0  0  0  0  0  0
  -21.0870   -8.8768   19.8951 H   0  0  0  0  0  0
  -22.3720  -10.9677   19.6159 H   0  0  0  0  0  0
  -21.2002   -7.6159   23.9740 H   0  0  0  0  0  0
  -21.1469   -6.0527   25.9091 H   0  0  0  0  0  0
  -22.0598   -2.7618   23.2844 H   0  0  0  0  0  0
  -22.4069  -11.9912   22.4726 H   0  0  0  0  0  0
  -21.1103  -13.1278   22.2476 H   0  0  0  0  0  0
  -24.7123  -15.8680   20.5931 H   0  0  0  0  0  0
  -26.3114  -15.6207   20.1111 H   0  0  0  0  0  0
  -26.7128  -32.5547   23.1161 H   0  0  0  0  0  0
  -25.0079  -33.9763   25.0496 H   0  0  0  0  0  0
  -22.6951  -31.3067   21.4034 H   0  0  0  0  0  0
  -23.3781  -35.9591   23.3202 H   0  0  0  0  0  0
  -24.3617  -36.9000   22.2061 H   0  0  0  0  0  0
  -23.7166  -37.6468   23.6663 H   0  0  0  0  0  0
  -26.0249  -31.5927   20.5711 H   0  0  0  0  0  0
  -26.8239  -30.9098   21.9600 H   0  0  0  0  0  0
  -28.1102  -29.1293   21.1410 H   0  0  0  0  0  0
  -26.0829  -25.9530   19.0468 H   0  0  0  0  0  0
  -23.9840  -27.2665   19.0680 H   0  0  0  0  0  0
  -23.7164  -30.5790   19.3955 H   0  0  0  0  0  0
  -22.7375  -29.2302   19.8714 H   0  0  0  0  0  0
  -25.1238  -36.1950   25.0835 H   0  0  0  0  0  0
  -20.9947  -28.3238   24.1440 H   0  0  0  0  0  0
  -20.5712  -26.2277   23.3620 H   0  0  0  0  0  0
  -21.6631  -26.7480   22.1174 H   0  0  0  0  0  0
  -19.6892  -25.6325   21.1244 H   0  0  0  0  0  0
  -19.6684  -27.3239   20.6785 H   0  0  0  0  0  0
  -17.4192  -26.6719   21.4030 H   0  0  0  0  0  0
  -18.0293  -26.0123   22.9038 H   0  0  0  0  0  0
  -19.7939  -30.7275   24.2286 H   0  0  0  0  0  0
  -17.5028  -31.6289   24.5171 H   0  0  0  0  0  0
  -15.5348  -30.3029   23.7684 H   0  0  0  0  0  0
  -15.8656  -28.0876   22.7034 H   0  0  0  0  0  0
  -24.5959  -30.6936   25.7803 H   0  0  0  0  0  0
  -24.8843  -32.2815   26.4811 H   0  0  0  0  0  0
  -25.8098  -30.8923   27.0241 H   0  0  0  0  0  0
  -26.2773  -29.6818   24.1103 H   0  0  0  0  0  0
  -27.4106  -29.7221   25.4424 H   0  0  0  0  0  0
  -27.8576  -30.4395   23.9103 H   0  0  0  0  0  0
  -27.2745  -33.3556   26.2042 H   0  0  0  0  0  0
  -28.3907  -32.6708   25.0291 H   0  0  0  0  0  0
  -28.0697  -31.8313   26.5394 H   0  0  0  0  0  0
  -28.2454  -38.0203   24.7711 H   0  0  0  0  0  0
  -28.1253  -36.2752   24.5925 H   0  0  0  0  0  0
  -27.2363  -37.0991   25.8827 H   0  0  0  0  0  0
  -20.9295  -29.8743   21.6922 H   0  0  0  0  0  0
  -26.0137  -38.2858   24.1630 H   0  0  0  0  0  0
  -31.3023  -18.9439   22.8806 H   0  0  0  0  0  0
  -30.3501  -21.1718   22.5372 H   0  0  0  0  0  0
  -27.5088  -19.4956   19.7437 H   0  0  0  0  0  0
  -28.6590  -23.2378   22.2597 H   0  0  0  0  0  0
  -30.0088  -22.9947   21.1602 H   0  0  0  0  0  0
  -29.5738  -25.7629   21.4444 H   0  0  0  0  0  0
  -27.8618  -25.7750   21.8100 H   0  0  0  0  0  0
  -27.7245  -21.8719   19.9496 H   0  0  0  0  0  0
  -29.1182  -15.4696   21.1154 H   0  0  0  0  0  0
  1 25  1  0  0  0
  1 30  2  0  0  0
  1 82  1  0  0  0
  2  3  1  0  0  0
  2 25  1  0  0  0
  2 86  1  0  0  0
  2 87  1  0  0  0
  3  4  1  0  0  0
  3 88  1  0  0  0
  3 89  1  0  0  0
  4  5  1  0  0  0
  4 90  1  0  0  0
  4 91  1  0  0  0
  5  6  1  0  0  0
  5 26  1  0  0  0
  5 92  1  0  0  0
  6 25  1  0  0  0
  6 93  1  0  0  0
  6 94  1  0  0  0
  7  8  2  0  0  0
  7 26  1  0  0  0
  7 29  1  0  0  0
  8  9  1  0  0  0
  8 22  1  0  0  0
  9 10  1  0  0  0
  9 27  2  0  0  0
 10 11  2  0  0  0
 10 15  1  0  0  0
 11 12  1  0  0  0
 11 95  1  0  0  0
 12 13  2  0  0  0
 12 96  1  0  0  0
 13 14  1  0  0  0
 13 31  1  0  0  0
 14 15  2  0  0  0
 14 97  1  0  0  0
 15 98  1  0  0  0
 16 17  2  0  0  0
 16 21  1  0  0  0
 16 31  1  0  0  0
 17 18  1  0  0  0
 17 99  1  0  0  0
 18 19  2  0  0  0
 18100  1  0  0  0
 19 20  1  0  0  0
 19 24  1  0  0  0
 20 21  2  0  0  0
 20101  1  0  0  0
 21 23  1  0  0  0
 22 28  1  0  0  0
 22 32  2  0  0  0
 26 27  1  0  0  0
 28102  1  0  0  0
 28103  1  0  0  0
 29104  1  0  0  0
 29105  1  0  0  0
 33 34  1  0  0  0
 33 66  1  0  0  0
 33 70  2  0  0  0
 34 36  1  0  0  0
 34 59  1  0  0  0
 34106  1  0  0  0
 35 44  2  0  0  0
 35 45  1  0  0  0
 35 68  1  0  0  0
 36 56  1  0  0  0
 36107  1  0  0  0
 37 39  1  0  0  0
 37 47  1  0  0  0
 37 66  1  0  0  0
 37108  1  0  0  0
 38 43  2  0  0  0
 38 46  1  0  0  0
 38 47  1  0  0  0
 39 64  1  0  0  0
 39 67  2  0  0  0
 40 52  1  0  0  0
 40 53  2  0  0  0
 40 58  1  0  0  0
 41109  1  0  0  0
 41110  1  0  0  0
 41111  1  0  0  0
 41 48  1  0  0  0
 42 43  1  0  0  0
 42 66  1  0  0  0
 42112  1  0  0  0
 42113  1  0  0  0
 43 44  1  0  0  0
 44114  1  0  0  0
 45 46  2  0  0  0
 45115  1  0  0  0
 46116  1  0  0  0
 47117  1  0  0  0
 47118  1  0  0  0
 48 56  1  0  0  0
 48 65  1  0  0  0
 48119  1  0  0  0
 49 50  1  0  0  0
 49 53  1  0  0  0
 49 64  1  0  0  0
 49120  1  0  0  0
 50 51  1  0  0  0
 50121  1  0  0  0
 50122  1  0  0  0
 51 52  1  0  0  0
 51123  1  0  0  0
 51124  1  0  0  0
 52125  1  0  0  0
 52126  1  0  0  0
 53 54  1  0  0  0
 54 55  2  0  0  0
 54127  1  0  0  0
 55 57  1  0  0  0
 55128  1  0  0  0
 56 69  2  0  0  0
 57 58  2  0  0  0
 57129  1  0  0  0
 58130  1  0  0  0
 59 60  1  0  0  0
 59 61  1  0  0  0
 59 62  1  0  0  0
 60131  1  0  0  0
 60132  1  0  0  0
 60133  1  0  0  0
 61134  1  0  0  0
 61135  1  0  0  0
 61136  1  0  0  0
 62137  1  0  0  0
 62138  1  0  0  0
 62139  1  0  0  0
 63 65  1  0  0  0
 63140  1  0  0  0
 63141  1  0  0  0
 63142  1  0  0  0
 64143  1  0  0  0
 65144  1  0  0  0
 68 80  1  0  0  0
 71 72  2  0  0  0
 71 74  1  0  0  0
 71145  1  0  0  0
 72 75  1  0  0  0
 72146  1  0  0  0
 73 75  2  0  0  0
 73 76  1  0  0  0
 73147  1  0  0  0
 74 76  2  0  0  0
 74 77  1  0  0  0
 75 81  1  0  0  0
 76 85  1  0  0  0
 77 82  1  0  0  0
 77 83  2  0  0  0
 78 79  1  0  0  0
 78 80  1  0  0  0
 78 84  2  0  0  0
 79 81  1  0  0  0
 79148  1  0  0  0
 79149  1  0  0  0
 80150  1  0  0  0
 80151  1  0  0  0
 81152  1  0  0  0
 82153  1  0  0  0
M  ISO  4   1 100  68 101  80 101  82 100
M  END
> <chiral flag>
0

> <version>
0

> <s_m_source_file>
/data/baiqing/PycharmProjects/Reinvent-master-3.2/result/LINK_invent/BTK/process_docking_weight1_custom_product_contain_oxygen_bond_distance_aromatic_linkinvent_7_9_3/rearranged_h_0093.sdf

> <i_m_source_file_index>
50

> <r_mmod_Potential_Energy-OPLS-2005>
-38.5972290039062

> <r_mmod_Stretch_Energy-OPLS-2005>
38.5323753356934

> <r_mmod_Bend_Energy-OPLS-2005>
104.814590454102

> <r_mmod_Torsional_Energy-OPLS-2005>
253.066925048828

> <r_mmod_Improper_Torsional_Energy-OPLS-2005>
5.61951780319214

> <r_mmod_Van_der_Waal_Energy-OPLS-2005>
160.204635620117

> <r_mmod_Electrostatic_Energy-OPLS-2005>
-377.959106445312

> <r_mmod_Solvation_Energy-OPLS-2005>
-235.68571472168

> <b_mmod_Minimization_Converged-OPLS-2005>
0

> <r_mmod_RMS_Derivative-OPLS-2005>
3.41535592079163

$$$$
51
                    3D
 Structure written by MMmdl.
157166  0  0  1  0            999 V2000
  -30.6152  -14.6695   20.4792 C   0  0  0  0  0  0
  -30.4433  -12.4096   19.4479 C   0  0  0  0  0  0
  -29.5073  -12.5083   18.2223 C   0  0  0  0  0  0
  -28.0310  -12.3409   18.6366 C   0  0  0  0  0  0
  -27.6506  -13.2179   19.8587 C   0  0  2  0  0  0
  -28.7012  -13.0908   20.9857 C   0  0  0  0  0  0
  -25.2558  -13.8128   20.5753 C   0  0  0  0  0  0
  -24.1816  -13.0394   20.9198 C   0  0  0  0  0  0
  -24.6391  -11.6872   20.8724 C   0  0  0  0  0  0
  -23.9060  -10.4261   21.0390 C   0  0  0  0  0  0
  -24.3608   -9.4185   21.9175 C   0  0  0  0  0  0
  -23.6284   -8.2224   22.0748 C   0  0  0  0  0  0
  -22.4266   -8.0264   21.3542 C   0  0  0  0  0  0
  -21.9900   -9.0237   20.4645 C   0  0  0  0  0  0
  -22.7228  -10.2112   20.3048 C   0  0  0  0  0  0
  -21.6851   -6.0722   22.5276 C   0  0  0  0  0  0
  -21.4014   -6.5629   23.8209 C   0  0  0  0  0  0
  -21.3659   -5.6788   24.9175 C   0  0  0  0  0  0
  -21.6047   -4.3049   24.7230 C   0  0  0  0  0  0
  -21.8820   -3.8138   23.4351 C   0  0  0  0  0  0
  -21.9193   -4.6950   22.3404 C   0  0  0  0  0  0
  -22.7841  -13.5199   21.1861 C   0  0  0  0  0  0
  -22.1659   -4.2133   21.0983 F   0  0  0  0  0  0
  -21.5634   -3.4537   25.7744 F   0  0  0  0  0  0
  -30.0134  -13.4380   20.4143 N   0  0  0  0  0  0
  -26.2986  -12.9328   20.3327 N   0  0  0  0  0  0
  -25.9325  -11.6477   20.5732 N   0  0  0  0  0  0
  -22.0488  -12.8192   22.0417 N   0  0  0  0  0  0
  -25.4241  -15.1848   20.4309 N   0  0  0  0  0  0
  -31.7949  -14.8277   20.1520 O   0  0  0  0  0  0
  -21.6632   -6.8861   21.4237 O   0  0  0  0  0  0
  -22.3524  -14.5511   20.6713 O   0  0  0  0  0  0
  -24.6290  -31.8606   23.2035 C   0  0  0  0  0  0
  -25.9132  -32.4781   23.8369 C   0  0  1  0  0  0
  -27.2256  -27.3029   20.1080 C   0  0  0  0  0  0
  -25.5945  -33.8582   24.2294 N   0  0  0  0  0  0
  -23.4233  -30.4864   21.5465 C   0  0  2  0  0  0
  -24.8707  -28.9465   20.1083 C   0  0  0  0  0  0
  -22.7491  -29.4640   22.4929 C   0  0  0  0  0  0
  -18.0293  -28.1402   22.8475 C   0  0  0  0  0  0
  -24.1493  -36.7290   23.2638 C   0  0  0  0  0  0
  -25.9683  -30.7838   21.3812 C   0  0  0  0  0  0
  -26.0414  -29.4116   20.7200 C   0  0  0  0  0  0
  -27.2190  -28.6000   20.7163 C   0  0  0  0  0  0
  -26.0321  -26.9155   19.4476 C   0  0  0  0  0  0
  -24.8693  -27.7035   19.4643 C   0  0  0  0  0  0
  -23.6392  -29.8267   20.1607 C   0  0  0  0  0  0
  -25.4115  -36.3086   24.0332 C   0  0  1  0  0  0
  -20.5893  -28.3714   23.1268 C   0  0  2  0  0  0
  -20.6783  -26.9437   22.5401 C   0  0  0  0  0  0
  -19.5756  -26.6393   21.5207 C   0  0  0  0  0  0
  -18.1937  -26.7940   22.1623 C   0  0  0  0  0  0
  -19.1545  -28.8873   23.2867 C   0  0  0  0  0  0
  -18.9468  -30.1471   23.8888 C   0  0  0  0  0  0
  -17.6469  -30.6599   24.0560 C   0  0  0  0  0  0
  -25.9053  -34.9455   23.5109 C   0  0  0  0  0  0
  -16.5361  -29.9096   23.6334 C   0  0  0  0  0  0
  -16.7279  -28.6519   23.0343 C   0  0  0  0  0  0
  -26.4499  -31.6591   25.0748 C   0  0  0  0  0  0
  -25.3727  -31.3749   26.1478 C   0  0  0  0  0  0
  -27.0327  -30.3003   24.6223 C   0  0  0  0  0  0
  -27.6078  -32.4314   25.7506 C   0  0  0  0  0  0
  -27.5580  -37.1805   24.8467 C   0  0  0  0  0  0
  -21.4203  -29.3067   22.3664 N   0  0  0  0  0  0
  -26.4290  -37.3783   23.9411 N   0  0  0  0  0  0
  -24.6923  -31.0602   22.0999 N   0  0  0  0  0  0
  -23.4205  -28.8175   23.3012 O   0  0  0  0  0  0
  -28.3229  -26.4147   20.1880 O   0  0  0  0  0  0
  -26.5610  -34.8921   22.4668 O   0  0  0  0  0  0
  -23.5448  -32.1418   23.7343 O   0  0  0  0  0  0
  -30.9695  -19.3841   20.9446 C   0  0  0  0  0  0
  -31.0058  -17.9533   20.9571 C   0  0  0  0  0  0
  -30.0254  -23.7887   21.2693 C   0  0  0  0  0  0
  -28.6983  -19.3388   20.1833 C   0  0  0  0  0  0
  -28.8278  -22.4566   19.9616 C   0  0  0  0  0  0
  -28.9646  -23.7995   20.3173 C   0  0  0  0  0  0
  -29.8040  -20.1299   20.5915 C   0  0  0  0  0  0
  -29.8754  -17.1770   20.5897 C   0  0  0  0  0  0
  -28.7281  -17.9033   20.1613 C   0  0  0  0  0  0
  -30.4343  -22.4897   21.4629 C   0  0  0  0  0  0
  -26.6993  -17.7977   18.8954 C   0  0  0  0  0  0
  -28.0778  -24.9945   19.8135 C   0  0  0  0  0  0
  -29.7115  -21.6031   20.6597 N   0  0  0  0  0  0
  -29.7654  -15.7201   20.7064 N   0  0  0  0  0  0
  -31.3803  -22.0458   22.3336 O   0  0  0  0  0  0
  -27.6556  -17.1491   19.7294 O   0  0  0  0  0  0
  -31.4822  -12.5449   19.1403 H   0  0  0  0  0  0
  -30.3887  -11.4183   19.9004 H   0  0  0  0  0  0
  -29.7746  -11.7532   17.4820 H   0  0  0  0  0  0
  -29.6414  -13.4754   17.7346 H   0  0  0  0  0  0
  -27.8738  -11.2884   18.8753 H   0  0  0  0  0  0
  -27.3750  -12.5628   17.7940 H   0  0  0  0  0  0
  -27.6577  -14.2488   19.5052 H   0  0  0  0  0  0
  -28.7199  -12.0743   21.3811 H   0  0  0  0  0  0
  -28.4484  -13.7348   21.8294 H   0  0  0  0  0  0
  -25.2751   -9.5664   22.4747 H   0  0  0  0  0  0
  -23.9996   -7.4614   22.7466 H   0  0  0  0  0  0
  -21.0832   -8.8754   19.8953 H   0  0  0  0  0  0
  -22.3684  -10.9651   19.6159 H   0  0  0  0  0  0
  -21.2004   -7.6135   23.9705 H   0  0  0  0  0  0
  -21.1486   -6.0520   25.9076 H   0  0  0  0  0  0
  -22.0601   -2.7600   23.2861 H   0  0  0  0  0  0
  -22.4107  -11.9856   22.4808 H   0  0  0  0  0  0
  -21.1106  -13.1219   22.2630 H   0  0  0  0  0  0
  -24.6598  -15.8343   20.5751 H   0  0  0  0  0  0
  -26.2859  -15.6447   20.1579 H   0  0  0  0  0  0
  -26.7211  -32.5443   23.1127 H   0  0  0  0  0  0
  -25.0085  -33.9728   25.0433 H   0  0  0  0  0  0
  -22.7180  -31.3079   21.4047 H   0  0  0  0  0  0
  -23.3759  -35.9619   23.3298 H   0  0  0  0  0  0
  -24.3590  -36.8906   22.2052 H   0  0  0  0  0  0
  -23.7240  -37.6491   23.6656 H   0  0  0  0  0  0
  -26.1054  -31.5484   20.6150 H   0  0  0  0  0  0
  -26.8466  -30.8307   22.0130 H   0  0  0  0  0  0
  -28.1118  -28.9491   21.2162 H   0  0  0  0  0  0
  -25.9503  -25.9815   18.9130 H   0  0  0  0  0  0
  -23.9761  -27.3454   18.9714 H   0  0  0  0  0  0
  -23.7605  -30.6055   19.4070 H   0  0  0  0  0  0
  -22.7586  -29.2589   19.8558 H   0  0  0  0  0  0
  -25.1294  -36.1934   25.0825 H   0  0  0  0  0  0
  -20.9984  -28.3297   24.1390 H   0  0  0  0  0  0
  -20.5692  -26.2332   23.3607 H   0  0  0  0  0  0
  -21.6654  -26.7478   22.1193 H   0  0  0  0  0  0
  -19.6920  -25.6297   21.1251 H   0  0  0  0  0  0
  -19.6681  -27.3189   20.6722 H   0  0  0  0  0  0
  -17.4205  -26.6674   21.4029 H   0  0  0  0  0  0
  -18.0352  -26.0093   22.9034 H   0  0  0  0  0  0
  -19.7947  -30.7285   24.2259 H   0  0  0  0  0  0
  -17.5028  -31.6277   24.5168 H   0  0  0  0  0  0
  -15.5360  -30.2992   23.7671 H   0  0  0  0  0  0
  -15.8681  -28.0835   22.7059 H   0  0  0  0  0  0
  -24.5845  -30.7175   25.7790 H   0  0  0  0  0  0
  -24.8987  -32.2929   26.4965 H   0  0  0  0  0  0
  -25.8029  -30.8847   27.0222 H   0  0  0  0  0  0
  -26.2901  -29.6760   24.1243 H   0  0  0  0  0  0
  -27.3996  -29.7264   25.4743 H   0  0  0  0  0  0
  -27.8793  -30.4267   23.9471 H   0  0  0  0  0  0
  -27.2725  -33.3636   26.2064 H   0  0  0  0  0  0
  -28.3893  -32.6831   25.0325 H   0  0  0  0  0  0
  -28.0738  -31.8439   26.5428 H   0  0  0  0  0  0
  -28.2608  -38.0096   24.7524 H   0  0  0  0  0  0
  -28.1070  -36.2630   24.6284 H   0  0  0  0  0  0
  -27.2309  -37.1456   25.8875 H   0  0  0  0  0  0
  -20.9392  -29.8779   21.6856 H   0  0  0  0  0  0
  -26.0169  -38.2861   24.1398 H   0  0  0  0  0  0
  -31.8647  -19.9084   21.2416 H   0  0  0  0  0  0
  -31.9092  -17.4597   21.2855 H   0  0  0  0  0  0
  -30.4205  -24.6518   21.7882 H   0  0  0  0  0  0
  -27.7960  -19.8608   19.9067 H   0  0  0  0  0  0
  -28.1292  -22.0206   19.2604 H   0  0  0  0  0  0
  -26.0908  -17.0537   18.3822 H   0  0  0  0  0  0
  -27.1742  -18.4055   18.1233 H   0  0  0  0  0  0
  -26.0289  -18.4260   19.4834 H   0  0  0  0  0  0
  -27.0917  -24.7010   20.1725 H   0  0  0  0  0  0
  -28.0497  -24.9364   18.7244 H   0  0  0  0  0  0
  -28.8134  -15.4091   20.8213 H   0  0  0  0  0  0
  -31.7322  -22.8027   22.7917 H   0  0  0  0  0  0
  1 25  1  0  0  0
  1 30  2  0  0  0
  1 84  1  0  0  0
  2  3  1  0  0  0
  2 25  1  0  0  0
  2 87  1  0  0  0
  2 88  1  0  0  0
  3  4  1  0  0  0
  3 89  1  0  0  0
  3 90  1  0  0  0
  4  5  1  0  0  0
  4 91  1  0  0  0
  4 92  1  0  0  0
  5  6  1  0  0  0
  5 26  1  0  0  0
  5 93  1  0  0  0
  6 25  1  0  0  0
  6 94  1  0  0  0
  6 95  1  0  0  0
  7  8  2  0  0  0
  7 26  1  0  0  0
  7 29  1  0  0  0
  8  9  1  0  0  0
  8 22  1  0  0  0
  9 10  1  0  0  0
  9 27  2  0  0  0
 10 11  2  0  0  0
 10 15  1  0  0  0
 11 12  1  0  0  0
 11 96  1  0  0  0
 12 13  2  0  0  0
 12 97  1  0  0  0
 13 14  1  0  0  0
 13 31  1  0  0  0
 14 15  2  0  0  0
 14 98  1  0  0  0
 15 99  1  0  0  0
 16 17  2  0  0  0
 16 21  1  0  0  0
 16 31  1  0  0  0
 17 18  1  0  0  0
 17100  1  0  0  0
 18 19  2  0  0  0
 18101  1  0  0  0
 19 20  1  0  0  0
 19 24  1  0  0  0
 20 21  2  0  0  0
 20102  1  0  0  0
 21 23  1  0  0  0
 22 28  1  0  0  0
 22 32  2  0  0  0
 26 27  1  0  0  0
 28103  1  0  0  0
 28104  1  0  0  0
 29105  1  0  0  0
 29106  1  0  0  0
 33 34  1  0  0  0
 33 66  1  0  0  0
 33 70  2  0  0  0
 34 36  1  0  0  0
 34 59  1  0  0  0
 34107  1  0  0  0
 35 44  2  0  0  0
 35 45  1  0  0  0
 35 68  1  0  0  0
 36 56  1  0  0  0
 36108  1  0  0  0
 37 39  1  0  0  0
 37 47  1  0  0  0
 37 66  1  0  0  0
 37109  1  0  0  0
 38 43  2  0  0  0
 38 46  1  0  0  0
 38 47  1  0  0  0
 39 64  1  0  0  0
 39 67  2  0  0  0
 40 52  1  0  0  0
 40 53  2  0  0  0
 40 58  1  0  0  0
 41110  1  0  0  0
 41111  1  0  0  0
 41112  1  0  0  0
 41 48  1  0  0  0
 42 43  1  0  0  0
 42 66  1  0  0  0
 42113  1  0  0  0
 42114  1  0  0  0
 43 44  1  0  0  0
 44115  1  0  0  0
 45 46  2  0  0  0
 45116  1  0  0  0
 46117  1  0  0  0
 47118  1  0  0  0
 47119  1  0  0  0
 48 56  1  0  0  0
 48 65  1  0  0  0
 48120  1  0  0  0
 49 50  1  0  0  0
 49 53  1  0  0  0
 49 64  1  0  0  0
 49121  1  0  0  0
 50 51  1  0  0  0
 50122  1  0  0  0
 50123  1  0  0  0
 51 52  1  0  0  0
 51124  1  0  0  0
 51125  1  0  0  0
 52126  1  0  0  0
 52127  1  0  0  0
 53 54  1  0  0  0
 54 55  2  0  0  0
 54128  1  0  0  0
 55 57  1  0  0  0
 55129  1  0  0  0
 56 69  2  0  0  0
 57 58  2  0  0  0
 57130  1  0  0  0
 58131  1  0  0  0
 59 60  1  0  0  0
 59 61  1  0  0  0
 59 62  1  0  0  0
 60132  1  0  0  0
 60133  1  0  0  0
 60134  1  0  0  0
 61135  1  0  0  0
 61136  1  0  0  0
 61137  1  0  0  0
 62138  1  0  0  0
 62139  1  0  0  0
 62140  1  0  0  0
 63 65  1  0  0  0
 63141  1  0  0  0
 63142  1  0  0  0
 63143  1  0  0  0
 64144  1  0  0  0
 65145  1  0  0  0
 68 82  1  0  0  0
 71 72  2  0  0  0
 71 77  1  0  0  0
 71146  1  0  0  0
 72 78  1  0  0  0
 72147  1  0  0  0
 73 76  1  0  0  0
 73 80  2  0  0  0
 73148  1  0  0  0
 74 77  2  0  0  0
 74 79  1  0  0  0
 74149  1  0  0  0
 75 76  2  0  0  0
 75 83  1  0  0  0
 75150  1  0  0  0
 76 82  1  0  0  0
 77 83  1  0  0  0
 78 79  2  0  0  0
 78 84  1  0  0  0
 79 86  1  0  0  0
 80 83  1  0  0  0
 80 85  1  0  0  0
 81 86  1  0  0  0
 81151  1  0  0  0
 81152  1  0  0  0
 81153  1  0  0  0
 82154  1  0  0  0
 82155  1  0  0  0
 84156  1  0  0  0
 85157  1  0  0  0
M  ISO  4   1 100  68 101  82 101  84 100
M  END
> <chiral flag>
0

> <version>
0

> <s_m_source_file>
/data/baiqing/PycharmProjects/Reinvent-master-3.2/result/LINK_invent/BTK/process_docking_weight1_custom_product_contain_oxygen_bond_distance_aromatic_linkinvent_7_9_3/rearranged_h_0093.sdf

> <i_m_source_file_index>
51

> <r_mmod_Potential_Energy-OPLS-2005>
36.237865447998

> <r_mmod_Stretch_Energy-OPLS-2005>
85.647331237793

> <r_mmod_Bend_Energy-OPLS-2005>
152.334625244141

> <r_mmod_Torsional_Energy-OPLS-2005>
232.486450195312

> <r_mmod_Improper_Torsional_Energy-OPLS-2005>
5.84786128997803

> <r_mmod_Van_der_Waal_Energy-OPLS-2005>
152.20280456543

> <r_mmod_Electrostatic_Energy-OPLS-2005>
-433.769744873047

> <r_mmod_Solvation_Energy-OPLS-2005>
-219.906707763672

> <b_mmod_Minimization_Converged-OPLS-2005>
0

> <r_mmod_RMS_Derivative-OPLS-2005>
1.05293166637421

$$$$
52
                    3D
 Structure written by MMmdl.
149157  0  0  1  0            999 V2000
  -30.6973  -14.6722   20.4675 C   0  0  0  0  0  0
  -30.4091  -12.4140   19.4645 C   0  0  0  0  0  0
  -29.4958  -12.4919   18.2258 C   0  0  0  0  0  0
  -28.0234  -12.3308   18.6448 C   0  0  0  0  0  0
  -27.6382  -13.2362   19.8465 C   0  0  2  0  0  0
  -28.6867  -13.1846   20.9796 C   0  0  0  0  0  0
  -25.2496  -13.8216   20.5719 C   0  0  0  0  0  0
  -24.1790  -13.0449   20.9208 C   0  0  0  0  0  0
  -24.6390  -11.6930   20.8754 C   0  0  0  0  0  0
  -23.9074  -10.4298   21.0406 C   0  0  0  0  0  0
  -24.3623   -9.4212   21.9185 C   0  0  0  0  0  0
  -23.6301   -8.2245   22.0753 C   0  0  0  0  0  0
  -22.4283   -8.0282   21.3544 C   0  0  0  0  0  0
  -21.9917   -9.0255   20.4646 C   0  0  0  0  0  0
  -22.7244  -10.2136   20.3056 C   0  0  0  0  0  0
  -21.6854   -6.0737   22.5279 C   0  0  0  0  0  0
  -21.4017   -6.5642   23.8213 C   0  0  0  0  0  0
  -21.3659   -5.6794   24.9174 C   0  0  0  0  0  0
  -21.6044   -4.3058   24.7225 C   0  0  0  0  0  0
  -21.8820   -3.8148   23.4348 C   0  0  0  0  0  0
  -21.9194   -4.6963   22.3403 C   0  0  0  0  0  0
  -22.7810  -13.5221   21.1864 C   0  0  0  0  0  0
  -22.1662   -4.2149   21.0981 F   0  0  0  0  0  0
  -21.5626   -3.4540   25.7738 F   0  0  0  0  0  0
  -29.9897  -13.4969   20.3838 N   0  0  0  0  0  0
  -26.2927  -12.9436   20.3300 N   0  0  0  0  0  0
  -25.9324  -11.6571   20.5770 N   0  0  0  0  0  0
  -22.0463  -12.8210   22.0423 N   0  0  0  0  0  0
  -25.4181  -15.1943   20.4170 N   0  0  0  0  0  0
  -31.8937  -14.6466   20.1690 O   0  0  0  0  0  0
  -21.6644   -6.8881   21.4243 O   0  0  0  0  0  0
  -22.3488  -14.5522   20.6709 O   0  0  0  0  0  0
  -24.6278  -31.8587   23.2026 C   0  0  0  0  0  0
  -25.9122  -32.4772   23.8356 C   0  0  1  0  0  0
  -27.2109  -27.3048   20.1246 C   0  0  0  0  0  0
  -25.5935  -33.8575   24.2283 N   0  0  0  0  0  0
  -23.4218  -30.4840   21.5449 C   0  0  2  0  0  0
  -24.8681  -28.9401   20.1075 C   0  0  0  0  0  0
  -22.7480  -29.4626   22.4926 C   0  0  0  0  0  0
  -18.0289  -28.1386   22.8493 C   0  0  0  0  0  0
  -24.1489  -36.7291   23.2639 C   0  0  0  0  0  0
  -25.9647  -30.7855   21.3762 C   0  0  0  0  0  0
  -26.0384  -29.4125   20.7178 C   0  0  0  0  0  0
  -27.2177  -28.6062   20.7177 C   0  0  0  0  0  0
  -26.0282  -26.8980   19.4721 C   0  0  0  0  0  0
  -24.8660  -27.6893   19.4730 C   0  0  0  0  0  0
  -23.6367  -29.8217   20.1589 C   0  0  0  0  0  0
  -25.4114  -36.3081   24.0330 C   0  0  1  0  0  0
  -20.5892  -28.3690   23.1280 C   0  0  2  0  0  0
  -20.6780  -26.9411   22.5410 C   0  0  0  0  0  0
  -19.5752  -26.6386   21.5215 C   0  0  0  0  0  0
  -18.1933  -26.7930   22.1632 C   0  0  0  0  0  0
  -19.1542  -28.8855   23.2883 C   0  0  0  0  0  0
  -18.9465  -30.1460   23.8895 C   0  0  0  0  0  0
  -17.6463  -30.6588   24.0565 C   0  0  0  0  0  0
  -25.9050  -34.9450   23.5104 C   0  0  0  0  0  0
  -16.5355  -29.9086   23.6333 C   0  0  0  0  0  0
  -16.7276  -28.6504   23.0354 C   0  0  0  0  0  0
  -26.4500  -31.6584   25.0727 C   0  0  0  0  0  0
  -25.3733  -31.3736   26.1455 C   0  0  0  0  0  0
  -27.0337  -30.3006   24.6187 C   0  0  0  0  0  0
  -27.6064  -32.4316   25.7492 C   0  0  0  0  0  0
  -27.5578  -37.1800   24.8465 C   0  0  0  0  0  0
  -21.4192  -29.3047   22.3671 N   0  0  0  0  0  0
  -26.4291  -37.3776   23.9408 N   0  0  0  0  0  0
  -24.6902  -31.0592   22.0980 N   0  0  0  0  0  0
  -23.4195  -28.8159   23.3005 O   0  0  0  0  0  0
  -28.2793  -26.3966   20.1742 O   0  0  0  0  0  0
  -26.5612  -34.8922   22.4666 O   0  0  0  0  0  0
  -23.5440  -32.1391   23.7349 O   0  0  0  0  0  0
  -30.5839  -19.6159   20.0669 C   0  0  0  0  0  0
  -30.0702  -20.9489   20.0721 C   0  0  0  0  0  0
  -28.0604  -20.1111   21.0695 C   0  0  0  0  0  0
  -29.8753  -18.4853   20.5815 C   0  0  0  0  0  0
  -28.7908  -21.2480   20.6046 C   0  0  0  0  0  0
  -28.5738  -18.7720   21.0677 C   0  0  0  0  0  0
  -28.6752  -23.7381   20.3971 C   0  0  0  0  0  0
  -30.6157  -17.1284   20.7321 C   0  0  0  0  0  0
  -27.9554  -25.0892   20.8143 C   0  0  0  0  0  0
  -28.2191  -22.5664   20.7612 N   0  0  0  0  0  0
  -30.0283  -15.8761   20.6419 N   0  0  0  0  0  0
  -31.8337  -17.2486   20.9187 O   0  0  0  0  0  0
  -27.8150  -17.7715   21.5787 F   0  0  0  0  0  0
  -31.4538  -12.4891   19.1586 H   0  0  0  0  0  0
  -30.3155  -11.4426   19.9533 H   0  0  0  0  0  0
  -29.7665  -11.7172   17.5071 H   0  0  0  0  0  0
  -29.6367  -13.4472   17.7169 H   0  0  0  0  0  0
  -27.8742  -11.2832   18.9096 H   0  0  0  0  0  0
  -27.3641  -12.5248   17.7979 H   0  0  0  0  0  0
  -27.6295  -14.2557   19.4602 H   0  0  0  0  0  0
  -28.7084  -12.1990   21.4471 H   0  0  0  0  0  0
  -28.4384  -13.8963   21.7686 H   0  0  0  0  0  0
  -25.2769   -9.5687   22.4759 H   0  0  0  0  0  0
  -24.0009   -7.4635   22.7473 H   0  0  0  0  0  0
  -21.0846   -8.8771   19.8953 H   0  0  0  0  0  0
  -22.3700  -10.9673   19.6163 H   0  0  0  0  0  0
  -21.2011   -7.6151   23.9716 H   0  0  0  0  0  0
  -21.1480   -6.0525   25.9078 H   0  0  0  0  0  0
  -22.0599   -2.7610   23.2847 H   0  0  0  0  0  0
  -22.4088  -11.9878   22.4817 H   0  0  0  0  0  0
  -21.1076  -13.1223   22.2627 H   0  0  0  0  0  0
  -24.6572  -15.8504   20.5544 H   0  0  0  0  0  0
  -26.2793  -15.6450   20.1375 H   0  0  0  0  0  0
  -26.7183  -32.5434   23.1098 H   0  0  0  0  0  0
  -25.0099  -33.9722   25.0439 H   0  0  0  0  0  0
  -22.7174  -31.3063   21.4033 H   0  0  0  0  0  0
  -23.3754  -35.9620   23.3301 H   0  0  0  0  0  0
  -24.3586  -36.8905   22.2053 H   0  0  0  0  0  0
  -23.7240  -37.6497   23.6654 H   0  0  0  0  0  0
  -26.0983  -31.5482   20.6077 H   0  0  0  0  0  0
  -26.8451  -30.8336   22.0053 H   0  0  0  0  0  0
  -28.1120  -28.9582   21.2129 H   0  0  0  0  0  0
  -25.9904  -25.9375   18.9776 H   0  0  0  0  0  0
  -23.9720  -27.3257   18.9851 H   0  0  0  0  0  0
  -23.7562  -30.5997   19.4038 H   0  0  0  0  0  0
  -22.7560  -29.2523   19.8551 H   0  0  0  0  0  0
  -25.1295  -36.1930   25.0823 H   0  0  0  0  0  0
  -20.9992  -28.3259   24.1398 H   0  0  0  0  0  0
  -20.5693  -26.2294   23.3609 H   0  0  0  0  0  0
  -21.6646  -26.7445   22.1193 H   0  0  0  0  0  0
  -19.6907  -25.6298   21.1241 H   0  0  0  0  0  0
  -19.6683  -27.3202   20.6750 H   0  0  0  0  0  0
  -17.4203  -26.6683   21.4031 H   0  0  0  0  0  0
  -18.0331  -26.0073   22.9027 H   0  0  0  0  0  0
  -19.7938  -30.7282   24.2255 H   0  0  0  0  0  0
  -17.5017  -31.6268   24.5164 H   0  0  0  0  0  0
  -15.5355  -30.2986   23.7661 H   0  0  0  0  0  0
  -15.8678  -28.0823   22.7064 H   0  0  0  0  0  0
  -24.5895  -30.7097   25.7791 H   0  0  0  0  0  0
  -24.8945  -32.2912   26.4881 H   0  0  0  0  0  0
  -25.8060  -30.8908   27.0227 H   0  0  0  0  0  0
  -26.2906  -29.6759   24.1214 H   0  0  0  0  0  0
  -27.4035  -29.7258   25.4690 H   0  0  0  0  0  0
  -27.8780  -30.4295   23.9410 H   0  0  0  0  0  0
  -27.2681  -33.3628   26.2052 H   0  0  0  0  0  0
  -28.3882  -32.6852   25.0319 H   0  0  0  0  0  0
  -28.0720  -31.8445   26.5419 H   0  0  0  0  0  0
  -28.2596  -38.0096   24.7515 H   0  0  0  0  0  0
  -28.1071  -36.2630   24.6285 H   0  0  0  0  0  0
  -27.2300  -37.1440   25.8868 H   0  0  0  0  0  0
  -20.9363  -29.8771   21.6887 H   0  0  0  0  0  0
  -26.0170  -38.2848   24.1417 H   0  0  0  0  0  0
  -31.5872  -19.4706   19.6908 H   0  0  0  0  0  0
  -30.6994  -21.7426   19.6943 H   0  0  0  0  0  0
  -27.0741  -20.2665   21.4829 H   0  0  0  0  0  0
  -29.5915  -23.8624   19.8142 H   0  0  0  0  0  0
  -28.1613  -25.2289   21.8759 H   0  0  0  0  0  0
  -26.8853  -24.8858   20.7799 H   0  0  0  0  0  0
  -29.0227  -15.8514   20.6549 H   0  0  0  0  0  0
  1 25  1  0  0  0
  1 30  2  0  0  0
  1 81  1  0  0  0
  2  3  1  0  0  0
  2 25  1  0  0  0
  2 84  1  0  0  0
  2 85  1  0  0  0
  3  4  1  0  0  0
  3 86  1  0  0  0
  3 87  1  0  0  0
  4  5  1  0  0  0
  4 88  1  0  0  0
  4 89  1  0  0  0
  5  6  1  0  0  0
  5 26  1  0  0  0
  5 90  1  0  0  0
  6 25  1  0  0  0
  6 91  1  0  0  0
  6 92  1  0  0  0
  7  8  2  0  0  0
  7 26  1  0  0  0
  7 29  1  0  0  0
  8  9  1  0  0  0
  8 22  1  0  0  0
  9 10  1  0  0  0
  9 27  2  0  0  0
 10 11  2  0  0  0
 10 15  1  0  0  0
 11 12  1  0  0  0
 11 93  1  0  0  0
 12 13  2  0  0  0
 12 94  1  0  0  0
 13 14  1  0  0  0
 13 31  1  0  0  0
 14 15  2  0  0  0
 14 95  1  0  0  0
 15 96  1  0  0  0
 16 17  2  0  0  0
 16 21  1  0  0  0
 16 31  1  0  0  0
 17 18  1  0  0  0
 17 97  1  0  0  0
 18 19  2  0  0  0
 18 98  1  0  0  0
 19 20  1  0  0  0
 19 24  1  0  0  0
 20 21  2  0  0  0
 20 99  1  0  0  0
 21 23  1  0  0  0
 22 28  1  0  0  0
 22 32  2  0  0  0
 26 27  1  0  0  0
 28100  1  0  0  0
 28101  1  0  0  0
 29102  1  0  0  0
 29103  1  0  0  0
 33 34  1  0  0  0
 33 66  1  0  0  0
 33 70  2  0  0  0
 34 36  1  0  0  0
 34 59  1  0  0  0
 34104  1  0  0  0
 35 44  2  0  0  0
 35 45  1  0  0  0
 35 68  1  0  0  0
 36 56  1  0  0  0
 36105  1  0  0  0
 37 39  1  0  0  0
 37 47  1  0  0  0
 37 66  1  0  0  0
 37106  1  0  0  0
 38 43  2  0  0  0
 38 46  1  0  0  0
 38 47  1  0  0  0
 39 64  1  0  0  0
 39 67  2  0  0  0
 40 52  1  0  0  0
 40 53  2  0  0  0
 40 58  1  0  0  0
 41107  1  0  0  0
 41108  1  0  0  0
 41109  1  0  0  0
 41 48  1  0  0  0
 42 43  1  0  0  0
 42 66  1  0  0  0
 42110  1  0  0  0
 42111  1  0  0  0
 43 44  1  0  0  0
 44112  1  0  0  0
 45 46  2  0  0  0
 45113  1  0  0  0
 46114  1  0  0  0
 47115  1  0  0  0
 47116  1  0  0  0
 48 56  1  0  0  0
 48 65  1  0  0  0
 48117  1  0  0  0
 49 50  1  0  0  0
 49 53  1  0  0  0
 49 64  1  0  0  0
 49118  1  0  0  0
 50 51  1  0  0  0
 50119  1  0  0  0
 50120  1  0  0  0
 51 52  1  0  0  0
 51121  1  0  0  0
 51122  1  0  0  0
 52123  1  0  0  0
 52124  1  0  0  0
 53 54  1  0  0  0
 54 55  2  0  0  0
 54125  1  0  0  0
 55 57  1  0  0  0
 55126  1  0  0  0
 56 69  2  0  0  0
 57 58  2  0  0  0
 57127  1  0  0  0
 58128  1  0  0  0
 59 60  1  0  0  0
 59 61  1  0  0  0
 59 62  1  0  0  0
 60129  1  0  0  0
 60130  1  0  0  0
 60131  1  0  0  0
 61132  1  0  0  0
 61133  1  0  0  0
 61134  1  0  0  0
 62135  1  0  0  0
 62136  1  0  0  0
 62137  1  0  0  0
 63 65  1  0  0  0
 63138  1  0  0  0
 63139  1  0  0  0
 63140  1  0  0  0
 64141  1  0  0  0
 65142  1  0  0  0
 68 79  1  0  0  0
 71 72  2  0  0  0
 71 74  1  0  0  0
 71143  1  0  0  0
 72 75  1  0  0  0
 72144  1  0  0  0
 73 75  2  0  0  0
 73 76  1  0  0  0
 73145  1  0  0  0
 74 76  2  0  0  0
 74 78  1  0  0  0
 75 80  1  0  0  0
 76 83  1  0  0  0
 77 79  1  0  0  0
 77 80  2  0  0  0
 77146  1  0  0  0
 78 81  1  0  0  0
 78 82  2  0  0  0
 79147  1  0  0  0
 79148  1  0  0  0
 81149  1  0  0  0
M  ISO  4   1 100  68 101  79 101  81 100
M  END
> <chiral flag>
0

> <version>
0

> <s_m_source_file>
/data/baiqing/PycharmProjects/Reinvent-master-3.2/result/LINK_invent/BTK/process_docking_weight1_custom_product_contain_oxygen_bond_distance_aromatic_linkinvent_7_9_3/rearranged_h_0093.sdf

> <i_m_source_file_index>
52

> <r_mmod_Potential_Energy-OPLS-2005>
112.583511352539

> <r_mmod_Stretch_Energy-OPLS-2005>
91.4567794799805

> <r_mmod_Bend_Energy-OPLS-2005>
169.932464599609

> <r_mmod_Torsional_Energy-OPLS-2005>
239.018981933594

> <r_mmod_Improper_Torsional_Energy-OPLS-2005>
6.20280027389526

> <r_mmod_Van_der_Waal_Energy-OPLS-2005>
156.562911987305

> <r_mmod_Electrostatic_Energy-OPLS-2005>
-402.642517089844

> <r_mmod_Solvation_Energy-OPLS-2005>
-216.218353271484

> <b_mmod_Minimization_Converged-OPLS-2005>
0

> <r_mmod_RMS_Derivative-OPLS-2005>
0.673451483249664

$$$$
53
                    3D
 Structure written by MMmdl.
153161  0  0  1  0            999 V2000
  -30.6197  -14.7365   20.3654 C   0  0  0  0  0  0
  -30.4395  -12.4192   19.4648 C   0  0  0  0  0  0
  -29.5021  -12.3805   18.2352 C   0  0  0  0  0  0
  -28.0223  -12.2857   18.6569 C   0  0  0  0  0  0
  -27.6375  -13.2179   19.8391 C   0  0  2  0  0  0
  -28.6955  -13.1927   20.9616 C   0  0  0  0  0  0
  -25.2532  -13.8176   20.5736 C   0  0  0  0  0  0
  -24.1800  -13.0440   20.9224 C   0  0  0  0  0  0
  -24.6371  -11.6913   20.8786 C   0  0  0  0  0  0
  -23.9049  -10.4292   21.0428 C   0  0  0  0  0  0
  -24.3607   -9.4203   21.9196 C   0  0  0  0  0  0
  -23.6287   -8.2235   22.0756 C   0  0  0  0  0  0
  -22.4271   -8.0275   21.3543 C   0  0  0  0  0  0
  -21.9906   -9.0251   20.4648 C   0  0  0  0  0  0
  -22.7229  -10.2134   20.3067 C   0  0  0  0  0  0
  -21.6851   -6.0732   22.5278 C   0  0  0  0  0  0
  -21.4013   -6.5638   23.8211 C   0  0  0  0  0  0
  -21.3659   -5.6792   24.9174 C   0  0  0  0  0  0
  -21.6044   -4.3055   24.7226 C   0  0  0  0  0  0
  -21.8820   -3.8145   23.4347 C   0  0  0  0  0  0
  -21.9192   -4.6960   22.3403 C   0  0  0  0  0  0
  -22.7822  -13.5233   21.1867 C   0  0  0  0  0  0
  -22.1662   -4.2146   21.0980 F   0  0  0  0  0  0
  -21.5629   -3.4539   25.7739 F   0  0  0  0  0  0
  -29.9873  -13.5149   20.3451 N   0  0  0  0  0  0
  -26.2939  -12.9350   20.3331 N   0  0  0  0  0  0
  -25.9302  -11.6515   20.5840 N   0  0  0  0  0  0
  -22.0462  -12.8226   22.0420 N   0  0  0  0  0  0
  -25.4268  -15.1895   20.4169 N   0  0  0  0  0  0
  -31.8499  -14.7927   20.2820 O   0  0  0  0  0  0
  -21.6636   -6.8872   21.4238 O   0  0  0  0  0  0
  -22.3513  -14.5536   20.6707 O   0  0  0  0  0  0
  -24.6280  -31.8583   23.2013 C   0  0  0  0  0  0
  -25.9120  -32.4770   23.8346 C   0  0  1  0  0  0
  -27.2235  -27.2951   20.1196 C   0  0  0  0  0  0
  -25.5928  -33.8571   24.2271 N   0  0  0  0  0  0
  -23.4224  -30.4822   21.5442 C   0  0  2  0  0  0
  -24.8685  -28.9350   20.1102 C   0  0  0  0  0  0
  -22.7483  -29.4618   22.4926 C   0  0  0  0  0  0
  -18.0288  -28.1385   22.8486 C   0  0  0  0  0  0
  -24.1490  -36.7290   23.2639 C   0  0  0  0  0  0
  -25.9657  -30.7814   21.3765 C   0  0  0  0  0  0
  -26.0379  -29.4069   20.7184 C   0  0  0  0  0  0
  -27.2150  -28.5976   20.7157 C   0  0  0  0  0  0
  -26.0252  -26.8810   19.4899 C   0  0  0  0  0  0
  -24.8654  -27.6784   19.4878 C   0  0  0  0  0  0
  -23.6381  -29.8180   20.1592 C   0  0  0  0  0  0
  -25.4116  -36.3079   24.0328 C   0  0  1  0  0  0
  -20.5890  -28.3693   23.1277 C   0  0  2  0  0  0
  -20.6776  -26.9414   22.5409 C   0  0  0  0  0  0
  -19.5752  -26.6384   21.5211 C   0  0  0  0  0  0
  -18.1932  -26.7928   22.1625 C   0  0  0  0  0  0
  -19.1541  -28.8856   23.2877 C   0  0  0  0  0  0
  -18.9463  -30.1457   23.8895 C   0  0  0  0  0  0
  -17.6463  -30.6587   24.0562 C   0  0  0  0  0  0
  -25.9054  -34.9448   23.5101 C   0  0  0  0  0  0
  -16.5354  -29.9085   23.6330 C   0  0  0  0  0  0
  -16.7275  -28.6502   23.0352 C   0  0  0  0  0  0
  -26.4498  -31.6586   25.0724 C   0  0  0  0  0  0
  -25.3726  -31.3728   26.1447 C   0  0  0  0  0  0
  -27.0345  -30.3007   24.6193 C   0  0  0  0  0  0
  -27.6053  -32.4325   25.7497 C   0  0  0  0  0  0
  -27.5579  -37.1802   24.8466 C   0  0  0  0  0  0
  -21.4195  -29.3043   22.3669 N   0  0  0  0  0  0
  -26.4293  -37.3774   23.9407 N   0  0  0  0  0  0
  -24.6909  -31.0578   22.0972 N   0  0  0  0  0  0
  -23.4199  -28.8159   23.3013 O   0  0  0  0  0  0
  -28.3439  -26.4414   20.1873 O   0  0  0  0  0  0
  -26.5624  -34.8918   22.4669 O   0  0  0  0  0  0
  -23.5438  -32.1391   23.7329 O   0  0  0  0  0  0
  -28.5694  -17.9231   19.8094 C   0  0  0  0  0  0
  -28.4262  -19.3353   19.9567 C   0  0  0  0  0  0
  -30.6407  -17.9683   21.0148 C   0  0  0  0  0  0
  -29.6952  -17.1892   20.2915 C   0  0  0  0  0  0
  -29.4075  -20.1258   20.6113 C   0  0  0  0  0  0
  -30.4972  -19.3893   21.1663 C   0  0  0  0  0  0
  -28.2584  -25.0586   19.8764 C   0  0  0  0  0  0
  -28.7935  -23.9946   20.5756 C   0  0  0  0  0  0
  -28.6122  -22.5656   20.1256 C   0  0  0  0  0  0
  -29.8314  -15.7477   18.3519 C   0  0  0  0  0  0
  -29.3588  -21.5957   20.7626 N   0  0  0  0  0  0
  -29.8888  -15.7952   19.8278 N   0  0  0  0  0  0
  -27.8356  -22.2606   19.2187 O   0  0  0  0  0  0
  -29.4709  -24.2387   21.7083 O   0  0  0  0  0  0
  -31.4573  -20.0728   21.8353 F   0  0  0  0  0  0
  -31.4739  -12.5529   19.1428 H   0  0  0  0  0  0
  -30.4096  -11.4705   20.0028 H   0  0  0  0  0  0
  -29.7548  -11.5188   17.6158 H   0  0  0  0  0  0
  -29.6518  -13.2378   17.5873 H   0  0  0  0  0  0
  -27.8487  -11.2481   18.9437 H   0  0  0  0  0  0
  -27.3719  -12.4709   17.8012 H   0  0  0  0  0  0
  -27.6110  -14.2276   19.4366 H   0  0  0  0  0  0
  -28.7318  -12.2171   21.4483 H   0  0  0  0  0  0
  -28.4497  -13.9233   21.7344 H   0  0  0  0  0  0
  -25.2749   -9.5680   22.4774 H   0  0  0  0  0  0
  -23.9998   -7.4624   22.7471 H   0  0  0  0  0  0
  -21.0839   -8.8769   19.8950 H   0  0  0  0  0  0
  -22.3687  -10.9677   19.6180 H   0  0  0  0  0  0
  -21.2005   -7.6146   23.9713 H   0  0  0  0  0  0
  -21.1481   -6.0523   25.9077 H   0  0  0  0  0  0
  -22.0600   -2.7607   23.2849 H   0  0  0  0  0  0
  -22.4078  -11.9891   22.4815 H   0  0  0  0  0  0
  -21.1077  -13.1249   22.2617 H   0  0  0  0  0  0
  -24.6689  -15.8515   20.5428 H   0  0  0  0  0  0
  -26.2958  -15.6276   20.1404 H   0  0  0  0  0  0
  -26.7186  -32.5431   23.1090 H   0  0  0  0  0  0
  -25.0071  -33.9713   25.0413 H   0  0  0  0  0  0
  -22.7171  -31.3035   21.4009 H   0  0  0  0  0  0
  -23.3752  -35.9622   23.3304 H   0  0  0  0  0  0
  -24.3578  -36.8909   22.2053 H   0  0  0  0  0  0
  -23.7244  -37.6492   23.6661 H   0  0  0  0  0  0
  -26.1013  -31.5440   20.6084 H   0  0  0  0  0  0
  -26.8447  -30.8289   22.0078 H   0  0  0  0  0  0
  -28.1114  -28.9535   21.2039 H   0  0  0  0  0  0
  -25.9405  -25.9187   19.0111 H   0  0  0  0  0  0
  -23.9676  -27.3091   19.0114 H   0  0  0  0  0  0
  -23.7596  -30.5951   19.4036 H   0  0  0  0  0  0
  -22.7571  -29.2497   19.8554 H   0  0  0  0  0  0
  -25.1297  -36.1929   25.0821 H   0  0  0  0  0  0
  -20.9983  -28.3269   24.1397 H   0  0  0  0  0  0
  -20.5677  -26.2303   23.3611 H   0  0  0  0  0  0
  -21.6645  -26.7441   22.1202 H   0  0  0  0  0  0
  -19.6914  -25.6294   21.1242 H   0  0  0  0  0  0
  -19.6688  -27.3193   20.6741 H   0  0  0  0  0  0
  -17.4201  -26.6673   21.4029 H   0  0  0  0  0  0
  -18.0335  -26.0070   22.9022 H   0  0  0  0  0  0
  -19.7939  -30.7273   24.2264 H   0  0  0  0  0  0
  -17.5018  -31.6267   24.5164 H   0  0  0  0  0  0
  -15.5355  -30.2987   23.7655 H   0  0  0  0  0  0
  -15.8675  -28.0820   22.7070 H   0  0  0  0  0  0
  -24.5905  -30.7072   25.7776 H   0  0  0  0  0  0
  -24.8913  -32.2895   26.4865 H   0  0  0  0  0  0
  -25.8048  -30.8911   27.0227 H   0  0  0  0  0  0
  -26.2925  -29.6754   24.1213 H   0  0  0  0  0  0
  -27.4030  -29.7267   25.4705 H   0  0  0  0  0  0
  -27.8800  -30.4287   23.9431 H   0  0  0  0  0  0
  -27.2659  -33.3626   26.2070 H   0  0  0  0  0  0
  -28.3866  -32.6886   25.0328 H   0  0  0  0  0  0
  -28.0718  -31.8455   26.5418 H   0  0  0  0  0  0
  -28.2600  -38.0096   24.7508 H   0  0  0  0  0  0
  -28.1072  -36.2626   24.6299 H   0  0  0  0  0  0
  -27.2295  -37.1460   25.8869 H   0  0  0  0  0  0
  -20.9375  -29.8767   21.6878 H   0  0  0  0  0  0
  -26.0173  -38.2850   24.1403 H   0  0  0  0  0  0
  -27.8081  -17.4019   19.2462 H   0  0  0  0  0  0
  -27.5516  -19.8021   19.5291 H   0  0  0  0  0  0
  -31.5329  -17.4989   21.4021 H   0  0  0  0  0  0
  -27.7214  -24.8868   18.9552 H   0  0  0  0  0  0
  -28.8735  -15.3640   18.0047 H   0  0  0  0  0  0
  -30.6288  -15.1467   17.9103 H   0  0  0  0  0  0
  -29.9601  -16.7322   17.8993 H   0  0  0  0  0  0
  -30.0677  -21.9496   21.3877 H   0  0  0  0  0  0
  -29.5197  -23.4258   22.1929 H   0  0  0  0  0  0
  1 25  1  0  0  0
  1 30  2  0  0  0
  1 82  1  0  0  0
  2  3  1  0  0  0
  2 25  1  0  0  0
  2 86  1  0  0  0
  2 87  1  0  0  0
  3  4  1  0  0  0
  3 88  1  0  0  0
  3 89  1  0  0  0
  4  5  1  0  0  0
  4 90  1  0  0  0
  4 91  1  0  0  0
  5  6  1  0  0  0
  5 26  1  0  0  0
  5 92  1  0  0  0
  6 25  1  0  0  0
  6 93  1  0  0  0
  6 94  1  0  0  0
  7  8  2  0  0  0
  7 26  1  0  0  0
  7 29  1  0  0  0
  8  9  1  0  0  0
  8 22  1  0  0  0
  9 10  1  0  0  0
  9 27  2  0  0  0
 10 11  2  0  0  0
 10 15  1  0  0  0
 11 12  1  0  0  0
 11 95  1  0  0  0
 12 13  2  0  0  0
 12 96  1  0  0  0
 13 14  1  0  0  0
 13 31  1  0  0  0
 14 15  2  0  0  0
 14 97  1  0  0  0
 15 98  1  0  0  0
 16 17  2  0  0  0
 16 21  1  0  0  0
 16 31  1  0  0  0
 17 18  1  0  0  0
 17 99  1  0  0  0
 18 19  2  0  0  0
 18100  1  0  0  0
 19 20  1  0  0  0
 19 24  1  0  0  0
 20 21  2  0  0  0
 20101  1  0  0  0
 21 23  1  0  0  0
 22 28  1  0  0  0
 22 32  2  0  0  0
 26 27  1  0  0  0
 28102  1  0  0  0
 28103  1  0  0  0
 29104  1  0  0  0
 29105  1  0  0  0
 33 34  1  0  0  0
 33 66  1  0  0  0
 33 70  2  0  0  0
 34 36  1  0  0  0
 34 59  1  0  0  0
 34106  1  0  0  0
 35 44  2  0  0  0
 35 45  1  0  0  0
 35 68  1  0  0  0
 36 56  1  0  0  0
 36107  1  0  0  0
 37 39  1  0  0  0
 37 47  1  0  0  0
 37 66  1  0  0  0
 37108  1  0  0  0
 38 43  2  0  0  0
 38 46  1  0  0  0
 38 47  1  0  0  0
 39 64  1  0  0  0
 39 67  2  0  0  0
 40 52  1  0  0  0
 40 53  2  0  0  0
 40 58  1  0  0  0
 41109  1  0  0  0
 41110  1  0  0  0
 41111  1  0  0  0
 41 48  1  0  0  0
 42 43  1  0  0  0
 42 66  1  0  0  0
 42112  1  0  0  0
 42113  1  0  0  0
 43 44  1  0  0  0
 44114  1  0  0  0
 45 46  2  0  0  0
 45115  1  0  0  0
 46116  1  0  0  0
 47117  1  0  0  0
 47118  1  0  0  0
 48 56  1  0  0  0
 48 65  1  0  0  0
 48119  1  0  0  0
 49 50  1  0  0  0
 49 53  1  0  0  0
 49 64  1  0  0  0
 49120  1  0  0  0
 50 51  1  0  0  0
 50121  1  0  0  0
 50122  1  0  0  0
 51 52  1  0  0  0
 51123  1  0  0  0
 51124  1  0  0  0
 52125  1  0  0  0
 52126  1  0  0  0
 53 54  1  0  0  0
 54 55  2  0  0  0
 54127  1  0  0  0
 55 57  1  0  0  0
 55128  1  0  0  0
 56 69  2  0  0  0
 57 58  2  0  0  0
 57129  1  0  0  0
 58130  1  0  0  0
 59 60  1  0  0  0
 59 61  1  0  0  0
 59 62  1  0  0  0
 60131  1  0  0  0
 60132  1  0  0  0
 60133  1  0  0  0
 61134  1  0  0  0
 61135  1  0  0  0
 61136  1  0  0  0
 62137  1  0  0  0
 62138  1  0  0  0
 62139  1  0  0  0
 63 65  1  0  0  0
 63140  1  0  0  0
 63141  1  0  0  0
 63142  1  0  0  0
 64143  1  0  0  0
 65144  1  0  0  0
 68 77  1  0  0  0
 71 72  2  0  0  0
 71 74  1  0  0  0
 71145  1  0  0  0
 72 75  1  0  0  0
 72146  1  0  0  0
 73 74  2  0  0  0
 73 76  1  0  0  0
 73147  1  0  0  0
 74 82  1  0  0  0
 75 76  2  0  0  0
 75 81  1  0  0  0
 76 85  1  0  0  0
 77 78  2  0  0  0
 77148  1  0  0  0
 78 79  1  0  0  0
 78 84  1  0  0  0
 79 81  1  0  0  0
 79 83  2  0  0  0
 80 82  1  0  0  0
 80149  1  0  0  0
 80150  1  0  0  0
 80151  1  0  0  0
 81152  1  0  0  0
 84153  1  0  0  0
M  ISO  4   1 100  68 101  77 101  82 100
M  END
> <chiral flag>
0

> <version>
0

> <s_m_source_file>
/data/baiqing/PycharmProjects/Reinvent-master-3.2/result/LINK_invent/BTK/process_docking_weight1_custom_product_contain_oxygen_bond_distance_aromatic_linkinvent_7_9_3/rearranged_h_0093.sdf

> <i_m_source_file_index>
53

> <r_mmod_Potential_Energy-OPLS-2005>
270.553466796875

> <r_mmod_Stretch_Energy-OPLS-2005>
96.3885803222656

> <r_mmod_Bend_Energy-OPLS-2005>
158.628753662109

> <r_mmod_Torsional_Energy-OPLS-2005>
327.462829589844

> <r_mmod_Improper_Torsional_Energy-OPLS-2005>
27.2949199676514

> <r_mmod_Van_der_Waal_Energy-OPLS-2005>
154.091445922852

> <r_mmod_Electrostatic_Energy-OPLS-2005>
-360.157531738281

> <r_mmod_Solvation_Energy-OPLS-2005>
-220.149719238281

> <b_mmod_Minimization_Converged-OPLS-2005>
0

> <r_mmod_RMS_Derivative-OPLS-2005>
0.0814424231648445

$$$$
54
                    3D
 Structure written by MMmdl.
156164  0  0  1  0            999 V2000
  -30.6359  -14.5547   20.5509 C   0  0  0  0  0  0
  -30.4380  -12.3499   19.4370 C   0  0  0  0  0  0
  -29.5070  -12.4896   18.2133 C   0  0  0  0  0  0
  -28.0258  -12.3375   18.6254 C   0  0  0  0  0  0
  -27.6523  -13.2011   19.8596 C   0  0  2  0  0  0
  -28.6911  -13.0233   20.9882 C   0  0  0  0  0  0
  -25.2571  -13.8131   20.5665 C   0  0  0  0  0  0
  -24.1817  -13.0429   20.9177 C   0  0  0  0  0  0
  -24.6342  -11.6890   20.8701 C   0  0  0  0  0  0
  -23.9004  -10.4292   21.0398 C   0  0  0  0  0  0
  -24.3575   -9.4226   21.9183 C   0  0  0  0  0  0
  -23.6273   -8.2246   22.0752 C   0  0  0  0  0  0
  -22.4254   -8.0266   21.3543 C   0  0  0  0  0  0
  -21.9862   -9.0239   20.4653 C   0  0  0  0  0  0
  -22.7165  -10.2139   20.3061 C   0  0  0  0  0  0
  -21.6854   -6.0718   22.5276 C   0  0  0  0  0  0
  -21.4018   -6.5627   23.8204 C   0  0  0  0  0  0
  -21.3671   -5.6781   24.9163 C   0  0  0  0  0  0
  -21.6041   -4.3035   24.7220 C   0  0  0  0  0  0
  -21.8824   -3.8134   23.4343 C   0  0  0  0  0  0
  -21.9198   -4.6949   22.3403 C   0  0  0  0  0  0
  -22.7858  -13.5258   21.1838 C   0  0  0  0  0  0
  -22.1672   -4.2135   21.0976 F   0  0  0  0  0  0
  -21.5634   -3.4527   25.7744 F   0  0  0  0  0  0
  -30.0119  -13.3504   20.4279 N   0  0  0  0  0  0
  -26.2964  -12.9279   20.3247 N   0  0  0  0  0  0
  -25.9261  -11.6453   20.5684 N   0  0  0  0  0  0
  -22.0478  -12.8285   22.0403 N   0  0  0  0  0  0
  -25.4300  -15.1847   20.4082 N   0  0  0  0  0  0
  -31.8023  -14.7379   20.1869 O   0  0  0  0  0  0
  -21.6633   -6.8858   21.4232 O   0  0  0  0  0  0
  -22.3568  -14.5575   20.6675 O   0  0  0  0  0  0
  -24.6178  -31.8662   23.2093 C   0  0  0  0  0  0
  -25.9053  -32.4823   23.8394 C   0  0  1  0  0  0
  -27.2282  -27.3993   20.1197 C   0  0  0  0  0  0
  -25.5895  -33.8626   24.2318 N   0  0  0  0  0  0
  -23.4084  -30.4898   21.5478 C   0  0  2  0  0  0
  -24.8578  -28.9502   20.1170 C   0  0  0  0  0  0
  -22.7427  -29.4658   22.4958 C   0  0  0  0  0  0
  -18.0274  -28.1397   22.8492 C   0  0  0  0  0  0
  -24.1483  -36.7319   23.2633 C   0  0  0  0  0  0
  -25.9403  -30.8229   21.3683 C   0  0  0  0  0  0
  -26.0194  -29.4527   20.7183 C   0  0  0  0  0  0
  -27.2117  -28.6862   20.7132 C   0  0  0  0  0  0
  -26.0535  -26.9178   19.5089 C   0  0  0  0  0  0
  -24.8713  -27.6837   19.5059 C   0  0  0  0  0  0
  -23.6223  -29.8232   20.1628 C   0  0  0  0  0  0
  -25.4101  -36.3111   24.0335 C   0  0  1  0  0  0
  -20.5861  -28.3684   23.1317 C   0  0  2  0  0  0
  -20.6766  -26.9417   22.5424 C   0  0  0  0  0  0
  -19.5749  -26.6399   21.5221 C   0  0  0  0  0  0
  -18.1923  -26.7944   22.1626 C   0  0  0  0  0  0
  -19.1520  -28.8858   23.2902 C   0  0  0  0  0  0
  -18.9452  -30.1453   23.8926 C   0  0  0  0  0  0
  -17.6453  -30.6601   24.0571 C   0  0  0  0  0  0
  -25.9036  -34.9474   23.5122 C   0  0  0  0  0  0
  -16.5344  -29.9107   23.6322 C   0  0  0  0  0  0
  -16.7262  -28.6522   23.0350 C   0  0  0  0  0  0
  -26.4468  -31.6620   25.0739 C   0  0  0  0  0  0
  -25.3726  -31.3785   26.1495 C   0  0  0  0  0  0
  -27.0282  -30.3039   24.6168 C   0  0  0  0  0  0
  -27.6064  -32.4335   25.7469 C   0  0  0  0  0  0
  -27.5584  -37.1795   24.8457 C   0  0  0  0  0  0
  -21.4146  -29.3043   22.3711 N   0  0  0  0  0  0
  -26.4291  -37.3794   23.9413 N   0  0  0  0  0  0
  -24.6733  -31.0739   22.1007 N   0  0  0  0  0  0
  -23.4176  -28.8190   23.3016 O   0  0  0  0  0  0
  -28.3610  -26.6107   20.0946 O   0  0  0  0  0  0
  -26.5598  -34.8927   22.4687 O   0  0  0  0  0  0
  -23.5360  -32.1421   23.7465 O   0  0  0  0  0  0
  -30.6045  -19.4209   22.5299 C   0  0  0  0  0  0
  -31.0191  -18.2383   23.1739 C   0  0  0  0  0  0
  -29.7023  -18.0950   20.6979 C   0  0  0  0  0  0
  -29.9349  -19.3794   21.2847 C   0  0  0  0  0  0
  -30.1336  -16.8908   21.3386 C   0  0  0  0  0  0
  -30.7855  -16.9807   22.5870 C   0  0  0  0  0  0
  -29.5997  -20.6861   20.5700 C   0  0  0  0  0  0
  -28.5031  -24.1260   20.5684 C   0  0  0  0  0  0
  -30.9934  -23.4450   20.3810 C   0  0  0  0  0  0
  -28.4254  -25.5851   21.1179 C   0  0  0  0  0  0
  -29.6544  -23.2131   21.1071 C   0  0  2  0  0  0
  -29.8050  -15.5924   20.8228 N   0  0  0  0  0  0
  -29.3690  -21.7682   21.3525 N   0  0  0  0  0  0
  -29.6039  -20.7394   19.3399 O   0  0  0  0  0  0
  -27.6741  -23.7307   19.7432 O   0  0  0  0  0  0
  -31.1605  -15.8580   23.2458 F   0  0  0  0  0  0
  -31.4812  -12.4804   19.1409 H   0  0  0  0  0  0
  -30.3685  -11.3498   19.8686 H   0  0  0  0  0  0
  -29.7603  -11.7387   17.4637 H   0  0  0  0  0  0
  -29.6597  -13.4609   17.7394 H   0  0  0  0  0  0
  -27.8495  -11.2843   18.8517 H   0  0  0  0  0  0
  -27.3750  -12.5805   17.7848 H   0  0  0  0  0  0
  -27.6795  -14.2373   19.5254 H   0  0  0  0  0  0
  -28.6868  -11.9975   21.3608 H   0  0  0  0  0  0
  -28.4430  -13.6479   21.8479 H   0  0  0  0  0  0
  -25.2716   -9.5734   22.4738 H   0  0  0  0  0  0
  -24.0001   -7.4649   22.7451 H   0  0  0  0  0  0
  -21.0795   -8.8758   19.8955 H   0  0  0  0  0  0
  -22.3609  -10.9684   19.6183 H   0  0  0  0  0  0
  -21.2014   -7.6134   23.9710 H   0  0  0  0  0  0
  -21.1478   -6.0502   25.9070 H   0  0  0  0  0  0
  -22.0590   -2.7596   23.2841 H   0  0  0  0  0  0
  -22.4083  -11.9991   22.4871 H   0  0  0  0  0  0
  -21.1113  -13.1381   22.2578 H   0  0  0  0  0  0
  -24.6562  -15.8315   20.5071 H   0  0  0  0  0  0
  -26.2632  -15.6217   20.0361 H   0  0  0  0  0  0
  -26.7128  -32.5523   23.1161 H   0  0  0  0  0  0
  -25.0026  -33.9778   25.0448 H   0  0  0  0  0  0
  -22.6987  -31.3076   21.4082 H   0  0  0  0  0  0
  -23.3742  -35.9656   23.3297 H   0  0  0  0  0  0
  -24.3586  -36.8934   22.2048 H   0  0  0  0  0  0
  -23.7237  -37.6528   23.6647 H   0  0  0  0  0  0
  -26.0560  -31.5867   20.5974 H   0  0  0  0  0  0
  -26.8281  -30.8791   21.9879 H   0  0  0  0  0  0
  -28.1111  -29.0713   21.1731 H   0  0  0  0  0  0
  -26.0533  -25.9439   19.0395 H   0  0  0  0  0  0
  -23.9794  -27.2942   19.0352 H   0  0  0  0  0  0
  -23.7384  -30.6001   19.4068 H   0  0  0  0  0  0
  -22.7446  -29.2494   19.8608 H   0  0  0  0  0  0
  -25.1270  -36.1974   25.0829 H   0  0  0  0  0  0
  -20.9964  -28.3268   24.1434 H   0  0  0  0  0  0
  -20.5688  -26.2287   23.3610 H   0  0  0  0  0  0
  -21.6635  -26.7478   22.1207 H   0  0  0  0  0  0
  -19.6907  -25.6312   21.1246 H   0  0  0  0  0  0
  -19.6695  -27.3214   20.6755 H   0  0  0  0  0  0
  -17.4190  -26.6692   21.4026 H   0  0  0  0  0  0
  -18.0322  -26.0091   22.9032 H   0  0  0  0  0  0
  -19.7926  -30.7259   24.2319 H   0  0  0  0  0  0
  -17.5013  -31.6289   24.5169 H   0  0  0  0  0  0
  -15.5344  -30.3026   23.7643 H   0  0  0  0  0  0
  -15.8654  -28.0859   22.7054 H   0  0  0  0  0  0
  -24.5858  -30.7177   25.7841 H   0  0  0  0  0  0
  -24.8968  -32.2976   26.4932 H   0  0  0  0  0  0
  -25.8051  -30.8948   27.0263 H   0  0  0  0  0  0
  -26.2842  -29.6822   24.1180 H   0  0  0  0  0  0
  -27.3960  -29.7271   25.4666 H   0  0  0  0  0  0
  -27.8722  -30.4319   23.9388 H   0  0  0  0  0  0
  -27.2697  -33.3599   26.2134 H   0  0  0  0  0  0
  -28.3806  -32.6967   25.0249 H   0  0  0  0  0  0
  -28.0826  -31.8425   26.5304 H   0  0  0  0  0  0
  -28.2609  -38.0082   24.7503 H   0  0  0  0  0  0
  -28.1062  -36.2618   24.6265 H   0  0  0  0  0  0
  -27.2311  -37.1441   25.8862 H   0  0  0  0  0  0
  -20.9302  -29.8750   21.6920 H   0  0  0  0  0  0
  -26.0180  -38.2869   24.1444 H   0  0  0  0  0  0
  -30.8341  -20.3673   23.0000 H   0  0  0  0  0  0
  -31.5201  -18.2957   24.1297 H   0  0  0  0  0  0
  -29.1967  -18.0370   19.7436 H   0  0  0  0  0  0
  -31.2532  -24.5042   20.3676 H   0  0  0  0  0  0
  -30.9509  -23.1110   19.3433 H   0  0  0  0  0  0
  -31.8098  -22.9190   20.8765 H   0  0  0  0  0  0
  -29.3031  -25.7778   21.7353 H   0  0  0  0  0  0
  -27.5636  -25.6543   21.7835 H   0  0  0  0  0  0
  -29.8359  -23.5716   22.1211 H   0  0  0  0  0  0
  -28.8310  -15.3414   20.8804 H   0  0  0  0  0  0
  -29.2347  -21.5425   22.3276 H   0  0  0  0  0  0
  1 25  1  0  0  0
  1 30  2  0  0  0
  1 82  1  0  0  0
  2  3  1  0  0  0
  2 25  1  0  0  0
  2 87  1  0  0  0
  2 88  1  0  0  0
  3  4  1  0  0  0
  3 89  1  0  0  0
  3 90  1  0  0  0
  4  5  1  0  0  0
  4 91  1  0  0  0
  4 92  1  0  0  0
  5  6  1  0  0  0
  5 26  1  0  0  0
  5 93  1  0  0  0
  6 25  1  0  0  0
  6 94  1  0  0  0
  6 95  1  0  0  0
  7  8  2  0  0  0
  7 26  1  0  0  0
  7 29  1  0  0  0
  8  9  1  0  0  0
  8 22  1  0  0  0
  9 10  1  0  0  0
  9 27  2  0  0  0
 10 11  2  0  0  0
 10 15  1  0  0  0
 11 12  1  0  0  0
 11 96  1  0  0  0
 12 13  2  0  0  0
 12 97  1  0  0  0
 13 14  1  0  0  0
 13 31  1  0  0  0
 14 15  2  0  0  0
 14 98  1  0  0  0
 15 99  1  0  0  0
 16 17  2  0  0  0
 16 21  1  0  0  0
 16 31  1  0  0  0
 17 18  1  0  0  0
 17100  1  0  0  0
 18 19  2  0  0  0
 18101  1  0  0  0
 19 20  1  0  0  0
 19 24  1  0  0  0
 20 21  2  0  0  0
 20102  1  0  0  0
 21 23  1  0  0  0
 22 28  1  0  0  0
 22 32  2  0  0  0
 26 27  1  0  0  0
 28103  1  0  0  0
 28104  1  0  0  0
 29105  1  0  0  0
 29106  1  0  0  0
 33 34  1  0  0  0
 33 66  1  0  0  0
 33 70  2  0  0  0
 34 36  1  0  0  0
 34 59  1  0  0  0
 34107  1  0  0  0
 35 44  2  0  0  0
 35 45  1  0  0  0
 35 68  1  0  0  0
 36 56  1  0  0  0
 36108  1  0  0  0
 37 39  1  0  0  0
 37 47  1  0  0  0
 37 66  1  0  0  0
 37109  1  0  0  0
 38 43  2  0  0  0
 38 46  1  0  0  0
 38 47  1  0  0  0
 39 64  1  0  0  0
 39 67  2  0  0  0
 40 52  1  0  0  0
 40 53  2  0  0  0
 40 58  1  0  0  0
 41110  1  0  0  0
 41111  1  0  0  0
 41112  1  0  0  0
 41 48  1  0  0  0
 42 43  1  0  0  0
 42 66  1  0  0  0
 42113  1  0  0  0
 42114  1  0  0  0
 43 44  1  0  0  0
 44115  1  0  0  0
 45 46  2  0  0  0
 45116  1  0  0  0
 46117  1  0  0  0
 47118  1  0  0  0
 47119  1  0  0  0
 48 56  1  0  0  0
 48 65  1  0  0  0
 48120  1  0  0  0
 49 50  1  0  0  0
 49 53  1  0  0  0
 49 64  1  0  0  0
 49121  1  0  0  0
 50 51  1  0  0  0
 50122  1  0  0  0
 50123  1  0  0  0
 51 52  1  0  0  0
 51124  1  0  0  0
 51125  1  0  0  0
 52126  1  0  0  0
 52127  1  0  0  0
 53 54  1  0  0  0
 54 55  2  0  0  0
 54128  1  0  0  0
 55 57  1  0  0  0
 55129  1  0  0  0
 56 69  2  0  0  0
 57 58  2  0  0  0
 57130  1  0  0  0
 58131  1  0  0  0
 59 60  1  0  0  0
 59 61  1  0  0  0
 59 62  1  0  0  0
 60132  1  0  0  0
 60133  1  0  0  0
 60134  1  0  0  0
 61135  1  0  0  0
 61136  1  0  0  0
 61137  1  0  0  0
 62138  1  0  0  0
 62139  1  0  0  0
 62140  1  0  0  0
 63 65  1  0  0  0
 63141  1  0  0  0
 63142  1  0  0  0
 63143  1  0  0  0
 64144  1  0  0  0
 65145  1  0  0  0
 68 80  1  0  0  0
 71 72  2  0  0  0
 71 74  1  0  0  0
 71146  1  0  0  0
 72 76  1  0  0  0
 72147  1  0  0  0
 73 74  2  0  0  0
 73 75  1  0  0  0
 73148  1  0  0  0
 74 77  1  0  0  0
 75 76  2  0  0  0
 75 82  1  0  0  0
 76 86  1  0  0  0
 77 83  1  0  0  0
 77 84  2  0  0  0
 78 80  1  0  0  0
 78 81  1  0  0  0
 78 85  2  0  0  0
 79149  1  0  0  0
 79150  1  0  0  0
 79151  1  0  0  0
 79 81  1  0  0  0
 80152  1  0  0  0
 80153  1  0  0  0
 81 83  1  0  0  0
 81154  1  0  0  0
 82155  1  0  0  0
 83156  1  0  0  0
M  ISO  4   1 100  68 101  80 101  82 100
M  END
> <chiral flag>
0

> <version>
0

> <s_m_source_file>
/data/baiqing/PycharmProjects/Reinvent-master-3.2/result/LINK_invent/BTK/process_docking_weight1_custom_product_contain_oxygen_bond_distance_aromatic_linkinvent_7_9_3/rearranged_h_0093.sdf

> <i_m_source_file_index>
54

> <r_mmod_Potential_Energy-OPLS-2005>
-70.3705596923828

> <r_mmod_Stretch_Energy-OPLS-2005>
49.6094779968262

> <r_mmod_Bend_Energy-OPLS-2005>
112.997871398926

> <r_mmod_Torsional_Energy-OPLS-2005>
292.552978515625

> <r_mmod_Improper_Torsional_Energy-OPLS-2005>
9.53750419616699

> <r_mmod_Van_der_Waal_Energy-OPLS-2005>
140.405975341797

> <r_mmod_Electrostatic_Energy-OPLS-2005>
-440.138824462891

> <r_mmod_Solvation_Energy-OPLS-2005>
-260.365112304688

> <b_mmod_Minimization_Converged-OPLS-2005>
0

> <r_mmod_RMS_Derivative-OPLS-2005>
2.58162069320679

$$$$
55
                    3D
 Structure written by MMmdl.
159167  0  0  1  0            999 V2000
  -30.6731  -14.7086   20.3992 C   0  0  0  0  0  0
  -30.4185  -12.4225   19.4569 C   0  0  0  0  0  0
  -29.4892  -12.4340   18.2266 C   0  0  0  0  0  0
  -28.0145  -12.3081   18.6514 C   0  0  0  0  0  0
  -27.6334  -13.2234   19.8482 C   0  0  2  0  0  0
  -28.6933  -13.2006   20.9670 C   0  0  0  0  0  0
  -25.2497  -13.8196   20.5749 C   0  0  0  0  0  0
  -24.1780  -13.0448   20.9246 C   0  0  0  0  0  0
  -24.6362  -11.6923   20.8808 C   0  0  0  0  0  0
  -23.9045  -10.4301   21.0440 C   0  0  0  0  0  0
  -24.3607   -9.4210   21.9203 C   0  0  0  0  0  0
  -23.6293   -8.2240   22.0759 C   0  0  0  0  0  0
  -22.4278   -8.0278   21.3544 C   0  0  0  0  0  0
  -21.9908   -9.0251   20.4647 C   0  0  0  0  0  0
  -22.7228  -10.2138   20.3073 C   0  0  0  0  0  0
  -21.6855   -6.0732   22.5276 C   0  0  0  0  0  0
  -21.4011   -6.5636   23.8207 C   0  0  0  0  0  0
  -21.3662   -5.6793   24.9172 C   0  0  0  0  0  0
  -21.6049   -4.3057   24.7226 C   0  0  0  0  0  0
  -21.8821   -3.8144   23.4348 C   0  0  0  0  0  0
  -21.9197   -4.6958   22.3402 C   0  0  0  0  0  0
  -22.7800  -13.5233   21.1875 C   0  0  0  0  0  0
  -22.1663   -4.2141   21.0982 F   0  0  0  0  0  0
  -21.5636   -3.4542   25.7741 F   0  0  0  0  0  0
  -29.9799  -13.5220   20.3402 N   0  0  0  0  0  0
  -26.2914  -12.9377   20.3382 N   0  0  0  0  0  0
  -25.9301  -11.6535   20.5879 N   0  0  0  0  0  0
  -22.0441  -12.8228   22.0430 N   0  0  0  0  0  0
  -25.4200  -15.1915   20.4127 N   0  0  0  0  0  0
  -31.8996  -14.6874   20.2766 O   0  0  0  0  0  0
  -21.6646   -6.8873   21.4235 O   0  0  0  0  0  0
  -22.3494  -14.5537   20.6710 O   0  0  0  0  0  0
  -24.6269  -31.8595   23.2028 C   0  0  0  0  0  0
  -25.9112  -32.4779   23.8359 C   0  0  1  0  0  0
  -27.2149  -27.3111   20.1279 C   0  0  0  0  0  0
  -25.5927  -33.8581   24.2284 N   0  0  0  0  0  0
  -23.4215  -30.4836   21.5452 C   0  0  2  0  0  0
  -24.8689  -28.9408   20.1078 C   0  0  0  0  0  0
  -22.7484  -29.4624   22.4932 C   0  0  0  0  0  0
  -18.0288  -28.1389   22.8489 C   0  0  0  0  0  0
  -24.1489  -36.7297   23.2639 C   0  0  0  0  0  0
  -25.9631  -30.7885   21.3759 C   0  0  0  0  0  0
  -26.0379  -29.4157   20.7182 C   0  0  0  0  0  0
  -27.2186  -28.6124   20.7189 C   0  0  0  0  0  0
  -26.0340  -26.9003   19.4740 C   0  0  0  0  0  0
  -24.8696  -27.6895   19.4734 C   0  0  0  0  0  0
  -23.6367  -29.8207   20.1594 C   0  0  0  0  0  0
  -25.4114  -36.3085   24.0329 C   0  0  1  0  0  0
  -20.5891  -28.3695   23.1282 C   0  0  2  0  0  0
  -20.6778  -26.9416   22.5413 C   0  0  0  0  0  0
  -19.5750  -26.6385   21.5218 C   0  0  0  0  0  0
  -18.1930  -26.7933   22.1629 C   0  0  0  0  0  0
  -19.1541  -28.8858   23.2882 C   0  0  0  0  0  0
  -18.9461  -30.1461   23.8896 C   0  0  0  0  0  0
  -17.6460  -30.6588   24.0566 C   0  0  0  0  0  0
  -25.9048  -34.9453   23.5106 C   0  0  0  0  0  0
  -16.5352  -29.9086   23.6332 C   0  0  0  0  0  0
  -16.7275  -28.6507   23.0350 C   0  0  0  0  0  0
  -26.4495  -31.6590   25.0731 C   0  0  0  0  0  0
  -25.3727  -31.3726   26.1458 C   0  0  0  0  0  0
  -27.0338  -30.3013   24.6189 C   0  0  0  0  0  0
  -27.6053  -32.4328   25.7502 C   0  0  0  0  0  0
  -27.5581  -37.1804   24.8465 C   0  0  0  0  0  0
  -21.4196  -29.3046   22.3673 N   0  0  0  0  0  0
  -26.4292  -37.3779   23.9407 N   0  0  0  0  0  0
  -24.6892  -31.0603   22.0982 N   0  0  0  0  0  0
  -23.4203  -28.8159   23.3013 O   0  0  0  0  0  0
  -28.2878  -26.4094   20.1830 O   0  0  0  0  0  0
  -26.5617  -34.8920   22.4672 O   0  0  0  0  0  0
  -23.5429  -32.1399   23.7349 O   0  0  0  0  0  0
  -28.0487  -18.8083   21.2132 C   0  0  0  0  0  0
  -30.2783  -19.2910   20.4736 C   0  0  0  0  0  0
  -27.7330  -20.1971   21.1445 C   0  0  0  0  0  0
  -29.9605  -20.6905   20.3981 C   0  0  0  0  0  0
  -29.3306  -18.2999   20.8802 C   0  0  0  0  0  0
  -28.6727  -21.1868   20.7475 C   0  0  0  0  0  0
  -29.6793  -16.7993   21.1275 C   0  0  0  0  0  0
  -28.7683  -23.8008   20.4024 C   0  0  0  0  0  0
  -31.1600  -15.9551   17.7710 C   0  0  0  0  0  0
  -28.6444  -16.2631   18.0183 C   0  0  0  0  0  0
  -27.9646  -25.1048   20.8255 C   0  0  0  0  0  0
  -30.0149  -16.4263   18.7017 C   0  0  0  0  0  0
  -28.2476  -22.5933   20.8060 N   0  0  0  0  0  0
  -30.0103  -15.9047   20.1162 N   0  0  0  0  0  0
  -29.6168  -16.4350   22.3082 O   0  0  0  0  0  0
  -29.8102  -23.8941   19.7479 O   0  0  0  0  0  0
  -31.4568  -12.5285   19.1385 H   0  0  0  0  0  0
  -30.3601  -11.4663   19.9790 H   0  0  0  0  0  0
  -29.7500  -11.6150   17.5554 H   0  0  0  0  0  0
  -29.6270  -13.3427   17.6476 H   0  0  0  0  0  0
  -27.8496  -11.2647   18.9223 H   0  0  0  0  0  0
  -27.3585  -12.5049   17.8029 H   0  0  0  0  0  0
  -27.6077  -14.2379   19.4657 H   0  0  0  0  0  0
  -28.7327  -12.2263   21.4559 H   0  0  0  0  0  0
  -28.4476  -13.9292   21.7407 H   0  0  0  0  0  0
  -25.2748   -9.5695   22.4783 H   0  0  0  0  0  0
  -24.0008   -7.4634   22.7480 H   0  0  0  0  0  0
  -21.0840   -8.8768   19.8951 H   0  0  0  0  0  0
  -22.3684  -10.9682   19.6190 H   0  0  0  0  0  0
  -21.1992   -7.6143   23.9700 H   0  0  0  0  0  0
  -21.1488   -6.0530   25.9073 H   0  0  0  0  0  0
  -22.0599   -2.7607   23.2853 H   0  0  0  0  0  0
  -22.4052  -11.9885   22.4816 H   0  0  0  0  0  0
  -21.1056  -13.1253   22.2633 H   0  0  0  0  0  0
  -24.6499  -15.8438   20.5138 H   0  0  0  0  0  0
  -26.2672  -15.6266   20.0738 H   0  0  0  0  0  0
  -26.7183  -32.5448   23.1112 H   0  0  0  0  0  0
  -25.0079  -33.9730   25.0431 H   0  0  0  0  0  0
  -22.7155  -31.3045   21.4030 H   0  0  0  0  0  0
  -23.3750  -35.9631   23.3301 H   0  0  0  0  0  0
  -24.3581  -36.8918   22.2054 H   0  0  0  0  0  0
  -23.7242  -37.6499   23.6661 H   0  0  0  0  0  0
  -26.0950  -31.5510   20.6071 H   0  0  0  0  0  0
  -26.8436  -30.8378   22.0049 H   0  0  0  0  0  0
  -28.1127  -28.9664   21.2130 H   0  0  0  0  0  0
  -25.9991  -25.9410   18.9770 H   0  0  0  0  0  0
  -23.9776  -27.3243   18.9829 H   0  0  0  0  0  0
  -23.7545  -30.5988   19.4043 H   0  0  0  0  0  0
  -22.7567  -29.2501   19.8567 H   0  0  0  0  0  0
  -25.1295  -36.1940   25.0822 H   0  0  0  0  0  0
  -20.9985  -28.3269   24.1403 H   0  0  0  0  0  0
  -20.5684  -26.2304   23.3614 H   0  0  0  0  0  0
  -21.6643  -26.7447   22.1197 H   0  0  0  0  0  0
  -19.6908  -25.6295   21.1248 H   0  0  0  0  0  0
  -19.6686  -27.3198   20.6749 H   0  0  0  0  0  0
  -17.4202  -26.6688   21.4028 H   0  0  0  0  0  0
  -18.0323  -26.0074   22.9023 H   0  0  0  0  0  0
  -19.7936  -30.7281   24.2262 H   0  0  0  0  0  0
  -17.5012  -31.6268   24.5167 H   0  0  0  0  0  0
  -15.5352  -30.2985   23.7655 H   0  0  0  0  0  0
  -15.8678  -28.0824   22.7061 H   0  0  0  0  0  0
  -24.5905  -30.7074   25.7785 H   0  0  0  0  0  0
  -24.8916  -32.2890   26.4887 H   0  0  0  0  0  0
  -25.8052  -30.8901   27.0233 H   0  0  0  0  0  0
  -26.2913  -29.6766   24.1210 H   0  0  0  0  0  0
  -27.4029  -29.7269   25.4697 H   0  0  0  0  0  0
  -27.8787  -30.4298   23.9421 H   0  0  0  0  0  0
  -27.2663  -33.3631   26.2076 H   0  0  0  0  0  0
  -28.3865  -32.6888   25.0331 H   0  0  0  0  0  0
  -28.0721  -31.8457   26.5423 H   0  0  0  0  0  0
  -28.2596  -38.0102   24.7510 H   0  0  0  0  0  0
  -28.1077  -36.2634   24.6292 H   0  0  0  0  0  0
  -27.2299  -37.1454   25.8867 H   0  0  0  0  0  0
  -20.9373  -29.8774   21.6889 H   0  0  0  0  0  0
  -26.0175  -38.2855   24.1404 H   0  0  0  0  0  0
  -27.2893  -18.1208   21.5604 H   0  0  0  0  0  0
  -31.2869  -18.9793   20.2396 H   0  0  0  0  0  0
  -26.7368  -20.5024   21.4339 H   0  0  0  0  0  0
  -30.7348  -21.3848   20.1017 H   0  0  0  0  0  0
  -31.0700  -16.4123   16.7847 H   0  0  0  0  0  0
  -31.1782  -14.8787   17.6163 H   0  0  0  0  0  0
  -32.1351  -16.2519   18.1610 H   0  0  0  0  0  0
  -28.5953  -16.8619   17.1077 H   0  0  0  0  0  0
  -27.8274  -16.5973   18.6583 H   0  0  0  0  0  0
  -28.4477  -15.2362   17.7200 H   0  0  0  0  0  0
  -28.1296  -25.2400   21.8949 H   0  0  0  0  0  0
  -26.9069  -24.8587   20.7365 H   0  0  0  0  0  0
  -30.1887  -17.4968   18.7021 H   0  0  0  0  0  0
  -27.3579  -22.7177   21.2692 H   0  0  0  0  0  0
  1 25  1  0  0  0
  1 30  2  0  0  0
  1 84  1  0  0  0
  2  3  1  0  0  0
  2 25  1  0  0  0
  2 87  1  0  0  0
  2 88  1  0  0  0
  3  4  1  0  0  0
  3 89  1  0  0  0
  3 90  1  0  0  0
  4  5  1  0  0  0
  4 91  1  0  0  0
  4 92  1  0  0  0
  5  6  1  0  0  0
  5 26  1  0  0  0
  5 93  1  0  0  0
  6 25  1  0  0  0
  6 94  1  0  0  0
  6 95  1  0  0  0
  7  8  2  0  0  0
  7 26  1  0  0  0
  7 29  1  0  0  0
  8  9  1  0  0  0
  8 22  1  0  0  0
  9 10  1  0  0  0
  9 27  2  0  0  0
 10 11  2  0  0  0
 10 15  1  0  0  0
 11 12  1  0  0  0
 11 96  1  0  0  0
 12 13  2  0  0  0
 12 97  1  0  0  0
 13 14  1  0  0  0
 13 31  1  0  0  0
 14 15  2  0  0  0
 14 98  1  0  0  0
 15 99  1  0  0  0
 16 17  2  0  0  0
 16 21  1  0  0  0
 16 31  1  0  0  0
 17 18  1  0  0  0
 17100  1  0  0  0
 18 19  2  0  0  0
 18101  1  0  0  0
 19 20  1  0  0  0
 19 24  1  0  0  0
 20 21  2  0  0  0
 20102  1  0  0  0
 21 23  1  0  0  0
 22 28  1  0  0  0
 22 32  2  0  0  0
 26 27  1  0  0  0
 28103  1  0  0  0
 28104  1  0  0  0
 29105  1  0  0  0
 29106  1  0  0  0
 33 34  1  0  0  0
 33 66  1  0  0  0
 33 70  2  0  0  0
 34 36  1  0  0  0
 34 59  1  0  0  0
 34107  1  0  0  0
 35 44  2  0  0  0
 35 45  1  0  0  0
 35 68  1  0  0  0
 36 56  1  0  0  0
 36108  1  0  0  0
 37 39  1  0  0  0
 37 47  1  0  0  0
 37 66  1  0  0  0
 37109  1  0  0  0
 38 43  2  0  0  0
 38 46  1  0  0  0
 38 47  1  0  0  0
 39 64  1  0  0  0
 39 67  2  0  0  0
 40 52  1  0  0  0
 40 53  2  0  0  0
 40 58  1  0  0  0
 41110  1  0  0  0
 41111  1  0  0  0
 41112  1  0  0  0
 41 48  1  0  0  0
 42 43  1  0  0  0
 42 66  1  0  0  0
 42113  1  0  0  0
 42114  1  0  0  0
 43 44  1  0  0  0
 44115  1  0  0  0
 45 46  2  0  0  0
 45116  1  0  0  0
 46117  1  0  0  0
 47118  1  0  0  0
 47119  1  0  0  0
 48 56  1  0  0  0
 48 65  1  0  0  0
 48120  1  0  0  0
 49 50  1  0  0  0
 49 53  1  0  0  0
 49 64  1  0  0  0
 49121  1  0  0  0
 50 51  1  0  0  0
 50122  1  0  0  0
 50123  1  0  0  0
 51 52  1  0  0  0
 51124  1  0  0  0
 51125  1  0  0  0
 52126  1  0  0  0
 52127  1  0  0  0
 53 54  1  0  0  0
 54 55  2  0  0  0
 54128  1  0  0  0
 55 57  1  0  0  0
 55129  1  0  0  0
 56 69  2  0  0  0
 57 58  2  0  0  0
 57130  1  0  0  0
 58131  1  0  0  0
 59 60  1  0  0  0
 59 61  1  0  0  0
 59 62  1  0  0  0
 60132  1  0  0  0
 60133  1  0  0  0
 60134  1  0  0  0
 61135  1  0  0  0
 61136  1  0  0  0
 61137  1  0  0  0
 62138  1  0  0  0
 62139  1  0  0  0
 62140  1  0  0  0
 63 65  1  0  0  0
 63141  1  0  0  0
 63142  1  0  0  0
 63143  1  0  0  0
 64144  1  0  0  0
 65145  1  0  0  0
 68 81  1  0  0  0
 71 73  2  0  0  0
 71 75  1  0  0  0
 71146  1  0  0  0
 72 74  1  0  0  0
 72 75  2  0  0  0
 72147  1  0  0  0
 73 76  1  0  0  0
 73148  1  0  0  0
 74 76  2  0  0  0
 74149  1  0  0  0
 75 77  1  0  0  0
 76 83  1  0  0  0
 77 84  1  0  0  0
 77 85  2  0  0  0
 78 81  1  0  0  0
 78 83  1  0  0  0
 78 86  2  0  0  0
 79150  1  0  0  0
 79151  1  0  0  0
 79152  1  0  0  0
 79 82  1  0  0  0
 80 82  1  0  0  0
 80153  1  0  0  0
 80154  1  0  0  0
 80155  1  0  0  0
 81156  1  0  0  0
 81157  1  0  0  0
 82 84  1  0  0  0
 82158  1  0  0  0
 83159  1  0  0  0
M  ISO  4   1 100  68 101  81 101  84 100
M  END
> <chiral flag>
0

> <version>
0

> <s_m_source_file>
/data/baiqing/PycharmProjects/Reinvent-master-3.2/result/LINK_invent/BTK/process_docking_weight1_custom_product_contain_oxygen_bond_distance_aromatic_linkinvent_7_9_3/rearranged_h_0093.sdf

> <i_m_source_file_index>
55

> <r_mmod_Potential_Energy-OPLS-2005>
388.730407714844

> <r_mmod_Stretch_Energy-OPLS-2005>
98.234619140625

> <r_mmod_Bend_Energy-OPLS-2005>
171.397598266602

> <r_mmod_Torsional_Energy-OPLS-2005>
358.049743652344

> <r_mmod_Improper_Torsional_Energy-OPLS-2005>
16.0927543640137

> <r_mmod_Van_der_Waal_Energy-OPLS-2005>
147.507598876953

> <r_mmod_Electrostatic_Energy-OPLS-2005>
-260.572113037109

> <r_mmod_Solvation_Energy-OPLS-2005>
-222.976531982422

> <b_mmod_Minimization_Converged-OPLS-2005>
0

> <r_mmod_RMS_Derivative-OPLS-2005>
0.695731222629547

$$$$
56
                    3D
 Structure written by MMmdl.
158167  0  0  1  0            999 V2000
  -30.6167  -14.8059   20.5049 C   0  0  0  0  0  0
  -30.4326  -12.5088   19.4840 C   0  0  0  0  0  0
  -29.5139  -12.5301   18.2416 C   0  0  0  0  0  0
  -28.0411  -12.3362   18.6488 C   0  0  0  0  0  0
  -27.6376  -13.2362   19.8448 C   0  0  2  0  0  0
  -28.6757  -13.1721   20.9803 C   0  0  0  0  0  0
  -25.2498  -13.8202   20.5692 C   0  0  0  0  0  0
  -24.1792  -13.0441   20.9195 C   0  0  0  0  0  0
  -24.6389  -11.6920   20.8728 C   0  0  0  0  0  0
  -23.9070  -10.4295   21.0399 C   0  0  0  0  0  0
  -24.3621   -9.4212   21.9179 C   0  0  0  0  0  0
  -23.6296   -8.2247   22.0752 C   0  0  0  0  0  0
  -22.4277   -8.0282   21.3545 C   0  0  0  0  0  0
  -21.9912   -9.0255   20.4646 C   0  0  0  0  0  0
  -22.7241  -10.2134   20.3052 C   0  0  0  0  0  0
  -21.6855   -6.0736   22.5280 C   0  0  0  0  0  0
  -21.4016   -6.5640   23.8213 C   0  0  0  0  0  0
  -21.3661   -5.6793   24.9175 C   0  0  0  0  0  0
  -21.6044   -4.3055   24.7225 C   0  0  0  0  0  0
  -21.8819   -3.8147   23.4347 C   0  0  0  0  0  0
  -21.9193   -4.6964   22.3403 C   0  0  0  0  0  0
  -22.7817  -13.5221   21.1869 C   0  0  0  0  0  0
  -22.1661   -4.2149   21.0980 F   0  0  0  0  0  0
  -21.5629   -3.4539   25.7738 F   0  0  0  0  0  0
  -29.9733  -13.5764   20.4147 N   0  0  0  0  0  0
  -26.2910  -12.9411   20.3232 N   0  0  0  0  0  0
  -25.9315  -11.6550   20.5707 N   0  0  0  0  0  0
  -22.0472  -12.8206   22.0428 N   0  0  0  0  0  0
  -25.4213  -15.1929   20.4164 N   0  0  0  0  0  0
  -31.7805  -14.8769   20.0951 O   0  0  0  0  0  0
  -21.6642   -6.8879   21.4242 O   0  0  0  0  0  0
  -22.3495  -14.5527   20.6722 O   0  0  0  0  0  0
  -24.6356  -31.8517   23.1951 C   0  0  0  0  0  0
  -25.9161  -32.4738   23.8315 C   0  0  1  0  0  0
  -27.2203  -27.2273   20.1371 C   0  0  0  0  0  0
  -25.5939  -33.8541   24.2235 N   0  0  0  0  0  0
  -23.4359  -30.4725   21.5387 C   0  0  2  0  0  0
  -24.8871  -28.9139   20.1102 C   0  0  0  0  0  0
  -22.7531  -29.4582   22.4891 C   0  0  0  0  0  0
  -18.0298  -28.1392   22.8482 C   0  0  0  0  0  0
  -24.1490  -36.7275   23.2641 C   0  0  0  0  0  0
  -25.9855  -30.7532   21.3822 C   0  0  0  0  0  0
  -26.0611  -29.3721   20.7247 C   0  0  0  0  0  0
  -27.2345  -28.5413   20.7280 C   0  0  0  0  0  0
  -26.0269  -26.8464   19.4917 C   0  0  0  0  0  0
  -24.8765  -27.6598   19.4808 C   0  0  0  0  0  0
  -23.6587  -29.8048   20.1563 C   0  0  0  0  0  0
  -25.4119  -36.3058   24.0322 C   0  0  1  0  0  0
  -20.5906  -28.3710   23.1254 C   0  0  2  0  0  0
  -20.6785  -26.9421   22.5406 C   0  0  0  0  0  0
  -19.5759  -26.6383   21.5213 C   0  0  0  0  0  0
  -18.1940  -26.7932   22.1624 C   0  0  0  0  0  0
  -19.1553  -28.8868   23.2862 C   0  0  0  0  0  0
  -18.9472  -30.1466   23.8884 C   0  0  0  0  0  0
  -17.6470  -30.6591   24.0561 C   0  0  0  0  0  0
  -25.9063  -34.9430   23.5083 C   0  0  0  0  0  0
  -16.5361  -29.9086   23.6334 C   0  0  0  0  0  0
  -16.7283  -28.6503   23.0356 C   0  0  0  0  0  0
  -26.4512  -31.6577   25.0722 C   0  0  0  0  0  0
  -25.3718  -31.3740   26.1430 C   0  0  0  0  0  0
  -27.0370  -30.2987   24.6245 C   0  0  0  0  0  0
  -27.6053  -32.4330   25.7502 C   0  0  0  0  0  0
  -27.5578  -37.1793   24.8465 C   0  0  0  0  0  0
  -21.4232  -29.3047   22.3635 N   0  0  0  0  0  0
  -26.4289  -37.3763   23.9408 N   0  0  0  0  0  0
  -24.7047  -31.0445   22.0947 N   0  0  0  0  0  0
  -23.4207  -28.8126   23.3012 O   0  0  0  0  0  0
  -28.2518  -26.2502   20.1733 O   0  0  0  0  0  0
  -26.5641  -34.8913   22.4656 O   0  0  0  0  0  0
  -23.5492  -32.1355   23.7217 O   0  0  0  0  0  0
  -30.0504  -19.8854   18.8192 C   0  0  0  0  0  0
  -30.4454  -17.4503   18.9317 C   0  0  0  0  0  0
  -29.4803  -19.9264   20.1089 C   0  0  0  0  0  0
  -30.5097  -18.6811   18.2406 C   0  0  0  0  0  0
  -29.9331  -17.3443   20.2481 C   0  0  0  0  0  0
  -29.4307  -18.6226   20.8016 C   0  0  0  0  0  0
  -28.2918  -23.6826   20.8732 C   0  0  0  0  0  0
  -27.7728  -22.8126   21.9521 C   0  0  0  0  0  0
  -27.9771  -25.0577   20.9190 C   0  0  0  0  0  0
  -29.0786  -22.6355   19.9835 C   0  0  0  0  0  0
  -28.2113  -21.3445   21.8148 C   0  0  0  0  0  0
  -29.5873  -15.9765   22.3498 C   0  0  0  0  0  0
  -29.0058  -21.2357   20.5971 N   0  0  0  0  0  0
  -31.0465  -18.7067   16.9528 N   0  0  0  0  0  0
  -29.9428  -15.9770   20.9246 N   0  0  0  0  0  0
  -27.0580  -23.1740   22.8926 O   0  0  0  0  0  0
  -28.8757  -18.6141   22.0377 F   0  0  0  0  0  0
  -31.4714  -12.6396   19.1771 H   0  0  0  0  0  0
  -30.3958  -11.5342   19.9732 H   0  0  0  0  0  0
  -29.8125  -11.7538   17.5359 H   0  0  0  0  0  0
  -29.6276  -13.4807   17.7180 H   0  0  0  0  0  0
  -27.9088  -11.2871   18.9163 H   0  0  0  0  0  0
  -27.3841  -12.5181   17.7976 H   0  0  0  0  0  0
  -27.6307  -14.2593   19.4675 H   0  0  0  0  0  0
  -28.7338  -12.1647   21.3949 H   0  0  0  0  0  0
  -28.3534  -13.8066   21.8010 H   0  0  0  0  0  0
  -25.2766   -9.5691   22.4752 H   0  0  0  0  0  0
  -24.0008   -7.4640   22.7472 H   0  0  0  0  0  0
  -21.0844   -8.8773   19.8952 H   0  0  0  0  0  0
  -22.3697  -10.9671   19.6161 H   0  0  0  0  0  0
  -21.2007   -7.6148   23.9717 H   0  0  0  0  0  0
  -21.1483   -6.0523   25.9079 H   0  0  0  0  0  0
  -22.0597   -2.7609   23.2847 H   0  0  0  0  0  0
  -22.4096  -11.9868   22.4811 H   0  0  0  0  0  0
  -21.1091  -13.1227   22.2644 H   0  0  0  0  0  0
  -24.6612  -15.8522   20.5428 H   0  0  0  0  0  0
  -26.2850  -15.6343   20.1272 H   0  0  0  0  0  0
  -26.7229  -32.5379   23.1056 H   0  0  0  0  0  0
  -25.0073  -33.9670   25.0371 H   0  0  0  0  0  0
  -22.7344  -31.2958   21.3889 H   0  0  0  0  0  0
  -23.3755  -35.9603   23.3297 H   0  0  0  0  0  0
  -24.3577  -36.8909   22.2057 H   0  0  0  0  0  0
  -23.7241  -37.6470   23.6675 H   0  0  0  0  0  0
  -26.1298  -31.5120   20.6118 H   0  0  0  0  0  0
  -26.8602  -30.8034   22.0190 H   0  0  0  0  0  0
  -28.1310  -28.8812   21.2271 H   0  0  0  0  0  0
  -25.9742  -25.8757   19.0190 H   0  0  0  0  0  0
  -23.9789  -27.3024   18.9952 H   0  0  0  0  0  0
  -23.7867  -30.5805   19.4004 H   0  0  0  0  0  0
  -22.7764  -29.2404   19.8492 H   0  0  0  0  0  0
  -25.1304  -36.1899   25.0815 H   0  0  0  0  0  0
  -20.9999  -28.3296   24.1375 H   0  0  0  0  0  0
  -20.5684  -26.2322   23.3618 H   0  0  0  0  0  0
  -21.6652  -26.7439   22.1202 H   0  0  0  0  0  0
  -19.6921  -25.6291   21.1252 H   0  0  0  0  0  0
  -19.6695  -27.3185   20.6736 H   0  0  0  0  0  0
  -17.4209  -26.6678   21.4028 H   0  0  0  0  0  0
  -18.0339  -26.0077   22.9024 H   0  0  0  0  0  0
  -19.7948  -30.7285   24.2248 H   0  0  0  0  0  0
  -17.5024  -31.6269   24.5166 H   0  0  0  0  0  0
  -15.5361  -30.2984   23.7665 H   0  0  0  0  0  0
  -15.8683  -28.0817   22.7080 H   0  0  0  0  0  0
  -24.5900  -30.7084   25.7753 H   0  0  0  0  0  0
  -24.8901  -32.2912   26.4826 H   0  0  0  0  0  0
  -25.8019  -30.8935   27.0226 H   0  0  0  0  0  0
  -26.2971  -29.6721   24.1251 H   0  0  0  0  0  0
  -27.4016  -29.7267   25.4788 H   0  0  0  0  0  0
  -27.8864  -30.4249   23.9527 H   0  0  0  0  0  0
  -27.2654  -33.3641   26.2049 H   0  0  0  0  0  0
  -28.3880  -32.6874   25.0343 H   0  0  0  0  0  0
  -28.0704  -31.8477   26.5445 H   0  0  0  0  0  0
  -28.2591  -38.0094   24.7515 H   0  0  0  0  0  0
  -28.1078  -36.2625   24.6289 H   0  0  0  0  0  0
  -27.2295  -37.1439   25.8867 H   0  0  0  0  0  0
  -20.9428  -29.8765   21.6828 H   0  0  0  0  0  0
  -26.0164  -38.2834   24.1411 H   0  0  0  0  0  0
  -30.1270  -20.7996   18.2493 H   0  0  0  0  0  0
  -30.8162  -16.5700   18.4283 H   0  0  0  0  0  0
  -27.3657  -25.3643   21.7583 H   0  0  0  0  0  0
  -30.1189  -22.9507   19.8919 H   0  0  0  0  0  0
  -28.6474  -22.6292   18.9815 H   0  0  0  0  0  0
  -27.3321  -20.7015   21.7631 H   0  0  0  0  0  0
  -28.7991  -21.0561   22.6868 H   0  0  0  0  0  0
  -30.1306  -16.7603   22.8781 H   0  0  0  0  0  0
  -29.8409  -15.0511   22.8715 H   0  0  0  0  0  0
  -28.5179  -16.1484   22.4773 H   0  0  0  0  0  0
  -30.8933  -19.5146   16.3559 H   0  0  0  0  0  0
  -31.1636  -17.8412   16.4337 H   0  0  0  0  0  0
  1 25  1  0  0  0
  1 30  2  0  0  0
  1 85  1  0  0  0
  2  3  1  0  0  0
  2 25  1  0  0  0
  2 88  1  0  0  0
  2 89  1  0  0  0
  3  4  1  0  0  0
  3 90  1  0  0  0
  3 91  1  0  0  0
  4  5  1  0  0  0
  4 92  1  0  0  0
  4 93  1  0  0  0
  5  6  1  0  0  0
  5 26  1  0  0  0
  5 94  1  0  0  0
  6 25  1  0  0  0
  6 95  1  0  0  0
  6 96  1  0  0  0
  7  8  2  0  0  0
  7 26  1  0  0  0
  7 29  1  0  0  0
  8  9  1  0  0  0
  8 22  1  0  0  0
  9 10  1  0  0  0
  9 27  2  0  0  0
 10 11  2  0  0  0
 10 15  1  0  0  0
 11 12  1  0  0  0
 11 97  1  0  0  0
 12 13  2  0  0  0
 12 98  1  0  0  0
 13 14  1  0  0  0
 13 31  1  0  0  0
 14 15  2  0  0  0
 14 99  1  0  0  0
 15100  1  0  0  0
 16 17  2  0  0  0
 16 21  1  0  0  0
 16 31  1  0  0  0
 17 18  1  0  0  0
 17101  1  0  0  0
 18 19  2  0  0  0
 18102  1  0  0  0
 19 20  1  0  0  0
 19 24  1  0  0  0
 20 21  2  0  0  0
 20103  1  0  0  0
 21 23  1  0  0  0
 22 28  1  0  0  0
 22 32  2  0  0  0
 26 27  1  0  0  0
 28104  1  0  0  0
 28105  1  0  0  0
 29106  1  0  0  0
 29107  1  0  0  0
 33 34  1  0  0  0
 33 66  1  0  0  0
 33 70  2  0  0  0
 34 36  1  0  0  0
 34 59  1  0  0  0
 34108  1  0  0  0
 35 44  2  0  0  0
 35 45  1  0  0  0
 35 68  1  0  0  0
 36 56  1  0  0  0
 36109  1  0  0  0
 37 39  1  0  0  0
 37 47  1  0  0  0
 37 66  1  0  0  0
 37110  1  0  0  0
 38 43  2  0  0  0
 38 46  1  0  0  0
 38 47  1  0  0  0
 39 64  1  0  0  0
 39 67  2  0  0  0
 40 52  1  0  0  0
 40 53  2  0  0  0
 40 58  1  0  0  0
 41111  1  0  0  0
 41112  1  0  0  0
 41113  1  0  0  0
 41 48  1  0  0  0
 42 43  1  0  0  0
 42 66  1  0  0  0
 42114  1  0  0  0
 42115  1  0  0  0
 43 44  1  0  0  0
 44116  1  0  0  0
 45 46  2  0  0  0
 45117  1  0  0  0
 46118  1  0  0  0
 47119  1  0  0  0
 47120  1  0  0  0
 48 56  1  0  0  0
 48 65  1  0  0  0
 48121  1  0  0  0
 49 50  1  0  0  0
 49 53  1  0  0  0
 49 64  1  0  0  0
 49122  1  0  0  0
 50 51  1  0  0  0
 50123  1  0  0  0
 50124  1  0  0  0
 51 52  1  0  0  0
 51125  1  0  0  0
 51126  1  0  0  0
 52127  1  0  0  0
 52128  1  0  0  0
 53 54  1  0  0  0
 54 55  2  0  0  0
 54129  1  0  0  0
 55 57  1  0  0  0
 55130  1  0  0  0
 56 69  2  0  0  0
 57 58  2  0  0  0
 57131  1  0  0  0
 58132  1  0  0  0
 59 60  1  0  0  0
 59 61  1  0  0  0
 59 62  1  0  0  0
 60133  1  0  0  0
 60134  1  0  0  0
 60135  1  0  0  0
 61136  1  0  0  0
 61137  1  0  0  0
 61138  1  0  0  0
 62139  1  0  0  0
 62140  1  0  0  0
 62141  1  0  0  0
 63 65  1  0  0  0
 63142  1  0  0  0
 63143  1  0  0  0
 63144  1  0  0  0
 64145  1  0  0  0
 65146  1  0  0  0
 68 79  1  0  0  0
 71 73  2  0  0  0
 71 74  1  0  0  0
 71147  1  0  0  0
 72 74  2  0  0  0
 72 75  1  0  0  0
 72148  1  0  0  0
 73 76  1  0  0  0
 73 83  1  0  0  0
 74 84  1  0  0  0
 75 76  2  0  0  0
 75 85  1  0  0  0
 76 87  1  0  0  0
 77 78  1  0  0  0
 77 79  2  0  0  0
 77 80  1  0  0  0
 78 81  1  0  0  0
 78 86  2  0  0  0
 79149  1  0  0  0
 80 83  1  0  0  0
 80150  1  0  0  0
 80151  1  0  0  0
 81 83  1  0  0  0
 81152  1  0  0  0
 81153  1  0  0  0
 82 85  1  0  0  0
 82154  1  0  0  0
 82155  1  0  0  0
 82156  1  0  0  0
 84157  1  0  0  0
 84158  1  0  0  0
M  ISO  4   1 100  68 101  79 101  85 100
M  END
> <chiral flag>
0

> <version>
0

> <s_m_source_file>
/data/baiqing/PycharmProjects/Reinvent-master-3.2/result/LINK_invent/BTK/process_docking_weight1_custom_product_contain_oxygen_bond_distance_aromatic_linkinvent_7_9_3/rearranged_h_0093.sdf

> <i_m_source_file_index>
56

> <r_mmod_Potential_Energy-OPLS-2005>
550.681091308594

> <r_mmod_Stretch_Energy-OPLS-2005>
165.725479125977

> <r_mmod_Bend_Energy-OPLS-2005>
272.08837890625

> <r_mmod_Torsional_Energy-OPLS-2005>
272.924530029297

> <r_mmod_Improper_Torsional_Energy-OPLS-2005>
5.92501163482666

> <r_mmod_Van_der_Waal_Energy-OPLS-2005>
146.775512695312

> <r_mmod_Electrostatic_Energy-OPLS-2005>
-200.941024780273

> <r_mmod_Solvation_Energy-OPLS-2005>
-224.95654296875

> <b_mmod_Minimization_Converged-OPLS-2005>
0

> <r_mmod_RMS_Derivative-OPLS-2005>
0.158889159560204

$$$$
57
                    3D
 Structure written by MMmdl.
145153  0  0  1  0            999 V2000
  -30.3158  -15.5806   20.3242 C   0  0  0  0  0  0
  -30.4344  -13.0453   19.5105 C   0  0  0  0  0  0
  -29.5389  -12.6272   18.3102 C   0  0  0  0  0  0
  -28.1161  -12.2656   18.7673 C   0  0  0  0  0  0
  -27.5975  -13.2673   19.8200 C   0  0  2  0  0  0
  -28.6361  -13.5683   20.9291 C   0  0  0  0  0  0
  -25.2267  -13.8117   20.5748 C   0  0  0  0  0  0
  -24.1665  -13.0323   20.9318 C   0  0  0  0  0  0
  -24.6360  -11.6846   20.8828 C   0  0  0  0  0  0
  -23.9058  -10.4229   21.0442 C   0  0  0  0  0  0
  -24.3602   -9.4147   21.9212 C   0  0  0  0  0  0
  -23.6280   -8.2185   22.0759 C   0  0  0  0  0  0
  -22.4265   -8.0239   21.3542 C   0  0  0  0  0  0
  -21.9903   -9.0217   20.4648 C   0  0  0  0  0  0
  -22.7234  -10.2092   20.3078 C   0  0  0  0  0  0
  -21.6834   -6.0714   22.5283 C   0  0  0  0  0  0
  -21.3995   -6.5630   23.8210 C   0  0  0  0  0  0
  -21.3664   -5.6789   24.9180 C   0  0  0  0  0  0
  -21.6050   -4.3051   24.7233 C   0  0  0  0  0  0
  -21.8816   -3.8135   23.4356 C   0  0  0  0  0  0
  -21.9186   -4.6947   22.3408 C   0  0  0  0  0  0
  -22.7683  -13.5093   21.1943 C   0  0  0  0  0  0
  -22.1660   -4.2133   21.0986 F   0  0  0  0  0  0
  -21.5639   -3.4538   25.7747 F   0  0  0  0  0  0
  -29.7979  -14.2126   20.2625 N   0  0  0  0  0  0
  -26.2754  -12.9414   20.3316 N   0  0  0  0  0  0
  -25.9307  -11.6528   20.5815 N   0  0  0  0  0  0
  -22.0348  -12.8092   22.0511 N   0  0  0  0  0  0
  -25.3663  -15.1825   20.4015 N   0  0  0  0  0  0
  -31.5554  -15.5262   20.2064 O   0  0  0  0  0  0
  -21.6620   -6.8850   21.4238 O   0  0  0  0  0  0
  -22.3370  -14.5398   20.6776 O   0  0  0  0  0  0
  -24.6769  -31.8069   23.1586 C   0  0  0  0  0  0
  -25.9389  -32.4500   23.8090 C   0  0  1  0  0  0
  -27.2275  -26.7730   20.1990 C   0  0  0  0  0  0
  -25.5996  -33.8324   24.1981 N   0  0  0  0  0  0
  -23.4986  -30.4141   21.5102 C   0  0  2  0  0  0
  -24.9544  -28.7663   20.1177 C   0  0  0  0  0  0
  -22.7724  -29.4359   22.4726 C   0  0  0  0  0  0
  -18.0335  -28.1427   22.8456 C   0  0  0  0  0  0
  -24.1504  -36.7183   23.2650 C   0  0  0  0  0  0
  -26.0755  -30.5618   21.4133 C   0  0  0  0  0  0
  -26.1409  -29.1325   20.7644 C   0  0  0  0  0  0
  -27.2619  -28.1601   20.7798 C   0  0  0  0  0  0
  -26.0110  -26.6018   19.4923 C   0  0  0  0  0  0
  -24.9231  -27.5241   19.4612 C   0  0  0  0  0  0
  -23.7491  -29.7167   20.1430 C   0  0  0  0  0  0
  -25.4148  -36.2911   24.0282 C   0  0  1  0  0  0
  -20.5965  -28.3781   23.1154 C   0  0  2  0  0  0
  -20.6814  -26.9448   22.5403 C   0  0  0  0  0  0
  -19.5789  -26.6374   21.5223 C   0  0  0  0  0  0
  -18.1969  -26.7950   22.1624 C   0  0  0  0  0  0
  -19.1600  -28.8925   23.2791 C   0  0  0  0  0  0
  -18.9508  -30.1511   23.8831 C   0  0  0  0  0  0
  -17.6502  -30.6610   24.0555 C   0  0  0  0  0  0
  -25.9115  -34.9301   23.4956 C   0  0  0  0  0  0
  -16.5389  -29.9095   23.6355 C   0  0  0  0  0  0
  -16.7315  -28.6521   23.0360 C   0  0  0  0  0  0
  -26.4592  -31.6508   25.0684 C   0  0  0  0  0  0
  -25.3686  -31.3815   26.1320 C   0  0  0  0  0  0
  -27.0517  -30.2852   24.6533 C   0  0  0  0  0  0
  -27.6027  -32.4364   25.7523 C   0  0  0  0  0  0
  -27.5562  -37.1751   24.8461 C   0  0  0  0  0  0
  -21.4380  -29.3045   22.3476 N   0  0  0  0  0  0
  -26.4273  -37.3664   23.9393 N   0  0  0  0  0  0
  -24.7731  -30.9585   22.0804 N   0  0  0  0  0  0
  -23.4201  -28.7954   23.3039 O   0  0  0  0  0  0
  -28.2268  -25.6057   20.2362 O   0  0  0  0  0  0
  -26.5743  -34.8862   22.4564 O   0  0  0  0  0  0
  -23.5808  -32.1108   23.6595 O   0  0  0  0  0  0
  -30.6969  -20.6562   20.3643 C   0  0  0  0  0  0
  -30.9002  -19.1870   20.3798 C   0  0  0  0  0  0
  -29.3881  -21.1456   20.2924 C   0  0  0  0  0  0
  -29.7242  -18.4731   20.3168 C   0  0  0  0  0  0
  -28.9678  -22.8049   20.2687 C   0  0  0  0  0  0
  -28.0588  -24.0217   20.2143 C   0  0  0  0  0  0
  -28.0950  -16.7046   20.1329 C   0  0  0  0  0  0
  -29.5241  -16.9278   20.2984 N   0  0  0  0  0  0
  -28.7669  -19.7220   20.2598 O   0  0  0  0  0  0
  -31.4137  -13.3283   19.1231 H   0  0  0  0  0  0
  -30.6254  -12.2008   20.1747 H   0  0  0  0  0  0
  -29.9836  -11.7880   17.7742 H   0  0  0  0  0  0
  -29.4890  -13.4542   17.6002 H   0  0  0  0  0  0
  -28.1494  -11.2656   19.2028 H   0  0  0  0  0  0
  -27.4389  -12.2079   17.9146 H   0  0  0  0  0  0
  -27.4506  -14.1695   19.2368 H   0  0  0  0  0  0
  -28.9126  -12.6603   21.4673 H   0  0  0  0  0  0
  -28.2219  -14.2281   21.6896 H   0  0  0  0  0  0
  -25.2735   -9.5615   22.4799 H   0  0  0  0  0  0
  -23.9985   -7.4557   22.7458 H   0  0  0  0  0  0
  -21.0843   -8.8729   19.8943 H   0  0  0  0  0  0
  -22.3690  -10.9638   19.6197 H   0  0  0  0  0  0
  -21.1967   -7.6135   23.9707 H   0  0  0  0  0  0
  -21.1502   -6.0525   25.9083 H   0  0  0  0  0  0
  -22.0588   -2.7597   23.2864 H   0  0  0  0  0  0
  -22.3984  -11.9771   22.4910 H   0  0  0  0  0  0
  -21.0955  -13.1091   22.2712 H   0  0  0  0  0  0
  -24.5819  -15.8173   20.5085 H   0  0  0  0  0  0
  -26.2016  -15.6362   20.0569 H   0  0  0  0  0  0
  -26.7459  -32.4993   23.0795 H   0  0  0  0  0  0
  -25.0073  -33.9372   25.0085 H   0  0  0  0  0  0
  -22.8206  -31.2508   21.3271 H   0  0  0  0  0  0
  -23.3754  -35.9524   23.3282 H   0  0  0  0  0  0
  -24.3570  -36.8871   22.2070 H   0  0  0  0  0  0
  -23.7288  -37.6366   23.6746 H   0  0  0  0  0  0
  -26.2699  -31.2896   20.6246 H   0  0  0  0  0  0
  -26.9300  -30.6281   22.0742 H   0  0  0  0  0  0
  -28.1567  -28.4445   21.3150 H   0  0  0  0  0  0
  -25.8655  -25.6647   18.9748 H   0  0  0  0  0  0
  -24.0276  -27.2396   18.9253 H   0  0  0  0  0  0
  -23.9237  -30.4807   19.3846 H   0  0  0  0  0  0
  -22.8531  -29.1861   19.8165 H   0  0  0  0  0  0
  -25.1364  -36.1674   25.0771 H   0  0  0  0  0  0
  -21.0057  -28.3417   24.1278 H   0  0  0  0  0  0
  -20.5714  -26.2404   23.3661 H   0  0  0  0  0  0
  -21.6673  -26.7427   22.1201 H   0  0  0  0  0  0
  -19.6956  -25.6267   21.1299 H   0  0  0  0  0  0
  -19.6735  -27.3145   20.6725 H   0  0  0  0  0  0
  -17.4241  -26.6683   21.4026 H   0  0  0  0  0  0
  -18.0363  -26.0112   22.9041 H   0  0  0  0  0  0
  -19.7985  -30.7347   24.2163 H   0  0  0  0  0  0
  -17.5055  -31.6282   24.5177 H   0  0  0  0  0  0
  -15.5388  -30.2983   23.7722 H   0  0  0  0  0  0
  -15.8710  -28.0831   22.7104 H   0  0  0  0  0  0
  -24.5841  -30.7203   25.7622 H   0  0  0  0  0  0
  -24.8925  -32.3049   26.4623 H   0  0  0  0  0  0
  -25.7883  -30.9036   27.0180 H   0  0  0  0  0  0
  -26.3217  -29.6470   24.1543 H   0  0  0  0  0  0
  -27.3985  -29.7289   25.5251 H   0  0  0  0  0  0
  -27.9182  -30.3984   24.0015 H   0  0  0  0  0  0
  -27.2526  -33.3695   26.1951 H   0  0  0  0  0  0
  -28.3934  -32.6882   25.0447 H   0  0  0  0  0  0
  -28.0588  -31.8602   26.5583 H   0  0  0  0  0  0
  -28.2556  -38.0066   24.7480 H   0  0  0  0  0  0
  -28.1076  -36.2582   24.6322 H   0  0  0  0  0  0
  -27.2264  -37.1431   25.8860 H   0  0  0  0  0  0
  -20.9666  -29.8692   21.6548 H   0  0  0  0  0  0
  -26.0100  -38.2712   24.1389 H   0  0  0  0  0  0
  -31.5306  -21.3424   20.4073 H   0  0  0  0  0  0
  -31.8674  -18.7070   20.4295 H   0  0  0  0  0  0
  -29.9387  -23.2746   20.3275 H   0  0  0  0  0  0
  -26.9997  -23.8126   20.1464 H   0  0  0  0  0  0
  -27.5042  -17.6199   20.0821 H   0  0  0  0  0  0
  -27.6996  -16.1521   20.9785 H   0  0  0  0  0  0
  -27.9078  -16.1967   19.1906 H   0  0  0  0  0  0
  1 25  1  0  0  0
  1 30  2  0  0  0
  1 78  1  0  0  0
  2  3  1  0  0  0
  2 25  1  0  0  0
  2 80  1  0  0  0
  2 81  1  0  0  0
  3  4  1  0  0  0
  3 82  1  0  0  0
  3 83  1  0  0  0
  4  5  1  0  0  0
  4 84  1  0  0  0
  4 85  1  0  0  0
  5  6  1  0  0  0
  5 26  1  0  0  0
  5 86  1  0  0  0
  6 25  1  0  0  0
  6 87  1  0  0  0
  6 88  1  0  0  0
  7  8  2  0  0  0
  7 26  1  0  0  0
  7 29  1  0  0  0
  8  9  1  0  0  0
  8 22  1  0  0  0
  9 10  1  0  0  0
  9 27  2  0  0  0
 10 11  2  0  0  0
 10 15  1  0  0  0
 11 12  1  0  0  0
 11 89  1  0  0  0
 12 13  2  0  0  0
 12 90  1  0  0  0
 13 14  1  0  0  0
 13 31  1  0  0  0
 14 15  2  0  0  0
 14 91  1  0  0  0
 15 92  1  0  0  0
 16 17  2  0  0  0
 16 21  1  0  0  0
 16 31  1  0  0  0
 17 18  1  0  0  0
 17 93  1  0  0  0
 18 19  2  0  0  0
 18 94  1  0  0  0
 19 20  1  0  0  0
 19 24  1  0  0  0
 20 21  2  0  0  0
 20 95  1  0  0  0
 21 23  1  0  0  0
 22 28  1  0  0  0
 22 32  2  0  0  0
 26 27  1  0  0  0
 28 96  1  0  0  0
 28 97  1  0  0  0
 29 98  1  0  0  0
 29 99  1  0  0  0
 33 34  1  0  0  0
 33 66  1  0  0  0
 33 70  2  0  0  0
 34 36  1  0  0  0
 34 59  1  0  0  0
 34100  1  0  0  0
 35 44  2  0  0  0
 35 45  1  0  0  0
 35 68  1  0  0  0
 36 56  1  0  0  0
 36101  1  0  0  0
 37 39  1  0  0  0
 37 47  1  0  0  0
 37 66  1  0  0  0
 37102  1  0  0  0
 38 43  2  0  0  0
 38 46  1  0  0  0
 38 47  1  0  0  0
 39 64  1  0  0  0
 39 67  2  0  0  0
 40 52  1  0  0  0
 40 53  2  0  0  0
 40 58  1  0  0  0
 41103  1  0  0  0
 41104  1  0  0  0
 41105  1  0  0  0
 41 48  1  0  0  0
 42 43  1  0  0  0
 42 66  1  0  0  0
 42106  1  0  0  0
 42107  1  0  0  0
 43 44  1  0  0  0
 44108  1  0  0  0
 45 46  2  0  0  0
 45109  1  0  0  0
 46110  1  0  0  0
 47111  1  0  0  0
 47112  1  0  0  0
 48 56  1  0  0  0
 48 65  1  0  0  0
 48113  1  0  0  0
 49 50  1  0  0  0
 49 53  1  0  0  0
 49 64  1  0  0  0
 49114  1  0  0  0
 50 51  1  0  0  0
 50115  1  0  0  0
 50116  1  0  0  0
 51 52  1  0  0  0
 51117  1  0  0  0
 51118  1  0  0  0
 52119  1  0  0  0
 52120  1  0  0  0
 53 54  1  0  0  0
 54 55  2  0  0  0
 54121  1  0  0  0
 55 57  1  0  0  0
 55122  1  0  0  0
 56 69  2  0  0  0
 57 58  2  0  0  0
 57123  1  0  0  0
 58124  1  0  0  0
 59 60  1  0  0  0
 59 61  1  0  0  0
 59 62  1  0  0  0
 60125  1  0  0  0
 60126  1  0  0  0
 60127  1  0  0  0
 61128  1  0  0  0
 61129  1  0  0  0
 61130  1  0  0  0
 62131  1  0  0  0
 62132  1  0  0  0
 62133  1  0  0  0
 63 65  1  0  0  0
 63134  1  0  0  0
 63135  1  0  0  0
 63136  1  0  0  0
 64137  1  0  0  0
 65138  1  0  0  0
 68 76  1  0  0  0
 71 72  1  0  0  0
 71 73  2  0  0  0
 71139  1  0  0  0
 72 74  2  0  0  0
 72140  1  0  0  0
 73 75  1  0  0  0
 73 79  1  0  0  0
 74 78  1  0  0  0
 74 79  1  0  0  0
 75 76  2  0  0  0
 75141  1  0  0  0
 76142  1  0  0  0
 77 78  1  0  0  0
 77143  1  0  0  0
 77144  1  0  0  0
 77145  1  0  0  0
M  ISO  4   1 100  68 101  76 101  78 100
M  END
> <chiral flag>
0

> <version>
0

> <s_m_source_file>
/data/baiqing/PycharmProjects/Reinvent-master-3.2/result/LINK_invent/BTK/process_docking_weight1_custom_product_contain_oxygen_bond_distance_aromatic_linkinvent_7_9_3/rearranged_h_0093.sdf

> <i_m_source_file_index>
57

> <r_mmod_Potential_Energy-OPLS-2005>
2092.10693359375

> <r_mmod_Stretch_Energy-OPLS-2005>
810.436096191406

> <r_mmod_Bend_Energy-OPLS-2005>
605.050354003906

> <r_mmod_Torsional_Energy-OPLS-2005>
251.33659362793

> <r_mmod_Improper_Torsional_Energy-OPLS-2005>
4.70271444320679

> <r_mmod_Van_der_Waal_Energy-OPLS-2005>
121.531982421875

> <r_mmod_Electrostatic_Energy-OPLS-2005>
-292.761840820312

> <r_mmod_Solvation_Energy-OPLS-2005>
-192.674194335938

> <b_mmod_Minimization_Converged-OPLS-2005>
0

> <r_mmod_RMS_Derivative-OPLS-2005>
1.65544092655182

$$$$
58
                    3D
 Structure written by MMmdl.
157165  0  0  1  0            999 V2000
  -30.6596  -14.6660   20.5605 C   0  0  0  0  0  0
  -30.4302  -12.4247   19.4595 C   0  0  0  0  0  0
  -29.5060  -12.5262   18.2272 C   0  0  0  0  0  0
  -28.0307  -12.3521   18.6355 C   0  0  0  0  0  0
  -27.6488  -13.2252   19.8588 C   0  0  2  0  0  0
  -28.6887  -13.0899   20.9882 C   0  0  0  0  0  0
  -25.2540  -13.8199   20.5696 C   0  0  0  0  0  0
  -24.1817  -13.0452   20.9183 C   0  0  0  0  0  0
  -24.6392  -11.6922   20.8734 C   0  0  0  0  0  0
  -23.9066  -10.4309   21.0412 C   0  0  0  0  0  0
  -24.3621   -9.4223   21.9185 C   0  0  0  0  0  0
  -23.6301   -8.2254   22.0750 C   0  0  0  0  0  0
  -22.4285   -8.0291   21.3542 C   0  0  0  0  0  0
  -21.9925   -9.0262   20.4642 C   0  0  0  0  0  0
  -22.7240  -10.2148   20.3060 C   0  0  0  0  0  0
  -21.6849   -6.0753   22.5285 C   0  0  0  0  0  0
  -21.4010   -6.5653   23.8223 C   0  0  0  0  0  0
  -21.3663   -5.6800   24.9184 C   0  0  0  0  0  0
  -21.6043   -4.3065   24.7232 C   0  0  0  0  0  0
  -21.8819   -3.8167   23.4354 C   0  0  0  0  0  0
  -21.9190   -4.6983   22.3408 C   0  0  0  0  0  0
  -22.7840  -13.5225   21.1866 C   0  0  0  0  0  0
  -22.1657   -4.2165   21.0984 F   0  0  0  0  0  0
  -21.5642   -3.4548   25.7745 F   0  0  0  0  0  0
  -30.0059  -13.4557   20.4385 N   0  0  0  0  0  0
  -26.2965  -12.9384   20.3294 N   0  0  0  0  0  0
  -25.9319  -11.6534   20.5737 N   0  0  0  0  0  0
  -22.0495  -12.8200   22.0423 N   0  0  0  0  0  0
  -25.4273  -15.1921   20.4154 N   0  0  0  0  0  0
  -31.7734  -14.8147   20.0482 O   0  0  0  0  0  0
  -21.6639   -6.8893   21.4246 O   0  0  0  0  0  0
  -22.3516  -14.5538   20.6729 O   0  0  0  0  0  0
  -24.6319  -31.8540   23.1983 C   0  0  0  0  0  0
  -25.9136  -32.4761   23.8330 C   0  0  1  0  0  0
  -27.2277  -27.2751   20.1179 C   0  0  0  0  0  0
  -25.5923  -33.8564   24.2254 N   0  0  0  0  0  0
  -23.4307  -30.4747   21.5422 C   0  0  2  0  0  0
  -24.8789  -28.9219   20.1120 C   0  0  0  0  0  0
  -22.7501  -29.4582   22.4901 C   0  0  0  0  0  0
  -18.0289  -28.1390   22.8495 C   0  0  0  0  0  0
  -24.1480  -36.7285   23.2635 C   0  0  0  0  0  0
  -25.9760  -30.7680   21.3799 C   0  0  0  0  0  0
  -26.0495  -29.3908   20.7228 C   0  0  0  0  0  0
  -27.2281  -28.5776   20.7165 C   0  0  0  0  0  0
  -26.0352  -26.8695   19.4801 C   0  0  0  0  0  0
  -24.8749  -27.6680   19.4817 C   0  0  0  0  0  0
  -23.6494  -29.8081   20.1585 C   0  0  0  0  0  0
  -25.4114  -36.3075   24.0312 C   0  0  1  0  0  0
  -20.5899  -28.3700   23.1271 C   0  0  2  0  0  0
  -20.6777  -26.9414   22.5426 C   0  0  0  0  0  0
  -19.5754  -26.6386   21.5225 C   0  0  0  0  0  0
  -18.1928  -26.7939   22.1624 C   0  0  0  0  0  0
  -19.1548  -28.8863   23.2877 C   0  0  0  0  0  0
  -18.9463  -30.1467   23.8897 C   0  0  0  0  0  0
  -17.6461  -30.6595   24.0576 C   0  0  0  0  0  0
  -25.9064  -34.9443   23.5092 C   0  0  0  0  0  0
  -16.5353  -29.9096   23.6331 C   0  0  0  0  0  0
  -16.7283  -28.6511   23.0364 C   0  0  0  0  0  0
  -26.4499  -31.6598   25.0733 C   0  0  0  0  0  0
  -25.3713  -31.3755   26.1447 C   0  0  0  0  0  0
  -27.0350  -30.3009   24.6238 C   0  0  0  0  0  0
  -27.6063  -32.4329   25.7501 C   0  0  0  0  0  0
  -27.5595  -37.1780   24.8443 C   0  0  0  0  0  0
  -21.4204  -29.3036   22.3647 N   0  0  0  0  0  0
  -26.4288  -37.3784   23.9412 N   0  0  0  0  0  0
  -24.6986  -31.0499   22.0966 N   0  0  0  0  0  0
  -23.4198  -28.8110   23.2996 O   0  0  0  0  0  0
  -28.3245  -26.3870   20.1196 O   0  0  0  0  0  0
  -26.5645  -34.8911   22.4666 O   0  0  0  0  0  0
  -23.5461  -32.1357   23.7268 O   0  0  0  0  0  0
  -28.7457  -17.8920   21.2837 C   0  0  0  0  0  0
  -28.5878  -19.2931   21.0425 C   0  0  0  0  0  0
  -30.7361  -17.8629   19.9668 C   0  0  0  0  0  0
  -29.8373  -17.1232   20.7839 C   0  0  0  0  0  0
  -29.5233  -20.0457   20.2797 C   0  0  0  0  0  0
  -30.5944  -19.2806   19.7179 C   0  0  0  0  0  0
  -28.1069  -25.0003   20.3717 C   0  0  0  0  0  0
  -28.9229  -23.9258   20.0593 C   0  0  0  0  0  0
  -28.5691  -22.4969   20.4082 C   0  0  0  0  0  0
  -29.9397  -15.5494   22.6835 C   0  0  0  0  0  0
  -32.4750  -19.2449   18.2275 C   0  0  0  0  0  0
  -29.4724  -21.5142   20.0560 N   0  0  0  0  0  0
  -30.0356  -15.7160   21.2249 N   0  0  0  0  0  0
  -27.5153  -22.2015   20.9754 O   0  0  0  0  0  0
  -30.0797  -24.1577   19.4199 O   0  0  0  0  0  0
  -31.4934  -19.9865   18.9425 O   0  0  0  0  0  0
  -31.4713  -12.5406   19.1537 H   0  0  0  0  0  0
  -30.3671  -11.4305   19.9045 H   0  0  0  0  0  0
  -29.7817  -11.7798   17.4800 H   0  0  0  0  0  0
  -29.6428  -13.4980   17.7512 H   0  0  0  0  0  0
  -27.8751  -11.2987   18.8716 H   0  0  0  0  0  0
  -27.3751  -12.5746   17.7925 H   0  0  0  0  0  0
  -27.6646  -14.2621   19.5206 H   0  0  0  0  0  0
  -28.7090  -12.0674   21.3700 H   0  0  0  0  0  0
  -28.3929  -13.7068   21.8326 H   0  0  0  0  0  0
  -25.2766   -9.5708   22.4750 H   0  0  0  0  0  0
  -24.0021   -7.4656   22.7473 H   0  0  0  0  0  0
  -21.0851   -8.8772   19.8954 H   0  0  0  0  0  0
  -22.3682  -10.9688   19.6176 H   0  0  0  0  0  0
  -21.1992   -7.6162   23.9720 H   0  0  0  0  0  0
  -21.1489   -6.0543   25.9080 H   0  0  0  0  0  0
  -22.0596   -2.7632   23.2853 H   0  0  0  0  0  0
  -22.4113  -11.9855   22.4795 H   0  0  0  0  0  0
  -21.1125  -13.1233   22.2662 H   0  0  0  0  0  0
  -24.6686  -15.8547   20.5323 H   0  0  0  0  0  0
  -26.2924  -15.6285   20.1233 H   0  0  0  0  0  0
  -26.7202  -32.5420   23.1070 H   0  0  0  0  0  0
  -25.0056  -33.9707   25.0391 H   0  0  0  0  0  0
  -22.7288  -31.2972   21.3930 H   0  0  0  0  0  0
  -23.3772  -35.9587   23.3248 H   0  0  0  0  0  0
  -24.3578  -36.8971   22.2060 H   0  0  0  0  0  0
  -23.7183  -37.6442   23.6706 H   0  0  0  0  0  0
  -26.1170  -31.5278   20.6104 H   0  0  0  0  0  0
  -26.8538  -30.8154   22.0141 H   0  0  0  0  0  0
  -28.1310  -28.9283   21.1959 H   0  0  0  0  0  0
  -25.9918  -25.9078   18.9875 H   0  0  0  0  0  0
  -23.9799  -27.3064   18.9946 H   0  0  0  0  0  0
  -23.7734  -30.5844   19.4016 H   0  0  0  0  0  0
  -22.7679  -29.2394   19.8545 H   0  0  0  0  0  0
  -25.1284  -36.1930   25.0800 H   0  0  0  0  0  0
  -21.0013  -28.3297   24.1383 H   0  0  0  0  0  0
  -20.5691  -26.2295   23.3620 H   0  0  0  0  0  0
  -21.6634  -26.7432   22.1217 H   0  0  0  0  0  0
  -19.6915  -25.6295   21.1248 H   0  0  0  0  0  0
  -19.6707  -27.3194   20.6756 H   0  0  0  0  0  0
  -17.4206  -26.6710   21.4014 H   0  0  0  0  0  0
  -18.0308  -26.0079   22.9016 H   0  0  0  0  0  0
  -19.7933  -30.7285   24.2265 H   0  0  0  0  0  0
  -17.5008  -31.6271   24.5182 H   0  0  0  0  0  0
  -15.5351  -30.3002   23.7640 H   0  0  0  0  0  0
  -15.8686  -28.0830   22.7081 H   0  0  0  0  0  0
  -24.5872  -30.7128   25.7757 H   0  0  0  0  0  0
  -24.8928  -32.2933   26.4868 H   0  0  0  0  0  0
  -25.8011  -30.8918   27.0228 H   0  0  0  0  0  0
  -26.2940  -29.6752   24.1247 H   0  0  0  0  0  0
  -27.3993  -29.7275   25.4775 H   0  0  0  0  0  0
  -27.8828  -30.4273   23.9505 H   0  0  0  0  0  0
  -27.2697  -33.3642   26.2064 H   0  0  0  0  0  0
  -28.3881  -32.6867   25.0333 H   0  0  0  0  0  0
  -28.0720  -31.8459   26.5430 H   0  0  0  0  0  0
  -28.2553  -38.0140   24.7603 H   0  0  0  0  0  0
  -28.1152  -36.2674   24.6143 H   0  0  0  0  0  0
  -27.2321  -37.1282   25.8844 H   0  0  0  0  0  0
  -20.9380  -29.8773   21.6865 H   0  0  0  0  0  0
  -26.0167  -38.2834   24.1514 H   0  0  0  0  0  0
  -27.9994  -17.4026   21.8930 H   0  0  0  0  0  0
  -27.7301  -19.7808   21.4805 H   0  0  0  0  0  0
  -31.5809  -17.3229   19.5712 H   0  0  0  0  0  0
  -27.1675  -24.8401   20.8867 H   0  0  0  0  0  0
  -30.4934  -16.3432   23.1882 H   0  0  0  0  0  0
  -30.3551  -14.6058   23.0471 H   0  0  0  0  0  0
  -28.9046  -15.6036   23.0184 H   0  0  0  0  0  0
  -33.1209  -19.9172   17.6620 H   0  0  0  0  0  0
  -32.0046  -18.5612   17.5188 H   0  0  0  0  0  0
  -33.1193  -18.6824   18.9038 H   0  0  0  0  0  0
  -30.2699  -21.8817   19.5513 H   0  0  0  0  0  0
  -30.1317  -25.0961   19.2854 H   0  0  0  0  0  0
  1 25  1  0  0  0
  1 30  2  0  0  0
  1 83  1  0  0  0
  2  3  1  0  0  0
  2 25  1  0  0  0
  2 87  1  0  0  0
  2 88  1  0  0  0
  3  4  1  0  0  0
  3 89  1  0  0  0
  3 90  1  0  0  0
  4  5  1  0  0  0
  4 91  1  0  0  0
  4 92  1  0  0  0
  5  6  1  0  0  0
  5 26  1  0  0  0
  5 93  1  0  0  0
  6 25  1  0  0  0
  6 94  1  0  0  0
  6 95  1  0  0  0
  7  8  2  0  0  0
  7 26  1  0  0  0
  7 29  1  0  0  0
  8  9  1  0  0  0
  8 22  1  0  0  0
  9 10  1  0  0  0
  9 27  2  0  0  0
 10 11  2  0  0  0
 10 15  1  0  0  0
 11 12  1  0  0  0
 11 96  1  0  0  0
 12 13  2  0  0  0
 12 97  1  0  0  0
 13 14  1  0  0  0
 13 31  1  0  0  0
 14 15  2  0  0  0
 14 98  1  0  0  0
 15 99  1  0  0  0
 16 17  2  0  0  0
 16 21  1  0  0  0
 16 31  1  0  0  0
 17 18  1  0  0  0
 17100  1  0  0  0
 18 19  2  0  0  0
 18101  1  0  0  0
 19 20  1  0  0  0
 19 24  1  0  0  0
 20 21  2  0  0  0
 20102  1  0  0  0
 21 23  1  0  0  0
 22 28  1  0  0  0
 22 32  2  0  0  0
 26 27  1  0  0  0
 28103  1  0  0  0
 28104  1  0  0  0
 29105  1  0  0  0
 29106  1  0  0  0
 33 34  1  0  0  0
 33 66  1  0  0  0
 33 70  2  0  0  0
 34 36  1  0  0  0
 34 59  1  0  0  0
 34107  1  0  0  0
 35 44  2  0  0  0
 35 45  1  0  0  0
 35 68  1  0  0  0
 36 56  1  0  0  0
 36108  1  0  0  0
 37 39  1  0  0  0
 37 47  1  0  0  0
 37 66  1  0  0  0
 37109  1  0  0  0
 38 43  2  0  0  0
 38 46  1  0  0  0
 38 47  1  0  0  0
 39 64  1  0  0  0
 39 67  2  0  0  0
 40 52  1  0  0  0
 40 53  2  0  0  0
 40 58  1  0  0  0
 41110  1  0  0  0
 41111  1  0  0  0
 41112  1  0  0  0
 41 48  1  0  0  0
 42 43  1  0  0  0
 42 66  1  0  0  0
 42113  1  0  0  0
 42114  1  0  0  0
 43 44  1  0  0  0
 44115  1  0  0  0
 45 46  2  0  0  0
 45116  1  0  0  0
 46117  1  0  0  0
 47118  1  0  0  0
 47119  1  0  0  0
 48 56  1  0  0  0
 48 65  1  0  0  0
 48120  1  0  0  0
 49 50  1  0  0  0
 49 53  1  0  0  0
 49 64  1  0  0  0
 49121  1  0  0  0
 50 51  1  0  0  0
 50122  1  0  0  0
 50123  1  0  0  0
 51 52  1  0  0  0
 51124  1  0  0  0
 51125  1  0  0  0
 52126  1  0  0  0
 52127  1  0  0  0
 53 54  1  0  0  0
 54 55  2  0  0  0
 54128  1  0  0  0
 55 57  1  0  0  0
 55129  1  0  0  0
 56 69  2  0  0  0
 57 58  2  0  0  0
 57130  1  0  0  0
 58131  1  0  0  0
 59 60  1  0  0  0
 59 61  1  0  0  0
 59 62  1  0  0  0
 60132  1  0  0  0
 60133  1  0  0  0
 60134  1  0  0  0
 61135  1  0  0  0
 61136  1  0  0  0
 61137  1  0  0  0
 62138  1  0  0  0
 62139  1  0  0  0
 62140  1  0  0  0
 63 65  1  0  0  0
 63141  1  0  0  0
 63142  1  0  0  0
 63143  1  0  0  0
 64144  1  0  0  0
 65145  1  0  0  0
 68 77  1  0  0  0
 71 72  2  0  0  0
 71 74  1  0  0  0
 71146  1  0  0  0
 72 75  1  0  0  0
 72147  1  0  0  0
 73 74  2  0  0  0
 73 76  1  0  0  0
 73148  1  0  0  0
 74 83  1  0  0  0
 75 76  2  0  0  0
 75 82  1  0  0  0
 76 86  1  0  0  0
 77 78  2  0  0  0
 77149  1  0  0  0
 78 79  1  0  0  0
 78 85  1  0  0  0
 79 82  1  0  0  0
 79 84  2  0  0  0
 80 83  1  0  0  0
 80150  1  0  0  0
 80151  1  0  0  0
 80152  1  0  0  0
 81 86  1  0  0  0
 81153  1  0  0  0
 81154  1  0  0  0
 81155  1  0  0  0
 82156  1  0  0  0
 85157  1  0  0  0
M  ISO  4   1 100  68 101  77 101  83 100
M  END
> <chiral flag>
0

> <version>
0

> <s_m_source_file>
/data/baiqing/PycharmProjects/Reinvent-master-3.2/result/LINK_invent/BTK/process_docking_weight1_custom_product_contain_oxygen_bond_distance_aromatic_linkinvent_7_9_3/rearranged_h_0093.sdf

> <i_m_source_file_index>
58

> <r_mmod_Potential_Energy-OPLS-2005>
179.04084777832

> <r_mmod_Stretch_Energy-OPLS-2005>
107.521507263184

> <r_mmod_Bend_Energy-OPLS-2005>
159.884048461914

> <r_mmod_Torsional_Energy-OPLS-2005>
286.928131103516

> <r_mmod_Improper_Torsional_Energy-OPLS-2005>
3.26642775535583

> <r_mmod_Van_der_Waal_Energy-OPLS-2005>
159.412628173828

> <r_mmod_Electrostatic_Energy-OPLS-2005>
-396.090759277344

> <r_mmod_Solvation_Energy-OPLS-2005>
-203.063262939453

> <b_mmod_Minimization_Converged-OPLS-2005>
0

> <r_mmod_RMS_Derivative-OPLS-2005>
2.55580186843872

$$$$
59
                    3D
 Structure written by MMmdl.
168176  0  0  1  0            999 V2000
  -30.8133  -14.5735   20.4288 C   0  0  0  0  0  0
  -30.4068  -12.3685   19.4084 C   0  0  0  0  0  0
  -29.4753  -12.4442   18.1875 C   0  0  0  0  0  0
  -28.0083  -12.2784   18.6342 C   0  0  0  0  0  0
  -27.6258  -13.1925   19.8284 C   0  0  2  0  0  0
  -28.7097  -13.1825   20.9370 C   0  0  0  0  0  0
  -25.2424  -13.7985   20.5704 C   0  0  0  0  0  0
  -24.1734  -13.0288   20.9262 C   0  0  0  0  0  0
  -24.6330  -11.6789   20.8831 C   0  0  0  0  0  0
  -23.9009  -10.4201   21.0446 C   0  0  0  0  0  0
  -24.3578   -9.4124   21.9219 C   0  0  0  0  0  0
  -23.6250   -8.2173   22.0770 C   0  0  0  0  0  0
  -22.4231   -8.0220   21.3547 C   0  0  0  0  0  0
  -21.9865   -9.0193   20.4669 C   0  0  0  0  0  0
  -22.7197  -10.2074   20.3072 C   0  0  0  0  0  0
  -21.6826   -6.0692   22.5275 C   0  0  0  0  0  0
  -21.4000   -6.5606   23.8207 C   0  0  0  0  0  0
  -21.3664   -5.6771   24.9177 C   0  0  0  0  0  0
  -21.6049   -4.3031   24.7230 C   0  0  0  0  0  0
  -21.8817   -3.8117   23.4352 C   0  0  0  0  0  0
  -21.9179   -4.6928   22.3402 C   0  0  0  0  0  0
  -22.7764  -13.5131   21.1888 C   0  0  0  0  0  0
  -22.1652   -4.2117   21.0981 F   0  0  0  0  0  0
  -21.5651   -3.4521   25.7751 F   0  0  0  0  0  0
  -30.0056  -13.4686   20.2985 N   0  0  0  0  0  0
  -26.2879  -12.9169   20.3340 N   0  0  0  0  0  0
  -25.9261  -11.6368   20.5893 N   0  0  0  0  0  0
  -22.0381  -12.8177   22.0463 N   0  0  0  0  0  0
  -25.3876  -15.1679   20.4009 N   0  0  0  0  0  0
  -32.0256  -14.4077   20.4053 O   0  0  0  0  0  0
  -21.6588   -6.8826   21.4239 O   0  0  0  0  0  0
  -22.3475  -14.5440   20.6716 O   0  0  0  0  0  0
  -24.6124  -31.8685   23.2101 C   0  0  0  0  0  0
  -25.9021  -32.4828   23.8387 C   0  0  1  0  0  0
  -27.2366  -27.4424   20.1042 C   0  0  0  0  0  0
  -25.5872  -33.8625   24.2327 N   0  0  0  0  0  0
  -23.3983  -30.4914   21.5507 C   0  0  2  0  0  0
  -24.8437  -28.9529   20.1182 C   0  0  0  0  0  0
  -22.7375  -29.4665   22.4998 C   0  0  0  0  0  0
  -18.0261  -28.1380   22.8491 C   0  0  0  0  0  0
  -24.1482  -36.7328   23.2632 C   0  0  0  0  0  0
  -25.9237  -30.8396   21.3572 C   0  0  0  0  0  0
  -26.0023  -29.4718   20.7100 C   0  0  0  0  0  0
  -27.1991  -28.7249   20.6972 C   0  0  0  0  0  0
  -26.0589  -26.9298   19.5158 C   0  0  0  0  0  0
  -24.8660  -27.6810   19.5192 C   0  0  0  0  0  0
  -23.6054  -29.8202   20.1661 C   0  0  0  0  0  0
  -25.4093  -36.3115   24.0336 C   0  0  1  0  0  0
  -20.5847  -28.3659   23.1317 C   0  0  2  0  0  0
  -20.6760  -26.9401   22.5414 C   0  0  0  0  0  0
  -19.5743  -26.6393   21.5205 C   0  0  0  0  0  0
  -18.1916  -26.7926   22.1615 C   0  0  0  0  0  0
  -19.1506  -28.8834   23.2911 C   0  0  0  0  0  0
  -18.9450  -30.1431   23.8933 C   0  0  0  0  0  0
  -17.6454  -30.6586   24.0568 C   0  0  0  0  0  0
  -25.9023  -34.9481   23.5135 C   0  0  0  0  0  0
  -16.5344  -29.9099   23.6315 C   0  0  0  0  0  0
  -16.7248  -28.6510   23.0349 C   0  0  0  0  0  0
  -26.4452  -31.6607   25.0719 C   0  0  0  0  0  0
  -25.3721  -31.3759   26.1490 C   0  0  0  0  0  0
  -27.0229  -30.3031   24.6092 C   0  0  0  0  0  0
  -27.6049  -32.4300   25.7461 C   0  0  0  0  0  0
  -27.5579  -37.1802   24.8446 C   0  0  0  0  0  0
  -21.4113  -29.3031   22.3730 N   0  0  0  0  0  0
  -26.4274  -37.3802   23.9417 N   0  0  0  0  0  0
  -24.6635  -31.0804   22.0993 N   0  0  0  0  0  0
  -23.4149  -28.8208   23.3045 O   0  0  0  0  0  0
  -28.4294  -26.7534   20.1050 O   0  0  0  0  0  0
  -26.5606  -34.8930   22.4709 O   0  0  0  0  0  0
  -23.5324  -32.1430   23.7514 O   0  0  0  0  0  0
  -30.6272  -19.1293   21.7043 C   0  0  0  0  0  0
  -30.0780  -20.4280   21.7641 C   0  0  0  0  0  0
  -30.3134  -19.1320   19.2970 C   0  0  0  0  0  0
  -30.7394  -18.4576   20.4684 C   0  0  0  0  0  0
  -29.6381  -21.0871   20.5936 C   0  0  0  0  0  0
  -29.7679  -20.4395   19.3414 C   0  0  0  0  0  0
  -29.7901  -24.7238   20.3886 C   0  0  0  0  0  0
  -29.1834  -16.1568   19.6812 C   0  0  0  0  0  0
  -30.9236  -25.7261   20.3288 C   0  0  0  0  0  0
  -28.0664  -16.7725   20.5220 C   0  0  0  0  0  0
  -32.4076  -17.0428   19.2626 C   0  0  0  0  0  0
  -29.6360  -20.5669   16.9423 C   0  0  0  0  0  0
  -29.0246  -22.4863   20.6862 C   0  0  0  0  0  0
  -28.3955  -25.3200   20.1307 C   0  0  0  0  0  0
  -31.3302  -17.0266   20.3874 C   0  0  2  0  0  0
  -30.0664  -23.4991   20.6354 N   0  0  0  0  0  0
  -30.3495  -15.8708   20.2900 N   0  0  0  0  0  0
  -29.0002  -15.9779   18.4726 O   0  0  0  0  0  0
  -29.3415  -21.1198   18.2189 O   0  0  0  0  0  0
  -31.4457  -12.4355   19.0802 H   0  0  0  0  0  0
  -30.3127  -11.4094   19.9205 H   0  0  0  0  0  0
  -29.7379  -11.6683   17.4665 H   0  0  0  0  0  0
  -29.6063  -13.3934   17.6673 H   0  0  0  0  0  0
  -27.8763  -11.2340   18.9182 H   0  0  0  0  0  0
  -27.3353  -12.4513   17.7933 H   0  0  0  0  0  0
  -27.5587  -14.1782   19.3939 H   0  0  0  0  0  0
  -28.7427  -12.2097   21.4284 H   0  0  0  0  0  0
  -28.4890  -13.9115   21.7170 H   0  0  0  0  0  0
  -25.2735   -9.5587   22.4777 H   0  0  0  0  0  0
  -23.9951   -7.4541   22.7468 H   0  0  0  0  0  0
  -21.0795   -8.8701   19.8971 H   0  0  0  0  0  0
  -22.3663  -10.9598   19.6155 H   0  0  0  0  0  0
  -21.1983   -7.6110   23.9698 H   0  0  0  0  0  0
  -21.1505   -6.0509   25.9082 H   0  0  0  0  0  0
  -22.0603   -2.7577   23.2860 H   0  0  0  0  0  0
  -22.3939  -11.9841   22.4898 H   0  0  0  0  0  0
  -21.1011  -13.1257   22.2658 H   0  0  0  0  0  0
  -24.6117  -15.8096   20.5214 H   0  0  0  0  0  0
  -26.2254  -15.6208   20.0672 H   0  0  0  0  0  0
  -26.7097  -32.5545   23.1159 H   0  0  0  0  0  0
  -24.9995  -33.9781   25.0449 H   0  0  0  0  0  0
  -22.6862  -31.3077   21.4122 H   0  0  0  0  0  0
  -23.3738  -35.9661   23.3275 H   0  0  0  0  0  0
  -24.3597  -36.8967   22.2052 H   0  0  0  0  0  0
  -23.7236  -37.6525   23.6666 H   0  0  0  0  0  0
  -26.0280  -31.6030   20.5848 H   0  0  0  0  0  0
  -26.8148  -30.9007   21.9710 H   0  0  0  0  0  0
  -28.0938  -29.1243   21.1546 H   0  0  0  0  0  0
  -26.0474  -25.9587   19.0429 H   0  0  0  0  0  0
  -23.9757  -27.2745   19.0608 H   0  0  0  0  0  0
  -23.7085  -30.5931   19.4033 H   0  0  0  0  0  0
  -22.7295  -29.2373   19.8756 H   0  0  0  0  0  0
  -25.1267  -36.1979   25.0826 H   0  0  0  0  0  0
  -20.9929  -28.3241   24.1439 H   0  0  0  0  0  0
  -20.5652  -26.2273   23.3599 H   0  0  0  0  0  0
  -21.6641  -26.7458   22.1219 H   0  0  0  0  0  0
  -19.6915  -25.6309   21.1230 H   0  0  0  0  0  0
  -19.6678  -27.3203   20.6733 H   0  0  0  0  0  0
  -17.4181  -26.6640   21.4032 H   0  0  0  0  0  0
  -18.0335  -26.0068   22.9012 H   0  0  0  0  0  0
  -19.7933  -30.7233   24.2325 H   0  0  0  0  0  0
  -17.5023  -31.6274   24.5157 H   0  0  0  0  0  0
  -15.5347  -30.3028   23.7625 H   0  0  0  0  0  0
  -15.8635  -28.0841   22.7068 H   0  0  0  0  0  0
  -24.5838  -30.7163   25.7858 H   0  0  0  0  0  0
  -24.8985  -32.2939   26.4965 H   0  0  0  0  0  0
  -25.8063  -30.8901   27.0234 H   0  0  0  0  0  0
  -26.2758  -29.6844   24.1110 H   0  0  0  0  0  0
  -27.3936  -29.7229   25.4556 H   0  0  0  0  0  0
  -27.8633  -30.4329   23.9267 H   0  0  0  0  0  0
  -27.2706  -33.3598   26.2070 H   0  0  0  0  0  0
  -28.3831  -32.6849   25.0255 H   0  0  0  0  0  0
  -28.0741  -31.8396   26.5346 H   0  0  0  0  0  0
  -28.2579  -38.0118   24.7524 H   0  0  0  0  0  0
  -28.1092  -36.2658   24.6211 H   0  0  0  0  0  0
  -27.2318  -37.1390   25.8852 H   0  0  0  0  0  0
  -20.9253  -29.8767   21.6976 H   0  0  0  0  0  0
  -26.0169  -38.2871   24.1451 H   0  0  0  0  0  0
  -30.9563  -18.6513   22.6161 H   0  0  0  0  0  0
  -29.9929  -20.9269   22.7191 H   0  0  0  0  0  0
  -30.3979  -18.6126   18.3543 H   0  0  0  0  0  0
  -30.7880  -26.4980   21.0864 H   0  0  0  0  0  0
  -30.9527  -26.2010   19.3483 H   0  0  0  0  0  0
  -31.8855  -25.2431   20.5045 H   0  0  0  0  0  0
  -27.7331  -16.0695   21.2820 H   0  0  0  0  0  0
  -27.2287  -17.0507   19.8851 H   0  0  0  0  0  0
  -28.3737  -17.6766   21.0374 H   0  0  0  0  0  0
  -33.0416  -17.9265   19.3546 H   0  0  0  0  0  0
  -31.9630  -17.0586   18.2676 H   0  0  0  0  0  0
  -33.0920  -16.1973   19.2864 H   0  0  0  0  0  0
  -29.2354  -21.2225   16.1695 H   0  0  0  0  0  0
  -29.1776  -19.5872   16.8043 H   0  0  0  0  0  0
  -30.7132  -20.4884   16.7891 H   0  0  0  0  0  0
  -28.4643  -22.5676   21.6187 H   0  0  0  0  0  0
  -28.2940  -22.6090   19.8840 H   0  0  0  0  0  0
  -27.7143  -24.9866   20.9164 H   0  0  0  0  0  0
  -28.0272  -24.9338   19.1812 H   0  0  0  0  0  0
  -31.8637  -16.8800   21.3284 H   0  0  0  0  0  0
  1 25  1  0  0  0
  1 30  2  0  0  0
  1 87  1  0  0  0
  2  3  1  0  0  0
  2 25  1  0  0  0
  2 90  1  0  0  0
  2 91  1  0  0  0
  3  4  1  0  0  0
  3 92  1  0  0  0
  3 93  1  0  0  0
  4  5  1  0  0  0
  4 94  1  0  0  0
  4 95  1  0  0  0
  5  6  1  0  0  0
  5 26  1  0  0  0
  5 96  1  0  0  0
  6 25  1  0  0  0
  6 97  1  0  0  0
  6 98  1  0  0  0
  7  8  2  0  0  0
  7 26  1  0  0  0
  7 29  1  0  0  0
  8  9  1  0  0  0
  8 22  1  0  0  0
  9 10  1  0  0  0
  9 27  2  0  0  0
 10 11  2  0  0  0
 10 15  1  0  0  0
 11 12  1  0  0  0
 11 99  1  0  0  0
 12 13  2  0  0  0
 12100  1  0  0  0
 13 14  1  0  0  0
 13 31  1  0  0  0
 14 15  2  0  0  0
 14101  1  0  0  0
 15102  1  0  0  0
 16 17  2  0  0  0
 16 21  1  0  0  0
 16 31  1  0  0  0
 17 18  1  0  0  0
 17103  1  0  0  0
 18 19  2  0  0  0
 18104  1  0  0  0
 19 20  1  0  0  0
 19 24  1  0  0  0
 20 21  2  0  0  0
 20105  1  0  0  0
 21 23  1  0  0  0
 22 28  1  0  0  0
 22 32  2  0  0  0
 26 27  1  0  0  0
 28106  1  0  0  0
 28107  1  0  0  0
 29108  1  0  0  0
 29109  1  0  0  0
 33 34  1  0  0  0
 33 66  1  0  0  0
 33 70  2  0  0  0
 34 36  1  0  0  0
 34 59  1  0  0  0
 34110  1  0  0  0
 35 44  2  0  0  0
 35 45  1  0  0  0
 35 68  1  0  0  0
 36 56  1  0  0  0
 36111  1  0  0  0
 37 39  1  0  0  0
 37 47  1  0  0  0
 37 66  1  0  0  0
 37112  1  0  0  0
 38 43  2  0  0  0
 38 46  1  0  0  0
 38 47  1  0  0  0
 39 64  1  0  0  0
 39 67  2  0  0  0
 40 52  1  0  0  0
 40 53  2  0  0  0
 40 58  1  0  0  0
 41113  1  0  0  0
 41114  1  0  0  0
 41115  1  0  0  0
 41 48  1  0  0  0
 42 43  1  0  0  0
 42 66  1  0  0  0
 42116  1  0  0  0
 42117  1  0  0  0
 43 44  1  0  0  0
 44118  1  0  0  0
 45 46  2  0  0  0
 45119  1  0  0  0
 46120  1  0  0  0
 47121  1  0  0  0
 47122  1  0  0  0
 48 56  1  0  0  0
 48 65  1  0  0  0
 48123  1  0  0  0
 49 50  1  0  0  0
 49 53  1  0  0  0
 49 64  1  0  0  0
 49124  1  0  0  0
 50 51  1  0  0  0
 50125  1  0  0  0
 50126  1  0  0  0
 51 52  1  0  0  0
 51127  1  0  0  0
 51128  1  0  0  0
 52129  1  0  0  0
 52130  1  0  0  0
 53 54  1  0  0  0
 54 55  2  0  0  0
 54131  1  0  0  0
 55 57  1  0  0  0
 55132  1  0  0  0
 56 69  2  0  0  0
 57 58  2  0  0  0
 57133  1  0  0  0
 58134  1  0  0  0
 59 60  1  0  0  0
 59 61  1  0  0  0
 59 62  1  0  0  0
 60135  1  0  0  0
 60136  1  0  0  0
 60137  1  0  0  0
 61138  1  0  0  0
 61139  1  0  0  0
 61140  1  0  0  0
 62141  1  0  0  0
 62142  1  0  0  0
 62143  1  0  0  0
 63 65  1  0  0  0
 63144  1  0  0  0
 63145  1  0  0  0
 63146  1  0  0  0
 64147  1  0  0  0
 65148  1  0  0  0
 68 84  1  0  0  0
 71 72  2  0  0  0
 71 74  1  0  0  0
 71149  1  0  0  0
 72 75  1  0  0  0
 72150  1  0  0  0
 73 74  2  0  0  0
 73 76  1  0  0  0
 73151  1  0  0  0
 74 85  1  0  0  0
 75 76  2  0  0  0
 75 83  1  0  0  0
 76 89  1  0  0  0
 77 79  1  0  0  0
 77 84  1  0  0  0
 77 86  2  0  0  0
 78 80  1  0  0  0
 78 87  1  0  0  0
 78 88  2  0  0  0
 79152  1  0  0  0
 79153  1  0  0  0
 79154  1  0  0  0
 80155  1  0  0  0
 80156  1  0  0  0
 80157  1  0  0  0
 81158  1  0  0  0
 81159  1  0  0  0
 81160  1  0  0  0
 81 85  1  0  0  0
 82 89  1  0  0  0
 82161  1  0  0  0
 82162  1  0  0  0
 82163  1  0  0  0
 83 86  1  0  0  0
 83164  1  0  0  0
 83165  1  0  0  0
 84166  1  0  0  0
 84167  1  0  0  0
 85 87  1  0  0  0
 85168  1  0  0  0
M  ISO  4   1 100  68 101  84 101  87 100
M  END
> <chiral flag>
0

> <version>
0

> <s_m_source_file>
/data/baiqing/PycharmProjects/Reinvent-master-3.2/result/LINK_invent/BTK/process_docking_weight1_custom_product_contain_oxygen_bond_distance_aromatic_linkinvent_7_9_3/rearranged_h_0093.sdf

> <i_m_source_file_index>
59

> <r_mmod_Potential_Energy-OPLS-2005>
190.738967895508

> <r_mmod_Stretch_Energy-OPLS-2005>
53.0965194702148

> <r_mmod_Bend_Energy-OPLS-2005>
138.489700317383

> <r_mmod_Torsional_Energy-OPLS-2005>
296.045623779297

> <r_mmod_Improper_Torsional_Energy-OPLS-2005>
8.08755493164062

> <r_mmod_Van_der_Waal_Energy-OPLS-2005>
192.131576538086

> <r_mmod_Electrostatic_Energy-OPLS-2005>
-364.438812255859

> <r_mmod_Solvation_Energy-OPLS-2005>
-196.064453125

> <b_mmod_Minimization_Converged-OPLS-2005>
0

> <r_mmod_RMS_Derivative-OPLS-2005>
2.5735981464386

$$$$
60
                    3D
 Structure written by MMmdl.
162171  0  0  1  0            999 V2000
  -30.6703  -14.6565   20.5571 C   0  0  0  0  0  0
  -30.4264  -12.4264   19.4571 C   0  0  0  0  0  0
  -29.5080  -12.5359   18.2244 C   0  0  0  0  0  0
  -28.0318  -12.3577   18.6267 C   0  0  0  0  0  0
  -27.6463  -13.2302   19.8506 C   0  0  2  0  0  0
  -28.6802  -13.1033   20.9827 C   0  0  0  0  0  0
  -25.2507  -13.8197   20.5646 C   0  0  0  0  0  0
  -24.1808  -13.0434   20.9200 C   0  0  0  0  0  0
  -24.6402  -11.6915   20.8737 C   0  0  0  0  0  0
  -23.9094  -10.4291   21.0390 C   0  0  0  0  0  0
  -24.3652   -9.4210   21.9163 C   0  0  0  0  0  0
  -23.6307   -8.2255   22.0747 C   0  0  0  0  0  0
  -22.4284   -8.0291   21.3541 C   0  0  0  0  0  0
  -21.9919   -9.0272   20.4643 C   0  0  0  0  0  0
  -22.7264  -10.2132   20.3041 C   0  0  0  0  0  0
  -21.6870   -6.0736   22.5294 C   0  0  0  0  0  0
  -21.4019   -6.5632   23.8231 C   0  0  0  0  0  0
  -21.3660   -5.6776   24.9193 C   0  0  0  0  0  0
  -21.6045   -4.3046   24.7237 C   0  0  0  0  0  0
  -21.8827   -3.8138   23.4367 C   0  0  0  0  0  0
  -21.9193   -4.6956   22.3422 C   0  0  0  0  0  0
  -22.7818  -13.5210   21.1875 C   0  0  0  0  0  0
  -22.1622   -4.2139   21.0994 F   0  0  0  0  0  0
  -21.5659   -3.4534   25.7754 F   0  0  0  0  0  0
  -30.0035  -13.4553   20.4354 N   0  0  0  0  0  0
  -26.2949  -12.9407   20.3225 N   0  0  0  0  0  0
  -25.9332  -11.6547   20.5708 N   0  0  0  0  0  0
  -22.0449  -12.8222   22.0438 N   0  0  0  0  0  0
  -25.4207  -15.1917   20.4053 N   0  0  0  0  0  0
  -31.7740  -14.8052   20.0222 O   0  0  0  0  0  0
  -21.6653   -6.8882   21.4248 O   0  0  0  0  0  0
  -22.3473  -14.5500   20.6719 O   0  0  0  0  0  0
  -24.6334  -31.8546   23.2017 C   0  0  0  0  0  0
  -25.9171  -32.4752   23.8350 C   0  0  1  0  0  0
  -27.2153  -27.2810   20.0920 C   0  0  0  0  0  0
  -25.5969  -33.8559   24.2286 N   0  0  0  0  0  0
  -23.4282  -30.4788   21.5448 C   0  0  2  0  0  0
  -24.8704  -28.9310   20.1107 C   0  0  0  0  0  0
  -22.7504  -29.4598   22.4928 C   0  0  0  0  0  0
  -18.0291  -28.1384   22.8478 C   0  0  0  0  0  0
  -24.1487  -36.7254   23.2641 C   0  0  0  0  0  0
  -25.9739  -30.7716   21.3788 C   0  0  0  0  0  0
  -26.0450  -29.3982   20.7141 C   0  0  0  0  0  0
  -27.2236  -28.5841   20.6934 C   0  0  0  0  0  0
  -26.0176  -26.8789   19.4662 C   0  0  0  0  0  0
  -24.8601  -27.6774   19.4801 C   0  0  0  0  0  0
  -23.6430  -29.8175   20.1602 C   0  0  0  0  0  0
  -25.4113  -36.3060   24.0333 C   0  0  1  0  0  0
  -20.5890  -28.3686   23.1272 C   0  0  2  0  0  0
  -20.6774  -26.9406   22.5399 C   0  0  0  0  0  0
  -19.5751  -26.6390   21.5205 C   0  0  0  0  0  0
  -18.1935  -26.7930   22.1621 C   0  0  0  0  0  0
  -19.1544  -28.8854   23.2870 C   0  0  0  0  0  0
  -18.9470  -30.1454   23.8894 C   0  0  0  0  0  0
  -17.6467  -30.6581   24.0559 C   0  0  0  0  0  0
  -25.9065  -34.9434   23.5101 C   0  0  0  0  0  0
  -16.5356  -29.9080   23.6322 C   0  0  0  0  0  0
  -16.7281  -28.6495   23.0352 C   0  0  0  0  0  0
  -26.4547  -31.6563   25.0722 C   0  0  0  0  0  0
  -25.3782  -31.3680   26.1449 C   0  0  0  0  0  0
  -27.0408  -30.2985   24.6194 C   0  0  0  0  0  0
  -27.6113  -32.4295   25.7475 C   0  0  0  0  0  0
  -27.5576  -37.1767   24.8468 C   0  0  0  0  0  0
  -21.4206  -29.3041   22.3669 N   0  0  0  0  0  0
  -26.4278  -37.3764   23.9440 N   0  0  0  0  0  0
  -24.6978  -31.0523   22.0984 N   0  0  0  0  0  0
  -23.4208  -28.8139   23.3034 O   0  0  0  0  0  0
  -28.3094  -26.3925   20.0733 O   0  0  0  0  0  0
  -26.5621  -34.8903   22.4662 O   0  0  0  0  0  0
  -23.5484  -32.1375   23.7306 O   0  0  0  0  0  0
  -29.9046  -18.8593   18.9906 C   0  0  0  0  0  0
  -30.1013  -17.5115   19.4401 C   0  0  0  0  0  0
  -29.1527  -19.4995   21.1466 C   0  0  0  0  0  0
  -29.4271  -19.9275   19.8235 C   0  0  0  0  0  0
  -29.8562  -17.0940   20.7817 C   0  0  0  0  0  0
  -29.3532  -18.1608   21.6083 C   0  0  0  0  0  0
  -28.7819  -22.4541   20.1222 C   0  0  0  0  0  0
  -28.6638  -23.7546   19.6580 C   0  0  0  0  0  0
  -29.0864  -22.8410   17.3418 C   0  0  0  0  0  0
  -29.0938  -24.0885   18.2362 C   0  0  0  0  0  0
  -29.5763  -21.5159   17.9560 C   0  0  0  0  0  0
  -31.3315  -16.0377   23.4510 C   0  0  0  0  0  0
  -28.0672  -24.9708   20.4833 C   0  0  0  0  0  0
  -30.1078  -15.4317   22.7344 C   0  0  0  0  0  0
  -29.2328  -21.3071   19.3784 N   0  0  0  0  0  0
  -30.0937  -15.6928   21.2732 N   0  0  0  0  0  0
  -28.7213  -22.9031   16.1630 O   0  0  0  0  0  0
  -29.0329  -17.9478   22.9054 F   0  0  0  0  0  0
  -31.4696  -12.5379   19.1560 H   0  0  0  0  0  0
  -30.3526  -11.4306   19.8970 H   0  0  0  0  0  0
  -29.7920  -11.7951   17.4753 H   0  0  0  0  0  0
  -29.6434  -13.5129   17.7542 H   0  0  0  0  0  0
  -27.8763  -11.3025   18.8558 H   0  0  0  0  0  0
  -27.3828  -12.5849   17.7811 H   0  0  0  0  0  0
  -27.6617  -14.2702   19.5164 H   0  0  0  0  0  0
  -28.6962  -12.0886   21.3815 H   0  0  0  0  0  0
  -28.3727  -13.7431   21.8068 H   0  0  0  0  0  0
  -25.2801   -9.5712   22.4737 H   0  0  0  0  0  0
  -24.0036   -7.4657   22.7455 H   0  0  0  0  0  0
  -21.0862   -8.8821   19.8939 H   0  0  0  0  0  0
  -22.3739  -10.9694   19.6172 H   0  0  0  0  0  0
  -21.2000   -7.6131   23.9750 H   0  0  0  0  0  0
  -21.1459   -6.0488   25.9096 H   0  0  0  0  0  0
  -22.0601   -2.7597   23.2884 H   0  0  0  0  0  0
  -22.4026  -11.9905   22.4894 H   0  0  0  0  0  0
  -21.1065  -13.1262   22.2605 H   0  0  0  0  0  0
  -24.6605  -15.8508   20.5375 H   0  0  0  0  0  0
  -26.2820  -15.6336   20.1102 H   0  0  0  0  0  0
  -26.7228  -32.5385   23.1078 H   0  0  0  0  0  0
  -25.0141  -33.9705   25.0451 H   0  0  0  0  0  0
  -22.7261  -31.3022   21.4018 H   0  0  0  0  0  0
  -23.3769  -35.9563   23.3282 H   0  0  0  0  0  0
  -24.3581  -36.8896   22.2060 H   0  0  0  0  0  0
  -23.7214  -37.6437   23.6672 H   0  0  0  0  0  0
  -26.1124  -31.5368   20.6139 H   0  0  0  0  0  0
  -26.8524  -30.8164   22.0109 H   0  0  0  0  0  0
  -28.1290  -28.9363   21.1669 H   0  0  0  0  0  0
  -25.9632  -25.9253   18.9594 H   0  0  0  0  0  0
  -23.9604  -27.3200   18.9966 H   0  0  0  0  0  0
  -23.7666  -30.5968   19.4074 H   0  0  0  0  0  0
  -22.7598  -29.2530   19.8555 H   0  0  0  0  0  0
  -25.1287  -36.1896   25.0823 H   0  0  0  0  0  0
  -20.9979  -28.3255   24.1397 H   0  0  0  0  0  0
  -20.5668  -26.2298   23.3603 H   0  0  0  0  0  0
  -21.6642  -26.7428   22.1193 H   0  0  0  0  0  0
  -19.6915  -25.6310   21.1230 H   0  0  0  0  0  0
  -19.6700  -27.3193   20.6734 H   0  0  0  0  0  0
  -17.4200  -26.6669   21.4022 H   0  0  0  0  0  0
  -18.0340  -26.0074   22.9020 H   0  0  0  0  0  0
  -19.7947  -30.7259   24.2275 H   0  0  0  0  0  0
  -17.5025  -31.6269   24.5146 H   0  0  0  0  0  0
  -15.5355  -30.2989   23.7650 H   0  0  0  0  0  0
  -15.8678  -28.0815   22.7084 H   0  0  0  0  0  0
  -24.5983  -30.7004   25.7762 H   0  0  0  0  0  0
  -24.8952  -32.2830   26.4882 H   0  0  0  0  0  0
  -25.8124  -30.8854   27.0218 H   0  0  0  0  0  0
  -26.2992  -29.6697   24.1250 H   0  0  0  0  0  0
  -27.4144  -29.7272   25.4705 H   0  0  0  0  0  0
  -27.8842  -30.4276   23.9407 H   0  0  0  0  0  0
  -27.2759  -33.3614   26.2036 H   0  0  0  0  0  0
  -28.3922  -32.6822   25.0288 H   0  0  0  0  0  0
  -28.0790  -31.8432   26.5394 H   0  0  0  0  0  0
  -28.2554  -38.0101   24.7568 H   0  0  0  0  0  0
  -28.1111  -36.2633   24.6224 H   0  0  0  0  0  0
  -27.2300  -37.1325   25.8869 H   0  0  0  0  0  0
  -20.9399  -29.8780   21.6870 H   0  0  0  0  0  0
  -26.0144  -38.2820   24.1499 H   0  0  0  0  0  0
  -30.1549  -19.0333   17.9547 H   0  0  0  0  0  0
  -30.4729  -16.7961   18.7199 H   0  0  0  0  0  0
  -28.7750  -20.2118   21.8606 H   0  0  0  0  0  0
  -28.4610  -22.2220   21.1281 H   0  0  0  0  0  0
  -30.0799  -24.5546   18.2407 H   0  0  0  0  0  0
  -28.3864  -24.8027   17.8175 H   0  0  0  0  0  0
  -30.6559  -21.4440   17.8212 H   0  0  0  0  0  0
  -29.1279  -20.7315   17.3469 H   0  0  0  0  0  0
  -31.4051  -17.1179   23.3301 H   0  0  0  0  0  0
  -32.2608  -15.5951   23.0916 H   0  0  0  0  0  0
  -31.2746  -15.8342   24.5221 H   0  0  0  0  0  0
  -28.4328  -24.8715   21.5055 H   0  0  0  0  0  0
  -26.9995  -24.7693   20.5642 H   0  0  0  0  0  0
  -29.1714  -15.7443   23.1919 H   0  0  0  0  0  0
  -30.1419  -14.3652   22.9607 H   0  0  0  0  0  0
  1 25  1  0  0  0
  1 30  2  0  0  0
  1 86  1  0  0  0
  2  3  1  0  0  0
  2 25  1  0  0  0
  2 89  1  0  0  0
  2 90  1  0  0  0
  3  4  1  0  0  0
  3 91  1  0  0  0
  3 92  1  0  0  0
  4  5  1  0  0  0
  4 93  1  0  0  0
  4 94  1  0  0  0
  5  6  1  0  0  0
  5 26  1  0  0  0
  5 95  1  0  0  0
  6 25  1  0  0  0
  6 96  1  0  0  0
  6 97  1  0  0  0
  7  8  2  0  0  0
  7 26  1  0  0  0
  7 29  1  0  0  0
  8  9  1  0  0  0
  8 22  1  0  0  0
  9 10  1  0  0  0
  9 27  2  0  0  0
 10 11  2  0  0  0
 10 15  1  0  0  0
 11 12  1  0  0  0
 11 98  1  0  0  0
 12 13  2  0  0  0
 12 99  1  0  0  0
 13 14  1  0  0  0
 13 31  1  0  0  0
 14 15  2  0  0  0
 14100  1  0  0  0
 15101  1  0  0  0
 16 17  2  0  0  0
 16 21  1  0  0  0
 16 31  1  0  0  0
 17 18  1  0  0  0
 17102  1  0  0  0
 18 19  2  0  0  0
 18103  1  0  0  0
 19 20  1  0  0  0
 19 24  1  0  0  0
 20 21  2  0  0  0
 20104  1  0  0  0
 21 23  1  0  0  0
 22 28  1  0  0  0
 22 32  2  0  0  0
 26 27  1  0  0  0
 28105  1  0  0  0
 28106  1  0  0  0
 29107  1  0  0  0
 29108  1  0  0  0
 33 34  1  0  0  0
 33 66  1  0  0  0
 33 70  2  0  0  0
 34 36  1  0  0  0
 34 59  1  0  0  0
 34109  1  0  0  0
 35 44  2  0  0  0
 35 45  1  0  0  0
 35 68  1  0  0  0
 36 56  1  0  0  0
 36110  1  0  0  0
 37 39  1  0  0  0
 37 47  1  0  0  0
 37 66  1  0  0  0
 37111  1  0  0  0
 38 43  2  0  0  0
 38 46  1  0  0  0
 38 47  1  0  0  0
 39 64  1  0  0  0
 39 67  2  0  0  0
 40 52  1  0  0  0
 40 53  2  0  0  0
 40 58  1  0  0  0
 41112  1  0  0  0
 41113  1  0  0  0
 41114  1  0  0  0
 41 48  1  0  0  0
 42 43  1  0  0  0
 42 66  1  0  0  0
 42115  1  0  0  0
 42116  1  0  0  0
 43 44  1  0  0  0
 44117  1  0  0  0
 45 46  2  0  0  0
 45118  1  0  0  0
 46119  1  0  0  0
 47120  1  0  0  0
 47121  1  0  0  0
 48 56  1  0  0  0
 48 65  1  0  0  0
 48122  1  0  0  0
 49 50  1  0  0  0
 49 53  1  0  0  0
 49 64  1  0  0  0
 49123  1  0  0  0
 50 51  1  0  0  0
 50124  1  0  0  0
 50125  1  0  0  0
 51 52  1  0  0  0
 51126  1  0  0  0
 51127  1  0  0  0
 52128  1  0  0  0
 52129  1  0  0  0
 53 54  1  0  0  0
 54 55  2  0  0  0
 54130  1  0  0  0
 55 57  1  0  0  0
 55131  1  0  0  0
 56 69  2  0  0  0
 57 58  2  0  0  0
 57132  1  0  0  0
 58133  1  0  0  0
 59 60  1  0  0  0
 59 61  1  0  0  0
 59 62  1  0  0  0
 60134  1  0  0  0
 60135  1  0  0  0
 60136  1  0  0  0
 61137  1  0  0  0
 61138  1  0  0  0
 61139  1  0  0  0
 62140  1  0  0  0
 62141  1  0  0  0
 62142  1  0  0  0
 63 65  1  0  0  0
 63143  1  0  0  0
 63144  1  0  0  0
 63145  1  0  0  0
 64146  1  0  0  0
 65147  1  0  0  0
 68 83  1  0  0  0
 71 72  2  0  0  0
 71 74  1  0  0  0
 71148  1  0  0  0
 72 75  1  0  0  0
 72149  1  0  0  0
 73 74  2  0  0  0
 73 76  1  0  0  0
 73150  1  0  0  0
 74 85  1  0  0  0
 75 76  2  0  0  0
 75 86  1  0  0  0
 76 88  1  0  0  0
 77 78  2  0  0  0
 77 85  1  0  0  0
 77151  1  0  0  0
 78 80  1  0  0  0
 78 83  1  0  0  0
 79 80  1  0  0  0
 79 81  1  0  0  0
 79 87  2  0  0  0
 80152  1  0  0  0
 80153  1  0  0  0
 81 85  1  0  0  0
 81154  1  0  0  0
 81155  1  0  0  0
 82 84  1  0  0  0
 82156  1  0  0  0
 82157  1  0  0  0
 82158  1  0  0  0
 83159  1  0  0  0
 83160  1  0  0  0
 84 86  1  0  0  0
 84161  1  0  0  0
 84162  1  0  0  0
M  ISO  4   1 100  68 101  83 101  86 100
M  END
> <chiral flag>
0

> <version>
0

> <s_m_source_file>
/data/baiqing/PycharmProjects/Reinvent-master-3.2/result/LINK_invent/BTK/process_docking_weight1_custom_product_contain_oxygen_bond_distance_aromatic_linkinvent_7_9_3/rearranged_h_0093.sdf

> <i_m_source_file_index>
60

> <r_mmod_Potential_Energy-OPLS-2005>
314.526550292969

> <r_mmod_Stretch_Energy-OPLS-2005>
118.106666564941

> <r_mmod_Bend_Energy-OPLS-2005>
160.586822509766

> <r_mmod_Torsional_Energy-OPLS-2005>
286.747833251953

> <r_mmod_Improper_Torsional_Energy-OPLS-2005>
2.52611541748047

> <r_mmod_Van_der_Waal_Energy-OPLS-2005>
174.869369506836

> <r_mmod_Electrostatic_Energy-OPLS-2005>
-286.790618896484

> <r_mmod_Solvation_Energy-OPLS-2005>
-200.767913818359

> <b_mmod_Minimization_Converged-OPLS-2005>
0

> <r_mmod_RMS_Derivative-OPLS-2005>
3.674884557724

$$$$
61
                    3D
 Structure written by MMmdl.
167176  0  0  1  0            999 V2000
  -30.7588  -14.3897   20.6693 C   0  0  0  0  0  0
  -30.4137  -12.3006   19.3978 C   0  0  0  0  0  0
  -29.4840  -12.5306   18.1924 C   0  0  0  0  0  0
  -28.0091  -12.3849   18.6074 C   0  0  0  0  0  0
  -27.6649  -13.2064   19.8782 C   0  0  2  0  0  0
  -28.7016  -12.9604   20.9944 C   0  0  0  0  0  0
  -25.2603  -13.8158   20.5664 C   0  0  0  0  0  0
  -24.1851  -13.0439   20.9149 C   0  0  0  0  0  0
  -24.6403  -11.6895   20.8730 C   0  0  0  0  0  0
  -23.9063  -10.4285   21.0411 C   0  0  0  0  0  0
  -24.3623   -9.4200   21.9176 C   0  0  0  0  0  0
  -23.6294   -8.2242   22.0756 C   0  0  0  0  0  0
  -22.4264   -8.0286   21.3553 C   0  0  0  0  0  0
  -21.9895   -9.0256   20.4653 C   0  0  0  0  0  0
  -22.7237  -10.2123   20.3047 C   0  0  0  0  0  0
  -21.6841   -6.0739   22.5295 C   0  0  0  0  0  0
  -21.4007   -6.5640   23.8232 C   0  0  0  0  0  0
  -21.3662   -5.6789   24.9194 C   0  0  0  0  0  0
  -21.6044   -4.3050   24.7235 C   0  0  0  0  0  0
  -21.8818   -3.8142   23.4356 C   0  0  0  0  0  0
  -21.9189   -4.6965   22.3413 C   0  0  0  0  0  0
  -22.7880  -13.5235   21.1807 C   0  0  0  0  0  0
  -22.1668   -4.2153   21.0988 F   0  0  0  0  0  0
  -21.5627   -3.4536   25.7746 F   0  0  0  0  0  0
  -30.0411  -13.2561   20.4524 N   0  0  0  0  0  0
  -26.3044  -12.9340   20.3373 N   0  0  0  0  0  0
  -25.9326  -11.6494   20.5754 N   0  0  0  0  0  0
  -22.0487  -12.8209   22.0314 N   0  0  0  0  0  0
  -25.4350  -15.1885   20.4122 N   0  0  0  0  0  0
  -31.8041  -14.6467   20.0652 O   0  0  0  0  0  0
  -21.6623   -6.8890   21.4262 O   0  0  0  0  0  0
  -22.3586  -14.5555   20.6675 O   0  0  0  0  0  0
  -24.6097  -31.8720   23.2123 C   0  0  0  0  0  0
  -25.9016  -32.4848   23.8397 C   0  0  1  0  0  0
  -27.2458  -27.4650   20.0852 C   0  0  0  0  0  0
  -25.5896  -33.8641   24.2350 N   0  0  0  0  0  0
  -23.3977  -30.4920   21.5519 C   0  0  2  0  0  0
  -24.8488  -28.9583   20.1207 C   0  0  0  0  0  0
  -22.7367  -29.4675   22.5006 C   0  0  0  0  0  0
  -18.0249  -28.1379   22.8485 C   0  0  0  0  0  0
  -24.1486  -36.7319   23.2635 C   0  0  0  0  0  0
  -25.9211  -30.8453   21.3616 C   0  0  0  0  0  0
  -26.0038  -29.4760   20.7213 C   0  0  0  0  0  0
  -27.2050  -28.7342   20.7100 C   0  0  0  0  0  0
  -26.0782  -26.9589   19.4831 C   0  0  0  0  0  0
  -24.8772  -27.6951   19.5049 C   0  0  0  0  0  0
  -23.6092  -29.8226   20.1676 C   0  0  0  0  0  0
  -25.4099  -36.3121   24.0348 C   0  0  1  0  0  0
  -20.5832  -28.3670   23.1323 C   0  0  2  0  0  0
  -20.6743  -26.9411   22.5413 C   0  0  0  0  0  0
  -19.5738  -26.6393   21.5194 C   0  0  0  0  0  0
  -18.1911  -26.7925   22.1605 C   0  0  0  0  0  0
  -19.1492  -28.8835   23.2907 C   0  0  0  0  0  0
  -18.9436  -30.1432   23.8931 C   0  0  0  0  0  0
  -17.6451  -30.6597   24.0559 C   0  0  0  0  0  0
  -25.9025  -34.9491   23.5141 C   0  0  0  0  0  0
  -16.5338  -29.9108   23.6319 C   0  0  0  0  0  0
  -16.7241  -28.6512   23.0356 C   0  0  0  0  0  0
  -26.4461  -31.6584   25.0694 C   0  0  0  0  0  0
  -25.3741  -31.3666   26.1450 C   0  0  0  0  0  0
  -27.0266  -30.3037   24.5996 C   0  0  0  0  0  0
  -27.6054  -32.4270   25.7463 C   0  0  0  0  0  0
  -27.5578  -37.1807   24.8469 C   0  0  0  0  0  0
  -21.4101  -29.3040   22.3733 N   0  0  0  0  0  0
  -26.4294  -37.3794   23.9415 N   0  0  0  0  0  0
  -24.6608  -31.0830   22.1014 N   0  0  0  0  0  0
  -23.4133  -28.8213   23.3040 O   0  0  0  0  0  0
  -28.3994  -26.7280   19.9675 O   0  0  0  0  0  0
  -26.5571  -34.8940   22.4689 O   0  0  0  0  0  0
  -23.5308  -32.1474   23.7537 O   0  0  0  0  0  0
  -30.7952  -18.6940   23.0168 C   0  0  0  0  0  0
  -30.3205  -20.0139   22.9984 C   0  0  0  0  0  0
  -28.9805  -19.4954   21.0483 C   0  0  0  0  0  0
  -30.3714  -17.7472   22.0639 C   0  0  0  0  0  0
  -29.3948  -20.4385   22.0221 C   0  0  0  0  0  0
  -29.4640  -18.1523   21.0481 C   0  0  0  0  0  0
  -28.0506  -24.8001   22.7546 C   0  0  0  0  0  0
  -28.7548  -24.9863   21.6208 C   0  0  0  0  0  0
  -27.7060  -23.4851   23.4242 C   0  0  0  0  0  0
  -29.3021  -23.8688   20.7219 C   0  0  0  0  0  0
  -28.8309  -22.4479   23.3422 C   0  0  0  0  0  0
  -28.6066  -22.4886   20.8126 C   0  0  0  0  0  0
  -28.3050  -17.6414   18.9949 C   0  0  0  0  0  0
  -30.9970  -16.3510   22.1883 C   0  0  0  0  0  0
  -29.0915  -26.4018   21.1669 C   0  0  0  0  0  0
  -28.8927  -21.7630   22.0520 N   0  0  0  0  0  0
  -30.2853  -15.2025   21.6247 N   0  0  0  0  0  0
  -29.0933  -17.2205   20.0994 O   0  0  0  0  0  0
  -31.4577  -12.3981   19.0935 H   0  0  0  0  0  0
  -30.3059  -11.2799   19.7687 H   0  0  0  0  0  0
  -29.7170  -11.8284   17.3912 H   0  0  0  0  0  0
  -29.6530  -13.5272   17.7801 H   0  0  0  0  0  0
  -27.8143  -11.3262   18.7806 H   0  0  0  0  0  0
  -27.3606  -12.6825   17.7823 H   0  0  0  0  0  0
  -27.7207  -14.2595   19.6030 H   0  0  0  0  0  0
  -28.6624  -11.9199   21.3203 H   0  0  0  0  0  0
  -28.4485  -13.5455   21.8793 H   0  0  0  0  0  0
  -25.2776   -9.5669   22.4740 H   0  0  0  0  0  0
  -24.0008   -7.4628   22.7465 H   0  0  0  0  0  0
  -21.0817   -8.8783   19.8965 H   0  0  0  0  0  0
  -22.3699  -10.9669   19.6156 H   0  0  0  0  0  0
  -21.2003   -7.6141   23.9741 H   0  0  0  0  0  0
  -21.1480   -6.0518   25.9102 H   0  0  0  0  0  0
  -22.0580   -2.7597   23.2864 H   0  0  0  0  0  0
  -22.4049  -11.9843   22.4696 H   0  0  0  0  0  0
  -21.1091  -13.1223   22.2435 H   0  0  0  0  0  0
  -24.6714  -15.8460   20.5234 H   0  0  0  0  0  0
  -26.3066  -15.6310   20.1520 H   0  0  0  0  0  0
  -26.7094  -32.5612   23.1179 H   0  0  0  0  0  0
  -25.0059  -33.9804   25.0504 H   0  0  0  0  0  0
  -22.6862  -31.3090   21.4118 H   0  0  0  0  0  0
  -23.3754  -35.9650   23.3314 H   0  0  0  0  0  0
  -24.3578  -36.8910   22.2046 H   0  0  0  0  0  0
  -23.7247  -37.6535   23.6630 H   0  0  0  0  0  0
  -26.0168  -31.6079   20.5874 H   0  0  0  0  0  0
  -26.8135  -30.9148   21.9700 H   0  0  0  0  0  0
  -28.1016  -29.1487   21.1475 H   0  0  0  0  0  0
  -26.1057  -25.9982   18.9876 H   0  0  0  0  0  0
  -23.9911  -27.2905   19.0359 H   0  0  0  0  0  0
  -23.7176  -30.5970   19.4062 H   0  0  0  0  0  0
  -22.7345  -29.2399   19.8735 H   0  0  0  0  0  0
  -25.1276  -36.1992   25.0844 H   0  0  0  0  0  0
  -20.9927  -28.3247   24.1447 H   0  0  0  0  0  0
  -20.5620  -26.2285   23.3595 H   0  0  0  0  0  0
  -21.6622  -26.7460   22.1218 H   0  0  0  0  0  0
  -19.6914  -25.6309   21.1222 H   0  0  0  0  0  0
  -19.6682  -27.3200   20.6720 H   0  0  0  0  0  0
  -17.4172  -26.6647   21.4023 H   0  0  0  0  0  0
  -18.0343  -26.0056   22.8993 H   0  0  0  0  0  0
  -19.7915  -30.7203   24.2347 H   0  0  0  0  0  0
  -17.5024  -31.6292   24.5140 H   0  0  0  0  0  0
  -15.5348  -30.3044   23.7629 H   0  0  0  0  0  0
  -15.8619  -28.0852   22.7092 H   0  0  0  0  0  0
  -24.5949  -30.6972   25.7790 H   0  0  0  0  0  0
  -24.8882  -32.2795   26.4893 H   0  0  0  0  0  0
  -25.8115  -30.8854   27.0202 H   0  0  0  0  0  0
  -26.2783  -29.6835   24.1045 H   0  0  0  0  0  0
  -27.4067  -29.7235   25.4413 H   0  0  0  0  0  0
  -27.8599  -30.4381   23.9099 H   0  0  0  0  0  0
  -27.2707  -33.3574   26.2061 H   0  0  0  0  0  0
  -28.3855  -32.6808   25.0276 H   0  0  0  0  0  0
  -28.0714  -31.8351   26.5352 H   0  0  0  0  0  0
  -28.2603  -38.0095   24.7501 H   0  0  0  0  0  0
  -28.1069  -36.2626   24.6314 H   0  0  0  0  0  0
  -27.2291  -37.1483   25.8871 H   0  0  0  0  0  0
  -20.9278  -29.8778   21.6962 H   0  0  0  0  0  0
  -26.0199  -38.2879   24.1412 H   0  0  0  0  0  0
  -31.5038  -18.4098   23.7817 H   0  0  0  0  0  0
  -30.6879  -20.6920   23.7543 H   0  0  0  0  0  0
  -28.2629  -19.8132   20.3085 H   0  0  0  0  0  0
  -27.6987  -25.6722   23.2888 H   0  0  0  0  0  0
  -26.7581  -23.0975   23.0501 H   0  0  0  0  0  0
  -27.5484  -23.7132   24.4787 H   0  0  0  0  0  0
  -30.3775  -23.7724   20.8848 H   0  0  0  0  0  0
  -29.1908  -24.2107   19.6916 H   0  0  0  0  0  0
  -28.6496  -21.7125   24.1271 H   0  0  0  0  0  0
  -29.7934  -22.9136   23.5650 H   0  0  0  0  0  0
  -28.9367  -21.8983   19.9565 H   0  0  0  0  0  0
  -27.5270  -22.5992   20.6965 H   0  0  0  0  0  0
  -28.1416  -16.7932   18.3301 H   0  0  0  0  0  0
  -28.8111  -18.4169   18.4186 H   0  0  0  0  0  0
  -27.3251  -18.0024   19.3091 H   0  0  0  0  0  0
  -31.1078  -16.1321   23.2507 H   0  0  0  0  0  0
  -32.0157  -16.4175   21.8044 H   0  0  0  0  0  0
  -30.1635  -26.4627   20.9760 H   0  0  0  0  0  0
  -28.8888  -27.1150   21.9678 H   0  0  0  0  0  0
  -29.4155  -14.9417   22.0613 H   0  0  0  0  0  0
  1 25  1  0  0  0
  1 30  2  0  0  0
  1 87  1  0  0  0
  2  3  1  0  0  0
  2 25  1  0  0  0
  2 89  1  0  0  0
  2 90  1  0  0  0
  3  4  1  0  0  0
  3 91  1  0  0  0
  3 92  1  0  0  0
  4  5  1  0  0  0
  4 93  1  0  0  0
  4 94  1  0  0  0
  5  6  1  0  0  0
  5 26  1  0  0  0
  5 95  1  0  0  0
  6 25  1  0  0  0
  6 96  1  0  0  0
  6 97  1  0  0  0
  7  8  2  0  0  0
  7 26  1  0  0  0
  7 29  1  0  0  0
  8  9  1  0  0  0
  8 22  1  0  0  0
  9 10  1  0  0  0
  9 27  2  0  0  0
 10 11  2  0  0  0
 10 15  1  0  0  0
 11 12  1  0  0  0
 11 98  1  0  0  0
 12 13  2  0  0  0
 12 99  1  0  0  0
 13 14  1  0  0  0
 13 31  1  0  0  0
 14 15  2  0  0  0
 14100  1  0  0  0
 15101  1  0  0  0
 16 17  2  0  0  0
 16 21  1  0  0  0
 16 31  1  0  0  0
 17 18  1  0  0  0
 17102  1  0  0  0
 18 19  2  0  0  0
 18103  1  0  0  0
 19 20  1  0  0  0
 19 24  1  0  0  0
 20 21  2  0  0  0
 20104  1  0  0  0
 21 23  1  0  0  0
 22 28  1  0  0  0
 22 32  2  0  0  0
 26 27  1  0  0  0
 28105  1  0  0  0
 28106  1  0  0  0
 29107  1  0  0  0
 29108  1  0  0  0
 33 34  1  0  0  0
 33 66  1  0  0  0
 33 70  2  0  0  0
 34 36  1  0  0  0
 34 59  1  0  0  0
 34109  1  0  0  0
 35 44  2  0  0  0
 35 45  1  0  0  0
 35 68  1  0  0  0
 36 56  1  0  0  0
 36110  1  0  0  0
 37 39  1  0  0  0
 37 47  1  0  0  0
 37 66  1  0  0  0
 37111  1  0  0  0
 38 43  2  0  0  0
 38 46  1  0  0  0
 38 47  1  0  0  0
 39 64  1  0  0  0
 39 67  2  0  0  0
 40 52  1  0  0  0
 40 53  2  0  0  0
 40 58  1  0  0  0
 41112  1  0  0  0
 41113  1  0  0  0
 41114  1  0  0  0
 41 48  1  0  0  0
 42 43  1  0  0  0
 42 66  1  0  0  0
 42115  1  0  0  0
 42116  1  0  0  0
 43 44  1  0  0  0
 44117  1  0  0  0
 45 46  2  0  0  0
 45118  1  0  0  0
 46119  1  0  0  0
 47120  1  0  0  0
 47121  1  0  0  0
 48 56  1  0  0  0
 48 65  1  0  0  0
 48122  1  0  0  0
 49 50  1  0  0  0
 49 53  1  0  0  0
 49 64  1  0  0  0
 49123  1  0  0  0
 50 51  1  0  0  0
 50124  1  0  0  0
 50125  1  0  0  0
 51 52  1  0  0  0
 51126  1  0  0  0
 51127  1  0  0  0
 52128  1  0  0  0
 52129  1  0  0  0
 53 54  1  0  0  0
 54 55  2  0  0  0
 54130  1  0  0  0
 55 57  1  0  0  0
 55131  1  0  0  0
 56 69  2  0  0  0
 57 58  2  0  0  0
 57132  1  0  0  0
 58133  1  0  0  0
 59 60  1  0  0  0
 59 61  1  0  0  0
 59 62  1  0  0  0
 60134  1  0  0  0
 60135  1  0  0  0
 60136  1  0  0  0
 61137  1  0  0  0
 61138  1  0  0  0
 61139  1  0  0  0
 62140  1  0  0  0
 62141  1  0  0  0
 62142  1  0  0  0
 63 65  1  0  0  0
 63143  1  0  0  0
 63144  1  0  0  0
 63145  1  0  0  0
 64146  1  0  0  0
 65147  1  0  0  0
 68 85  1  0  0  0
 71 72  2  0  0  0
 71 74  1  0  0  0
 71148  1  0  0  0
 72 75  1  0  0  0
 72149  1  0  0  0
 73 75  2  0  0  0
 73 76  1  0  0  0
 73150  1  0  0  0
 74 76  2  0  0  0
 74 84  1  0  0  0
 75 86  1  0  0  0
 76 88  1  0  0  0
 77 78  2  0  0  0
 77 79  1  0  0  0
 77151  1  0  0  0
 78 80  1  0  0  0
 78 85  1  0  0  0
 79 81  1  0  0  0
 79152  1  0  0  0
 79153  1  0  0  0
 80 82  1  0  0  0
 80154  1  0  0  0
 80155  1  0  0  0
 81 86  1  0  0  0
 81156  1  0  0  0
 81157  1  0  0  0
 82 86  1  0  0  0
 82158  1  0  0  0
 82159  1  0  0  0
 83 88  1  0  0  0
 83160  1  0  0  0
 83161  1  0  0  0
 83162  1  0  0  0
 84 87  1  0  0  0
 84163  1  0  0  0
 84164  1  0  0  0
 85165  1  0  0  0
 85166  1  0  0  0
 87167  1  0  0  0
M  ISO  4   1 100  68 101  85 101  87 100
M  END
> <chiral flag>
0

> <version>
0

> <s_m_source_file>
/data/baiqing/PycharmProjects/Reinvent-master-3.2/result/LINK_invent/BTK/process_docking_weight1_custom_product_contain_oxygen_bond_distance_aromatic_linkinvent_7_9_3/rearranged_h_0093.sdf

> <i_m_source_file_index>
61

> <r_mmod_Potential_Energy-OPLS-2005>
-61.7035522460938

> <r_mmod_Stretch_Energy-OPLS-2005>
37.652458190918

> <r_mmod_Bend_Energy-OPLS-2005>
127.786231994629

> <r_mmod_Torsional_Energy-OPLS-2005>
227.097259521484

> <r_mmod_Improper_Torsional_Energy-OPLS-2005>
2.22782826423645

> <r_mmod_Van_der_Waal_Energy-OPLS-2005>
167.498992919922

> <r_mmod_Electrostatic_Energy-OPLS-2005>
-407.874786376953

> <r_mmod_Solvation_Energy-OPLS-2005>
-222.629653930664

> <b_mmod_Minimization_Converged-OPLS-2005>
0

> <r_mmod_RMS_Derivative-OPLS-2005>
2.54762506484985

$$$$
62
                    3D
 Structure written by MMmdl.
152160  0  0  1  0            999 V2000
  -30.7142  -14.6511   20.5016 C   0  0  0  0  0  0
  -30.4116  -12.4109   19.4561 C   0  0  0  0  0  0
  -29.4946  -12.4959   18.2213 C   0  0  0  0  0  0
  -28.0237  -12.3316   18.6436 C   0  0  0  0  0  0
  -27.6410  -13.2339   19.8481 C   0  0  2  0  0  0
  -28.6911  -13.1735   20.9797 C   0  0  0  0  0  0
  -25.2514  -13.8205   20.5706 C   0  0  0  0  0  0
  -24.1809  -13.0447   20.9218 C   0  0  0  0  0  0
  -24.6401  -11.6925   20.8757 C   0  0  0  0  0  0
  -23.9081  -10.4298   21.0414 C   0  0  0  0  0  0
  -24.3627   -9.4210   21.9190 C   0  0  0  0  0  0
  -23.6296   -8.2246   22.0757 C   0  0  0  0  0  0
  -22.4281   -8.0287   21.3544 C   0  0  0  0  0  0
  -21.9923   -9.0264   20.4647 C   0  0  0  0  0  0
  -22.7256  -10.2140   20.3060 C   0  0  0  0  0  0
  -21.6853   -6.0741   22.5277 C   0  0  0  0  0  0
  -21.4014   -6.5643   23.8212 C   0  0  0  0  0  0
  -21.3658   -5.6796   24.9173 C   0  0  0  0  0  0
  -21.6044   -4.3057   24.7223 C   0  0  0  0  0  0
  -21.8819   -3.8152   23.4343 C   0  0  0  0  0  0
  -21.9193   -4.6970   22.3399 C   0  0  0  0  0  0
  -22.7829  -13.5227   21.1869 C   0  0  0  0  0  0
  -22.1662   -4.2154   21.0977 F   0  0  0  0  0  0
  -21.5628   -3.4542   25.7736 F   0  0  0  0  0  0
  -29.9945  -13.4868   20.3835 N   0  0  0  0  0  0
  -26.2946  -12.9422   20.3304 N   0  0  0  0  0  0
  -25.9334  -11.6560   20.5775 N   0  0  0  0  0  0
  -22.0469  -12.8211   22.0412 N   0  0  0  0  0  0
  -25.4198  -15.1928   20.4099 N   0  0  0  0  0  0
  -31.9045  -14.6400   20.1776 O   0  0  0  0  0  0
  -21.6642   -6.8888   21.4241 O   0  0  0  0  0  0
  -22.3516  -14.5532   20.6714 O   0  0  0  0  0  0
  -24.6283  -31.8604   23.2053 C   0  0  0  0  0  0
  -25.9131  -32.4781   23.8367 C   0  0  1  0  0  0
  -27.2084  -27.3028   20.1118 C   0  0  0  0  0  0
  -25.5947  -33.8581   24.2291 N   0  0  0  0  0  0
  -23.4202  -30.4882   21.5497 C   0  0  2  0  0  0
  -24.8641  -28.9526   20.1082 C   0  0  0  0  0  0
  -22.7478  -29.4633   22.4947 C   0  0  0  0  0  0
  -18.0282  -28.1388   22.8488 C   0  0  0  0  0  0
  -24.1488  -36.7288   23.2635 C   0  0  0  0  0  0
  -25.9652  -30.7871   21.3793 C   0  0  0  0  0  0
  -26.0370  -29.4154   20.7184 C   0  0  0  0  0  0
  -27.2129  -28.6018   20.7148 C   0  0  0  0  0  0
  -26.0123  -26.9165   19.4568 C   0  0  0  0  0  0
  -24.8554  -27.7094   19.4677 C   0  0  0  0  0  0
  -23.6332  -29.8318   20.1624 C   0  0  0  0  0  0
  -25.4112  -36.3081   24.0327 C   0  0  1  0  0  0
  -20.5884  -28.3692   23.1285 C   0  0  2  0  0  0
  -20.6776  -26.9416   22.5405 C   0  0  0  0  0  0
  -19.5748  -26.6387   21.5210 C   0  0  0  0  0  0
  -18.1927  -26.7933   22.1621 C   0  0  0  0  0  0
  -19.1535  -28.8857   23.2880 C   0  0  0  0  0  0
  -18.9458  -30.1461   23.8895 C   0  0  0  0  0  0
  -17.6459  -30.6591   24.0561 C   0  0  0  0  0  0
  -25.9054  -34.9452   23.5104 C   0  0  0  0  0  0
  -16.5350  -29.9087   23.6338 C   0  0  0  0  0  0
  -16.7269  -28.6504   23.0360 C   0  0  0  0  0  0
  -26.4515  -31.6587   25.0734 C   0  0  0  0  0  0
  -25.3743  -31.3709   26.1452 C   0  0  0  0  0  0
  -27.0367  -30.3017   24.6185 C   0  0  0  0  0  0
  -27.6072  -32.4321   25.7506 C   0  0  0  0  0  0
  -27.5580  -37.1795   24.8460 C   0  0  0  0  0  0
  -21.4189  -29.3049   22.3687 N   0  0  0  0  0  0
  -26.4284  -37.3781   23.9416 N   0  0  0  0  0  0
  -24.6905  -31.0612   22.1015 N   0  0  0  0  0  0
  -23.4199  -28.8156   23.3013 O   0  0  0  0  0  0
  -28.2907  -26.4001   20.1841 O   0  0  0  0  0  0
  -26.5611  -34.8918   22.4663 O   0  0  0  0  0  0
  -23.5447  -32.1407   23.7380 O   0  0  0  0  0  0
  -30.9119  -19.5777   20.6341 C   0  0  0  0  0  0
  -30.4384  -20.9156   20.5055 C   0  0  0  0  0  0
  -28.6667  -18.7416   20.8252 C   0  0  0  0  0  0
  -30.0539  -18.4467   20.7953 C   0  0  0  0  0  0
  -29.0547  -21.2072   20.5316 C   0  0  0  0  0  0
  -28.1858  -20.0856   20.6992 C   0  0  0  0  0  0
  -30.6802  -17.0480   21.0287 C   0  0  0  0  0  0
  -28.9592  -23.8224   20.3598 C   0  0  0  0  0  0
  -27.9494  -24.9671   19.9492 C   0  0  0  0  0  0
  -26.8108  -20.3108   20.7607 N   0  0  0  0  0  0
  -28.4730  -22.5365   20.3312 N   0  0  0  0  0  0
  -30.0624  -15.8482   20.7382 N   0  0  0  0  0  0
  -31.8309  -17.0718   21.4844 O   0  0  0  0  0  0
  -30.1178  -24.0989   20.6824 O   0  0  0  0  0  0
  -31.4556  -12.4883   19.1473 H   0  0  0  0  0  0
  -30.3200  -11.4362   19.9386 H   0  0  0  0  0  0
  -29.7637  -11.7279   17.4946 H   0  0  0  0  0  0
  -29.6328  -13.4553   17.7204 H   0  0  0  0  0  0
  -27.8764  -11.2837   18.9075 H   0  0  0  0  0  0
  -27.3626  -12.5269   17.7986 H   0  0  0  0  0  0
  -27.6355  -14.2551   19.4666 H   0  0  0  0  0  0
  -28.7114  -12.1848   21.4402 H   0  0  0  0  0  0
  -28.4441  -13.8788   21.7747 H   0  0  0  0  0  0
  -25.2769   -9.5681   22.4772 H   0  0  0  0  0  0
  -24.0002   -7.4638   22.7480 H   0  0  0  0  0  0
  -21.0856   -8.8789   19.8950 H   0  0  0  0  0  0
  -22.3722  -10.9683   19.6171 H   0  0  0  0  0  0
  -21.2005   -7.6151   23.9715 H   0  0  0  0  0  0
  -21.1481   -6.0526   25.9075 H   0  0  0  0  0  0
  -22.0599   -2.7615   23.2841 H   0  0  0  0  0  0
  -22.4082  -11.9866   22.4790 H   0  0  0  0  0  0
  -21.1083  -13.1233   22.2608 H   0  0  0  0  0  0
  -24.6484  -15.8437   20.5107 H   0  0  0  0  0  0
  -26.2586  -15.6284   20.0494 H   0  0  0  0  0  0
  -26.7196  -32.5447   23.1111 H   0  0  0  0  0  0
  -25.0109  -33.9727   25.0449 H   0  0  0  0  0  0
  -22.7141  -31.3097   21.4114 H   0  0  0  0  0  0
  -23.3757  -35.9611   23.3279 H   0  0  0  0  0  0
  -24.3584  -36.8930   22.2053 H   0  0  0  0  0  0
  -23.7233  -37.6481   23.6670 H   0  0  0  0  0  0
  -26.0972  -31.5512   20.6117 H   0  0  0  0  0  0
  -26.8462  -30.8354   22.0074 H   0  0  0  0  0  0
  -28.1074  -28.9480   21.2138 H   0  0  0  0  0  0
  -25.9197  -25.9770   18.9347 H   0  0  0  0  0  0
  -23.9602  -27.3534   18.9768 H   0  0  0  0  0  0
  -23.7496  -30.6116   19.4091 H   0  0  0  0  0  0
  -22.7527  -29.2619   19.8596 H   0  0  0  0  0  0
  -25.1292  -36.1924   25.0818 H   0  0  0  0  0  0
  -20.9969  -28.3258   24.1409 H   0  0  0  0  0  0
  -20.5690  -26.2293   23.3599 H   0  0  0  0  0  0
  -21.6646  -26.7457   22.1190 H   0  0  0  0  0  0
  -19.6912  -25.6297   21.1240 H   0  0  0  0  0  0
  -19.6689  -27.3197   20.6740 H   0  0  0  0  0  0
  -17.4198  -26.6684   21.4021 H   0  0  0  0  0  0
  -18.0327  -26.0070   22.9014 H   0  0  0  0  0  0
  -19.7932  -30.7280   24.2263 H   0  0  0  0  0  0
  -17.5011  -31.6276   24.5156 H   0  0  0  0  0  0
  -15.5352  -30.2988   23.7670 H   0  0  0  0  0  0
  -15.8664  -28.0821   22.7090 H   0  0  0  0  0  0
  -24.5939  -30.7035   25.7774 H   0  0  0  0  0  0
  -24.8906  -32.2862   26.4870 H   0  0  0  0  0  0
  -25.8071  -30.8896   27.0229 H   0  0  0  0  0  0
  -26.2948  -29.6753   24.1217 H   0  0  0  0  0  0
  -27.4087  -29.7285   25.4687 H   0  0  0  0  0  0
  -27.8805  -30.4315   23.9401 H   0  0  0  0  0  0
  -27.2699  -33.3638   26.2055 H   0  0  0  0  0  0
  -28.3904  -32.6845   25.0345 H   0  0  0  0  0  0
  -28.0709  -31.8452   26.5445 H   0  0  0  0  0  0
  -28.2573  -38.0118   24.7552 H   0  0  0  0  0  0
  -28.1106  -36.2654   24.6233 H   0  0  0  0  0  0
  -27.2301  -37.1377   25.8861 H   0  0  0  0  0  0
  -20.9363  -29.8782   21.6910 H   0  0  0  0  0  0
  -26.0159  -38.2846   24.1444 H   0  0  0  0  0  0
  -31.9827  -19.4263   20.6157 H   0  0  0  0  0  0
  -31.1562  -21.7129   20.3747 H   0  0  0  0  0  0
  -27.9677  -17.9303   20.9697 H   0  0  0  0  0  0
  -27.0230  -24.7285   20.4750 H   0  0  0  0  0  0
  -27.7672  -24.8304   18.8825 H   0  0  0  0  0  0
  -26.2478  -19.5366   21.0966 H   0  0  0  0  0  0
  -26.5211  -21.1767   21.2007 H   0  0  0  0  0  0
  -27.4907  -22.4852   20.0995 H   0  0  0  0  0  0
  -29.0631  -15.8588   20.6316 H   0  0  0  0  0  0
  1 25  1  0  0  0
  1 30  2  0  0  0
  1 82  1  0  0  0
  2  3  1  0  0  0
  2 25  1  0  0  0
  2 85  1  0  0  0
  2 86  1  0  0  0
  3  4  1  0  0  0
  3 87  1  0  0  0
  3 88  1  0  0  0
  4  5  1  0  0  0
  4 89  1  0  0  0
  4 90  1  0  0  0
  5  6  1  0  0  0
  5 26  1  0  0  0
  5 91  1  0  0  0
  6 25  1  0  0  0
  6 92  1  0  0  0
  6 93  1  0  0  0
  7  8  2  0  0  0
  7 26  1  0  0  0
  7 29  1  0  0  0
  8  9  1  0  0  0
  8 22  1  0  0  0
  9 10  1  0  0  0
  9 27  2  0  0  0
 10 11  2  0  0  0
 10 15  1  0  0  0
 11 12  1  0  0  0
 11 94  1  0  0  0
 12 13  2  0  0  0
 12 95  1  0  0  0
 13 14  1  0  0  0
 13 31  1  0  0  0
 14 15  2  0  0  0
 14 96  1  0  0  0
 15 97  1  0  0  0
 16 17  2  0  0  0
 16 21  1  0  0  0
 16 31  1  0  0  0
 17 18  1  0  0  0
 17 98  1  0  0  0
 18 19  2  0  0  0
 18 99  1  0  0  0
 19 20  1  0  0  0
 19 24  1  0  0  0
 20 21  2  0  0  0
 20100  1  0  0  0
 21 23  1  0  0  0
 22 28  1  0  0  0
 22 32  2  0  0  0
 26 27  1  0  0  0
 28101  1  0  0  0
 28102  1  0  0  0
 29103  1  0  0  0
 29104  1  0  0  0
 33 34  1  0  0  0
 33 66  1  0  0  0
 33 70  2  0  0  0
 34 36  1  0  0  0
 34 59  1  0  0  0
 34105  1  0  0  0
 35 44  2  0  0  0
 35 45  1  0  0  0
 35 68  1  0  0  0
 36 56  1  0  0  0
 36106  1  0  0  0
 37 39  1  0  0  0
 37 47  1  0  0  0
 37 66  1  0  0  0
 37107  1  0  0  0
 38 43  2  0  0  0
 38 46  1  0  0  0
 38 47  1  0  0  0
 39 64  1  0  0  0
 39 67  2  0  0  0
 40 52  1  0  0  0
 40 53  2  0  0  0
 40 58  1  0  0  0
 41108  1  0  0  0
 41109  1  0  0  0
 41110  1  0  0  0
 41 48  1  0  0  0
 42 43  1  0  0  0
 42 66  1  0  0  0
 42111  1  0  0  0
 42112  1  0  0  0
 43 44  1  0  0  0
 44113  1  0  0  0
 45 46  2  0  0  0
 45114  1  0  0  0
 46115  1  0  0  0
 47116  1  0  0  0
 47117  1  0  0  0
 48 56  1  0  0  0
 48 65  1  0  0  0
 48118  1  0  0  0
 49 50  1  0  0  0
 49 53  1  0  0  0
 49 64  1  0  0  0
 49119  1  0  0  0
 50 51  1  0  0  0
 50120  1  0  0  0
 50121  1  0  0  0
 51 52  1  0  0  0
 51122  1  0  0  0
 51123  1  0  0  0
 52124  1  0  0  0
 52125  1  0  0  0
 53 54  1  0  0  0
 54 55  2  0  0  0
 54126  1  0  0  0
 55 57  1  0  0  0
 55127  1  0  0  0
 56 69  2  0  0  0
 57 58  2  0  0  0
 57128  1  0  0  0
 58129  1  0  0  0
 59 60  1  0  0  0
 59 61  1  0  0  0
 59 62  1  0  0  0
 60130  1  0  0  0
 60131  1  0  0  0
 60132  1  0  0  0
 61133  1  0  0  0
 61134  1  0  0  0
 61135  1  0  0  0
 62136  1  0  0  0
 62137  1  0  0  0
 62138  1  0  0  0
 63 65  1  0  0  0
 63139  1  0  0  0
 63140  1  0  0  0
 63141  1  0  0  0
 64142  1  0  0  0
 65143  1  0  0  0
 68 79  1  0  0  0
 71 72  2  0  0  0
 71 74  1  0  0  0
 71144  1  0  0  0
 72 75  1  0  0  0
 72145  1  0  0  0
 73 74  2  0  0  0
 73 76  1  0  0  0
 73146  1  0  0  0
 74 77  1  0  0  0
 75 76  2  0  0  0
 75 81  1  0  0  0
 76 80  1  0  0  0
 77 82  1  0  0  0
 77 83  2  0  0  0
 78 79  1  0  0  0
 78 81  1  0  0  0
 78 84  2  0  0  0
 79147  1  0  0  0
 79148  1  0  0  0
 80149  1  0  0  0
 80150  1  0  0  0
 81151  1  0  0  0
 82152  1  0  0  0
M  ISO  4   1 100  68 101  79 101  82 100
M  END
> <chiral flag>
0

> <version>
0

> <s_m_source_file>
/data/baiqing/PycharmProjects/Reinvent-master-3.2/result/LINK_invent/BTK/process_docking_weight1_custom_product_contain_oxygen_bond_distance_aromatic_linkinvent_7_9_3/rearranged_h_0093.sdf

> <i_m_source_file_index>
62

> <r_mmod_Potential_Energy-OPLS-2005>
-94.3634033203125

> <r_mmod_Stretch_Energy-OPLS-2005>
85.0827026367188

> <r_mmod_Bend_Energy-OPLS-2005>
160.320205688477

> <r_mmod_Torsional_Energy-OPLS-2005>
240.028686523438

> <r_mmod_Improper_Torsional_Energy-OPLS-2005>
10.4859418869019

> <r_mmod_Van_der_Waal_Energy-OPLS-2005>
165.871932983398

> <r_mmod_Electrostatic_Energy-OPLS-2005>
-550.525451660156

> <r_mmod_Solvation_Energy-OPLS-2005>
-270.326599121094

> <b_mmod_Minimization_Converged-OPLS-2005>
0

> <r_mmod_RMS_Derivative-OPLS-2005>
0.7093545794487

$$$$
63
                    3D
 Structure written by MMmdl.
152160  0  0  1  0            999 V2000
  -30.4665  -15.1145   20.2894 C   0  0  0  0  0  0
  -30.4342  -12.6992   19.4260 C   0  0  0  0  0  0
  -29.4908  -12.4550   18.2214 C   0  0  0  0  0  0
  -28.0276  -12.2478   18.6627 C   0  0  0  0  0  0
  -27.5991  -13.1941   19.8066 C   0  0  2  0  0  0
  -28.6704  -13.3516   20.9074 C   0  0  0  0  0  0
  -25.2475  -13.7940   20.5782 C   0  0  0  0  0  0
  -24.1733  -13.0247   20.9277 C   0  0  0  0  0  0
  -24.6315  -11.6748   20.8820 C   0  0  0  0  0  0
  -23.8987  -10.4166   21.0464 C   0  0  0  0  0  0
  -24.3558   -9.4073   21.9218 C   0  0  0  0  0  0
  -23.6243   -8.2107   22.0752 C   0  0  0  0  0  0
  -22.4227   -8.0184   21.3535 C   0  0  0  0  0  0
  -21.9869   -9.0156   20.4636 C   0  0  0  0  0  0
  -22.7184  -10.2041   20.3089 C   0  0  0  0  0  0
  -21.6785   -6.0683   22.5275 C   0  0  0  0  0  0
  -21.3942   -6.5593   23.8205 C   0  0  0  0  0  0
  -21.3693   -5.6764   24.9185 C   0  0  0  0  0  0
  -21.6083   -4.3030   24.7238 C   0  0  0  0  0  0
  -21.8812   -3.8109   23.4356 C   0  0  0  0  0  0
  -21.9171   -4.6919   22.3407 C   0  0  0  0  0  0
  -22.7794  -13.5096   21.1902 C   0  0  0  0  0  0
  -22.1647   -4.2106   21.0982 F   0  0  0  0  0  0
  -21.5697   -3.4532   25.7760 F   0  0  0  0  0  0
  -29.8907  -13.8285   20.2395 N   0  0  0  0  0  0
  -26.2789  -12.9045   20.3307 N   0  0  0  0  0  0
  -25.9224  -11.6253   20.5831 N   0  0  0  0  0  0
  -22.0429  -12.8079   22.0459 N   0  0  0  0  0  0
  -25.4243  -15.1608   20.4207 N   0  0  0  0  0  0
  -31.7028  -15.1258   20.2486 O   0  0  0  0  0  0
  -21.6567   -6.8810   21.4236 O   0  0  0  0  0  0
  -22.3506  -14.5414   20.6760 O   0  0  0  0  0  0
  -24.6487  -31.8386   23.1830 C   0  0  0  0  0  0
  -25.9214  -32.4684   23.8260 C   0  0  1  0  0  0
  -27.2365  -27.0778   20.1674 C   0  0  0  0  0  0
  -25.5936  -33.8493   24.2179 N   0  0  0  0  0  0
  -23.4587  -30.4514   21.5284 C   0  0  2  0  0  0
  -24.9140  -28.8644   20.1120 C   0  0  0  0  0  0
  -22.7589  -29.4504   22.4838 C   0  0  0  0  0  0
  -18.0288  -28.1402   22.8470 C   0  0  0  0  0  0
  -24.1458  -36.7231   23.2654 C   0  0  0  0  0  0
  -26.0181  -30.6894   21.3928 C   0  0  0  0  0  0
  -26.0918  -29.2942   20.7373 C   0  0  0  0  0  0
  -27.2476  -28.4179   20.7470 C   0  0  0  0  0  0
  -26.0327  -26.7635   19.4951 C   0  0  0  0  0  0
  -24.9017  -27.6140   19.4739 C   0  0  0  0  0  0
  -23.6896  -29.7696   20.1538 C   0  0  0  0  0  0
  -25.4102  -36.3034   24.0336 C   0  0  1  0  0  0
  -20.5914  -28.3737   23.1194 C   0  0  2  0  0  0
  -20.6783  -26.9436   22.5379 C   0  0  0  0  0  0
  -19.5755  -26.6380   21.5193 C   0  0  0  0  0  0
  -18.1931  -26.7934   22.1613 C   0  0  0  0  0  0
  -19.1555  -28.8893   23.2817 C   0  0  0  0  0  0
  -18.9488  -30.1477   23.8865 C   0  0  0  0  0  0
  -17.6493  -30.6614   24.0551 C   0  0  0  0  0  0
  -25.9063  -34.9412   23.5078 C   0  0  0  0  0  0
  -16.5379  -29.9102   23.6355 C   0  0  0  0  0  0
  -16.7277  -28.6505   23.0401 C   0  0  0  0  0  0
  -26.4518  -31.6588   25.0736 C   0  0  0  0  0  0
  -25.3681  -31.3833   26.1443 C   0  0  0  0  0  0
  -27.0356  -30.2954   24.6385 C   0  0  0  0  0  0
  -27.6113  -32.4331   25.7454 C   0  0  0  0  0  0
  -27.5561  -37.1754   24.8481 C   0  0  0  0  0  0
  -21.4283  -29.3054   22.3567 N   0  0  0  0  0  0
  -26.4265  -37.3750   23.9435 N   0  0  0  0  0  0
  -24.7292  -31.0164   22.0899 N   0  0  0  0  0  0
  -23.4176  -28.8046   23.3026 O   0  0  0  0  0  0
  -28.2807  -26.0630   20.2680 O   0  0  0  0  0  0
  -26.5664  -34.8918   22.4660 O   0  0  0  0  0  0
  -23.5585  -32.1309   23.6975 O   0  0  0  0  0  0
  -31.0100  -19.2931   22.1738 C   0  0  0  0  0  0
  -30.4260  -20.4907   21.6923 C   0  0  0  0  0  0
  -30.7467  -18.0152   21.6247 C   0  0  0  0  0  0
  -29.5480  -20.5148   20.5841 C   0  0  0  0  0  0
  -29.9112  -17.8293   20.5042 C   0  0  0  0  0  0
  -29.3655  -19.1511   19.9840 C   0  0  0  0  0  0
  -27.5042  -16.7942   18.9833 C   0  0  0  0  0  0
  -28.7041  -16.1846   19.0529 C   0  0  0  0  0  0
  -28.9910  -23.2551   20.5406 C   0  0  0  0  0  0
  -28.0383  -24.5257   19.9748 C   0  0  0  0  0  0
  -28.8924  -21.8683   20.1480 N   0  0  0  0  0  0
  -29.6989  -16.3404   20.0377 N   0  0  0  0  0  0
  -29.8385  -23.5717   21.3786 O   0  0  0  0  0  0
  -28.6680  -19.1574   18.8248 F   0  0  0  0  0  0
  -31.4312  -12.9295   19.0463 H   0  0  0  0  0  0
  -30.5293  -11.7983   20.0318 H   0  0  0  0  0  0
  -29.8118  -11.5661   17.6773 H   0  0  0  0  0  0
  -29.5544  -13.2751   17.5044 H   0  0  0  0  0  0
  -27.9201  -11.2127   18.9854 H   0  0  0  0  0  0
  -27.3545  -12.3615   17.8086 H   0  0  0  0  0  0
  -27.4681  -14.1302   19.2959 H   0  0  0  0  0  0
  -28.8488  -12.4086   21.4253 H   0  0  0  0  0  0
  -28.3455  -14.0755   21.6557 H   0  0  0  0  0  0
  -25.2676   -9.5535   22.4826 H   0  0  0  0  0  0
  -23.9941   -7.4462   22.7438 H   0  0  0  0  0  0
  -21.0816   -8.8671   19.8906 H   0  0  0  0  0  0
  -22.3628  -10.9614   19.6253 H   0  0  0  0  0  0
  -21.1839   -7.6074   23.9696 H   0  0  0  0  0  0
  -21.1584   -6.0489   25.9097 H   0  0  0  0  0  0
  -22.0567   -2.7567   23.2860 H   0  0  0  0  0  0
  -22.3972  -11.9646   22.4711 H   0  0  0  0  0  0
  -21.1127  -13.1222   22.2813 H   0  0  0  0  0  0
  -24.6769  -15.8353   20.5212 H   0  0  0  0  0  0
  -26.2865  -15.5698   20.0785 H   0  0  0  0  0  0
  -26.7288  -32.5268   23.0995 H   0  0  0  0  0  0
  -25.0091  -33.9605   25.0339 H   0  0  0  0  0  0
  -22.7664  -31.2785   21.3612 H   0  0  0  0  0  0
  -23.3787  -35.9483   23.3258 H   0  0  0  0  0  0
  -24.3555  -36.8936   22.2083 H   0  0  0  0  0  0
  -23.7124  -37.6372   23.6729 H   0  0  0  0  0  0
  -26.1787  -31.4309   20.6102 H   0  0  0  0  0  0
  -26.8902  -30.7448   22.0337 H   0  0  0  0  0  0
  -28.1397  -28.7382   21.2674 H   0  0  0  0  0  0
  -25.9285  -25.8097   19.0016 H   0  0  0  0  0  0
  -24.0017  -27.2782   18.9754 H   0  0  0  0  0  0
  -23.8178  -30.5368   19.3900 H   0  0  0  0  0  0
  -22.8076  -29.2031   19.8512 H   0  0  0  0  0  0
  -25.1255  -36.1884   25.0824 H   0  0  0  0  0  0
  -20.9995  -28.3355   24.1318 H   0  0  0  0  0  0
  -20.5696  -26.2359   23.3615 H   0  0  0  0  0  0
  -21.6644  -26.7438   22.1176 H   0  0  0  0  0  0
  -19.6944  -25.6274   21.1278 H   0  0  0  0  0  0
  -19.6724  -27.3146   20.6696 H   0  0  0  0  0  0
  -17.4204  -26.6674   21.4019 H   0  0  0  0  0  0
  -18.0349  -26.0065   22.9005 H   0  0  0  0  0  0
  -19.7970  -30.7269   24.2258 H   0  0  0  0  0  0
  -17.5062  -31.6311   24.5114 H   0  0  0  0  0  0
  -15.5391  -30.3010   23.7713 H   0  0  0  0  0  0
  -15.8662  -28.0811   22.7200 H   0  0  0  0  0  0
  -24.5746  -30.7346   25.7718 H   0  0  0  0  0  0
  -24.9021  -32.3051   26.4935 H   0  0  0  0  0  0
  -25.7887  -30.8883   27.0205 H   0  0  0  0  0  0
  -26.2977  -29.6680   24.1392 H   0  0  0  0  0  0
  -27.3918  -29.7268   25.4987 H   0  0  0  0  0  0
  -27.8901  -30.4149   23.9727 H   0  0  0  0  0  0
  -27.2894  -33.3854   26.1671 H   0  0  0  0  0  0
  -28.4069  -32.6511   25.0312 H   0  0  0  0  0  0
  -28.0571  -31.8648   26.5630 H   0  0  0  0  0  0
  -28.2563  -38.0060   24.7554 H   0  0  0  0  0  0
  -28.1076  -36.2608   24.6276 H   0  0  0  0  0  0
  -27.2297  -37.1361   25.8885 H   0  0  0  0  0  0
  -20.9531  -29.8758   21.6718 H   0  0  0  0  0  0
  -26.0160  -38.2812   24.1479 H   0  0  0  0  0  0
  -31.6745  -19.3475   23.0248 H   0  0  0  0  0  0
  -30.6667  -21.4042   22.2085 H   0  0  0  0  0  0
  -31.2066  -17.1580   22.0947 H   0  0  0  0  0  0
  -26.8363  -16.5876   18.1563 H   0  0  0  0  0  0
  -27.1504  -17.4963   19.7261 H   0  0  0  0  0  0
  -28.9775  -15.4895   18.2692 H   0  0  0  0  0  0
  -27.0341  -24.2897   20.3281 H   0  0  0  0  0  0
  -28.0049  -24.4200   18.8908 H   0  0  0  0  0  0
  -28.1949  -21.7422   19.4278 H   0  0  0  0  0  0
  1 25  1  0  0  0
  1 30  2  0  0  0
  1 82  1  0  0  0
  2  3  1  0  0  0
  2 25  1  0  0  0
  2 85  1  0  0  0
  2 86  1  0  0  0
  3  4  1  0  0  0
  3 87  1  0  0  0
  3 88  1  0  0  0
  4  5  1  0  0  0
  4 89  1  0  0  0
  4 90  1  0  0  0
  5  6  1  0  0  0
  5 26  1  0  0  0
  5 91  1  0  0  0
  6 25  1  0  0  0
  6 92  1  0  0  0
  6 93  1  0  0  0
  7  8  2  0  0  0
  7 26  1  0  0  0
  7 29  1  0  0  0
  8  9  1  0  0  0
  8 22  1  0  0  0
  9 10  1  0  0  0
  9 27  2  0  0  0
 10 11  2  0  0  0
 10 15  1  0  0  0
 11 12  1  0  0  0
 11 94  1  0  0  0
 12 13  2  0  0  0
 12 95  1  0  0  0
 13 14  1  0  0  0
 13 31  1  0  0  0
 14 15  2  0  0  0
 14 96  1  0  0  0
 15 97  1  0  0  0
 16 17  2  0  0  0
 16 21  1  0  0  0
 16 31  1  0  0  0
 17 18  1  0  0  0
 17 98  1  0  0  0
 18 19  2  0  0  0
 18 99  1  0  0  0
 19 20  1  0  0  0
 19 24  1  0  0  0
 20 21  2  0  0  0
 20100  1  0  0  0
 21 23  1  0  0  0
 22 28  1  0  0  0
 22 32  2  0  0  0
 26 27  1  0  0  0
 28101  1  0  0  0
 28102  1  0  0  0
 29103  1  0  0  0
 29104  1  0  0  0
 33 34  1  0  0  0
 33 66  1  0  0  0
 33 70  2  0  0  0
 34 36  1  0  0  0
 34 59  1  0  0  0
 34105  1  0  0  0
 35 44  2  0  0  0
 35 45  1  0  0  0
 35 68  1  0  0  0
 36 56  1  0  0  0
 36106  1  0  0  0
 37 39  1  0  0  0
 37 47  1  0  0  0
 37 66  1  0  0  0
 37107  1  0  0  0
 38 43  2  0  0  0
 38 46  1  0  0  0
 38 47  1  0  0  0
 39 64  1  0  0  0
 39 67  2  0  0  0
 40 52  1  0  0  0
 40 53  2  0  0  0
 40 58  1  0  0  0
 41108  1  0  0  0
 41109  1  0  0  0
 41110  1  0  0  0
 41 48  1  0  0  0
 42 43  1  0  0  0
 42 66  1  0  0  0
 42111  1  0  0  0
 42112  1  0  0  0
 43 44  1  0  0  0
 44113  1  0  0  0
 45 46  2  0  0  0
 45114  1  0  0  0
 46115  1  0  0  0
 47116  1  0  0  0
 47117  1  0  0  0
 48 56  1  0  0  0
 48 65  1  0  0  0
 48118  1  0  0  0
 49 50  1  0  0  0
 49 53  1  0  0  0
 49 64  1  0  0  0
 49119  1  0  0  0
 50 51  1  0  0  0
 50120  1  0  0  0
 50121  1  0  0  0
 51 52  1  0  0  0
 51122  1  0  0  0
 51123  1  0  0  0
 52124  1  0  0  0
 52125  1  0  0  0
 53 54  1  0  0  0
 54 55  2  0  0  0
 54126  1  0  0  0
 55 57  1  0  0  0
 55127  1  0  0  0
 56 69  2  0  0  0
 57 58  2  0  0  0
 57128  1  0  0  0
 58129  1  0  0  0
 59 60  1  0  0  0
 59 61  1  0  0  0
 59 62  1  0  0  0
 60130  1  0  0  0
 60131  1  0  0  0
 60132  1  0  0  0
 61133  1  0  0  0
 61134  1  0  0  0
 61135  1  0  0  0
 62136  1  0  0  0
 62137  1  0  0  0
 62138  1  0  0  0
 63 65  1  0  0  0
 63139  1  0  0  0
 63140  1  0  0  0
 63141  1  0  0  0
 64142  1  0  0  0
 65143  1  0  0  0
 68 80  1  0  0  0
 71 72  2  0  0  0
 71 73  1  0  0  0
 71144  1  0  0  0
 72 74  1  0  0  0
 72145  1  0  0  0
 73 75  2  0  0  0
 73146  1  0  0  0
 74 76  2  0  0  0
 74 81  1  0  0  0
 75 76  1  0  0  0
 75 82  1  0  0  0
 76 84  1  0  0  0
 77 78  2  0  0  0
 77147  1  0  0  0
 77148  1  0  0  0
 78 82  1  0  0  0
 78149  1  0  0  0
 79 80  1  0  0  0
 79 81  1  0  0  0
 79 83  2  0  0  0
 80150  1  0  0  0
 80151  1  0  0  0
 81152  1  0  0  0
M  ISO  4   1 100  68 101  80 101  82 100
M  END
> <chiral flag>
0

> <version>
0

> <s_m_source_file>
/data/baiqing/PycharmProjects/Reinvent-master-3.2/result/LINK_invent/BTK/process_docking_weight1_custom_product_contain_oxygen_bond_distance_aromatic_linkinvent_7_9_3/rearranged_h_0093.sdf

> <i_m_source_file_index>
63

> <r_mmod_Potential_Energy-OPLS-2005>
866.378112792969

> <r_mmod_Stretch_Energy-OPLS-2005>
347.672424316406

> <r_mmod_Bend_Energy-OPLS-2005>
275.865051269531

> <r_mmod_Torsional_Energy-OPLS-2005>
316.044769287109

> <r_mmod_Improper_Torsional_Energy-OPLS-2005>
9.4340238571167

> <r_mmod_Van_der_Waal_Energy-OPLS-2005>
153.728378295898

> <r_mmod_Electrostatic_Energy-OPLS-2005>
-317.654266357422

> <r_mmod_Solvation_Energy-OPLS-2005>
-223.462631225586

> <b_mmod_Minimization_Converged-OPLS-2005>
0

> <r_mmod_RMS_Derivative-OPLS-2005>
5.17713403701782

$$$$
64
                    3D
 Structure written by MMmdl.
152160  0  0  1  0            999 V2000
  -30.7090  -14.5430   20.4504 C   0  0  0  0  0  0
  -30.3939  -12.3169   19.4654 C   0  0  0  0  0  0
  -29.4903  -12.4878   18.2268 C   0  0  0  0  0  0
  -28.0100  -12.3580   18.6269 C   0  0  0  0  0  0
  -27.6473  -13.2263   19.8641 C   0  0  2  0  0  0
  -28.6895  -13.0977   20.9994 C   0  0  0  0  0  0
  -25.2503  -13.8220   20.5705 C   0  0  0  0  0  0
  -24.1787  -13.0453   20.9180 C   0  0  0  0  0  0
  -24.6371  -11.6929   20.8715 C   0  0  0  0  0  0
  -23.9062  -10.4302   21.0398 C   0  0  0  0  0  0
  -24.3619   -9.4217   21.9172 C   0  0  0  0  0  0
  -23.6298   -8.2256   22.0752 C   0  0  0  0  0  0
  -22.4280   -8.0283   21.3552 C   0  0  0  0  0  0
  -21.9920   -9.0251   20.4650 C   0  0  0  0  0  0
  -22.7240  -10.2131   20.3047 C   0  0  0  0  0  0
  -21.6865   -6.0728   22.5273 C   0  0  0  0  0  0
  -21.4017   -6.5631   23.8204 C   0  0  0  0  0  0
  -21.3657   -5.6788   24.9167 C   0  0  0  0  0  0
  -21.6052   -4.3056   24.7223 C   0  0  0  0  0  0
  -21.8818   -3.8138   23.4349 C   0  0  0  0  0  0
  -21.9203   -4.6951   22.3402 C   0  0  0  0  0  0
  -22.7801  -13.5219   21.1858 C   0  0  0  0  0  0
  -22.1664   -4.2134   21.0979 F   0  0  0  0  0  0
  -21.5635   -3.4539   25.7743 F   0  0  0  0  0  0
  -30.0142  -13.3666   20.4315 N   0  0  0  0  0  0
  -26.2943  -12.9429   20.3347 N   0  0  0  0  0  0
  -25.9300  -11.6564   20.5752 N   0  0  0  0  0  0
  -22.0476  -12.8173   22.0409 N   0  0  0  0  0  0
  -25.4191  -15.1943   20.4108 N   0  0  0  0  0  0
  -31.8985  -14.5624   20.1220 O   0  0  0  0  0  0
  -21.6650   -6.8875   21.4240 O   0  0  0  0  0  0
  -22.3467  -14.5524   20.6728 O   0  0  0  0  0  0
  -24.6182  -31.8645   23.2035 C   0  0  0  0  0  0
  -25.9073  -32.4788   23.8341 C   0  0  1  0  0  0
  -27.2207  -27.3983   20.1195 C   0  0  0  0  0  0
  -25.5921  -33.8581   24.2298 N   0  0  0  0  0  0
  -23.4057  -30.4867   21.5452 C   0  0  2  0  0  0
  -24.8529  -28.9551   20.0998 C   0  0  0  0  0  0
  -22.7432  -29.4626   22.4956 C   0  0  0  0  0  0
  -18.0274  -28.1373   22.8487 C   0  0  0  0  0  0
  -24.1484  -36.7291   23.2622 C   0  0  0  0  0  0
  -25.9332  -30.8306   21.3496 C   0  0  0  0  0  0
  -26.0135  -29.4602   20.7011 C   0  0  0  0  0  0
  -27.2030  -28.6895   20.7087 C   0  0  0  0  0  0
  -26.0519  -26.9264   19.4887 C   0  0  0  0  0  0
  -24.8705  -27.6943   19.4796 C   0  0  0  0  0  0
  -23.6132  -29.8208   20.1579 C   0  0  0  0  0  0
  -25.4097  -36.3087   24.0337 C   0  0  1  0  0  0
  -20.5873  -28.3648   23.1333 C   0  0  2  0  0  0
  -20.6763  -26.9383   22.5425 C   0  0  0  0  0  0
  -19.5740  -26.6393   21.5216 C   0  0  0  0  0  0
  -18.1913  -26.7927   22.1608 C   0  0  0  0  0  0
  -19.1521  -28.8826   23.2915 C   0  0  0  0  0  0
  -18.9447  -30.1448   23.8897 C   0  0  0  0  0  0
  -17.6445  -30.6576   24.0561 C   0  0  0  0  0  0
  -25.9030  -34.9452   23.5113 C   0  0  0  0  0  0
  -16.5339  -29.9064   23.6343 C   0  0  0  0  0  0
  -16.7264  -28.6495   23.0342 C   0  0  0  0  0  0
  -26.4503  -31.6540   25.0652 C   0  0  0  0  0  0
  -25.3777  -31.3605   26.1403 C   0  0  0  0  0  0
  -27.0307  -30.2986   24.5975 C   0  0  0  0  0  0
  -27.6077  -32.4223   25.7446 C   0  0  0  0  0  0
  -27.5573  -37.1795   24.8459 C   0  0  0  0  0  0
  -21.4149  -29.3004   22.3726 N   0  0  0  0  0  0
  -26.4262  -37.3787   23.9430 N   0  0  0  0  0  0
  -24.6716  -31.0749   22.0931 N   0  0  0  0  0  0
  -23.4206  -28.8160   23.2987 O   0  0  0  0  0  0
  -28.2901  -26.5283   20.2355 O   0  0  0  0  0  0
  -26.5580  -34.8919   22.4668 O   0  0  0  0  0  0
  -23.5390  -32.1378   23.7465 O   0  0  0  0  0  0
  -30.6777  -19.3669   20.1437 C   0  0  0  0  0  0
  -28.6727  -18.4927   21.1798 C   0  0  0  0  0  0
  -30.2962  -20.6902   20.4632 C   0  0  0  0  0  0
  -28.2960  -19.8249   21.5160 C   0  0  0  0  0  0
  -29.8792  -18.2398   20.4802 C   0  0  0  0  0  0
  -29.0853  -20.9469   21.1412 C   0  0  0  0  0  0
  -28.3438  -25.9153   21.4770 C   0  0  0  0  0  0
  -30.3243  -16.8674   19.9748 C   0  0  0  0  0  0
  -28.5450  -24.6095   21.8266 C   0  0  0  0  0  0
  -28.8344  -23.4810   20.9135 C   0  0  0  0  0  0
  -28.7108  -22.2788   21.5436 N   0  0  0  0  0  0
  -30.0086  -15.7039   20.6172 N   0  0  0  0  0  0
  -31.0136  -16.8822   18.9457 O   0  0  0  0  0  0
  -29.1424  -23.5812   19.7248 O   0  0  0  0  0  0
  -28.4709  -24.3259   23.1410 O   0  0  0  0  0  0
  -31.4452  -12.3568   19.1737 H   0  0  0  0  0  0
  -30.2491  -11.3292   19.9078 H   0  0  0  0  0  0
  -29.7378  -11.7470   17.4657 H   0  0  0  0  0  0
  -29.6636  -13.4629   17.7694 H   0  0  0  0  0  0
  -27.8146  -11.3048   18.8348 H   0  0  0  0  0  0
  -27.3684  -12.6224   17.7841 H   0  0  0  0  0  0
  -27.6663  -14.2611   19.5216 H   0  0  0  0  0  0
  -28.6656  -12.0951   21.4314 H   0  0  0  0  0  0
  -28.4600  -13.7856   21.8141 H   0  0  0  0  0  0
  -25.2775   -9.5697   22.4724 H   0  0  0  0  0  0
  -24.0016   -7.4664   22.7476 H   0  0  0  0  0  0
  -21.0860   -8.8774   19.8952 H   0  0  0  0  0  0
  -22.3712  -10.9658   19.6135 H   0  0  0  0  0  0
  -21.2001   -7.6136   23.9693 H   0  0  0  0  0  0
  -21.1484   -6.0521   25.9070 H   0  0  0  0  0  0
  -22.0599   -2.7598   23.2855 H   0  0  0  0  0  0
  -22.4105  -11.9789   22.4726 H   0  0  0  0  0  0
  -21.1100  -13.1178   22.2662 H   0  0  0  0  0  0
  -24.6544  -15.8500   20.5243 H   0  0  0  0  0  0
  -26.2704  -15.6359   20.0864 H   0  0  0  0  0  0
  -26.7115  -32.5515   23.1078 H   0  0  0  0  0  0
  -25.0135  -33.9720   25.0498 H   0  0  0  0  0  0
  -22.6951  -31.3044   21.4079 H   0  0  0  0  0  0
  -23.3757  -35.9608   23.3253 H   0  0  0  0  0  0
  -24.3597  -36.8941   22.2044 H   0  0  0  0  0  0
  -23.7217  -37.6478   23.6659 H   0  0  0  0  0  0
  -26.0327  -31.5948   20.5767 H   0  0  0  0  0  0
  -26.8292  -30.8985   21.9551 H   0  0  0  0  0  0
  -28.0901  -29.0591   21.2034 H   0  0  0  0  0  0
  -26.0446  -25.9404   19.0441 H   0  0  0  0  0  0
  -23.9768  -27.3044   19.0086 H   0  0  0  0  0  0
  -23.7110  -30.5966   19.3975 H   0  0  0  0  0  0
  -22.7375  -29.2380   19.8691 H   0  0  0  0  0  0
  -25.1279  -36.1921   25.0832 H   0  0  0  0  0  0
  -20.9997  -28.3200   24.1444 H   0  0  0  0  0  0
  -20.5681  -26.2225   23.3588 H   0  0  0  0  0  0
  -21.6630  -26.7418   22.1213 H   0  0  0  0  0  0
  -19.6891  -25.6321   21.1202 H   0  0  0  0  0  0
  -19.6704  -27.3240   20.6781 H   0  0  0  0  0  0
  -17.4211  -26.6708   21.3981 H   0  0  0  0  0  0
  -18.0284  -26.0073   22.9005 H   0  0  0  0  0  0
  -19.7929  -30.7280   24.2236 H   0  0  0  0  0  0
  -17.4998  -31.6252   24.5159 H   0  0  0  0  0  0
  -15.5330  -30.2943   23.7678 H   0  0  0  0  0  0
  -15.8676  -28.0825   22.7025 H   0  0  0  0  0  0
  -24.6040  -30.6842   25.7759 H   0  0  0  0  0  0
  -24.8866  -32.2729   26.4787 H   0  0  0  0  0  0
  -25.8184  -30.8859   27.0182 H   0  0  0  0  0  0
  -26.2810  -29.6752   24.1089 H   0  0  0  0  0  0
  -27.4172  -29.7205   25.4380 H   0  0  0  0  0  0
  -27.8610  -30.4319   23.9029 H   0  0  0  0  0  0
  -27.2737  -33.3556   26.1995 H   0  0  0  0  0  0
  -28.3927  -32.6702   25.0286 H   0  0  0  0  0  0
  -28.0684  -31.8332   26.5395 H   0  0  0  0  0  0
  -28.2543  -38.0136   24.7583 H   0  0  0  0  0  0
  -28.1111  -36.2678   24.6184 H   0  0  0  0  0  0
  -27.2320  -37.1342   25.8863 H   0  0  0  0  0  0
  -20.9293  -29.8705   21.6951 H   0  0  0  0  0  0
  -26.0146  -38.2843   24.1490 H   0  0  0  0  0  0
  -31.6070  -19.2218   19.6087 H   0  0  0  0  0  0
  -28.0170  -17.6779   21.4528 H   0  0  0  0  0  0
  -30.9545  -21.5052   20.1946 H   0  0  0  0  0  0
  -27.3711  -19.9770   22.0565 H   0  0  0  0  0  0
  -28.1655  -26.6498   22.2520 H   0  0  0  0  0  0
  -28.3271  -22.3774   22.4757 H   0  0  0  0  0  0
  -29.1948  -15.6933   21.2077 H   0  0  0  0  0  0
  -28.2800  -25.1316   23.6019 H   0  0  0  0  0  0
  1 25  1  0  0  0
  1 30  2  0  0  0
  1 82  1  0  0  0
  2  3  1  0  0  0
  2 25  1  0  0  0
  2 86  1  0  0  0
  2 87  1  0  0  0
  3  4  1  0  0  0
  3 88  1  0  0  0
  3 89  1  0  0  0
  4  5  1  0  0  0
  4 90  1  0  0  0
  4 91  1  0  0  0
  5  6  1  0  0  0
  5 26  1  0  0  0
  5 92  1  0  0  0
  6 25  1  0  0  0
  6 93  1  0  0  0
  6 94  1  0  0  0
  7  8  2  0  0  0
  7 26  1  0  0  0
  7 29  1  0  0  0
  8  9  1  0  0  0
  8 22  1  0  0  0
  9 10  1  0  0  0
  9 27  2  0  0  0
 10 11  2  0  0  0
 10 15  1  0  0  0
 11 12  1  0  0  0
 11 95  1  0  0  0
 12 13  2  0  0  0
 12 96  1  0  0  0
 13 14  1  0  0  0
 13 31  1  0  0  0
 14 15  2  0  0  0
 14 97  1  0  0  0
 15 98  1  0  0  0
 16 17  2  0  0  0
 16 21  1  0  0  0
 16 31  1  0  0  0
 17 18  1  0  0  0
 17 99  1  0  0  0
 18 19  2  0  0  0
 18100  1  0  0  0
 19 20  1  0  0  0
 19 24  1  0  0  0
 20 21  2  0  0  0
 20101  1  0  0  0
 21 23  1  0  0  0
 22 28  1  0  0  0
 22 32  2  0  0  0
 26 27  1  0  0  0
 28102  1  0  0  0
 28103  1  0  0  0
 29104  1  0  0  0
 29105  1  0  0  0
 33 34  1  0  0  0
 33 66  1  0  0  0
 33 70  2  0  0  0
 34 36  1  0  0  0
 34 59  1  0  0  0
 34106  1  0  0  0
 35 44  2  0  0  0
 35 45  1  0  0  0
 35 68  1  0  0  0
 36 56  1  0  0  0
 36107  1  0  0  0
 37 39  1  0  0  0
 37 47  1  0  0  0
 37 66  1  0  0  0
 37108  1  0  0  0
 38 43  2  0  0  0
 38 46  1  0  0  0
 38 47  1  0  0  0
 39 64  1  0  0  0
 39 67  2  0  0  0
 40 52  1  0  0  0
 40 53  2  0  0  0
 40 58  1  0  0  0
 41109  1  0  0  0
 41110  1  0  0  0
 41111  1  0  0  0
 41 48  1  0  0  0
 42 43  1  0  0  0
 42 66  1  0  0  0
 42112  1  0  0  0
 42113  1  0  0  0
 43 44  1  0  0  0
 44114  1  0  0  0
 45 46  2  0  0  0
 45115  1  0  0  0
 46116  1  0  0  0
 47117  1  0  0  0
 47118  1  0  0  0
 48 56  1  0  0  0
 48 65  1  0  0  0
 48119  1  0  0  0
 49 50  1  0  0  0
 49 53  1  0  0  0
 49 64  1  0  0  0
 49120  1  0  0  0
 50 51  1  0  0  0
 50121  1  0  0  0
 50122  1  0  0  0
 51 52  1  0  0  0
 51123  1  0  0  0
 51124  1  0  0  0
 52125  1  0  0  0
 52126  1  0  0  0
 53 54  1  0  0  0
 54 55  2  0  0  0
 54127  1  0  0  0
 55 57  1  0  0  0
 55128  1  0  0  0
 56 69  2  0  0  0
 57 58  2  0  0  0
 57129  1  0  0  0
 58130  1  0  0  0
 59 60  1  0  0  0
 59 61  1  0  0  0
 59 62  1  0  0  0
 60131  1  0  0  0
 60132  1  0  0  0
 60133  1  0  0  0
 61134  1  0  0  0
 61135  1  0  0  0
 61136  1  0  0  0
 62137  1  0  0  0
 62138  1  0  0  0
 62139  1  0  0  0
 63 65  1  0  0  0
 63140  1  0  0  0
 63141  1  0  0  0
 63142  1  0  0  0
 64143  1  0  0  0
 65144  1  0  0  0
 68 77  1  0  0  0
 71 73  2  0  0  0
 71 75  1  0  0  0
 71145  1  0  0  0
 72 74  1  0  0  0
 72 75  2  0  0  0
 72146  1  0  0  0
 73 76  1  0  0  0
 73147  1  0  0  0
 74 76  2  0  0  0
 74148  1  0  0  0
 75 78  1  0  0  0
 76 81  1  0  0  0
 77 79  2  0  0  0
 77149  1  0  0  0
 78 82  1  0  0  0
 78 83  2  0  0  0
 79 80  1  0  0  0
 79 85  1  0  0  0
 80 81  1  0  0  0
 80 84  2  0  0  0
 81150  1  0  0  0
 82151  1  0  0  0
 85152  1  0  0  0
M  ISO  4   1 100  68 101  77 101  82 100
M  END
> <chiral flag>
0

> <version>
0

> <s_m_source_file>
/data/baiqing/PycharmProjects/Reinvent-master-3.2/result/LINK_invent/BTK/process_docking_weight1_custom_product_contain_oxygen_bond_distance_aromatic_linkinvent_7_9_3/rearranged_h_0093.sdf

> <i_m_source_file_index>
64

> <r_mmod_Potential_Energy-OPLS-2005>
-34.9384078979492

> <r_mmod_Stretch_Energy-OPLS-2005>
51.4980316162109

> <r_mmod_Bend_Energy-OPLS-2005>
133.539505004883

> <r_mmod_Torsional_Energy-OPLS-2005>
277.117706298828

> <r_mmod_Improper_Torsional_Energy-OPLS-2005>
6.25111484527588

> <r_mmod_Van_der_Waal_Energy-OPLS-2005>
162.938568115234

> <r_mmod_Electrostatic_Energy-OPLS-2005>
-448.904907226562

> <r_mmod_Solvation_Energy-OPLS-2005>
-254.05110168457

> <b_mmod_Minimization_Converged-OPLS-2005>
0

> <r_mmod_RMS_Derivative-OPLS-2005>
3.01170492172241

$$$$
65
                    3D
 Structure written by MMmdl.
158167  0  0  1  0            999 V2000
  -30.7768  -14.4867   20.4867 C   0  0  0  0  0  0
  -30.3925  -12.3069   19.4442 C   0  0  0  0  0  0
  -29.4893  -12.4953   18.2128 C   0  0  0  0  0  0
  -28.0130  -12.3647   18.6164 C   0  0  0  0  0  0
  -27.6508  -13.2323   19.8570 C   0  0  2  0  0  0
  -28.6983  -13.1139   20.9872 C   0  0  0  0  0  0
  -25.2581  -13.8236   20.5706 C   0  0  0  0  0  0
  -24.1842  -13.0476   20.9204 C   0  0  0  0  0  0
  -24.6461  -11.6961   20.8784 C   0  0  0  0  0  0
  -23.9155  -10.4319   21.0410 C   0  0  0  0  0  0
  -24.3695   -9.4181   21.9165 C   0  0  0  0  0  0
  -23.6338   -8.2240   22.0775 C   0  0  0  0  0  0
  -22.4306   -8.0347   21.3556 C   0  0  0  0  0  0
  -21.9961   -9.0303   20.4636 C   0  0  0  0  0  0
  -22.7328  -10.2162   20.3034 C   0  0  0  0  0  0
  -21.6890   -6.0807   22.5296 C   0  0  0  0  0  0
  -21.3984   -6.5674   23.8231 C   0  0  0  0  0  0
  -21.3649   -5.6810   24.9189 C   0  0  0  0  0  0
  -21.6026   -4.3096   24.7201 C   0  0  0  0  0  0
  -21.8816   -3.8202   23.4329 C   0  0  0  0  0  0
  -21.9183   -4.7030   22.3398 C   0  0  0  0  0  0
  -22.7848  -13.5267   21.1794 C   0  0  0  0  0  0
  -22.1680   -4.2225   21.0970 F   0  0  0  0  0  0
  -21.5608   -3.4564   25.7720 F   0  0  0  0  0  0
  -30.0273  -13.3546   20.4122 N   0  0  0  0  0  0
  -26.3028  -12.9437   20.3352 N   0  0  0  0  0  0
  -25.9396  -11.6553   20.5758 N   0  0  0  0  0  0
  -22.0510  -12.8279   22.0380 N   0  0  0  0  0  0
  -25.4258  -15.1956   20.4219 N   0  0  0  0  0  0
  -31.9525  -14.4991   20.1071 O   0  0  0  0  0  0
  -21.6676   -6.8953   21.4250 O   0  0  0  0  0  0
  -22.3552  -14.5615   20.6739 O   0  0  0  0  0  0
  -24.6082  -31.8710   23.2105 C   0  0  0  0  0  0
  -25.9021  -32.4825   23.8403 C   0  0  1  0  0  0
  -27.2325  -27.4767   20.0942 C   0  0  0  0  0  0
  -25.5863  -33.8646   24.2344 N   0  0  0  0  0  0
  -23.3920  -30.4882   21.5526 C   0  0  2  0  0  0
  -24.8346  -28.9578   20.1176 C   0  0  0  0  0  0
  -22.7360  -29.4659   22.5063 C   0  0  0  0  0  0
  -18.0251  -28.1363   22.8496 C   0  0  0  0  0  0
  -24.1470  -36.7304   23.2625 C   0  0  0  0  0  0
  -25.9119  -30.8483   21.3564 C   0  0  0  0  0  0
  -25.9887  -29.4825   20.7157 C   0  0  0  0  0  0
  -27.1870  -28.7474   20.7027 C   0  0  0  0  0  0
  -26.0581  -26.9440   19.5104 C   0  0  0  0  0  0
  -24.8617  -27.6872   19.5142 C   0  0  0  0  0  0
  -23.5902  -29.8123   20.1685 C   0  0  0  0  0  0
  -25.4103  -36.3110   24.0334 C   0  0  1  0  0  0
  -20.5813  -28.3576   23.1357 C   0  0  2  0  0  0
  -20.6715  -26.9350   22.5452 C   0  0  0  0  0  0
  -19.5724  -26.6385   21.5248 C   0  0  0  0  0  0
  -18.1898  -26.7944   22.1555 C   0  0  0  0  0  0
  -19.1502  -28.8821   23.2913 C   0  0  0  0  0  0
  -18.9443  -30.1444   23.8913 C   0  0  0  0  0  0
  -17.6442  -30.6578   24.0575 C   0  0  0  0  0  0
  -25.9008  -34.9488   23.5125 C   0  0  0  0  0  0
  -16.5327  -29.9068   23.6378 C   0  0  0  0  0  0
  -16.7238  -28.6500   23.0367 C   0  0  0  0  0  0
  -26.4460  -31.6589   25.0693 C   0  0  0  0  0  0
  -25.3765  -31.3793   26.1467 C   0  0  0  0  0  0
  -27.0157  -30.2997   24.6067 C   0  0  0  0  0  0
  -27.6071  -32.4251   25.7397 C   0  0  0  0  0  0
  -27.5603  -37.1776   24.8454 C   0  0  0  0  0  0
  -21.4095  -29.2974   22.3819 N   0  0  0  0  0  0
  -26.4283  -37.3795   23.9451 N   0  0  0  0  0  0
  -24.6553  -31.0802   22.1007 N   0  0  0  0  0  0
  -23.4154  -28.8211   23.3097 O   0  0  0  0  0  0
  -28.4508  -26.8381   20.0998 O   0  0  0  0  0  0
  -26.5602  -34.8910   22.4707 O   0  0  0  0  0  0
  -23.5270  -32.1453   23.7507 O   0  0  0  0  0  0
  -30.8249  -19.4009   21.1396 C   0  0  0  0  0  0
  -30.2802  -20.6885   21.2687 C   0  0  0  0  0  0
  -27.9217  -24.3396   21.6837 C   0  0  0  0  0  0
  -28.0541  -19.7949   20.8367 C   0  0  0  0  0  0
  -30.0043  -18.2896   20.8159 C   0  0  0  0  0  0
  -28.3564  -24.3895   20.3233 C   0  0  0  0  0  0
  -28.8983  -20.8991   21.0938 C   0  0  0  0  0  0
  -28.6074  -18.4940   20.6958 C   0  0  0  0  0  0
  -27.9927  -23.0342   22.0926 C   0  0  0  0  0  0
  -28.5985  -23.0894   19.9691 C   0  0  0  0  0  0
  -30.6623  -17.0014   20.4844 C   0  0  0  0  0  0
  -28.6046  -25.5958   19.4381 C   0  0  0  0  0  0
  -28.4645  -22.2451   21.0594 N   0  0  0  0  0  0
  -30.1332  -15.7656   20.7499 N   0  0  0  0  0  0
  -31.8433  -17.1265   19.8536 N   0  3  0  0  0  0
  -27.7212  -22.4992   23.3159 O   0  0  0  0  0  0
  -29.0179  -22.6056   18.7697 O   0  0  0  0  0  0
  -27.7907  -17.4503   20.3992 F   0  0  0  0  0  0
  -31.4361  -12.3456   19.1377 H   0  0  0  0  0  0
  -30.2452  -11.3206   19.8839 H   0  0  0  0  0  0
  -29.7443  -11.7563   17.4538 H   0  0  0  0  0  0
  -29.6546  -13.4777   17.7648 H   0  0  0  0  0  0
  -27.8245  -11.3106   18.8167 H   0  0  0  0  0  0
  -27.3857  -12.6344   17.7652 H   0  0  0  0  0  0
  -27.6639  -14.2704   19.5250 H   0  0  0  0  0  0
  -28.6587  -12.1197   21.4366 H   0  0  0  0  0  0
  -28.4871  -13.8171   21.7970 H   0  0  0  0  0  0
  -25.2808   -9.5681   22.4788 H   0  0  0  0  0  0
  -24.0041   -7.4641   22.7535 H   0  0  0  0  0  0
  -21.0892   -8.8815   19.8961 H   0  0  0  0  0  0
  -22.3778  -10.9718   19.6196 H   0  0  0  0  0  0
  -21.1978   -7.6204   23.9763 H   0  0  0  0  0  0
  -21.1461   -6.0565   25.9104 H   0  0  0  0  0  0
  -22.0613   -2.7673   23.2823 H   0  0  0  0  0  0
  -22.4106  -11.9930   22.4723 H   0  0  0  0  0  0
  -21.1103  -13.1292   22.2560 H   0  0  0  0  0  0
  -24.6585  -15.8472   20.5425 H   0  0  0  0  0  0
  -26.2805  -15.6498   20.1330 H   0  0  0  0  0  0
  -26.7101  -32.5531   23.1166 H   0  0  0  0  0  0
  -25.0031  -33.9856   25.0511 H   0  0  0  0  0  0
  -22.6829  -31.2999   21.4049 H   0  0  0  0  0  0
  -23.3813  -35.9543   23.3135 H   0  0  0  0  0  0
  -24.3633  -36.9123   22.2107 H   0  0  0  0  0  0
  -23.7086  -37.6385   23.6788 H   0  0  0  0  0  0
  -26.0138  -31.6100   20.5815 H   0  0  0  0  0  0
  -26.8044  -30.9056   21.9692 H   0  0  0  0  0  0
  -28.0882  -29.1481   21.1476 H   0  0  0  0  0  0
  -26.0393  -25.9653   19.0510 H   0  0  0  0  0  0
  -23.9757  -27.2760   19.0521 H   0  0  0  0  0  0
  -23.6607  -30.5808   19.3990 H   0  0  0  0  0  0
  -22.7247  -29.2031   19.8959 H   0  0  0  0  0  0
  -25.1294  -36.1961   25.0835 H   0  0  0  0  0  0
  -20.9903  -28.3131   24.1490 H   0  0  0  0  0  0
  -20.5602  -26.2236   23.3625 H   0  0  0  0  0  0
  -21.6600  -26.7383   22.1216 H   0  0  0  0  0  0
  -19.6873  -25.6244   21.1310 H   0  0  0  0  0  0
  -19.6788  -27.3190   20.6797 H   0  0  0  0  0  0
  -17.4229  -26.6806   21.3907 H   0  0  0  0  0  0
  -18.0203  -26.0032   22.8894 H   0  0  0  0  0  0
  -19.7925  -30.7264   24.2244 H   0  0  0  0  0  0
  -17.4989  -31.6278   24.5128 H   0  0  0  0  0  0
  -15.5326  -30.2944   23.7693 H   0  0  0  0  0  0
  -15.8662  -28.0809   22.7055 H   0  0  0  0  0  0
  -24.5805  -30.7311   25.7836 H   0  0  0  0  0  0
  -24.9127  -32.2973   26.5042 H   0  0  0  0  0  0
  -25.8051  -30.8811   27.0155 H   0  0  0  0  0  0
  -26.2572  -29.6795   24.1244 H   0  0  0  0  0  0
  -27.3989  -29.7253   25.4524 H   0  0  0  0  0  0
  -27.8439  -30.4273   23.9105 H   0  0  0  0  0  0
  -27.2841  -33.3688   26.1813 H   0  0  0  0  0  0
  -28.3948  -32.6546   25.0215 H   0  0  0  0  0  0
  -28.0606  -31.8403   26.5434 H   0  0  0  0  0  0
  -28.2562  -38.0134   24.7579 H   0  0  0  0  0  0
  -28.1165  -36.2664   24.6144 H   0  0  0  0  0  0
  -27.2355  -37.1264   25.8858 H   0  0  0  0  0  0
  -20.9269  -29.8686   21.7019 H   0  0  0  0  0  0
  -26.0179  -38.2848   24.1524 H   0  0  0  0  0  0
  -31.8975  -19.2953   21.2444 H   0  0  0  0  0  0
  -30.9325  -21.5361   21.4405 H   0  0  0  0  0  0
  -27.6387  -25.1766   22.3080 H   0  0  0  0  0  0
  -26.9949  -19.9569   20.6945 H   0  0  0  0  0  0
  -28.0510  -25.5384   18.5012 H   0  0  0  0  0  0
  -29.6583  -25.5464   19.1597 H   0  0  0  0  0  0
  -29.1765  -15.8232   21.0602 H   0  0  0  0  0  0
  -32.2053  -18.0246   19.5775 H   0  0  0  0  0  0
  -32.3625  -16.2778   19.6554 H   0  0  0  0  0  0
  -27.4698  -23.2177   23.8904 H   0  0  0  0  0  0
  -28.8434  -23.2685   18.1129 H   0  0  0  0  0  0
  1 25  1  0  0  0
  1 30  2  0  0  0
  1 84  1  0  0  0
  2  3  1  0  0  0
  2 25  1  0  0  0
  2 89  1  0  0  0
  2 90  1  0  0  0
  3  4  1  0  0  0
  3 91  1  0  0  0
  3 92  1  0  0  0
  4  5  1  0  0  0
  4 93  1  0  0  0
  4 94  1  0  0  0
  5  6  1  0  0  0
  5 26  1  0  0  0
  5 95  1  0  0  0
  6 25  1  0  0  0
  6 96  1  0  0  0
  6 97  1  0  0  0
  7  8  2  0  0  0
  7 26  1  0  0  0
  7 29  1  0  0  0
  8  9  1  0  0  0
  8 22  1  0  0  0
  9 10  1  0  0  0
  9 27  2  0  0  0
 10 11  2  0  0  0
 10 15  1  0  0  0
 11 12  1  0  0  0
 11 98  1  0  0  0
 12 13  2  0  0  0
 12 99  1  0  0  0
 13 14  1  0  0  0
 13 31  1  0  0  0
 14 15  2  0  0  0
 14100  1  0  0  0
 15101  1  0  0  0
 16 17  2  0  0  0
 16 21  1  0  0  0
 16 31  1  0  0  0
 17 18  1  0  0  0
 17102  1  0  0  0
 18 19  2  0  0  0
 18103  1  0  0  0
 19 20  1  0  0  0
 19 24  1  0  0  0
 20 21  2  0  0  0
 20104  1  0  0  0
 21 23  1  0  0  0
 22 28  1  0  0  0
 22 32  2  0  0  0
 26 27  1  0  0  0
 28105  1  0  0  0
 28106  1  0  0  0
 29107  1  0  0  0
 29108  1  0  0  0
 33 34  1  0  0  0
 33 66  1  0  0  0
 33 70  2  0  0  0
 34 36  1  0  0  0
 34 59  1  0  0  0
 34109  1  0  0  0
 35 44  2  0  0  0
 35 45  1  0  0  0
 35 68  1  0  0  0
 36 56  1  0  0  0
 36110  1  0  0  0
 37 39  1  0  0  0
 37 47  1  0  0  0
 37 66  1  0  0  0
 37111  1  0  0  0
 38 43  2  0  0  0
 38 46  1  0  0  0
 38 47  1  0  0  0
 39 64  1  0  0  0
 39 67  2  0  0  0
 40 52  1  0  0  0
 40 53  2  0  0  0
 40 58  1  0  0  0
 41112  1  0  0  0
 41113  1  0  0  0
 41114  1  0  0  0
 41 48  1  0  0  0
 42 43  1  0  0  0
 42 66  1  0  0  0
 42115  1  0  0  0
 42116  1  0  0  0
 43 44  1  0  0  0
 44117  1  0  0  0
 45 46  2  0  0  0
 45118  1  0  0  0
 46119  1  0  0  0
 47120  1  0  0  0
 47121  1  0  0  0
 48 56  1  0  0  0
 48 65  1  0  0  0
 48122  1  0  0  0
 49 50  1  0  0  0
 49 53  1  0  0  0
 49 64  1  0  0  0
 49123  1  0  0  0
 50 51  1  0  0  0
 50124  1  0  0  0
 50125  1  0  0  0
 51 52  1  0  0  0
 51126  1  0  0  0
 51127  1  0  0  0
 52128  1  0  0  0
 52129  1  0  0  0
 53 54  1  0  0  0
 54 55  2  0  0  0
 54130  1  0  0  0
 55 57  1  0  0  0
 55131  1  0  0  0
 56 69  2  0  0  0
 57 58  2  0  0  0
 57132  1  0  0  0
 58133  1  0  0  0
 59 60  1  0  0  0
 59 61  1  0  0  0
 59 62  1  0  0  0
 60134  1  0  0  0
 60135  1  0  0  0
 60136  1  0  0  0
 61137  1  0  0  0
 61138  1  0  0  0
 61139  1  0  0  0
 62140  1  0  0  0
 62141  1  0  0  0
 62142  1  0  0  0
 63 65  1  0  0  0
 63143  1  0  0  0
 63144  1  0  0  0
 63145  1  0  0  0
 64146  1  0  0  0
 65147  1  0  0  0
 68 82  1  0  0  0
 71 72  2  0  0  0
 71 75  1  0  0  0
 71148  1  0  0  0
 72 77  1  0  0  0
 72149  1  0  0  0
 73 76  1  0  0  0
 73 79  2  0  0  0
 73150  1  0  0  0
 74 77  2  0  0  0
 74 78  1  0  0  0
 74151  1  0  0  0
 75 78  2  0  0  0
 75 81  1  0  0  0
 76 80  2  0  0  0
 76 82  1  0  0  0
 77 83  1  0  0  0
 78 88  1  0  0  0
 79 83  1  0  0  0
 79 86  1  0  0  0
 80 83  1  0  0  0
 80 87  1  0  0  0
 81 84  1  0  0  0
 81 85  2  0  0  0
 82152  1  0  0  0
 82153  1  0  0  0
 84154  1  0  0  0
 85155  1  0  0  0
 85156  1  0  0  0
 86157  1  0  0  0
 87158  1  0  0  0
M  CHG  1  85   1
M  ISO  4   1 100  68 101  82 101  84 100
M  END
> <chiral flag>
0

> <version>
0

> <s_m_source_file>
/data/baiqing/PycharmProjects/Reinvent-master-3.2/result/LINK_invent/BTK/process_docking_weight1_custom_product_contain_oxygen_bond_distance_aromatic_linkinvent_7_9_3/rearranged_h_0093.sdf

> <i_m_source_file_index>
65

> <r_mmod_Potential_Energy-OPLS-2005>
-198.107009887695

> <r_mmod_Stretch_Energy-OPLS-2005>
37.1882820129395

> <r_mmod_Bend_Energy-OPLS-2005>
123.953086853027

> <r_mmod_Torsional_Energy-OPLS-2005>
231.319229125977

> <r_mmod_Improper_Torsional_Energy-OPLS-2005>
8.32226943969727

> <r_mmod_Van_der_Waal_Energy-OPLS-2005>
169.44563293457

> <r_mmod_Electrostatic_Energy-OPLS-2005>
-373.956787109375

> <r_mmod_Solvation_Energy-OPLS-2005>
-419.743133544922

> <b_mmod_Minimization_Converged-OPLS-2005>
0

> <r_mmod_RMS_Derivative-OPLS-2005>
8.95041561126709

$$$$
66
                    3D
 Structure written by MMmdl.
154163  0  0  1  0            999 V2000
  -30.6096  -14.6678   20.4933 C   0  0  0  0  0  0
  -30.4444  -12.4081   19.4574 C   0  0  0  0  0  0
  -29.5119  -12.5077   18.2290 C   0  0  0  0  0  0
  -28.0348  -12.3423   18.6410 C   0  0  0  0  0  0
  -27.6530  -13.2183   19.8640 C   0  0  2  0  0  0
  -28.6993  -13.0809   20.9935 C   0  0  0  0  0  0
  -25.2535  -13.8151   20.5673 C   0  0  0  0  0  0
  -24.1806  -13.0412   20.9150 C   0  0  0  0  0  0
  -24.6392  -11.6892   20.8723 C   0  0  0  0  0  0
  -23.9063  -10.4281   21.0394 C   0  0  0  0  0  0
  -24.3617   -9.4203   21.9175 C   0  0  0  0  0  0
  -23.6290   -8.2241   22.0751 C   0  0  0  0  0  0
  -22.4268   -8.0278   21.3545 C   0  0  0  0  0  0
  -21.9900   -9.0253   20.4650 C   0  0  0  0  0  0
  -22.7231  -10.2128   20.3053 C   0  0  0  0  0  0
  -21.6853   -6.0731   22.5279 C   0  0  0  0  0  0
  -21.4016   -6.5634   23.8213 C   0  0  0  0  0  0
  -21.3660   -5.6788   24.9174 C   0  0  0  0  0  0
  -21.6044   -4.3051   24.7227 C   0  0  0  0  0  0
  -21.8820   -3.8141   23.4348 C   0  0  0  0  0  0
  -21.9195   -4.6957   22.3401 C   0  0  0  0  0  0
  -22.7837  -13.5212   21.1835 C   0  0  0  0  0  0
  -22.1663   -4.2144   21.0978 F   0  0  0  0  0  0
  -21.5628   -3.4535   25.7741 F   0  0  0  0  0  0
  -30.0133  -13.4325   20.4296 N   0  0  0  0  0  0
  -26.2992  -12.9351   20.3343 N   0  0  0  0  0  0
  -25.9330  -11.6501   20.5764 N   0  0  0  0  0  0
  -22.0493  -12.8223   22.0419 N   0  0  0  0  0  0
  -25.4170  -15.1872   20.4147 N   0  0  0  0  0  0
  -31.7741  -14.8364   20.1197 O   0  0  0  0  0  0
  -21.6636   -6.8874   21.4241 O   0  0  0  0  0  0
  -22.3516  -14.5522   20.6698 O   0  0  0  0  0  0
  -24.6264  -31.8590   23.2018 C   0  0  0  0  0  0
  -25.9107  -32.4776   23.8352 C   0  0  1  0  0  0
  -27.2272  -27.3149   20.1247 C   0  0  0  0  0  0
  -25.5917  -33.8577   24.2280 N   0  0  0  0  0  0
  -23.4219  -30.4810   21.5443 C   0  0  2  0  0  0
  -24.8720  -28.9354   20.1121 C   0  0  0  0  0  0
  -22.7479  -29.4609   22.4928 C   0  0  0  0  0  0
  -18.0288  -28.1386   22.8484 C   0  0  0  0  0  0
  -24.1490  -36.7296   23.2636 C   0  0  0  0  0  0
  -25.9635  -30.7881   21.3754 C   0  0  0  0  0  0
  -26.0409  -29.4147   20.7188 C   0  0  0  0  0  0
  -27.2250  -28.6167   20.7151 C   0  0  0  0  0  0
  -26.0417  -26.8936   19.4850 C   0  0  0  0  0  0
  -24.8740  -27.6796   19.4854 C   0  0  0  0  0  0
  -23.6393  -29.8154   20.1600 C   0  0  0  0  0  0
  -25.4112  -36.3083   24.0329 C   0  0  1  0  0  0
  -20.5886  -28.3689   23.1279 C   0  0  2  0  0  0
  -20.6778  -26.9411   22.5408 C   0  0  0  0  0  0
  -19.5751  -26.6379   21.5212 C   0  0  0  0  0  0
  -18.1933  -26.7927   22.1628 C   0  0  0  0  0  0
  -19.1541  -28.8855   23.2878 C   0  0  0  0  0  0
  -18.9462  -30.1457   23.8898 C   0  0  0  0  0  0
  -17.6462  -30.6587   24.0563 C   0  0  0  0  0  0
  -25.9047  -34.9450   23.5106 C   0  0  0  0  0  0
  -16.5355  -29.9086   23.6327 C   0  0  0  0  0  0
  -16.7274  -28.6502   23.0350 C   0  0  0  0  0  0
  -26.4492  -31.6585   25.0721 C   0  0  0  0  0  0
  -25.3733  -31.3752   26.1464 C   0  0  0  0  0  0
  -27.0310  -30.2993   24.6184 C   0  0  0  0  0  0
  -27.6071  -32.4308   25.7474 C   0  0  0  0  0  0
  -27.5584  -37.1795   24.8458 C   0  0  0  0  0  0
  -21.4189  -29.3038   22.3671 N   0  0  0  0  0  0
  -26.4291  -37.3776   23.9409 N   0  0  0  0  0  0
  -24.6893  -31.0592   22.0976 N   0  0  0  0  0  0
  -23.4199  -28.8143   23.3008 O   0  0  0  0  0  0
  -28.3198  -26.4340   20.1476 O   0  0  0  0  0  0
  -26.5618  -34.8918   22.4675 O   0  0  0  0  0  0
  -23.5425  -32.1392   23.7340 O   0  0  0  0  0  0
  -30.8635  -19.3936   20.2860 C   0  0  0  0  0  0
  -30.9658  -17.9692   20.4210 C   0  0  0  0  0  0
  -29.8185  -23.6648   19.3253 C   0  0  0  0  0  0
  -28.4901  -19.2764   20.6076 C   0  0  0  0  0  0
  -28.8212  -23.8086   20.3359 C   0  0  0  0  0  0
  -29.6224  -20.0986   20.3654 C   0  0  0  0  0  0
  -29.8198  -17.1613   20.6544 C   0  0  0  0  0  0
  -28.5888  -17.8614   20.7504 C   0  0  0  0  0  0
  -30.1954  -22.3439   19.2454 C   0  0  0  0  0  0
  -28.6734  -22.5061   20.8223 C   0  0  0  0  0  0
  -28.0617  -25.1160   20.7823 C   0  0  0  0  0  0
  -29.5052  -21.5594   20.1713 N   0  0  0  0  0  0
  -29.7795  -15.7046   20.8320 N   0  0  0  0  0  0
  -31.0958  -21.7874   18.3878 O   0  0  0  0  0  0
  -27.8430  -22.0810   21.8164 O   0  0  0  0  0  0
  -27.4615  -17.1451   20.9748 F   0  0  0  0  0  0
  -31.4840  -12.5420   19.1536 H   0  0  0  0  0  0
  -30.3889  -11.4151   19.9063 H   0  0  0  0  0  0
  -29.7800  -11.7498   17.4921 H   0  0  0  0  0  0
  -29.6515  -13.4729   17.7393 H   0  0  0  0  0  0
  -27.8777  -11.2894   18.8796 H   0  0  0  0  0  0
  -27.3793  -12.5631   17.7975 H   0  0  0  0  0  0
  -27.6653  -14.2518   19.5171 H   0  0  0  0  0  0
  -28.7167  -12.0597   21.3776 H   0  0  0  0  0  0
  -28.4395  -13.7128   21.8445 H   0  0  0  0  0  0
  -25.2764   -9.5678   22.4745 H   0  0  0  0  0  0
  -24.0001   -7.4632   22.7467 H   0  0  0  0  0  0
  -21.0828   -8.8775   19.8961 H   0  0  0  0  0  0
  -22.3689  -10.9669   19.6164 H   0  0  0  0  0  0
  -21.2007   -7.6143   23.9716 H   0  0  0  0  0  0
  -21.1479   -6.0516   25.9077 H   0  0  0  0  0  0
  -22.0598   -2.7603   23.2852 H   0  0  0  0  0  0
  -22.4109  -11.9897   22.4832 H   0  0  0  0  0  0
  -21.1120  -13.1270   22.2634 H   0  0  0  0  0  0
  -24.6520  -15.8340   20.5661 H   0  0  0  0  0  0
  -26.2952  -15.6647   20.2446 H   0  0  0  0  0  0
  -26.7170  -32.5450   23.1096 H   0  0  0  0  0  0
  -25.0056  -33.9722   25.0420 H   0  0  0  0  0  0
  -22.7166  -31.3019   21.4005 H   0  0  0  0  0  0
  -23.3748  -35.9631   23.3299 H   0  0  0  0  0  0
  -24.3587  -36.8915   22.2051 H   0  0  0  0  0  0
  -23.7248  -37.6500   23.6659 H   0  0  0  0  0  0
  -26.0963  -31.5517   20.6080 H   0  0  0  0  0  0
  -26.8430  -30.8376   22.0053 H   0  0  0  0  0  0
  -28.1211  -28.9785   21.1998 H   0  0  0  0  0  0
  -26.0104  -25.9320   18.9921 H   0  0  0  0  0  0
  -23.9805  -27.3085   19.0024 H   0  0  0  0  0  0
  -23.7603  -30.5918   19.4037 H   0  0  0  0  0  0
  -22.7602  -29.2446   19.8559 H   0  0  0  0  0  0
  -25.1289  -36.1936   25.0820 H   0  0  0  0  0  0
  -20.9983  -28.3271   24.1399 H   0  0  0  0  0  0
  -20.5676  -26.2298   23.3608 H   0  0  0  0  0  0
  -21.6652  -26.7438   22.1212 H   0  0  0  0  0  0
  -19.6916  -25.6291   21.1237 H   0  0  0  0  0  0
  -19.6682  -27.3186   20.6739 H   0  0  0  0  0  0
  -17.4198  -26.6660   21.4039 H   0  0  0  0  0  0
  -18.0341  -26.0072   22.9029 H   0  0  0  0  0  0
  -19.7939  -30.7271   24.2269 H   0  0  0  0  0  0
  -17.5017  -31.6267   24.5165 H   0  0  0  0  0  0
  -15.5357  -30.2991   23.7648 H   0  0  0  0  0  0
  -15.8672  -28.0818   22.7072 H   0  0  0  0  0  0
  -24.5862  -30.7153   25.7799 H   0  0  0  0  0  0
  -24.8985  -32.2937   26.4923 H   0  0  0  0  0  0
  -25.8051  -30.8888   27.0219 H   0  0  0  0  0  0
  -26.2870  -29.6754   24.1215 H   0  0  0  0  0  0
  -27.3992  -29.7247   25.4694 H   0  0  0  0  0  0
  -27.8757  -30.4253   23.9408 H   0  0  0  0  0  0
  -27.2702  -33.3611   26.2057 H   0  0  0  0  0  0
  -28.3872  -32.6857   25.0288 H   0  0  0  0  0  0
  -28.0746  -31.8424   26.5380 H   0  0  0  0  0  0
  -28.2600  -38.0096   24.7520 H   0  0  0  0  0  0
  -28.1084  -36.2631   24.6262 H   0  0  0  0  0  0
  -27.2308  -37.1422   25.8863 H   0  0  0  0  0  0
  -20.9368  -29.8766   21.6884 H   0  0  0  0  0  0
  -26.0174  -38.2848   24.1426 H   0  0  0  0  0  0
  -31.7703  -19.9539   20.1083 H   0  0  0  0  0  0
  -31.9395  -17.5071   20.3472 H   0  0  0  0  0  0
  -30.2085  -24.4623   18.7076 H   0  0  0  0  0  0
  -27.5137  -19.7310   20.6764 H   0  0  0  0  0  0
  -28.2771  -25.2477   21.8430 H   0  0  0  0  0  0
  -27.0023  -24.8631   20.7483 H   0  0  0  0  0  0
  -28.8672  -15.3793   21.1131 H   0  0  0  0  0  0
  -31.4345  -22.4806   17.8289 H   0  0  0  0  0  0
  -27.3676  -22.8328   22.1533 H   0  0  0  0  0  0
  1 25  1  0  0  0
  1 30  2  0  0  0
  1 83  1  0  0  0
  2  3  1  0  0  0
  2 25  1  0  0  0
  2 87  1  0  0  0
  2 88  1  0  0  0
  3  4  1  0  0  0
  3 89  1  0  0  0
  3 90  1  0  0  0
  4  5  1  0  0  0
  4 91  1  0  0  0
  4 92  1  0  0  0
  5  6  1  0  0  0
  5 26  1  0  0  0
  5 93  1  0  0  0
  6 25  1  0  0  0
  6 94  1  0  0  0
  6 95  1  0  0  0
  7  8  2  0  0  0
  7 26  1  0  0  0
  7 29  1  0  0  0
  8  9  1  0  0  0
  8 22  1  0  0  0
  9 10  1  0  0  0
  9 27  2  0  0  0
 10 11  2  0  0  0
 10 15  1  0  0  0
 11 12  1  0  0  0
 11 96  1  0  0  0
 12 13  2  0  0  0
 12 97  1  0  0  0
 13 14  1  0  0  0
 13 31  1  0  0  0
 14 15  2  0  0  0
 14 98  1  0  0  0
 15 99  1  0  0  0
 16 17  2  0  0  0
 16 21  1  0  0  0
 16 31  1  0  0  0
 17 18  1  0  0  0
 17100  1  0  0  0
 18 19  2  0  0  0
 18101  1  0  0  0
 19 20  1  0  0  0
 19 24  1  0  0  0
 20 21  2  0  0  0
 20102  1  0  0  0
 21 23  1  0  0  0
 22 28  1  0  0  0
 22 32  2  0  0  0
 26 27  1  0  0  0
 28103  1  0  0  0
 28104  1  0  0  0
 29105  1  0  0  0
 29106  1  0  0  0
 33 34  1  0  0  0
 33 66  1  0  0  0
 33 70  2  0  0  0
 34 36  1  0  0  0
 34 59  1  0  0  0
 34107  1  0  0  0
 35 44  2  0  0  0
 35 45  1  0  0  0
 35 68  1  0  0  0
 36 56  1  0  0  0
 36108  1  0  0  0
 37 39  1  0  0  0
 37 47  1  0  0  0
 37 66  1  0  0  0
 37109  1  0  0  0
 38 43  2  0  0  0
 38 46  1  0  0  0
 38 47  1  0  0  0
 39 64  1  0  0  0
 39 67  2  0  0  0
 40 52  1  0  0  0
 40 53  2  0  0  0
 40 58  1  0  0  0
 41110  1  0  0  0
 41111  1  0  0  0
 41112  1  0  0  0
 41 48  1  0  0  0
 42 43  1  0  0  0
 42 66  1  0  0  0
 42113  1  0  0  0
 42114  1  0  0  0
 43 44  1  0  0  0
 44115  1  0  0  0
 45 46  2  0  0  0
 45116  1  0  0  0
 46117  1  0  0  0
 47118  1  0  0  0
 47119  1  0  0  0
 48 56  1  0  0  0
 48 65  1  0  0  0
 48120  1  0  0  0
 49 50  1  0  0  0
 49 53  1  0  0  0
 49 64  1  0  0  0
 49121  1  0  0  0
 50 51  1  0  0  0
 50122  1  0  0  0
 50123  1  0  0  0
 51 52  1  0  0  0
 51124  1  0  0  0
 51125  1  0  0  0
 52126  1  0  0  0
 52127  1  0  0  0
 53 54  1  0  0  0
 54 55  2  0  0  0
 54128  1  0  0  0
 55 57  1  0  0  0
 55129  1  0  0  0
 56 69  2  0  0  0
 57 58  2  0  0  0
 57130  1  0  0  0
 58131  1  0  0  0
 59 60  1  0  0  0
 59 61  1  0  0  0
 59 62  1  0  0  0
 60132  1  0  0  0
 60133  1  0  0  0
 60134  1  0  0  0
 61135  1  0  0  0
 61136  1  0  0  0
 61137  1  0  0  0
 62138  1  0  0  0
 62139  1  0  0  0
 62140  1  0  0  0
 63 65  1  0  0  0
 63141  1  0  0  0
 63142  1  0  0  0
 63143  1  0  0  0
 64144  1  0  0  0
 65145  1  0  0  0
 68 81  1  0  0  0
 71 72  2  0  0  0
 71 76  1  0  0  0
 71146  1  0  0  0
 72 77  1  0  0  0
 72147  1  0  0  0
 73 75  1  0  0  0
 73 79  2  0  0  0
 73148  1  0  0  0
 74 76  2  0  0  0
 74 78  1  0  0  0
 74149  1  0  0  0
 75 80  2  0  0  0
 75 81  1  0  0  0
 76 82  1  0  0  0
 77 78  2  0  0  0
 77 83  1  0  0  0
 78 86  1  0  0  0
 79 82  1  0  0  0
 79 84  1  0  0  0
 80 82  1  0  0  0
 80 85  1  0  0  0
 81150  1  0  0  0
 81151  1  0  0  0
 83152  1  0  0  0
 84153  1  0  0  0
 85154  1  0  0  0
M  ISO  4   1 100  68 101  81 101  83 100
M  END
> <chiral flag>
0

> <version>
0

> <s_m_source_file>
/data/baiqing/PycharmProjects/Reinvent-master-3.2/result/LINK_invent/BTK/process_docking_weight1_custom_product_contain_oxygen_bond_distance_aromatic_linkinvent_7_9_3/rearranged_h_0093.sdf

> <i_m_source_file_index>
66

> <r_mmod_Potential_Energy-OPLS-2005>
44.7033386230469

> <r_mmod_Stretch_Energy-OPLS-2005>
83.5624847412109

> <r_mmod_Bend_Energy-OPLS-2005>
143.543991088867

> <r_mmod_Torsional_Energy-OPLS-2005>
243.952590942383

> <r_mmod_Improper_Torsional_Energy-OPLS-2005>
4.25363540649414

> <r_mmod_Van_der_Waal_Energy-OPLS-2005>
138.643157958984

> <r_mmod_Electrostatic_Energy-OPLS-2005>
-405.632232666016

> <r_mmod_Solvation_Energy-OPLS-2005>
-219.660766601562

> <b_mmod_Minimization_Converged-OPLS-2005>
0

> <r_mmod_RMS_Derivative-OPLS-2005>
0.873270034790039

$$$$
67
                    3D
 Structure written by MMmdl.
159168  0  0  1  0            999 V2000
  -30.7456  -14.3877   20.6786 C   0  0  0  0  0  0
  -30.4213  -12.2976   19.4087 C   0  0  0  0  0  0
  -29.4938  -12.5307   18.2005 C   0  0  0  0  0  0
  -28.0142  -12.3746   18.6045 C   0  0  0  0  0  0
  -27.6637  -13.1904   19.8748 C   0  0  2  0  0  0
  -28.6938  -12.9163   20.9910 C   0  0  0  0  0  0
  -25.2598  -13.8117   20.5640 C   0  0  0  0  0  0
  -24.1843  -13.0422   20.9181 C   0  0  0  0  0  0
  -24.6375  -11.6888   20.8730 C   0  0  0  0  0  0
  -23.9025  -10.4289   21.0408 C   0  0  0  0  0  0
  -24.3594   -9.4201   21.9173 C   0  0  0  0  0  0
  -23.6287   -8.2223   22.0732 C   0  0  0  0  0  0
  -22.4263   -8.0255   21.3528 C   0  0  0  0  0  0
  -21.9891   -9.0232   20.4634 C   0  0  0  0  0  0
  -22.7201  -10.2123   20.3050 C   0  0  0  0  0  0
  -21.6833   -6.0735   22.5289 C   0  0  0  0  0  0
  -21.4011   -6.5638   23.8228 C   0  0  0  0  0  0
  -21.3665   -5.6788   24.9189 C   0  0  0  0  0  0
  -21.6041   -4.3050   24.7233 C   0  0  0  0  0  0
  -21.8814   -3.8144   23.4355 C   0  0  0  0  0  0
  -21.9193   -4.6968   22.3413 C   0  0  0  0  0  0
  -22.7871  -13.5238   21.1870 C   0  0  0  0  0  0
  -22.1649   -4.2153   21.0983 F   0  0  0  0  0  0
  -21.5641   -3.4534   25.7745 F   0  0  0  0  0  0
  -30.0396  -13.2378   20.4747 N   0  0  0  0  0  0
  -26.3013  -12.9246   20.3306 N   0  0  0  0  0  0
  -25.9280  -11.6425   20.5716 N   0  0  0  0  0  0
  -22.0493  -12.8262   22.0438 N   0  0  0  0  0  0
  -25.4314  -15.1830   20.4003 N   0  0  0  0  0  0
  -31.7657  -14.6797   20.0402 O   0  0  0  0  0  0
  -21.6607   -6.8867   21.4248 O   0  0  0  0  0  0
  -22.3568  -14.5544   20.6707 O   0  0  0  0  0  0
  -24.6108  -31.8706   23.2117 C   0  0  0  0  0  0
  -25.9020  -32.4834   23.8404 C   0  0  1  0  0  0
  -27.2398  -27.4676   20.0841 C   0  0  0  0  0  0
  -25.5892  -33.8633   24.2340 N   0  0  0  0  0  0
  -23.3965  -30.4950   21.5505 C   0  0  2  0  0  0
  -24.8407  -28.9612   20.1158 C   0  0  0  0  0  0
  -22.7381  -29.4686   22.4996 C   0  0  0  0  0  0
  -18.0269  -28.1382   22.8491 C   0  0  0  0  0  0
  -24.1491  -36.7323   23.2638 C   0  0  0  0  0  0
  -25.9218  -30.8452   21.3599 C   0  0  0  0  0  0
  -25.9983  -29.4826   20.7063 C   0  0  0  0  0  0
  -27.1969  -28.7409   20.6889 C   0  0  0  0  0  0
  -26.0570  -26.9404   19.5150 C   0  0  0  0  0  0
  -24.8624  -27.6871   19.5216 C   0  0  0  0  0  0
  -23.6028  -29.8262   20.1649 C   0  0  0  0  0  0
  -25.4112  -36.3124   24.0342 C   0  0  1  0  0  0
  -20.5852  -28.3670   23.1322 C   0  0  2  0  0  0
  -20.6767  -26.9414   22.5418 C   0  0  0  0  0  0
  -19.5749  -26.6393   21.5211 C   0  0  0  0  0  0
  -18.1923  -26.7932   22.1617 C   0  0  0  0  0  0
  -19.1516  -28.8841   23.2904 C   0  0  0  0  0  0
  -18.9450  -30.1445   23.8919 C   0  0  0  0  0  0
  -17.6453  -30.6588   24.0574 C   0  0  0  0  0  0
  -25.9032  -34.9483   23.5136 C   0  0  0  0  0  0
  -16.5342  -29.9094   23.6327 C   0  0  0  0  0  0
  -16.7257  -28.6511   23.0344 C   0  0  0  0  0  0
  -26.4461  -31.6606   25.0725 C   0  0  0  0  0  0
  -25.3730  -31.3721   26.1475 C   0  0  0  0  0  0
  -27.0293  -30.3050   24.6096 C   0  0  0  0  0  0
  -27.6054  -32.4316   25.7470 C   0  0  0  0  0  0
  -27.5584  -37.1819   24.8464 C   0  0  0  0  0  0
  -21.4115  -29.3039   22.3725 N   0  0  0  0  0  0
  -26.4306  -37.3799   23.9398 N   0  0  0  0  0  0
  -24.6610  -31.0838   22.0997 N   0  0  0  0  0  0
  -23.4171  -28.8234   23.3032 O   0  0  0  0  0  0
  -28.4412  -26.7942   20.1049 O   0  0  0  0  0  0
  -26.5587  -34.8928   22.4692 O   0  0  0  0  0  0
  -23.5312  -32.1445   23.7534 O   0  0  0  0  0  0
  -30.5849  -17.8034   22.0844 C   0  0  0  0  0  0
  -30.3419  -19.1436   21.7220 C   0  0  0  0  0  0
  -29.1839  -17.0512   20.2473 C   0  0  0  0  0  0
  -28.4786  -25.6035   17.9809 C   0  0  0  0  0  0
  -29.3556  -23.3250   17.9225 C   0  0  0  0  0  0
  -29.2153  -24.5349   20.0452 C   0  0  0  0  0  0
  -30.0164  -16.7375   21.3490 C   0  0  0  0  0  0
  -29.5090  -19.4437   20.6230 C   0  0  0  0  0  0
  -28.8085  -24.4404   17.2554 C   0  0  0  0  0  0
  -28.6685  -25.6506   19.3807 C   0  0  0  0  0  0
  -28.9251  -18.3903   19.8958 C   0  0  0  0  0  0
  -29.5729  -23.3860   19.3132 C   0  0  0  0  0  0
  -30.2514  -15.3295   21.7731 C   0  0  0  0  0  0
  -30.1011  -14.9756   22.9834 N   0  0  0  0  0  0
  -28.6127  -24.4069   15.8748 N   0  0  0  0  0  0
  -29.2620  -20.7602   20.2229 N   0  0  0  0  0  0
  -30.6933  -22.4016   21.5389 O   0  0  0  0  0  0
  -31.4911  -21.5213   19.2780 O   0  0  0  0  0  0
  -28.1150  -18.6738   18.8464 F   0  0  0  0  0  0
  -30.4136  -22.0353   20.1398 S   0  0  0  0  0  0
  -31.4644  -12.4068   19.1094 H   0  0  0  0  0  0
  -30.3291  -11.2708   19.7687 H   0  0  0  0  0  0
  -29.7425  -11.8334   17.3997 H   0  0  0  0  0  0
  -29.6609  -13.5313   17.7991 H   0  0  0  0  0  0
  -27.8261  -11.3146   18.7799 H   0  0  0  0  0  0
  -27.3622  -12.6645   17.7804 H   0  0  0  0  0  0
  -27.7234  -14.2436   19.6063 H   0  0  0  0  0  0
  -28.6669  -11.8644   21.2786 H   0  0  0  0  0  0
  -28.4052  -13.4539   21.8921 H   0  0  0  0  0  0
  -25.2737   -9.5696   22.4741 H   0  0  0  0  0  0
  -24.0013   -7.4616   22.7446 H   0  0  0  0  0  0
  -21.0820   -8.8733   19.8950 H   0  0  0  0  0  0
  -22.3644  -10.9648   19.6158 H   0  0  0  0  0  0
  -21.1978   -7.6138   23.9748 H   0  0  0  0  0  0
  -21.1498   -6.0500   25.9098 H   0  0  0  0  0  0
  -22.0595   -2.7603   23.2840 H   0  0  0  0  0  0
  -22.4053  -11.9909   22.4842 H   0  0  0  0  0  0
  -21.1106  -13.1304   22.2615 H   0  0  0  0  0  0
  -24.6598  -15.8336   20.5028 H   0  0  0  0  0  0
  -26.2767  -15.6245   20.0632 H   0  0  0  0  0  0
  -26.7096  -32.5559   23.1177 H   0  0  0  0  0  0
  -25.0074  -33.9805   25.0504 H   0  0  0  0  0  0
  -22.6837  -31.3111   21.4126 H   0  0  0  0  0  0
  -23.3745  -35.9665   23.3327 H   0  0  0  0  0  0
  -24.3588  -36.8903   22.2047 H   0  0  0  0  0  0
  -23.7253  -37.6543   23.6628 H   0  0  0  0  0  0
  -26.0327  -31.6149   20.5945 H   0  0  0  0  0  0
  -26.8098  -30.8960   21.9781 H   0  0  0  0  0  0
  -28.0943  -29.1421   21.1389 H   0  0  0  0  0  0
  -26.0438  -25.9581   19.0667 H   0  0  0  0  0  0
  -23.9668  -27.2756   19.0762 H   0  0  0  0  0  0
  -23.7124  -30.6009   19.4051 H   0  0  0  0  0  0
  -22.7267  -29.2463   19.8692 H   0  0  0  0  0  0
  -25.1290  -36.2004   25.0835 H   0  0  0  0  0  0
  -20.9952  -28.3247   24.1438 H   0  0  0  0  0  0
  -20.5688  -26.2280   23.3600 H   0  0  0  0  0  0
  -21.6637  -26.7476   22.1199 H   0  0  0  0  0  0
  -19.6918  -25.6310   21.1230 H   0  0  0  0  0  0
  -19.6692  -27.3214   20.6748 H   0  0  0  0  0  0
  -17.4198  -26.6683   21.4011 H   0  0  0  0  0  0
  -18.0323  -26.0065   22.9006 H   0  0  0  0  0  0
  -19.7927  -30.7248   24.2301 H   0  0  0  0  0  0
  -17.5014  -31.6269   24.5174 H   0  0  0  0  0  0
  -15.5346  -30.3008   23.7641 H   0  0  0  0  0  0
  -15.8655  -28.0842   22.7046 H   0  0  0  0  0  0
  -24.5898  -30.7072   25.7814 H   0  0  0  0  0  0
  -24.8925  -32.2884   26.4920 H   0  0  0  0  0  0
  -25.8076  -30.8893   27.0237 H   0  0  0  0  0  0
  -26.2844  -29.6807   24.1152 H   0  0  0  0  0  0
  -27.4067  -29.7292   25.4558 H   0  0  0  0  0  0
  -27.8673  -30.4369   23.9247 H   0  0  0  0  0  0
  -27.2691  -33.3603   26.2092 H   0  0  0  0  0  0
  -28.3832  -32.6894   25.0270 H   0  0  0  0  0  0
  -28.0759  -31.8415   26.5341 H   0  0  0  0  0  0
  -28.2624  -38.0095   24.7489 H   0  0  0  0  0  0
  -28.1059  -36.2627   24.6320 H   0  0  0  0  0  0
  -27.2300  -37.1506   25.8867 H   0  0  0  0  0  0
  -20.9271  -29.8748   21.6939 H   0  0  0  0  0  0
  -26.0204  -38.2886   24.1373 H   0  0  0  0  0  0
  -31.2238  -17.5947   22.9321 H   0  0  0  0  0  0
  -30.7960  -19.9353   22.2998 H   0  0  0  0  0  0
  -28.7250  -16.2675   19.6661 H   0  0  0  0  0  0
  -28.0833  -26.4733   17.4743 H   0  0  0  0  0  0
  -29.6464  -22.4345   17.3833 H   0  0  0  0  0  0
  -29.4103  -24.5786   21.1068 H   0  0  0  0  0  0
  -29.7759  -15.7466   23.5533 H   0  0  0  0  0  0
  -28.5031  -25.2827   15.3717 H   0  0  0  0  0  0
  -29.0756  -23.6901   15.3229 H   0  0  0  0  0  0
  -28.5433  -20.8271   19.5124 H   0  0  0  0  0  0
  1 25  1  0  0  0
  1 30  2  0  0  0
  1 83  1  0  0  0
  2  3  1  0  0  0
  2 25  1  0  0  0
  2 91  1  0  0  0
  2 92  1  0  0  0
  3  4  1  0  0  0
  3 93  1  0  0  0
  3 94  1  0  0  0
  4  5  1  0  0  0
  4 95  1  0  0  0
  4 96  1  0  0  0
  5  6  1  0  0  0
  5 26  1  0  0  0
  5 97  1  0  0  0
  6 25  1  0  0  0
  6 98  1  0  0  0
  6 99  1  0  0  0
  7  8  2  0  0  0
  7 26  1  0  0  0
  7 29  1  0  0  0
  8  9  1  0  0  0
  8 22  1  0  0  0
  9 10  1  0  0  0
  9 27  2  0  0  0
 10 11  2  0  0  0
 10 15  1  0  0  0
 11 12  1  0  0  0
 11100  1  0  0  0
 12 13  2  0  0  0
 12101  1  0  0  0
 13 14  1  0  0  0
 13 31  1  0  0  0
 14 15  2  0  0  0
 14102  1  0  0  0
 15103  1  0  0  0
 16 17  2  0  0  0
 16 21  1  0  0  0
 16 31  1  0  0  0
 17 18  1  0  0  0
 17104  1  0  0  0
 18 19  2  0  0  0
 18105  1  0  0  0
 19 20  1  0  0  0
 19 24  1  0  0  0
 20 21  2  0  0  0
 20106  1  0  0  0
 21 23  1  0  0  0
 22 28  1  0  0  0
 22 32  2  0  0  0
 26 27  1  0  0  0
 28107  1  0  0  0
 28108  1  0  0  0
 29109  1  0  0  0
 29110  1  0  0  0
 33 34  1  0  0  0
 33 66  1  0  0  0
 33 70  2  0  0  0
 34 36  1  0  0  0
 34 59  1  0  0  0
 34111  1  0  0  0
 35 44  2  0  0  0
 35 45  1  0  0  0
 35 68  1  0  0  0
 36 56  1  0  0  0
 36112  1  0  0  0
 37 39  1  0  0  0
 37 47  1  0  0  0
 37 66  1  0  0  0
 37113  1  0  0  0
 38 43  2  0  0  0
 38 46  1  0  0  0
 38 47  1  0  0  0
 39 64  1  0  0  0
 39 67  2  0  0  0
 40 52  1  0  0  0
 40 53  2  0  0  0
 40 58  1  0  0  0
 41114  1  0  0  0
 41115  1  0  0  0
 41116  1  0  0  0
 41 48  1  0  0  0
 42 43  1  0  0  0
 42 66  1  0  0  0
 42117  1  0  0  0
 42118  1  0  0  0
 43 44  1  0  0  0
 44119  1  0  0  0
 45 46  2  0  0  0
 45120  1  0  0  0
 46121  1  0  0  0
 47122  1  0  0  0
 47123  1  0  0  0
 48 56  1  0  0  0
 48 65  1  0  0  0
 48124  1  0  0  0
 49 50  1  0  0  0
 49 53  1  0  0  0
 49 64  1  0  0  0
 49125  1  0  0  0
 50 51  1  0  0  0
 50126  1  0  0  0
 50127  1  0  0  0
 51 52  1  0  0  0
 51128  1  0  0  0
 51129  1  0  0  0
 52130  1  0  0  0
 52131  1  0  0  0
 53 54  1  0  0  0
 54 55  2  0  0  0
 54132  1  0  0  0
 55 57  1  0  0  0
 55133  1  0  0  0
 56 69  2  0  0  0
 57 58  2  0  0  0
 57134  1  0  0  0
 58135  1  0  0  0
 59 60  1  0  0  0
 59 61  1  0  0  0
 59 62  1  0  0  0
 60136  1  0  0  0
 60137  1  0  0  0
 60138  1  0  0  0
 61139  1  0  0  0
 61140  1  0  0  0
 61141  1  0  0  0
 62142  1  0  0  0
 62143  1  0  0  0
 62144  1  0  0  0
 63 65  1  0  0  0
 63145  1  0  0  0
 63146  1  0  0  0
 63147  1  0  0  0
 64148  1  0  0  0
 65149  1  0  0  0
 68 80  1  0  0  0
 71 72  2  0  0  0
 71 77  1  0  0  0
 71150  1  0  0  0
 72 78  1  0  0  0
 72151  1  0  0  0
 73 77  2  0  0  0
 73 81  1  0  0  0
 73152  1  0  0  0
 74 79  2  0  0  0
 74 80  1  0  0  0
 74153  1  0  0  0
 75 79  1  0  0  0
 75 82  2  0  0  0
 75154  1  0  0  0
 76 80  2  0  0  0
 76 82  1  0  0  0
 76155  1  0  0  0
 77 83  1  0  0  0
 78 81  2  0  0  0
 78 86  1  0  0  0
 79 85  1  0  0  0
 81 89  1  0  0  0
 82 90  1  0  0  0
 83 84  2  0  0  0
 84156  1  0  0  0
 85157  1  0  0  0
 85158  1  0  0  0
 86159  1  0  0  0
 86 90  1  0  0  0
 87 90  2  0  0  0
 88 90  2  0  0  0
M  ISO  4   1 100  68 101  80 101  83 100
M  END
> <chiral flag>
0

> <version>
0

> <s_m_source_file>
/data/baiqing/PycharmProjects/Reinvent-master-3.2/result/LINK_invent/BTK/process_docking_weight1_custom_product_contain_oxygen_bond_distance_aromatic_linkinvent_7_9_3/rearranged_h_0093.sdf

> <i_m_source_file_index>
67

> <r_mmod_Potential_Energy-OPLS-2005>
-104.216865539551

> <r_mmod_Stretch_Energy-OPLS-2005>
35.7655296325684

> <r_mmod_Bend_Energy-OPLS-2005>
102.194183349609

> <r_mmod_Torsional_Energy-OPLS-2005>
215.972640991211

> <r_mmod_Improper_Torsional_Energy-OPLS-2005>
7.97659587860107

> <r_mmod_Van_der_Waal_Energy-OPLS-2005>
165.031585693359

> <r_mmod_Electrostatic_Energy-OPLS-2005>
-396.276794433594

> <r_mmod_Solvation_Energy-OPLS-2005>
-243.464904785156

> <b_mmod_Minimization_Converged-OPLS-2005>
0

> <r_mmod_RMS_Derivative-OPLS-2005>
2.1725332736969

$$$$
68
                    3D
 Structure written by MMmdl.
170179  0  0  1  0            999 V2000
  -30.7741  -14.4513   20.5605 C   0  0  0  0  0  0
  -30.4061  -12.3061   19.4168 C   0  0  0  0  0  0
  -29.4793  -12.4883   18.1995 C   0  0  0  0  0  0
  -27.9979  -12.3609   18.6096 C   0  0  0  0  0  0
  -27.6509  -13.2044   19.8659 C   0  0  2  0  0  0
  -28.7018  -12.9926   20.9795 C   0  0  0  0  0  0
  -25.2533  -13.8164   20.5728 C   0  0  0  0  0  0
  -24.1795  -13.0451   20.9200 C   0  0  0  0  0  0
  -24.6347  -11.6907   20.8757 C   0  0  0  0  0  0
  -23.9022  -10.4309   21.0420 C   0  0  0  0  0  0
  -24.3585   -9.4233   21.9204 C   0  0  0  0  0  0
  -23.6275   -8.2262   22.0779 C   0  0  0  0  0  0
  -22.4265   -8.0291   21.3557 C   0  0  0  0  0  0
  -21.9877   -9.0267   20.4665 C   0  0  0  0  0  0
  -22.7193  -10.2153   20.3076 C   0  0  0  0  0  0
  -21.6842   -6.0733   22.5282 C   0  0  0  0  0  0
  -21.4018   -6.5639   23.8219 C   0  0  0  0  0  0
  -21.3657   -5.6797   24.9178 C   0  0  0  0  0  0
  -21.6040   -4.3059   24.7228 C   0  0  0  0  0  0
  -21.8818   -3.8146   23.4353 C   0  0  0  0  0  0
  -21.9197   -4.6963   22.3402 C   0  0  0  0  0  0
  -22.7824  -13.5254   21.1846 C   0  0  0  0  0  0
  -22.1656   -4.2145   21.0979 F   0  0  0  0  0  0
  -21.5624   -3.4547   25.7743 F   0  0  0  0  0  0
  -30.0199  -13.3221   20.4124 N   0  0  0  0  0  0
  -26.2955  -12.9323   20.3356 N   0  0  0  0  0  0
  -25.9266  -11.6485   20.5797 N   0  0  0  0  0  0
  -22.0413  -12.8302   22.0388 N   0  0  0  0  0  0
  -25.4179  -15.1906   20.4143 N   0  0  0  0  0  0
  -31.9551  -14.4539   20.2073 O   0  0  0  0  0  0
  -21.6642   -6.8886   21.4248 O   0  0  0  0  0  0
  -22.3501  -14.5543   20.6659 O   0  0  0  0  0  0
  -24.6179  -31.8721   23.2210 C   0  0  0  0  0  0
  -25.9107  -32.4837   23.8452 C   0  0  1  0  0  0
  -27.1875  -27.4278   20.0633 C   0  0  0  0  0  0
  -25.5985  -33.8644   24.2391 N   0  0  0  0  0  0
  -23.4001  -30.5122   21.5597 C   0  0  2  0  0  0
  -24.8396  -29.0048   20.1042 C   0  0  0  0  0  0
  -22.7400  -29.4735   22.4963 C   0  0  0  0  0  0
  -18.0325  -28.1338   22.8503 C   0  0  0  0  0  0
  -24.1494  -36.7314   23.2616 C   0  0  0  0  0  0
  -25.9402  -30.8253   21.3940 C   0  0  0  0  0  0
  -26.0022  -29.4659   20.7332 C   0  0  0  0  0  0
  -27.1737  -28.6680   20.7456 C   0  0  0  0  0  0
  -26.0511  -27.0852   19.3110 C   0  0  0  0  0  0
  -24.8545  -27.7988   19.4023 C   0  0  0  0  0  0
  -23.6047  -29.8681   20.1660 C   0  0  0  0  0  0
  -25.4098  -36.3097   24.0327 C   0  0  1  0  0  0
  -20.5921  -28.3637   23.1285 C   0  0  2  0  0  0
  -20.6830  -26.9388   22.5322 C   0  0  0  0  0  0
  -19.5769  -26.6396   21.5134 C   0  0  0  0  0  0
  -18.1933  -26.7924   22.1560 C   0  0  0  0  0  0
  -19.1581  -28.8784   23.2913 C   0  0  0  0  0  0
  -18.9552  -30.1400   23.8919 C   0  0  0  0  0  0
  -17.6538  -30.6561   24.0551 C   0  0  0  0  0  0
  -25.9042  -34.9478   23.5124 C   0  0  0  0  0  0
  -16.5419  -29.9084   23.6328 C   0  0  0  0  0  0
  -16.7331  -28.6504   23.0355 C   0  0  0  0  0  0
  -26.4507  -31.6603   25.0769 C   0  0  0  0  0  0
  -25.3762  -31.3791   26.1512 C   0  0  0  0  0  0
  -27.0336  -30.3034   24.6200 C   0  0  0  0  0  0
  -27.6074  -32.4290   25.7566 C   0  0  0  0  0  0
  -27.5593  -37.1810   24.8467 C   0  0  0  0  0  0
  -21.4132  -29.3114   22.3751 N   0  0  0  0  0  0
  -26.4312  -37.3769   23.9402 N   0  0  0  0  0  0
  -24.6689  -31.0868   22.1128 N   0  0  0  0  0  0
  -23.4193  -28.8171   23.2900 O   0  0  0  0  0  0
  -28.2765  -26.5795   20.1235 O   0  0  0  0  0  0
  -26.5569  -34.8898   22.4661 O   0  0  0  0  0  0
  -23.5352  -32.1549   23.7575 O   0  0  0  0  0  0
  -28.1402  -18.1885   20.8195 C   0  0  0  0  0  0
  -27.7495  -17.5351   23.1222 C   0  0  0  0  0  0
  -28.2998  -17.2399   21.8561 C   0  0  0  0  0  0
  -27.5052  -19.4251   21.0177 C   0  0  0  0  0  0
  -27.0864  -18.7586   23.3400 C   0  0  0  0  0  0
  -26.9413  -19.6951   22.2953 C   0  0  0  0  0  0
  -25.6118  -21.7695   19.7716 C   0  0  0  0  0  0
  -27.7653  -22.7218   20.2730 C   0  0  0  0  0  0
  -24.9117  -22.9814   20.3533 C   0  0  0  0  0  0
  -25.7060  -24.2091   19.9729 C   0  0  0  0  0  0
  -27.2151  -24.1762   20.3692 C   0  0  2  0  0  0
  -30.7886  -16.8405   20.0434 C   0  0  0  0  0  0
  -27.5259  -20.3300   19.7766 C   0  0  0  0  0  0
  -29.0427  -15.9038   21.6498 C   0  0  0  0  0  0
  -28.1437  -25.2168   19.6125 C   0  0  0  0  0  0
  -26.9566  -21.6772   19.9193 N   0  0  0  0  0  0
  -26.5737  -19.0851   24.5956 N   0  0  0  0  0  0
  -26.1848  -20.8227   22.6221 N   0  0  0  0  0  0
  -30.1438  -15.6556   20.6853 N   0  0  0  0  0  0
  -24.9128  -20.8782   19.2780 O   0  0  0  0  0  0
  -28.9696  -22.5502   20.5067 O   0  0  0  0  0  0
  -31.4448  -12.3897   19.0951 H   0  0  0  0  0  0
  -30.3136  -11.3040   19.8347 H   0  0  0  0  0  0
  -29.7143  -11.7493   17.4314 H   0  0  0  0  0  0
  -29.6537  -13.4663   17.7459 H   0  0  0  0  0  0
  -27.7927  -11.3066   18.7987 H   0  0  0  0  0  0
  -27.3533  -12.6503   17.7779 H   0  0  0  0  0  0
  -27.6845  -14.2461   19.5494 H   0  0  0  0  0  0
  -28.6917  -11.9514   21.3028 H   0  0  0  0  0  0
  -28.4628  -13.5520   21.8800 H   0  0  0  0  0  0
  -25.2721   -9.5715   22.4786 H   0  0  0  0  0  0
  -23.9984   -7.4659   22.7500 H   0  0  0  0  0  0
  -21.0808   -8.8771   19.8967 H   0  0  0  0  0  0
  -22.3637  -10.9699   19.6192 H   0  0  0  0  0  0
  -21.2007   -7.6151   23.9714 H   0  0  0  0  0  0
  -21.1469   -6.0532   25.9082 H   0  0  0  0  0  0
  -22.0590   -2.7611   23.2860 H   0  0  0  0  0  0
  -22.3976  -11.9986   22.4863 H   0  0  0  0  0  0
  -21.1028  -13.1366   22.2525 H   0  0  0  0  0  0
  -24.6502  -15.8379   20.5656 H   0  0  0  0  0  0
  -26.2774  -15.6507   20.1491 H   0  0  0  0  0  0
  -26.7204  -32.5517   23.1223 H   0  0  0  0  0  0
  -25.0188  -33.9827   25.0578 H   0  0  0  0  0  0
  -22.6926  -31.3337   21.4310 H   0  0  0  0  0  0
  -23.3736  -35.9678   23.3277 H   0  0  0  0  0  0
  -24.3617  -36.8916   22.2047 H   0  0  0  0  0  0
  -23.7310  -37.6531   23.6635 H   0  0  0  0  0  0
  -26.0804  -31.5949   20.6301 H   0  0  0  0  0  0
  -26.8202  -30.8584   22.0244 H   0  0  0  0  0  0
  -28.0477  -28.9962   21.2959 H   0  0  0  0  0  0
  -26.0573  -26.2598   18.6257 H   0  0  0  0  0  0
  -23.9762  -27.4622   18.8662 H   0  0  0  0  0  0
  -23.7115  -30.6531   19.4181 H   0  0  0  0  0  0
  -22.7307  -29.2875   19.8622 H   0  0  0  0  0  0
  -25.1283  -36.1948   25.0836 H   0  0  0  0  0  0
  -21.0080  -28.3148   24.1387 H   0  0  0  0  0  0
  -20.5748  -26.2223   23.3491 H   0  0  0  0  0  0
  -21.6680  -26.7479   22.1029 H   0  0  0  0  0  0
  -19.6928  -25.6313   21.1164 H   0  0  0  0  0  0
  -19.6705  -27.3253   20.6697 H   0  0  0  0  0  0
  -17.4243  -26.6807   21.3942 H   0  0  0  0  0  0
  -18.0306  -25.9977   22.8873 H   0  0  0  0  0  0
  -19.8033  -30.7202   24.2340 H   0  0  0  0  0  0
  -17.5119  -31.6272   24.5126 H   0  0  0  0  0  0
  -15.5414  -30.3018   23.7600 H   0  0  0  0  0  0
  -15.8742  -28.0797   22.7077 H   0  0  0  0  0  0
  -24.5925  -30.7136   25.7916 H   0  0  0  0  0  0
  -24.8955  -32.2977   26.4886 H   0  0  0  0  0  0
  -25.8073  -30.9047   27.0347 H   0  0  0  0  0  0
  -26.2939  -29.6791   24.1194 H   0  0  0  0  0  0
  -27.4054  -29.7265   25.4688 H   0  0  0  0  0  0
  -27.8786  -30.4332   23.9428 H   0  0  0  0  0  0
  -27.2709  -33.3575   26.2192 H   0  0  0  0  0  0
  -28.3883  -32.6876   25.0416 H   0  0  0  0  0  0
  -28.0735  -31.8385   26.5456 H   0  0  0  0  0  0
  -28.2580  -38.0113   24.7473 H   0  0  0  0  0  0
  -28.1083  -36.2657   24.6303 H   0  0  0  0  0  0
  -27.2306  -37.1474   25.8854 H   0  0  0  0  0  0
  -20.9234  -29.9032   21.7208 H   0  0  0  0  0  0
  -26.0168  -38.2847   24.1340 H   0  0  0  0  0  0
  -28.5096  -17.9863   19.8283 H   0  0  0  0  0  0
  -27.8544  -16.8281   23.9326 H   0  0  0  0  0  0
  -24.8457  -22.8749   21.4382 H   0  0  0  0  0  0
  -23.8920  -23.0378   19.9720 H   0  0  0  0  0  0
  -25.1899  -25.0449   20.4375 H   0  0  0  0  0  0
  -25.6071  -24.2836   18.8873 H   0  0  0  0  0  0
  -27.2749  -24.4100   21.4336 H   0  0  0  0  0  0
  -30.7847  -17.7256   20.6758 H   0  0  0  0  0  0
  -30.2898  -17.0814   19.1040 H   0  0  0  0  0  0
  -31.8375  -16.7167   19.7712 H   0  0  0  0  0  0
  -27.0368  -19.7766   18.9710 H   0  0  0  0  0  0
  -28.5549  -20.3911   19.4209 H   0  0  0  0  0  0
  -28.5066  -15.9136   20.6998 H   0  0  0  0  0  0
  -29.8267  -16.4500   22.1771 H   0  0  0  0  0  0
  -29.1691  -24.8493   19.6211 H   0  0  0  0  0  0
  -27.9063  -25.2344   18.5548 H   0  0  0  0  0  0
  -26.9421  -18.5554   25.3758 H   0  0  0  0  0  0
  -26.6452  -20.0822   24.7775 H   0  0  0  0  0  0
  -25.4395  -20.9828   21.9622 H   0  0  0  0  0  0
  -25.7431  -20.6647   23.5201 H   0  0  0  0  0  0
  1 25  1  0  0  0
  1 30  2  0  0  0
  1 89  1  0  0  0
  2  3  1  0  0  0
  2 25  1  0  0  0
  2 92  1  0  0  0
  2 93  1  0  0  0
  3  4  1  0  0  0
  3 94  1  0  0  0
  3 95  1  0  0  0
  4  5  1  0  0  0
  4 96  1  0  0  0
  4 97  1  0  0  0
  5  6  1  0  0  0
  5 26  1  0  0  0
  5 98  1  0  0  0
  6 25  1  0  0  0
  6 99  1  0  0  0
  6100  1  0  0  0
  7  8  2  0  0  0
  7 26  1  0  0  0
  7 29  1  0  0  0
  8  9  1  0  0  0
  8 22  1  0  0  0
  9 10  1  0  0  0
  9 27  2  0  0  0
 10 11  2  0  0  0
 10 15  1  0  0  0
 11 12  1  0  0  0
 11101  1  0  0  0
 12 13  2  0  0  0
 12102  1  0  0  0
 13 14  1  0  0  0
 13 31  1  0  0  0
 14 15  2  0  0  0
 14103  1  0  0  0
 15104  1  0  0  0
 16 17  2  0  0  0
 16 21  1  0  0  0
 16 31  1  0  0  0
 17 18  1  0  0  0
 17105  1  0  0  0
 18 19  2  0  0  0
 18106  1  0  0  0
 19 20  1  0  0  0
 19 24  1  0  0  0
 20 21  2  0  0  0
 20107  1  0  0  0
 21 23  1  0  0  0
 22 28  1  0  0  0
 22 32  2  0  0  0
 26 27  1  0  0  0
 28108  1  0  0  0
 28109  1  0  0  0
 29110  1  0  0  0
 29111  1  0  0  0
 33 34  1  0  0  0
 33 66  1  0  0  0
 33 70  2  0  0  0
 34 36  1  0  0  0
 34 59  1  0  0  0
 34112  1  0  0  0
 35 44  2  0  0  0
 35 45  1  0  0  0
 35 68  1  0  0  0
 36 56  1  0  0  0
 36113  1  0  0  0
 37 39  1  0  0  0
 37 47  1  0  0  0
 37 66  1  0  0  0
 37114  1  0  0  0
 38 43  2  0  0  0
 38 46  1  0  0  0
 38 47  1  0  0  0
 39 64  1  0  0  0
 39 67  2  0  0  0
 40 52  1  0  0  0
 40 53  2  0  0  0
 40 58  1  0  0  0
 41115  1  0  0  0
 41116  1  0  0  0
 41117  1  0  0  0
 41 48  1  0  0  0
 42 43  1  0  0  0
 42 66  1  0  0  0
 42118  1  0  0  0
 42119  1  0  0  0
 43 44  1  0  0  0
 44120  1  0  0  0
 45 46  2  0  0  0
 45121  1  0  0  0
 46122  1  0  0  0
 47123  1  0  0  0
 47124  1  0  0  0
 48 56  1  0  0  0
 48 65  1  0  0  0
 48125  1  0  0  0
 49 50  1  0  0  0
 49 53  1  0  0  0
 49 64  1  0  0  0
 49126  1  0  0  0
 50 51  1  0  0  0
 50127  1  0  0  0
 50128  1  0  0  0
 51 52  1  0  0  0
 51129  1  0  0  0
 51130  1  0  0  0
 52131  1  0  0  0
 52132  1  0  0  0
 53 54  1  0  0  0
 54 55  2  0  0  0
 54133  1  0  0  0
 55 57  1  0  0  0
 55134  1  0  0  0
 56 69  2  0  0  0
 57 58  2  0  0  0
 57135  1  0  0  0
 58136  1  0  0  0
 59 60  1  0  0  0
 59 61  1  0  0  0
 59 62  1  0  0  0
 60137  1  0  0  0
 60138  1  0  0  0
 60139  1  0  0  0
 61140  1  0  0  0
 61141  1  0  0  0
 61142  1  0  0  0
 62143  1  0  0  0
 62144  1  0  0  0
 62145  1  0  0  0
 63 65  1  0  0  0
 63146  1  0  0  0
 63147  1  0  0  0
 63148  1  0  0  0
 64149  1  0  0  0
 65150  1  0  0  0
 68 85  1  0  0  0
 71 73  2  0  0  0
 71 74  1  0  0  0
 71151  1  0  0  0
 72 73  1  0  0  0
 72 75  2  0  0  0
 72152  1  0  0  0
 73 84  1  0  0  0
 74 76  2  0  0  0
 74 83  1  0  0  0
 75 76  1  0  0  0
 75 87  1  0  0  0
 76 88  1  0  0  0
 77 79  1  0  0  0
 77 86  1  0  0  0
 77 90  2  0  0  0
 78 81  1  0  0  0
 78 86  1  0  0  0
 78 91  2  0  0  0
 79 80  1  0  0  0
 79153  1  0  0  0
 79154  1  0  0  0
 80 81  1  0  0  0
 80155  1  0  0  0
 80156  1  0  0  0
 81 85  1  0  0  0
 81157  1  0  0  0
 82 89  1  0  0  0
 82158  1  0  0  0
 82159  1  0  0  0
 82160  1  0  0  0
 83 86  1  0  0  0
 83161  1  0  0  0
 83162  1  0  0  0
 84 89  1  0  0  0
 84163  1  0  0  0
 84164  1  0  0  0
 85165  1  0  0  0
 85166  1  0  0  0
 87167  1  0  0  0
 87168  1  0  0  0
 88169  1  0  0  0
 88170  1  0  0  0
M  ISO  4   1 100  68 101  85 101  89 100
M  END
> <chiral flag>
0

> <version>
0

> <s_m_source_file>
/data/baiqing/PycharmProjects/Reinvent-master-3.2/result/LINK_invent/BTK/process_docking_weight1_custom_product_contain_oxygen_bond_distance_aromatic_linkinvent_7_9_3/rearranged_h_0093.sdf

> <i_m_source_file_index>
68

> <r_mmod_Potential_Energy-OPLS-2005>
225.171646118164

> <r_mmod_Stretch_Energy-OPLS-2005>
55.482536315918

> <r_mmod_Bend_Energy-OPLS-2005>
358.318664550781

> <r_mmod_Torsional_Energy-OPLS-2005>
268.116851806641

> <r_mmod_Improper_Torsional_Energy-OPLS-2005>
25.3807430267334

> <r_mmod_Van_der_Waal_Energy-OPLS-2005>
256.023223876953

> <r_mmod_Electrostatic_Energy-OPLS-2005>
-540.404052734375

> <r_mmod_Solvation_Energy-OPLS-2005>
-235.011840820312

> <b_mmod_Minimization_Converged-OPLS-2005>
0

> <r_mmod_RMS_Derivative-OPLS-2005>
6.10350561141968

$$$$
69
                    3D
 Structure written by MMmdl.
159168  0  0  1  0            999 V2000
  -29.8012  -13.1353   19.4675 C   0  0  0  0  0  0
  -31.0172  -13.5588   18.6967 C   0  0  0  0  0  0
  -30.2313  -15.3133   19.3076 C   0  0  0  0  0  0
  -28.4988  -15.0391   20.2804 C   0  0  0  0  0  0
  -27.7500  -13.4398   20.6199 C   0  0  2  0  0  0
  -28.7473  -12.0520   20.1737 C   0  0  0  0  0  0
  -25.2073  -13.8898   20.6386 C   0  0  0  0  0  0
  -24.1457  -13.0662   20.8922 C   0  0  0  0  0  0
  -24.6377  -11.7320   20.8352 C   0  0  0  0  0  0
  -23.9241  -10.4473   21.0044 C   0  0  0  0  0  0
  -24.3760   -9.4433   21.8949 C   0  0  0  0  0  0
  -23.6433   -8.2461   22.0665 C   0  0  0  0  0  0
  -22.4398   -8.0390   21.3509 C   0  0  0  0  0  0
  -21.9997   -9.0313   20.4563 C   0  0  0  0  0  0
  -22.7311  -10.2209   20.2831 C   0  0  0  0  0  0
  -21.6955   -6.0791   22.5290 C   0  0  0  0  0  0
  -21.4074   -6.5668   23.8223 C   0  0  0  0  0  0
  -21.3673   -5.6798   24.9158 C   0  0  0  0  0  0
  -21.6053   -4.3067   24.7216 C   0  0  0  0  0  0
  -21.8814   -3.8176   23.4334 C   0  0  0  0  0  0
  -21.9220   -4.7000   22.3394 C   0  0  0  0  0  0
  -22.7467  -13.5192   21.1701 C   0  0  0  0  0  0
  -22.1682   -4.2170   21.0974 F   0  0  0  0  0  0
  -21.5606   -3.4553   25.7727 F   0  0  0  0  0  0
  -30.1764  -12.1864   19.2876 N   0  0  0  0  0  0
  -26.3172  -13.0934   20.4773 N   0  0  0  0  0  0
  -25.9470  -11.7744   20.5932 N   0  0  0  0  0  0
  -22.0315  -12.8042   22.0283 N   0  0  0  0  0  0
  -25.3161  -15.2649   20.6177 N   0  0  0  0  0  0
  -30.3945  -13.4786   20.7446 O   0  0  0  0  0  0
  -21.6764   -6.8970   21.4261 O   0  0  0  0  0  0
  -22.3110  -14.5585   20.6800 O   0  0  0  0  0  0
  -24.6793  -31.8161   23.1663 C   0  0  0  0  0  0
  -25.9444  -32.4525   23.8119 C   0  0  1  0  0  0
  -27.0978  -26.8783   19.9509 C   0  0  0  0  0  0
  -25.6069  -33.8346   24.2004 N   0  0  0  0  0  0
  -23.4799  -30.4477   21.5349 C   0  0  2  0  0  0
  -24.8846  -28.8427   20.0933 C   0  0  0  0  0  0
  -22.7687  -29.4451   22.4833 C   0  0  0  0  0  0
  -18.0330  -28.1412   22.8468 C   0  0  0  0  0  0
  -24.1501  -36.7164   23.2646 C   0  0  0  0  0  0
  -26.0653  -30.5767   21.4038 C   0  0  0  0  0  0
  -26.0986  -29.1773   20.7039 C   0  0  0  0  0  0
  -27.2129  -28.2093   20.6190 C   0  0  0  0  0  0
  -25.8370  -26.7143   19.3571 C   0  0  0  0  0  0
  -24.7781  -27.6289   19.4197 C   0  0  0  0  0  0
  -23.6970  -29.7923   20.1542 C   0  0  0  0  0  0
  -25.4151  -36.2914   24.0285 C   0  0  1  0  0  0
  -20.5956  -28.3749   23.1193 C   0  0  2  0  0  0
  -20.6812  -26.9439   22.5400 C   0  0  0  0  0  0
  -19.5783  -26.6377   21.5216 C   0  0  0  0  0  0
  -18.1963  -26.7944   22.1623 C   0  0  0  0  0  0
  -19.1594  -28.8909   23.2807 C   0  0  0  0  0  0
  -18.9501  -30.1499   23.8843 C   0  0  0  0  0  0
  -17.6490  -30.6602   24.0555 C   0  0  0  0  0  0
  -25.9150  -34.9314   23.4960 C   0  0  0  0  0  0
  -16.5380  -29.9084   23.6343 C   0  0  0  0  0  0
  -16.7311  -28.6503   23.0368 C   0  0  0  0  0  0
  -26.4609  -31.6523   25.0716 C   0  0  0  0  0  0
  -25.3675  -31.3833   26.1333 C   0  0  0  0  0  0
  -27.0515  -30.2863   24.6563 C   0  0  0  0  0  0
  -27.6070  -32.4369   25.7545 C   0  0  0  0  0  0
  -27.5571  -37.1734   24.8450 C   0  0  0  0  0  0
  -21.4364  -29.3023   22.3548 N   0  0  0  0  0  0
  -26.4252  -37.3685   23.9433 N   0  0  0  0  0  0
  -24.7690  -30.9728   22.0859 N   0  0  0  0  0  0
  -23.4227  -28.7985   23.3053 O   0  0  0  0  0  0
  -27.9891  -25.6816   19.7981 O   0  0  0  0  0  0
  -26.5760  -34.8877   22.4557 O   0  0  0  0  0  0
  -23.5862  -32.1210   23.6735 O   0  0  0  0  0  0
  -29.3369  -21.9735   19.0869 C   0  0  0  0  0  0
  -28.9291  -17.6845   16.9868 C   0  0  0  0  0  0
  -27.1117  -16.0470   18.0839 C   0  0  0  0  0  0
  -28.0241  -22.5523   18.9128 C   0  0  0  0  0  0
  -28.0546  -18.4873   17.8498 C   0  0  0  0  0  0
  -28.9891  -16.1915   16.8511 C   0  0  0  0  0  0
  -28.2532  -15.2154   17.6633 C   0  0  0  0  0  0
  -27.0440  -17.5303   18.2652 C   0  0  0  0  0  0
  -29.4100  -20.6202   18.7322 C   0  0  0  0  0  0
  -27.4059  -21.3052   18.4294 C   0  0  0  0  0  0
  -28.3780  -12.6517   17.1904 C   0  0  0  0  0  0
  -27.4459  -24.2222   19.1769 C   0  0  0  0  0  0
  -28.2143  -20.0486   18.2790 N   0  0  0  0  0  0
  -29.8999  -15.6406   15.9557 N   0  0  0  0  0  0
  -28.7597  -13.6673   18.1960 N   0  0  0  0  0  0
  -30.5043  -19.8217   18.8231 O   0  0  0  0  0  0
  -26.0984  -21.1755   18.0703 O   0  0  0  0  0  0
  -25.9632  -18.0502   18.9079 F   0  0  0  0  0  0
  -32.0816  -13.5149   19.0102 H   0  0  0  0  0  0
  -31.1940  -13.5131   17.6026 H   0  0  0  0  0  0
  -30.4004  -16.1828   18.6862 H   0  0  0  0  0  0
  -30.9234  -15.6668   20.0819 H   0  0  0  0  0  0
  -27.7973  -15.8675   20.2970 H   0  0  0  0  0  0
  -28.8610  -15.2838   21.2847 H   0  0  0  0  0  0
  -27.8411  -13.4275   21.7053 H   0  0  0  0  0  0
  -28.1641  -11.2809   19.6554 H   0  0  0  0  0  0
  -28.9609  -11.4928   21.0959 H   0  0  0  0  0  0
  -25.2862   -9.6013   22.4550 H   0  0  0  0  0  0
  -24.0166   -7.4919   22.7409 H   0  0  0  0  0  0
  -21.0954   -8.8779   19.8918 H   0  0  0  0  0  0
  -22.3646  -10.9699   19.5978 H   0  0  0  0  0  0
  -21.2102   -7.6186   23.9726 H   0  0  0  0  0  0
  -21.1481   -6.0538   25.9071 H   0  0  0  0  0  0
  -22.0582   -2.7626   23.2824 H   0  0  0  0  0  0
  -22.4206  -11.9799   22.4631 H   0  0  0  0  0  0
  -21.0897  -13.0958   22.2535 H   0  0  0  0  0  0
  -24.4988  -15.8520   20.7050 H   0  0  0  0  0  0
  -26.1737  -15.7865   20.5080 H   0  0  0  0  0  0
  -26.7510  -32.4940   23.0816 H   0  0  0  0  0  0
  -25.0134  -33.9387   25.0098 H   0  0  0  0  0  0
  -22.7972  -31.2883   21.3824 H   0  0  0  0  0  0
  -23.3799  -35.9442   23.3206 H   0  0  0  0  0  0
  -24.3578  -36.8932   22.2072 H   0  0  0  0  0  0
  -23.7190  -37.6292   23.6785 H   0  0  0  0  0  0
  -26.2859  -31.3263   20.6433 H   0  0  0  0  0  0
  -26.9132  -30.5872   22.0764 H   0  0  0  0  0  0
  -28.1467  -28.4617   21.1013 H   0  0  0  0  0  0
  -25.5899  -25.8191   18.8116 H   0  0  0  0  0  0
  -23.8514  -27.3660   18.9287 H   0  0  0  0  0  0
  -23.8666  -30.5701   19.4101 H   0  0  0  0  0  0
  -22.7901  -29.2809   19.8285 H   0  0  0  0  0  0
  -25.1343  -36.1681   25.0765 H   0  0  0  0  0  0
  -21.0029  -28.3353   24.1326 H   0  0  0  0  0  0
  -20.5701  -26.2377   23.3645 H   0  0  0  0  0  0
  -21.6674  -26.7424   22.1200 H   0  0  0  0  0  0
  -19.6939  -25.6270   21.1290 H   0  0  0  0  0  0
  -19.6720  -27.3155   20.6721 H   0  0  0  0  0  0
  -17.4233  -26.6692   21.4024 H   0  0  0  0  0  0
  -18.0348  -26.0101   22.9034 H   0  0  0  0  0  0
  -19.7974  -30.7335   24.2185 H   0  0  0  0  0  0
  -17.5041  -31.6281   24.5165 H   0  0  0  0  0  0
  -15.5377  -30.2966   23.7708 H   0  0  0  0  0  0
  -15.8712  -28.0804   22.7113 H   0  0  0  0  0  0
  -24.5909  -30.7124   25.7650 H   0  0  0  0  0  0
  -24.8803  -32.3041   26.4537 H   0  0  0  0  0  0
  -25.7854  -30.9161   27.0252 H   0  0  0  0  0  0
  -26.3191  -29.6517   24.1564 H   0  0  0  0  0  0
  -27.3962  -29.7285   25.5280 H   0  0  0  0  0  0
  -27.9175  -30.4013   24.0047 H   0  0  0  0  0  0
  -27.2615  -33.3749   26.1913 H   0  0  0  0  0  0
  -28.3990  -32.6808   25.0451 H   0  0  0  0  0  0
  -28.0604  -31.8628   26.5637 H   0  0  0  0  0  0
  -28.2513  -38.0111   24.7590 H   0  0  0  0  0  0
  -28.1158  -36.2639   24.6167 H   0  0  0  0  0  0
  -27.2308  -37.1226   25.8855 H   0  0  0  0  0  0
  -20.9653  -29.8750   21.6693 H   0  0  0  0  0  0
  -26.0091  -38.2725   24.1495 H   0  0  0  0  0  0
  -30.1972  -22.5158   19.4617 H   0  0  0  0  0  0
  -29.6298  -18.2520   16.3969 H   0  0  0  0  0  0
  -26.2699  -15.4917   18.4428 H   0  0  0  0  0  0
  -27.7483  -11.8730   17.6108 H   0  0  0  0  0  0
  -29.2429  -12.1708   16.7336 H   0  0  0  0  0  0
  -27.7961  -13.0931   16.3815 H   0  0  0  0  0  0
  -26.5062  -24.0396   19.7097 H   0  0  0  0  0  0
  -27.1492  -24.4988   18.1688 H   0  0  0  0  0  0
  -29.9375  -16.0844   15.0489 H   0  0  0  0  0  0
  -29.8395  -14.6252   15.8556 H   0  0  0  0  0  0
  -30.2127  -18.9191   18.7536 H   0  0  0  0  0  0
  -25.9413  -20.2630   17.8422 H   0  0  0  0  0  0
  1 25  1  0  0  0
  1 30  2  0  0  0
  1 85  1  0  0  0
  2  3  1  0  0  0
  2 25  1  0  0  0
  2 89  1  0  0  0
  2 90  1  0  0  0
  3  4  1  0  0  0
  3 91  1  0  0  0
  3 92  1  0  0  0
  4  5  1  0  0  0
  4 93  1  0  0  0
  4 94  1  0  0  0
  5  6  1  0  0  0
  5 26  1  0  0  0
  5 95  1  0  0  0
  6 25  1  0  0  0
  6 96  1  0  0  0
  6 97  1  0  0  0
  7  8  2  0  0  0
  7 26  1  0  0  0
  7 29  1  0  0  0
  8  9  1  0  0  0
  8 22  1  0  0  0
  9 10  1  0  0  0
  9 27  2  0  0  0
 10 11  2  0  0  0
 10 15  1  0  0  0
 11 12  1  0  0  0
 11 98  1  0  0  0
 12 13  2  0  0  0
 12 99  1  0  0  0
 13 14  1  0  0  0
 13 31  1  0  0  0
 14 15  2  0  0  0
 14100  1  0  0  0
 15101  1  0  0  0
 16 17  2  0  0  0
 16 21  1  0  0  0
 16 31  1  0  0  0
 17 18  1  0  0  0
 17102  1  0  0  0
 18 19  2  0  0  0
 18103  1  0  0  0
 19 20  1  0  0  0
 19 24  1  0  0  0
 20 21  2  0  0  0
 20104  1  0  0  0
 21 23  1  0  0  0
 22 28  1  0  0  0
 22 32  2  0  0  0
 26 27  1  0  0  0
 28105  1  0  0  0
 28106  1  0  0  0
 29107  1  0  0  0
 29108  1  0  0  0
 33 34  1  0  0  0
 33 66  1  0  0  0
 33 70  2  0  0  0
 34 36  1  0  0  0
 34 59  1  0  0  0
 34109  1  0  0  0
 35 44  2  0  0  0
 35 45  1  0  0  0
 35 68  1  0  0  0
 36 56  1  0  0  0
 36110  1  0  0  0
 37 39  1  0  0  0
 37 47  1  0  0  0
 37 66  1  0  0  0
 37111  1  0  0  0
 38 43  2  0  0  0
 38 46  1  0  0  0
 38 47  1  0  0  0
 39 64  1  0  0  0
 39 67  2  0  0  0
 40 52  1  0  0  0
 40 53  2  0  0  0
 40 58  1  0  0  0
 41112  1  0  0  0
 41113  1  0  0  0
 41114  1  0  0  0
 41 48  1  0  0  0
 42 43  1  0  0  0
 42 66  1  0  0  0
 42115  1  0  0  0
 42116  1  0  0  0
 43 44  1  0  0  0
 44117  1  0  0  0
 45 46  2  0  0  0
 45118  1  0  0  0
 46119  1  0  0  0
 47120  1  0  0  0
 47121  1  0  0  0
 48 56  1  0  0  0
 48 65  1  0  0  0
 48122  1  0  0  0
 49 50  1  0  0  0
 49 53  1  0  0  0
 49 64  1  0  0  0
 49123  1  0  0  0
 50 51  1  0  0  0
 50124  1  0  0  0
 50125  1  0  0  0
 51 52  1  0  0  0
 51126  1  0  0  0
 51127  1  0  0  0
 52128  1  0  0  0
 52129  1  0  0  0
 53 54  1  0  0  0
 54 55  2  0  0  0
 54130  1  0  0  0
 55 57  1  0  0  0
 55131  1  0  0  0
 56 69  2  0  0  0
 57 58  2  0  0  0
 57132  1  0  0  0
 58133  1  0  0  0
 59 60  1  0  0  0
 59 61  1  0  0  0
 59 62  1  0  0  0
 60134  1  0  0  0
 60135  1  0  0  0
 60136  1  0  0  0
 61137  1  0  0  0
 61138  1  0  0  0
 61139  1  0  0  0
 62140  1  0  0  0
 62141  1  0  0  0
 62142  1  0  0  0
 63 65  1  0  0  0
 63143  1  0  0  0
 63144  1  0  0  0
 63145  1  0  0  0
 64146  1  0  0  0
 65147  1  0  0  0
 68 82  1  0  0  0
 71 74  1  0  0  0
 71 79  2  0  0  0
 71148  1  0  0  0
 72 75  2  0  0  0
 72 76  1  0  0  0
 72149  1  0  0  0
 73 77  1  0  0  0
 73 78  2  0  0  0
 73150  1  0  0  0
 74 80  2  0  0  0
 74 82  1  0  0  0
 75 78  1  0  0  0
 75 83  1  0  0  0
 76 77  2  0  0  0
 76 84  1  0  0  0
 77 85  1  0  0  0
 78 88  1  0  0  0
 79 83  1  0  0  0
 79 86  1  0  0  0
 80 83  1  0  0  0
 80 87  1  0  0  0
 81 85  1  0  0  0
 81151  1  0  0  0
 81152  1  0  0  0
 81153  1  0  0  0
 82154  1  0  0  0
 82155  1  0  0  0
 84156  1  0  0  0
 84157  1  0  0  0
 86158  1  0  0  0
 87159  1  0  0  0
M  ISO  4   1 100  68 101  82 101  85 100
M  END
> <chiral flag>
0

> <version>
0

> <s_m_source_file>
/data/baiqing/PycharmProjects/Reinvent-master-3.2/result/LINK_invent/BTK/process_docking_weight1_custom_product_contain_oxygen_bond_distance_aromatic_linkinvent_7_9_3/rearranged_h_0093.sdf

> <i_m_source_file_index>
69

> <r_mmod_Potential_Energy-OPLS-2005>
8103.009765625

> <r_mmod_Stretch_Energy-OPLS-2005>
2110.7255859375

> <r_mmod_Bend_Energy-OPLS-2005>
1085.29797363281

> <r_mmod_Torsional_Energy-OPLS-2005>
477.219940185547

> <r_mmod_Improper_Torsional_Energy-OPLS-2005>
12.2423877716064

> <r_mmod_Van_der_Waal_Energy-OPLS-2005>
1296.62084960938

> <r_mmod_Electrostatic_Energy-OPLS-2005>
-344.094512939453

> <r_mmod_Solvation_Energy-OPLS-2005>
-248.031463623047

> <b_mmod_Minimization_Converged-OPLS-2005>
0

> <r_mmod_RMS_Derivative-OPLS-2005>
14.8850040435791

$$$$
70
                    3D
 Structure written by MMmdl.
156165  0  0  1  0            999 V2000
  -30.7542  -14.4850   20.5758 C   0  0  0  0  0  0
  -30.4090  -12.3194   19.4440 C   0  0  0  0  0  0
  -29.4965  -12.4900   18.2162 C   0  0  0  0  0  0
  -28.0186  -12.3522   18.6309 C   0  0  0  0  0  0
  -27.6547  -13.2218   19.8659 C   0  0  2  0  0  0
  -28.6976  -13.0687   20.9976 C   0  0  0  0  0  0
  -25.2563  -13.8197   20.5688 C   0  0  0  0  0  0
  -24.1846  -13.0465   20.9199 C   0  0  0  0  0  0
  -24.6424  -11.6937   20.8765 C   0  0  0  0  0  0
  -23.9098  -10.4300   21.0431 C   0  0  0  0  0  0
  -24.3637   -9.4197   21.9196 C   0  0  0  0  0  0
  -23.6289   -8.2250   22.0774 C   0  0  0  0  0  0
  -22.4274   -8.0298   21.3557 C   0  0  0  0  0  0
  -21.9923   -9.0283   20.4664 C   0  0  0  0  0  0
  -22.7276  -10.2144   20.3063 C   0  0  0  0  0  0
  -21.6846   -6.0743   22.5285 C   0  0  0  0  0  0
  -21.4016   -6.5648   23.8219 C   0  0  0  0  0  0
  -21.3654   -5.6797   24.9174 C   0  0  0  0  0  0
  -21.6047   -4.3063   24.7222 C   0  0  0  0  0  0
  -21.8823   -3.8157   23.4345 C   0  0  0  0  0  0
  -21.9191   -4.6971   22.3407 C   0  0  0  0  0  0
  -22.7853  -13.5233   21.1834 C   0  0  0  0  0  0
  -22.1660   -4.2159   21.0982 F   0  0  0  0  0  0
  -21.5622   -3.4547   25.7728 F   0  0  0  0  0  0
  -30.0242  -13.3444   20.4290 N   0  0  0  0  0  0
  -26.3007  -12.9400   20.3342 N   0  0  0  0  0  0
  -25.9345  -11.6551   20.5788 N   0  0  0  0  0  0
  -22.0490  -12.8239   22.0394 N   0  0  0  0  0  0
  -25.4280  -15.1907   20.4101 N   0  0  0  0  0  0
  -31.9064  -14.5609   20.1366 O   0  0  0  0  0  0
  -21.6642   -6.8895   21.4249 O   0  0  0  0  0  0
  -22.3557  -14.5539   20.6665 O   0  0  0  0  0  0
  -24.6159  -31.8670   23.2119 C   0  0  0  0  0  0
  -25.9072  -32.4792   23.8402 C   0  0  1  0  0  0
  -27.2205  -27.4237   20.0858 C   0  0  0  0  0  0
  -25.5937  -33.8595   24.2358 N   0  0  0  0  0  0
  -23.4020  -30.4934   21.5497 C   0  0  2  0  0  0
  -24.8454  -28.9594   20.1138 C   0  0  0  0  0  0
  -22.7395  -29.4675   22.4972 C   0  0  0  0  0  0
  -18.0272  -28.1345   22.8521 C   0  0  0  0  0  0
  -24.1487  -36.7288   23.2635 C   0  0  0  0  0  0
  -25.9354  -30.8240   21.3729 C   0  0  0  0  0  0
  -26.0050  -29.4605   20.7163 C   0  0  0  0  0  0
  -27.1915  -28.6953   20.7058 C   0  0  0  0  0  0
  -26.0399  -26.9434   19.4737 C   0  0  0  0  0  0
  -24.8562  -27.6997   19.4944 C   0  0  0  0  0  0
  -23.6113  -29.8287   20.1636 C   0  0  0  0  0  0
  -25.4100  -36.3071   24.0345 C   0  0  1  0  0  0
  -20.5855  -28.3653   23.1301 C   0  0  2  0  0  0
  -20.6744  -26.9387   22.5406 C   0  0  0  0  0  0
  -19.5735  -26.6383   21.5184 C   0  0  0  0  0  0
  -18.1920  -26.7900   22.1620 C   0  0  0  0  0  0
  -19.1526  -28.8813   23.2906 C   0  0  0  0  0  0
  -18.9466  -30.1415   23.8929 C   0  0  0  0  0  0
  -17.6460  -30.6560   24.0563 C   0  0  0  0  0  0
  -25.9031  -34.9457   23.5142 C   0  0  0  0  0  0
  -16.5347  -29.9072   23.6323 C   0  0  0  0  0  0
  -16.7258  -28.6466   23.0401 C   0  0  0  0  0  0
  -26.4531  -31.6557   25.0718 C   0  0  0  0  0  0
  -25.3836  -31.3665   26.1502 C   0  0  0  0  0  0
  -27.0410  -30.3005   24.6104 C   0  0  0  0  0  0
  -27.6081  -32.4296   25.7503 C   0  0  0  0  0  0
  -27.5599  -37.1762   24.8460 C   0  0  0  0  0  0
  -21.4124  -29.3029   22.3709 N   0  0  0  0  0  0
  -26.4280  -37.3751   23.9442 N   0  0  0  0  0  0
  -24.6683  -31.0782   22.1016 N   0  0  0  0  0  0
  -23.4168  -28.8189   23.2981 O   0  0  0  0  0  0
  -28.3988  -26.7032   20.1201 O   0  0  0  0  0  0
  -26.5553  -34.8904   22.4673 O   0  0  0  0  0  0
  -23.5371  -32.1452   23.7522 O   0  0  0  0  0  0
  -29.9546  -18.7006   19.8364 C   0  0  0  0  0  0
  -29.4012  -19.9879   19.6671 C   0  0  0  0  0  0
  -26.9494  -23.8127   20.5663 C   0  0  0  0  0  0
  -28.5499  -19.9189   21.9423 C   0  0  0  0  0  0
  -29.8401  -18.0214   21.0700 C   0  0  0  0  0  0
  -28.1890  -24.1898   19.9637 C   0  0  0  0  0  0
  -28.7262  -20.6300   20.7298 C   0  0  0  0  0  0
  -29.1094  -18.6305   22.1163 C   0  0  0  0  0  0
  -27.0135  -22.4863   20.8933 C   0  0  0  0  0  0
  -28.9684  -23.0554   20.0235 C   0  0  0  0  0  0
  -30.6645  -16.7783   21.2879 C   0  0  0  0  0  0
  -28.5576  -25.5269   19.3131 C   0  0  0  0  0  0
  -28.2636  -21.9786   20.5712 N   0  0  0  0  0  0
  -30.0961  -15.5775   21.0322 N   0  0  0  0  0  0
  -31.8462  -16.9326   21.6258 O   0  0  0  0  0  0
  -26.0383  -21.6912   21.4149 O   0  0  0  0  0  0
  -30.2560  -22.8914   19.6040 O   0  0  0  0  0  0
  -28.9817  -18.0070   23.3129 F   0  0  0  0  0  0
  -31.4585  -12.3746   19.1491 H   0  0  0  0  0  0
  -30.2868  -11.3278   19.8816 H   0  0  0  0  0  0
  -29.7428  -11.7432   17.4602 H   0  0  0  0  0  0
  -29.6688  -13.4659   17.7591 H   0  0  0  0  0  0
  -27.8368  -11.2987   18.8498 H   0  0  0  0  0  0
  -27.3680  -12.5989   17.7916 H   0  0  0  0  0  0
  -27.6799  -14.2588   19.5301 H   0  0  0  0  0  0
  -28.6782  -12.0594   21.4092 H   0  0  0  0  0  0
  -28.4624  -13.7325   21.8315 H   0  0  0  0  0  0
  -25.2771   -9.5663   22.4776 H   0  0  0  0  0  0
  -23.9987   -7.4638   22.7486 H   0  0  0  0  0  0
  -21.0863   -8.8824   19.8960 H   0  0  0  0  0  0
  -22.3754  -10.9696   19.6174 H   0  0  0  0  0  0
  -21.2022   -7.6159   23.9722 H   0  0  0  0  0  0
  -21.1466   -6.0527   25.9070 H   0  0  0  0  0  0
  -22.0603   -2.7624   23.2848 H   0  0  0  0  0  0
  -22.4099  -11.9887   22.4773 H   0  0  0  0  0  0
  -21.1119  -13.1290   22.2594 H   0  0  0  0  0  0
  -24.6629  -15.8460   20.5252 H   0  0  0  0  0  0
  -26.2747  -15.6284   20.0734 H   0  0  0  0  0  0
  -26.7123  -32.5522   23.1155 H   0  0  0  0  0  0
  -25.0165  -33.9780   25.0551 H   0  0  0  0  0  0
  -22.6942  -31.3116   21.4067 H   0  0  0  0  0  0
  -23.3743  -35.9616   23.3228 H   0  0  0  0  0  0
  -24.3608  -36.8959   22.2061 H   0  0  0  0  0  0
  -23.7257  -37.6477   23.6699 H   0  0  0  0  0  0
  -26.0617  -31.5903   20.6077 H   0  0  0  0  0  0
  -26.8209  -30.8672   21.9975 H   0  0  0  0  0  0
  -28.0870  -29.0822   21.1722 H   0  0  0  0  0  0
  -25.9981  -25.9813   18.9854 H   0  0  0  0  0  0
  -23.9609  -27.3073   19.0306 H   0  0  0  0  0  0
  -23.7295  -30.6035   19.4073 H   0  0  0  0  0  0
  -22.7354  -29.2477   19.8654 H   0  0  0  0  0  0
  -25.1246  -36.1905   25.0825 H   0  0  0  0  0  0
  -20.9982  -28.3206   24.1407 H   0  0  0  0  0  0
  -20.5635  -26.2254   23.3594 H   0  0  0  0  0  0
  -21.6622  -26.7420   22.1220 H   0  0  0  0  0  0
  -19.6915  -25.6306   21.1211 H   0  0  0  0  0  0
  -19.6667  -27.3190   20.6709 H   0  0  0  0  0  0
  -17.4191  -26.6702   21.4014 H   0  0  0  0  0  0
  -18.0283  -26.0016   22.8989 H   0  0  0  0  0  0
  -19.7953  -30.7200   24.2337 H   0  0  0  0  0  0
  -17.5034  -31.6253   24.5139 H   0  0  0  0  0  0
  -15.5362  -30.2977   23.7591 H   0  0  0  0  0  0
  -15.8682  -28.0733   22.7157 H   0  0  0  0  0  0
  -24.5983  -30.7018   25.7914 H   0  0  0  0  0  0
  -24.9051  -32.2811   26.4981 H   0  0  0  0  0  0
  -25.8227  -30.8864   27.0259 H   0  0  0  0  0  0
  -26.2988  -29.6687   24.1224 H   0  0  0  0  0  0
  -27.4268  -29.7290   25.4560 H   0  0  0  0  0  0
  -27.8759  -30.4302   23.9219 H   0  0  0  0  0  0
  -27.2651  -33.3581   26.2078 H   0  0  0  0  0  0
  -28.3906  -32.6874   25.0357 H   0  0  0  0  0  0
  -28.0743  -31.8441   26.5443 H   0  0  0  0  0  0
  -28.2513  -38.0151   24.7577 H   0  0  0  0  0  0
  -28.1190  -36.2674   24.6167 H   0  0  0  0  0  0
  -27.2331  -37.1255   25.8860 H   0  0  0  0  0  0
  -20.9260  -29.8774   21.6971 H   0  0  0  0  0  0
  -26.0148  -38.2805   24.1488 H   0  0  0  0  0  0
  -30.5309  -18.2625   19.0327 H   0  0  0  0  0  0
  -29.5394  -20.5096   18.7305 H   0  0  0  0  0  0
  -26.0786  -24.4369   20.7008 H   0  0  0  0  0  0
  -28.0183  -20.3806   22.7611 H   0  0  0  0  0  0
  -28.0543  -25.6214   18.3504 H   0  0  0  0  0  0
  -29.6155  -25.4925   19.0578 H   0  0  0  0  0  0
  -29.0929  -15.5244   21.0758 H   0  0  0  0  0  0
  -25.2286  -22.1934   21.4284 H   0  0  0  0  0  0
  -30.5627  -23.7203   19.2541 H   0  0  0  0  0  0
  1 25  1  0  0  0
  1 30  2  0  0  0
  1 84  1  0  0  0
  2  3  1  0  0  0
  2 25  1  0  0  0
  2 89  1  0  0  0
  2 90  1  0  0  0
  3  4  1  0  0  0
  3 91  1  0  0  0
  3 92  1  0  0  0
  4  5  1  0  0  0
  4 93  1  0  0  0
  4 94  1  0  0  0
  5  6  1  0  0  0
  5 26  1  0  0  0
  5 95  1  0  0  0
  6 25  1  0  0  0
  6 96  1  0  0  0
  6 97  1  0  0  0
  7  8  2  0  0  0
  7 26  1  0  0  0
  7 29  1  0  0  0
  8  9  1  0  0  0
  8 22  1  0  0  0
  9 10  1  0  0  0
  9 27  2  0  0  0
 10 11  2  0  0  0
 10 15  1  0  0  0
 11 12  1  0  0  0
 11 98  1  0  0  0
 12 13  2  0  0  0
 12 99  1  0  0  0
 13 14  1  0  0  0
 13 31  1  0  0  0
 14 15  2  0  0  0
 14100  1  0  0  0
 15101  1  0  0  0
 16 17  2  0  0  0
 16 21  1  0  0  0
 16 31  1  0  0  0
 17 18  1  0  0  0
 17102  1  0  0  0
 18 19  2  0  0  0
 18103  1  0  0  0
 19 20  1  0  0  0
 19 24  1  0  0  0
 20 21  2  0  0  0
 20104  1  0  0  0
 21 23  1  0  0  0
 22 28  1  0  0  0
 22 32  2  0  0  0
 26 27  1  0  0  0
 28105  1  0  0  0
 28106  1  0  0  0
 29107  1  0  0  0
 29108  1  0  0  0
 33 34  1  0  0  0
 33 66  1  0  0  0
 33 70  2  0  0  0
 34 36  1  0  0  0
 34 59  1  0  0  0
 34109  1  0  0  0
 35 44  2  0  0  0
 35 45  1  0  0  0
 35 68  1  0  0  0
 36 56  1  0  0  0
 36110  1  0  0  0
 37 39  1  0  0  0
 37 47  1  0  0  0
 37 66  1  0  0  0
 37111  1  0  0  0
 38 43  2  0  0  0
 38 46  1  0  0  0
 38 47  1  0  0  0
 39 64  1  0  0  0
 39 67  2  0  0  0
 40 52  1  0  0  0
 40 53  2  0  0  0
 40 58  1  0  0  0
 41112  1  0  0  0
 41113  1  0  0  0
 41114  1  0  0  0
 41 48  1  0  0  0
 42 43  1  0  0  0
 42 66  1  0  0  0
 42115  1  0  0  0
 42116  1  0  0  0
 43 44  1  0  0  0
 44117  1  0  0  0
 45 46  2  0  0  0
 45118  1  0  0  0
 46119  1  0  0  0
 47120  1  0  0  0
 47121  1  0  0  0
 48 56  1  0  0  0
 48 65  1  0  0  0
 48122  1  0  0  0
 49 50  1  0  0  0
 49 53  1  0  0  0
 49 64  1  0  0  0
 49123  1  0  0  0
 50 51  1  0  0  0
 50124  1  0  0  0
 50125  1  0  0  0
 51 52  1  0  0  0
 51126  1  0  0  0
 51127  1  0  0  0
 52128  1  0  0  0
 52129  1  0  0  0
 53 54  1  0  0  0
 54 55  2  0  0  0
 54130  1  0  0  0
 55 57  1  0  0  0
 55131  1  0  0  0
 56 69  2  0  0  0
 57 58  2  0  0  0
 57132  1  0  0  0
 58133  1  0  0  0
 59 60  1  0  0  0
 59 61  1  0  0  0
 59 62  1  0  0  0
 60134  1  0  0  0
 60135  1  0  0  0
 60136  1  0  0  0
 61137  1  0  0  0
 61138  1  0  0  0
 61139  1  0  0  0
 62140  1  0  0  0
 62141  1  0  0  0
 62142  1  0  0  0
 63 65  1  0  0  0
 63143  1  0  0  0
 63144  1  0  0  0
 63145  1  0  0  0
 64146  1  0  0  0
 65147  1  0  0  0
 68 82  1  0  0  0
 71 72  2  0  0  0
 71 75  1  0  0  0
 71148  1  0  0  0
 72 77  1  0  0  0
 72149  1  0  0  0
 73 76  1  0  0  0
 73 79  2  0  0  0
 73150  1  0  0  0
 74 77  2  0  0  0
 74 78  1  0  0  0
 74151  1  0  0  0
 75 78  2  0  0  0
 75 81  1  0  0  0
 76 80  2  0  0  0
 76 82  1  0  0  0
 77 83  1  0  0  0
 78 88  1  0  0  0
 79 83  1  0  0  0
 79 86  1  0  0  0
 80 83  1  0  0  0
 80 87  1  0  0  0
 81 84  1  0  0  0
 81 85  2  0  0  0
 82152  1  0  0  0
 82153  1  0  0  0
 84154  1  0  0  0
 86155  1  0  0  0
 87156  1  0  0  0
M  ISO  4   1 100  68 101  82 101  84 100
M  END
> <chiral flag>
0

> <version>
0

> <s_m_source_file>
/data/baiqing/PycharmProjects/Reinvent-master-3.2/result/LINK_invent/BTK/process_docking_weight1_custom_product_contain_oxygen_bond_distance_aromatic_linkinvent_7_9_3/rearranged_h_0093.sdf

> <i_m_source_file_index>
70

> <r_mmod_Potential_Energy-OPLS-2005>
-39.1984786987305

> <r_mmod_Stretch_Energy-OPLS-2005>
39.221736907959

> <r_mmod_Bend_Energy-OPLS-2005>
108.278999328613

> <r_mmod_Torsional_Energy-OPLS-2005>
264.384857177734

> <r_mmod_Improper_Torsional_Energy-OPLS-2005>
6.09494781494141

> <r_mmod_Van_der_Waal_Energy-OPLS-2005>
156.186859130859

> <r_mmod_Electrostatic_Energy-OPLS-2005>
-390.275085449219

> <r_mmod_Solvation_Energy-OPLS-2005>
-242.866714477539

> <b_mmod_Minimization_Converged-OPLS-2005>
0

> <r_mmod_RMS_Derivative-OPLS-2005>
3.95030736923218

$$$$
71
                    3D
 Structure written by MMmdl.
153162  0  0  1  0            999 V2000
  -30.6321  -14.7025   20.5483 C   0  0  0  0  0  0
  -30.4423  -12.4500   19.4668 C   0  0  0  0  0  0
  -29.5116  -12.5438   18.2368 C   0  0  0  0  0  0
  -28.0374  -12.3555   18.6500 C   0  0  0  0  0  0
  -27.6502  -13.2311   19.8707 C   0  0  2  0  0  0
  -28.6974  -13.0927   21.0011 C   0  0  0  0  0  0
  -25.2471  -13.8234   20.5667 C   0  0  0  0  0  0
  -24.1756  -13.0459   20.9162 C   0  0  0  0  0  0
  -24.6365  -11.6941   20.8723 C   0  0  0  0  0  0
  -23.9043  -10.4309   21.0379 C   0  0  0  0  0  0
  -24.3593   -9.4230   21.9152 C   0  0  0  0  0  0
  -23.6279   -8.2265   22.0733 C   0  0  0  0  0  0
  -22.4261   -8.0281   21.3534 C   0  0  0  0  0  0
  -21.9887   -9.0251   20.4646 C   0  0  0  0  0  0
  -22.7219  -10.2135   20.3045 C   0  0  0  0  0  0
  -21.6836   -6.0711   22.5281 C   0  0  0  0  0  0
  -21.4017   -6.5615   23.8211 C   0  0  0  0  0  0
  -21.3665   -5.6768   24.9183 C   0  0  0  0  0  0
  -21.6048   -4.3049   24.7245 C   0  0  0  0  0  0
  -21.8809   -3.8124   23.4370 C   0  0  0  0  0  0
  -21.9177   -4.6926   22.3417 C   0  0  0  0  0  0
  -22.7766  -13.5213   21.1888 C   0  0  0  0  0  0
  -22.1625   -4.2107   21.0997 F   0  0  0  0  0  0
  -21.5640   -3.4534   25.7766 F   0  0  0  0  0  0
  -30.0079  -13.4743   20.4487 N   0  0  0  0  0  0
  -26.2951  -12.9435   20.3377 N   0  0  0  0  0  0
  -25.9308  -11.6593   20.5808 N   0  0  0  0  0  0
  -22.0443  -12.8196   22.0487 N   0  0  0  0  0  0
  -25.4086  -15.1950   20.4046 N   0  0  0  0  0  0
  -31.7241  -14.8905   20.0000 O   0  0  0  0  0  0
  -21.6623   -6.8867   21.4255 O   0  0  0  0  0  0
  -22.3418  -14.5497   20.6736 O   0  0  0  0  0  0
  -24.6256  -31.8542   23.1963 C   0  0  0  0  0  0
  -25.9078  -32.4767   23.8312 C   0  0  1  0  0  0
  -27.2167  -27.2611   20.1174 C   0  0  0  0  0  0
  -25.5838  -33.8588   24.2166 N   0  0  0  0  0  0
  -23.4265  -30.4725   21.5376 C   0  0  2  0  0  0
  -24.8803  -28.9230   20.1024 C   0  0  0  0  0  0
  -22.7474  -29.4571   22.4901 C   0  0  0  0  0  0
  -18.0259  -28.1407   22.8484 C   0  0  0  0  0  0
  -24.1481  -36.7346   23.2645 C   0  0  0  0  0  0
  -25.9734  -30.7538   21.3889 C   0  0  0  0  0  0
  -26.0477  -29.3789   20.7301 C   0  0  0  0  0  0
  -27.2209  -28.5548   20.7356 C   0  0  0  0  0  0
  -26.0436  -26.8895   19.4333 C   0  0  0  0  0  0
  -24.8848  -27.6872   19.4376 C   0  0  0  0  0  0
  -23.6455  -29.8005   20.1567 C   0  0  0  0  0  0
  -25.4114  -36.3082   24.0286 C   0  0  1  0  0  0
  -20.5862  -28.3702   23.1269 C   0  0  2  0  0  0
  -20.6771  -26.9427   22.5394 C   0  0  0  0  0  0
  -19.5733  -26.6379   21.5215 C   0  0  0  0  0  0
  -18.1902  -26.7951   22.1620 C   0  0  0  0  0  0
  -19.1520  -28.8879   23.2868 C   0  0  0  0  0  0
  -18.9479  -30.1490   23.8870 C   0  0  0  0  0  0
  -17.6484  -30.6622   24.0558 C   0  0  0  0  0  0
  -25.9037  -34.9468   23.5032 C   0  0  0  0  0  0
  -16.5364  -29.9110   23.6374 C   0  0  0  0  0  0
  -16.7258  -28.6531   23.0400 C   0  0  0  0  0  0
  -26.4416  -31.6685   25.0786 C   0  0  0  0  0  0
  -25.3561  -31.3912   26.1446 C   0  0  0  0  0  0
  -27.0343  -30.3108   24.6379 C   0  0  0  0  0  0
  -27.5905  -32.4553   25.7513 C   0  0  0  0  0  0
  -27.5593  -37.1767   24.8400 C   0  0  0  0  0  0
  -21.4182  -29.3026   22.3653 N   0  0  0  0  0  0
  -26.4272  -37.3800   23.9403 N   0  0  0  0  0  0
  -24.6931  -31.0465   22.0944 N   0  0  0  0  0  0
  -23.4168  -28.8102   23.3007 O   0  0  0  0  0  0
  -28.2799  -26.3322   20.1395 O   0  0  0  0  0  0
  -26.5663  -34.8936   22.4645 O   0  0  0  0  0  0
  -23.5406  -32.1388   23.7211 O   0  0  0  0  0  0
  -29.3427  -23.2636   19.0817 C   0  0  0  0  0  0
  -28.0894  -19.2376   21.1812 C   0  0  0  0  0  0
  -28.6118  -23.6037   20.2647 C   0  0  0  0  0  0
  -28.2552  -17.8409   21.5115 C   0  0  0  0  0  0
  -29.4366  -17.2549   21.0783 C   0  0  0  0  0  0
  -29.6202  -21.9104   19.0788 C   0  0  0  0  0  0
  -28.5341  -22.3723   20.9244 C   0  0  0  0  0  0
  -29.1536  -19.8381   20.5455 C   0  0  0  0  0  0
  -29.9777  -15.8720   21.4754 C   0  0  0  0  0  0
  -27.9435  -24.9839   20.7040 C   0  0  0  0  0  0
  -29.1152  -21.2839   20.2151 N   0  0  0  0  0  0
  -27.2446  -17.2311   22.2785 N   0  0  0  0  0  0
  -29.8969  -15.5942   22.6795 O   0  0  0  0  0  0
  -30.2622  -21.1880   18.1179 O   0  0  0  0  0  0
  -27.9551  -22.1332   22.1348 O   0  0  0  0  0  0
  -30.3683  -18.5409   20.2411 S   0  0  0  0  0  0
  -31.4828  -12.5768   19.1594 H   0  0  0  0  0  0
  -30.4005  -11.4564   19.9143 H   0  0  0  0  0  0
  -29.7986  -11.8053   17.4852 H   0  0  0  0  0  0
  -29.6305  -13.5216   17.7646 H   0  0  0  0  0  0
  -27.8977  -11.3024   18.9001 H   0  0  0  0  0  0
  -27.3786  -12.5660   17.8072 H   0  0  0  0  0  0
  -27.6644  -14.2662   19.5299 H   0  0  0  0  0  0
  -28.7359  -12.0655   21.3687 H   0  0  0  0  0  0
  -28.4120  -13.6934   21.8651 H   0  0  0  0  0  0
  -25.2749   -9.5672   22.4703 H   0  0  0  0  0  0
  -23.9979   -7.4636   22.7440 H   0  0  0  0  0  0
  -21.0814   -8.8802   19.8929 H   0  0  0  0  0  0
  -22.3713  -10.9663   19.6128 H   0  0  0  0  0  0
  -21.2015   -7.6121   23.9719 H   0  0  0  0  0  0
  -21.1487   -6.0502   25.9082 H   0  0  0  0  0  0
  -22.0579   -2.7592   23.2908 H   0  0  0  0  0  0
  -22.4087  -11.9871   22.4872 H   0  0  0  0  0  0
  -21.1060  -13.1179   22.2714 H   0  0  0  0  0  0
  -24.6647  -15.8569   20.5989 H   0  0  0  0  0  0
  -26.3056  -15.6568   20.3011 H   0  0  0  0  0  0
  -26.7140  -32.5406   23.1060 H   0  0  0  0  0  0
  -24.9930  -33.9720   25.0276 H   0  0  0  0  0  0
  -22.7210  -31.2929   21.3871 H   0  0  0  0  0  0
  -23.3743  -35.9651   23.3191 H   0  0  0  0  0  0
  -24.3567  -36.9143   22.2078 H   0  0  0  0  0  0
  -23.7229  -37.6501   23.6799 H   0  0  0  0  0  0
  -26.1181  -31.5054   20.6145 H   0  0  0  0  0  0
  -26.8459  -30.7998   22.0267 H   0  0  0  0  0  0
  -28.1062  -28.8812   21.2622 H   0  0  0  0  0  0
  -26.0141  -25.9545   18.8901 H   0  0  0  0  0  0
  -23.9992  -27.3473   18.9174 H   0  0  0  0  0  0
  -23.7431  -30.5666   19.3872 H   0  0  0  0  0  0
  -22.7693  -29.2133   19.8715 H   0  0  0  0  0  0
  -25.1281  -36.1879   25.0774 H   0  0  0  0  0  0
  -20.9938  -28.3300   24.1399 H   0  0  0  0  0  0
  -20.5729  -26.2296   23.3602 H   0  0  0  0  0  0
  -21.6639  -26.7480   22.1159 H   0  0  0  0  0  0
  -19.6902  -25.6268   21.1312 H   0  0  0  0  0  0
  -19.6707  -27.3145   20.6729 H   0  0  0  0  0  0
  -17.4176  -26.6702   21.4016 H   0  0  0  0  0  0
  -18.0308  -26.0079   22.9020 H   0  0  0  0  0  0
  -19.7958  -30.7315   24.2212 H   0  0  0  0  0  0
  -17.5052  -31.6311   24.5136 H   0  0  0  0  0  0
  -15.5378  -30.3036   23.7727 H   0  0  0  0  0  0
  -15.8649  -28.0866   22.7170 H   0  0  0  0  0  0
  -24.5614  -30.7422   25.7720 H   0  0  0  0  0  0
  -24.8899  -32.3152   26.4885 H   0  0  0  0  0  0
  -25.7768  -30.9002   27.0224 H   0  0  0  0  0  0
  -26.3006  -29.6774   24.1396 H   0  0  0  0  0  0
  -27.3969  -29.7464   25.4973 H   0  0  0  0  0  0
  -27.8842  -30.4366   23.9688 H   0  0  0  0  0  0
  -27.2414  -33.3844   26.2015 H   0  0  0  0  0  0
  -28.3689  -32.7197   25.0355 H   0  0  0  0  0  0
  -28.0574  -31.8806   26.5500 H   0  0  0  0  0  0
  -28.2446  -38.0222   24.7717 H   0  0  0  0  0  0
  -28.1290  -36.2804   24.5926 H   0  0  0  0  0  0
  -27.2361  -37.1033   25.8796 H   0  0  0  0  0  0
  -20.9379  -29.8758   21.6858 H   0  0  0  0  0  0
  -26.0142  -38.2820   24.1571 H   0  0  0  0  0  0
  -29.6046  -23.9499   18.2905 H   0  0  0  0  0  0
  -27.1957  -19.7760   21.4633 H   0  0  0  0  0  0
  -28.1227  -25.0679   21.7767 H   0  0  0  0  0  0
  -26.8738  -24.7915   20.6361 H   0  0  0  0  0  0
  -26.6256  -17.8646   22.7778 H   0  0  0  0  0  0
  -27.5406  -16.4776   22.8943 H   0  0  0  0  0  0
  -30.5821  -21.7996   17.4616 H   0  0  0  0  0  0
  -27.7894  -22.9702   22.5515 H   0  0  0  0  0  0
  1 25  1  0  0  0
  1 30  2  0  0  0
  1 79  1  0  0  0
  2  3  1  0  0  0
  2 25  1  0  0  0
  2 87  1  0  0  0
  2 88  1  0  0  0
  3  4  1  0  0  0
  3 89  1  0  0  0
  3 90  1  0  0  0
  4  5  1  0  0  0
  4 91  1  0  0  0
  4 92  1  0  0  0
  5  6  1  0  0  0
  5 26  1  0  0  0
  5 93  1  0  0  0
  6 25  1  0  0  0
  6 94  1  0  0  0
  6 95  1  0  0  0
  7  8  2  0  0  0
  7 26  1  0  0  0
  7 29  1  0  0  0
  8  9  1  0  0  0
  8 22  1  0  0  0
  9 10  1  0  0  0
  9 27  2  0  0  0
 10 11  2  0  0  0
 10 15  1  0  0  0
 11 12  1  0  0  0
 11 96  1  0  0  0
 12 13  2  0  0  0
 12 97  1  0  0  0
 13 14  1  0  0  0
 13 31  1  0  0  0
 14 15  2  0  0  0
 14 98  1  0  0  0
 15 99  1  0  0  0
 16 17  2  0  0  0
 16 21  1  0  0  0
 16 31  1  0  0  0
 17 18  1  0  0  0
 17100  1  0  0  0
 18 19  2  0  0  0
 18101  1  0  0  0
 19 20  1  0  0  0
 19 24  1  0  0  0
 20 21  2  0  0  0
 20102  1  0  0  0
 21 23  1  0  0  0
 22 28  1  0  0  0
 22 32  2  0  0  0
 26 27  1  0  0  0
 28103  1  0  0  0
 28104  1  0  0  0
 29105  1  0  0  0
 29106  1  0  0  0
 33 34  1  0  0  0
 33 66  1  0  0  0
 33 70  2  0  0  0
 34 36  1  0  0  0
 34 59  1  0  0  0
 34107  1  0  0  0
 35 44  2  0  0  0
 35 45  1  0  0  0
 35 68  1  0  0  0
 36 56  1  0  0  0
 36108  1  0  0  0
 37 39  1  0  0  0
 37 47  1  0  0  0
 37 66  1  0  0  0
 37109  1  0  0  0
 38 43  2  0  0  0
 38 46  1  0  0  0
 38 47  1  0  0  0
 39 64  1  0  0  0
 39 67  2  0  0  0
 40 52  1  0  0  0
 40 53  2  0  0  0
 40 58  1  0  0  0
 41110  1  0  0  0
 41111  1  0  0  0
 41112  1  0  0  0
 41 48  1  0  0  0
 42 43  1  0  0  0
 42 66  1  0  0  0
 42113  1  0  0  0
 42114  1  0  0  0
 43 44  1  0  0  0
 44115  1  0  0  0
 45 46  2  0  0  0
 45116  1  0  0  0
 46117  1  0  0  0
 47118  1  0  0  0
 47119  1  0  0  0
 48 56  1  0  0  0
 48 65  1  0  0  0
 48120  1  0  0  0
 49 50  1  0  0  0
 49 53  1  0  0  0
 49 64  1  0  0  0
 49121  1  0  0  0
 50 51  1  0  0  0
 50122  1  0  0  0
 50123  1  0  0  0
 51 52  1  0  0  0
 51124  1  0  0  0
 51125  1  0  0  0
 52126  1  0  0  0
 52127  1  0  0  0
 53 54  1  0  0  0
 54 55  2  0  0  0
 54128  1  0  0  0
 55 57  1  0  0  0
 55129  1  0  0  0
 56 69  2  0  0  0
 57 58  2  0  0  0
 57130  1  0  0  0
 58131  1  0  0  0
 59 60  1  0  0  0
 59 61  1  0  0  0
 59 62  1  0  0  0
 60132  1  0  0  0
 60133  1  0  0  0
 60134  1  0  0  0
 61135  1  0  0  0
 61136  1  0  0  0
 61137  1  0  0  0
 62138  1  0  0  0
 62139  1  0  0  0
 62140  1  0  0  0
 63 65  1  0  0  0
 63141  1  0  0  0
 63142  1  0  0  0
 63143  1  0  0  0
 64144  1  0  0  0
 65145  1  0  0  0
 68 80  1  0  0  0
 71 73  1  0  0  0
 71 76  2  0  0  0
 71146  1  0  0  0
 72 74  1  0  0  0
 72 78  2  0  0  0
 72147  1  0  0  0
 73 77  2  0  0  0
 73 80  1  0  0  0
 74 75  2  0  0  0
 74 82  1  0  0  0
 75 79  1  0  0  0
 75 86  1  0  0  0
 76 81  1  0  0  0
 76 84  1  0  0  0
 77 81  1  0  0  0
 77 85  1  0  0  0
 78 81  1  0  0  0
 78 86  1  0  0  0
 79 83  2  0  0  0
 80148  1  0  0  0
 80149  1  0  0  0
 82150  1  0  0  0
 82151  1  0  0  0
 84152  1  0  0  0
 85153  1  0  0  0
M  ISO  4   1 100  68 101  79 100  80 101
M  END
> <chiral flag>
0

> <version>
0

> <s_m_source_file>
/data/baiqing/PycharmProjects/Reinvent-master-3.2/result/LINK_invent/BTK/process_docking_weight1_custom_product_contain_oxygen_bond_distance_aromatic_linkinvent_7_9_3/rearranged_h_0093.sdf

> <i_m_source_file_index>
71

> <r_mmod_Potential_Energy-OPLS-2005>
314.098785400391

> <r_mmod_Stretch_Energy-OPLS-2005>
112.367454528809

> <r_mmod_Bend_Energy-OPLS-2005>
181.631530761719

> <r_mmod_Torsional_Energy-OPLS-2005>
234.67268371582

> <r_mmod_Improper_Torsional_Energy-OPLS-2005>
9.20229911804199

> <r_mmod_Van_der_Waal_Energy-OPLS-2005>
112.496711730957

> <r_mmod_Electrostatic_Energy-OPLS-2005>
-192.120834350586

> <r_mmod_Solvation_Energy-OPLS-2005>
-223.258575439453

> <b_mmod_Minimization_Converged-OPLS-2005>
0

> <r_mmod_RMS_Derivative-OPLS-2005>
6.03051328659058

$$$$
72
                    3D
 Structure written by MMmdl.
161170  0  0  1  0            999 V2000
  -30.7160  -14.4654   20.4068 C   0  0  0  0  0  0
  -30.4177  -12.2460   19.4285 C   0  0  0  0  0  0
  -29.4687  -12.3212   18.2096 C   0  0  0  0  0  0
  -27.9913  -12.2801   18.6410 C   0  0  0  0  0  0
  -27.6490  -13.1901   19.8530 C   0  0  2  0  0  0
  -28.7076  -13.0667   20.9711 C   0  0  0  0  0  0
  -25.2589  -13.8146   20.5730 C   0  0  0  0  0  0
  -24.1821  -13.0442   20.9219 C   0  0  0  0  0  0
  -24.6349  -11.6903   20.8792 C   0  0  0  0  0  0
  -23.9028  -10.4290   21.0431 C   0  0  0  0  0  0
  -24.3595   -9.4204   21.9195 C   0  0  0  0  0  0
  -23.6294   -8.2227   22.0747 C   0  0  0  0  0  0
  -22.4283   -8.0261   21.3528 C   0  0  0  0  0  0
  -21.9906   -9.0239   20.4641 C   0  0  0  0  0  0
  -22.7214  -10.2131   20.3068 C   0  0  0  0  0  0
  -21.6855   -6.0730   22.5276 C   0  0  0  0  0  0
  -21.4010   -6.5640   23.8206 C   0  0  0  0  0  0
  -21.3656   -5.6794   24.9171 C   0  0  0  0  0  0
  -21.6049   -4.3057   24.7225 C   0  0  0  0  0  0
  -21.8819   -3.8148   23.4347 C   0  0  0  0  0  0
  -21.9197   -4.6959   22.3400 C   0  0  0  0  0  0
  -22.7843  -13.5243   21.1856 C   0  0  0  0  0  0
  -22.1664   -4.2144   21.0979 F   0  0  0  0  0  0
  -21.5628   -3.4542   25.7736 F   0  0  0  0  0  0
  -30.0303  -13.2970   20.3736 N   0  0  0  0  0  0
  -26.2987  -12.9273   20.3414 N   0  0  0  0  0  0
  -25.9269  -11.6462   20.5899 N   0  0  0  0  0  0
  -22.0477  -12.8235   22.0409 N   0  0  0  0  0  0
  -25.4372  -15.1857   20.4126 N   0  0  0  0  0  0
  -31.9390  -14.5493   20.2806 O   0  0  0  0  0  0
  -21.6642   -6.8864   21.4234 O   0  0  0  0  0  0
  -22.3537  -14.5543   20.6686 O   0  0  0  0  0  0
  -24.6066  -31.8732   23.2153 C   0  0  0  0  0  0
  -25.8991  -32.4853   23.8426 C   0  0  1  0  0  0
  -27.2533  -27.5038   20.1119 C   0  0  0  0  0  0
  -25.5880  -33.8648   24.2371 N   0  0  0  0  0  0
  -23.3917  -30.4965   21.5509 C   0  0  2  0  0  0
  -24.8444  -28.9716   20.1124 C   0  0  0  0  0  0
  -22.7369  -29.4681   22.4994 C   0  0  0  0  0  0
  -18.0268  -28.1381   22.8494 C   0  0  0  0  0  0
  -24.1484  -36.7327   23.2640 C   0  0  0  0  0  0
  -25.9094  -30.8686   21.3528 C   0  0  0  0  0  0
  -25.9933  -29.5062   20.7063 C   0  0  0  0  0  0
  -27.1985  -28.7842   20.7029 C   0  0  0  0  0  0
  -26.0969  -26.9768   19.5010 C   0  0  0  0  0  0
  -24.8883  -27.7026   19.5044 C   0  0  0  0  0  0
  -23.5999  -29.8280   20.1633 C   0  0  0  0  0  0
  -25.4100  -36.3132   24.0349 C   0  0  1  0  0  0
  -20.5853  -28.3654   23.1342 C   0  0  2  0  0  0
  -20.6754  -26.9400   22.5427 C   0  0  0  0  0  0
  -19.5738  -26.6394   21.5214 C   0  0  0  0  0  0
  -18.1916  -26.7931   22.1621 C   0  0  0  0  0  0
  -19.1515  -28.8831   23.2922 C   0  0  0  0  0  0
  -18.9444  -30.1438   23.8930 C   0  0  0  0  0  0
  -17.6447  -30.6584   24.0572 C   0  0  0  0  0  0
  -25.9017  -34.9494   23.5154 C   0  0  0  0  0  0
  -16.5339  -29.9094   23.6318 C   0  0  0  0  0  0
  -16.7258  -28.6515   23.0332 C   0  0  0  0  0  0
  -26.4460  -31.6599   25.0714 C   0  0  0  0  0  0
  -25.3776  -31.3667   26.1498 C   0  0  0  0  0  0
  -27.0271  -30.3059   24.6006 C   0  0  0  0  0  0
  -27.6059  -32.4297   25.7461 C   0  0  0  0  0  0
  -27.5580  -37.1816   24.8467 C   0  0  0  0  0  0
  -21.4103  -29.3029   22.3745 N   0  0  0  0  0  0
  -26.4294  -37.3807   23.9410 N   0  0  0  0  0  0
  -24.6536  -31.0913   22.1005 N   0  0  0  0  0  0
  -23.4177  -28.8232   23.3012 O   0  0  0  0  0  0
  -28.3948  -26.7417   20.1127 O   0  0  0  0  0  0
  -26.5570  -34.8934   22.4709 O   0  0  0  0  0  0
  -23.5280  -32.1435   23.7603 O   0  0  0  0  0  0
  -29.7689  -20.2369   19.7627 C   0  0  0  0  0  0
  -29.8969  -19.5739   22.1056 C   0  0  0  0  0  0
  -29.9651  -21.5729   20.1207 C   0  0  0  0  0  0
  -30.0587  -20.9297   22.4709 C   0  0  0  0  0  0
  -30.9128  -25.2967   22.5461 C   0  0  0  0  0  0
  -29.7083  -19.2344   20.7476 C   0  0  0  0  0  0
  -29.8255  -25.5440   21.6553 C   0  0  0  0  0  0
  -30.0757  -21.9352   21.4756 C   0  0  0  0  0  0
  -31.1096  -23.9440   22.5973 C   0  0  0  0  0  0
  -29.3832  -24.3155   21.2549 C   0  0  0  0  0  0
  -29.5619  -17.8820   20.2300 C   0  0  0  0  0  0
  -30.0253  -16.7206   20.7322 C   0  0  0  0  0  0
  -29.8987  -15.6721   18.5202 C   0  0  0  0  0  0
  -29.2437  -26.8751   21.2602 C   0  0  0  0  0  0
  -30.1831  -23.3115   21.7824 N   0  0  0  0  0  0
  -29.9819  -15.5224   19.9957 N   0  0  0  0  0  0
  -32.0547  -23.2424   23.2821 O   0  0  0  0  0  0
  -28.3271  -24.0298   20.4409 O   0  0  0  0  0  0
  -31.4549  -12.3399   19.1033 H   0  0  0  0  0  0
  -30.3408  -11.2732   19.9174 H   0  0  0  0  0  0
  -29.6696  -11.4757   17.5502 H   0  0  0  0  0  0
  -29.6465  -13.1905   17.5884 H   0  0  0  0  0  0
  -27.7759  -11.2422   18.8968 H   0  0  0  0  0  0
  -27.3418  -12.5173   17.7977 H   0  0  0  0  0  0
  -27.6564  -14.2139   19.4888 H   0  0  0  0  0  0
  -28.6716  -12.0788   21.4315 H   0  0  0  0  0  0
  -28.5119  -13.7918   21.7634 H   0  0  0  0  0  0
  -25.2726   -9.5700   22.4786 H   0  0  0  0  0  0
  -24.0006   -7.4626   22.7470 H   0  0  0  0  0  0
  -21.0833   -8.8761   19.8955 H   0  0  0  0  0  0
  -22.3654  -10.9681   19.6199 H   0  0  0  0  0  0
  -21.1993   -7.6147   23.9702 H   0  0  0  0  0  0
  -21.1478   -6.0529   25.9075 H   0  0  0  0  0  0
  -22.0600   -2.7614   23.2850 H   0  0  0  0  0  0
  -22.4096  -11.9911   22.4820 H   0  0  0  0  0  0
  -21.1096  -13.1262   22.2601 H   0  0  0  0  0  0
  -24.6824  -15.8528   20.5272 H   0  0  0  0  0  0
  -26.3099  -15.6179   20.1342 H   0  0  0  0  0  0
  -26.7072  -32.5620   23.1214 H   0  0  0  0  0  0
  -25.0055  -33.9816   25.0532 H   0  0  0  0  0  0
  -22.6767  -31.3107   21.4146 H   0  0  0  0  0  0
  -23.3734  -35.9675   23.3338 H   0  0  0  0  0  0
  -24.3577  -36.8892   22.2047 H   0  0  0  0  0  0
  -23.7254  -37.6555   23.6619 H   0  0  0  0  0  0
  -26.0038  -31.6379   20.5847 H   0  0  0  0  0  0
  -26.8028  -30.9312   21.9619 H   0  0  0  0  0  0
  -28.0782  -29.2232   21.1525 H   0  0  0  0  0  0
  -26.1289  -26.0007   19.0379 H   0  0  0  0  0  0
  -24.0067  -27.2838   19.0390 H   0  0  0  0  0  0
  -23.7041  -30.6056   19.4051 H   0  0  0  0  0  0
  -22.7266  -29.2441   19.8664 H   0  0  0  0  0  0
  -25.1274  -36.2005   25.0841 H   0  0  0  0  0  0
  -20.9961  -28.3218   24.1455 H   0  0  0  0  0  0
  -20.5659  -26.2258   23.3601 H   0  0  0  0  0  0
  -21.6625  -26.7447   22.1224 H   0  0  0  0  0  0
  -19.6898  -25.6311   21.1230 H   0  0  0  0  0  0
  -19.6691  -27.3214   20.6752 H   0  0  0  0  0  0
  -17.4192  -26.6687   21.4017 H   0  0  0  0  0  0
  -18.0313  -26.0069   22.9010 H   0  0  0  0  0  0
  -19.7919  -30.7241   24.2318 H   0  0  0  0  0  0
  -17.5005  -31.6265   24.5171 H   0  0  0  0  0  0
  -15.5341  -30.3003   23.7625 H   0  0  0  0  0  0
  -15.8660  -28.0854   22.7009 H   0  0  0  0  0  0
  -24.5933  -30.7026   25.7848 H   0  0  0  0  0  0
  -24.8990  -32.2812   26.5012 H   0  0  0  0  0  0
  -25.8183  -30.8802   27.0211 H   0  0  0  0  0  0
  -26.2767  -29.6834   24.1123 H   0  0  0  0  0  0
  -27.4137  -29.7269   25.4402 H   0  0  0  0  0  0
  -27.8563  -30.4396   23.9054 H   0  0  0  0  0  0
  -27.2696  -33.3573   26.2105 H   0  0  0  0  0  0
  -28.3838  -32.6900   25.0271 H   0  0  0  0  0  0
  -28.0775  -31.8388   26.5324 H   0  0  0  0  0  0
  -28.2620  -38.0091   24.7491 H   0  0  0  0  0  0
  -28.1049  -36.2622   24.6316 H   0  0  0  0  0  0
  -27.2301  -37.1502   25.8872 H   0  0  0  0  0  0
  -20.9233  -29.8768   21.7005 H   0  0  0  0  0  0
  -26.0192  -38.2893   24.1398 H   0  0  0  0  0  0
  -29.6771  -19.9875   18.7141 H   0  0  0  0  0  0
  -29.8922  -18.8082   22.8679 H   0  0  0  0  0  0
  -30.0043  -22.3267   19.3475 H   0  0  0  0  0  0
  -30.1651  -21.1985   23.5117 H   0  0  0  0  0  0
  -31.4929  -26.0391   23.0760 H   0  0  0  0  0  0
  -29.0170  -17.8628   19.2979 H   0  0  0  0  0  0
  -30.5063  -16.6454   21.6997 H   0  0  0  0  0  0
  -28.8824  -15.5278   18.1547 H   0  0  0  0  0  0
  -30.5588  -14.9844   17.9932 H   0  0  0  0  0  0
  -30.2585  -16.6318   18.1521 H   0  0  0  0  0  0
  -30.0464  -27.5823   21.0473 H   0  0  0  0  0  0
  -28.7044  -27.2346   22.1381 H   0  0  0  0  0  0
  -32.5894  -23.8670   23.7629 H   0  0  0  0  0  0
  -27.9927  -24.8670   20.1267 H   0  0  0  0  0  0
  1 25  1  0  0  0
  1 30  2  0  0  0
  1 86  1  0  0  0
  2  3  1  0  0  0
  2 25  1  0  0  0
  2 89  1  0  0  0
  2 90  1  0  0  0
  3  4  1  0  0  0
  3 91  1  0  0  0
  3 92  1  0  0  0
  4  5  1  0  0  0
  4 93  1  0  0  0
  4 94  1  0  0  0
  5  6  1  0  0  0
  5 26  1  0  0  0
  5 95  1  0  0  0
  6 25  1  0  0  0
  6 96  1  0  0  0
  6 97  1  0  0  0
  7  8  2  0  0  0
  7 26  1  0  0  0
  7 29  1  0  0  0
  8  9  1  0  0  0
  8 22  1  0  0  0
  9 10  1  0  0  0
  9 27  2  0  0  0
 10 11  2  0  0  0
 10 15  1  0  0  0
 11 12  1  0  0  0
 11 98  1  0  0  0
 12 13  2  0  0  0
 12 99  1  0  0  0
 13 14  1  0  0  0
 13 31  1  0  0  0
 14 15  2  0  0  0
 14100  1  0  0  0
 15101  1  0  0  0
 16 17  2  0  0  0
 16 21  1  0  0  0
 16 31  1  0  0  0
 17 18  1  0  0  0
 17102  1  0  0  0
 18 19  2  0  0  0
 18103  1  0  0  0
 19 20  1  0  0  0
 19 24  1  0  0  0
 20 21  2  0  0  0
 20104  1  0  0  0
 21 23  1  0  0  0
 22 28  1  0  0  0
 22 32  2  0  0  0
 26 27  1  0  0  0
 28105  1  0  0  0
 28106  1  0  0  0
 29107  1  0  0  0
 29108  1  0  0  0
 33 34  1  0  0  0
 33 66  1  0  0  0
 33 70  2  0  0  0
 34 36  1  0  0  0
 34 59  1  0  0  0
 34109  1  0  0  0
 35 44  2  0  0  0
 35 45  1  0  0  0
 35 68  1  0  0  0
 36 56  1  0  0  0
 36110  1  0  0  0
 37 39  1  0  0  0
 37 47  1  0  0  0
 37 66  1  0  0  0
 37111  1  0  0  0
 38 43  2  0  0  0
 38 46  1  0  0  0
 38 47  1  0  0  0
 39 64  1  0  0  0
 39 67  2  0  0  0
 40 52  1  0  0  0
 40 53  2  0  0  0
 40 58  1  0  0  0
 41112  1  0  0  0
 41113  1  0  0  0
 41114  1  0  0  0
 41 48  1  0  0  0
 42 43  1  0  0  0
 42 66  1  0  0  0
 42115  1  0  0  0
 42116  1  0  0  0
 43 44  1  0  0  0
 44117  1  0  0  0
 45 46  2  0  0  0
 45118  1  0  0  0
 46119  1  0  0  0
 47120  1  0  0  0
 47121  1  0  0  0
 48 56  1  0  0  0
 48 65  1  0  0  0
 48122  1  0  0  0
 49 50  1  0  0  0
 49 53  1  0  0  0
 49 64  1  0  0  0
 49123  1  0  0  0
 50 51  1  0  0  0
 50124  1  0  0  0
 50125  1  0  0  0
 51 52  1  0  0  0
 51126  1  0  0  0
 51127  1  0  0  0
 52128  1  0  0  0
 52129  1  0  0  0
 53 54  1  0  0  0
 54 55  2  0  0  0
 54130  1  0  0  0
 55 57  1  0  0  0
 55131  1  0  0  0
 56 69  2  0  0  0
 57 58  2  0  0  0
 57132  1  0  0  0
 58133  1  0  0  0
 59 60  1  0  0  0
 59 61  1  0  0  0
 59 62  1  0  0  0
 60134  1  0  0  0
 60135  1  0  0  0
 60136  1  0  0  0
 61137  1  0  0  0
 61138  1  0  0  0
 61139  1  0  0  0
 62140  1  0  0  0
 62141  1  0  0  0
 62142  1  0  0  0
 63 65  1  0  0  0
 63143  1  0  0  0
 63144  1  0  0  0
 63145  1  0  0  0
 64146  1  0  0  0
 65147  1  0  0  0
 68 84  1  0  0  0
 71 73  2  0  0  0
 71 76  1  0  0  0
 71148  1  0  0  0
 72 74  1  0  0  0
 72 76  2  0  0  0
 72149  1  0  0  0
 73 78  1  0  0  0
 73150  1  0  0  0
 74 78  2  0  0  0
 74151  1  0  0  0
 75 77  1  0  0  0
 75 79  2  0  0  0
 75152  1  0  0  0
 76 81  1  0  0  0
 77 80  2  0  0  0
 77 84  1  0  0  0
 78 85  1  0  0  0
 79 85  1  0  0  0
 79 87  1  0  0  0
 80 85  1  0  0  0
 80 88  1  0  0  0
 81 82  2  0  0  0
 81153  1  0  0  0
 82 86  1  0  0  0
 82154  1  0  0  0
 83 86  1  0  0  0
 83155  1  0  0  0
 83156  1  0  0  0
 83157  1  0  0  0
 84158  1  0  0  0
 84159  1  0  0  0
 87160  1  0  0  0
 88161  1  0  0  0
M  ISO  4   1 100  68 101  84 101  86 100
M  END
> <chiral flag>
0

> <version>
0

> <s_m_source_file>
/data/baiqing/PycharmProjects/Reinvent-master-3.2/result/LINK_invent/BTK/process_docking_weight1_custom_product_contain_oxygen_bond_distance_aromatic_linkinvent_7_9_3/rearranged_h_0093.sdf

> <i_m_source_file_index>
72

> <r_mmod_Potential_Energy-OPLS-2005>
213.242645263672

> <r_mmod_Stretch_Energy-OPLS-2005>
33.4992561340332

> <r_mmod_Bend_Energy-OPLS-2005>
111.379806518555

> <r_mmod_Torsional_Energy-OPLS-2005>
340.443634033203

> <r_mmod_Improper_Torsional_Energy-OPLS-2005>
22.498628616333

> <r_mmod_Van_der_Waal_Energy-OPLS-2005>
178.128280639648

> <r_mmod_Electrostatic_Energy-OPLS-2005>
-286.328735351562

> <r_mmod_Solvation_Energy-OPLS-2005>
-218.726669311523

> <b_mmod_Minimization_Converged-OPLS-2005>
0

> <r_mmod_RMS_Derivative-OPLS-2005>
1.48689186573029

$$$$
73
                    3D
 Structure written by MMmdl.
159168  0  0  1  0            999 V2000
  -29.7056  -16.5517   20.4278 C   0  0  0  0  0  0
  -30.2351  -13.8293   19.5840 C   0  0  0  0  0  0
  -29.5427  -12.9618   18.4515 C   0  0  0  0  0  0
  -28.2179  -12.3619   18.9196 C   0  0  0  0  0  0
  -27.5340  -13.3924   19.8282 C   0  0  2  0  0  0
  -28.4250  -14.0522   20.9263 C   0  0  0  0  0  0
  -25.1962  -13.8368   20.5885 C   0  0  0  0  0  0
  -24.1489  -13.0398   20.9348 C   0  0  0  0  0  0
  -24.6338  -11.6952   20.8775 C   0  0  0  0  0  0
  -23.9108  -10.4270   21.0386 C   0  0  0  0  0  0
  -24.3650   -9.4196   21.9177 C   0  0  0  0  0  0
  -23.6312   -8.2237   22.0750 C   0  0  0  0  0  0
  -22.4297   -8.0271   21.3538 C   0  0  0  0  0  0
  -21.9941   -9.0238   20.4635 C   0  0  0  0  0  0
  -22.7279  -10.2107   20.3038 C   0  0  0  0  0  0
  -21.6855   -6.0741   22.5285 C   0  0  0  0  0  0
  -21.4014   -6.5644   23.8218 C   0  0  0  0  0  0
  -21.3657   -5.6793   24.9176 C   0  0  0  0  0  0
  -21.6044   -4.3057   24.7224 C   0  0  0  0  0  0
  -21.8819   -3.8153   23.4345 C   0  0  0  0  0  0
  -21.9192   -4.6970   22.3403 C   0  0  0  0  0  0
  -22.7510  -13.5074   21.1963 C   0  0  0  0  0  0
  -22.1662   -4.2160   21.0979 F   0  0  0  0  0  0
  -21.5624   -3.4539   25.7734 F   0  0  0  0  0  0
  -29.3681  -15.0185   20.2501 N   0  0  0  0  0  0
  -26.2449  -12.9829   20.3337 N   0  0  0  0  0  0
  -25.9293  -11.6815   20.5667 N   0  0  0  0  0  0
  -22.0206  -12.8047   22.0524 N   0  0  0  0  0  0
  -25.3446  -15.2130   20.4305 N   0  0  0  0  0  0
  -30.9647  -16.3446   20.3416 O   0  0  0  0  0  0
  -21.6642   -6.8883   21.4248 O   0  0  0  0  0  0
  -22.3188  -14.5370   20.6788 O   0  0  0  0  0  0
  -24.6790  -31.6653   23.1088 C   0  0  0  0  0  0
  -25.9279  -32.3631   23.7764 C   0  0  1  0  0  0
  -28.0795  -26.6246   19.7494 C   0  0  0  0  0  0
  -25.5693  -33.7682   24.1264 N   0  0  0  0  0  0
  -23.5280  -30.0898   21.5134 C   0  0  2  0  0  0
  -24.8356  -27.8463   20.4154 C   0  0  0  0  0  0
  -22.7315  -29.3499   22.5763 C   0  0  0  0  0  0
  -18.0105  -28.1381   22.8482 C   0  0  0  0  0  0
  -24.1503  -36.6868   23.2658 C   0  0  0  0  0  0
  -26.0450  -29.9186   21.8076 C   0  0  0  0  0  0
  -26.0945  -28.3470   21.3314 C   0  0  0  0  0  0
  -27.6341  -27.6956   21.1161 C   0  0  0  0  0  0
  -26.6428  -26.0538   18.6489 C   0  0  0  0  0  0
  -25.0200  -26.7199   19.1288 C   0  0  0  0  0  0
  -23.6982  -28.9832   20.3525 C   0  0  0  0  0  0
  -25.4190  -36.2494   24.0170 C   0  0  1  0  0  0
  -20.5578  -28.3520   23.1565 C   0  0  2  0  0  0
  -20.6525  -26.9282   22.5563 C   0  0  0  0  0  0
  -19.5611  -26.6385   21.5236 C   0  0  0  0  0  0
  -18.1766  -26.7933   22.1591 C   0  0  0  0  0  0
  -19.1330  -28.8811   23.2954 C   0  0  0  0  0  0
  -18.9326  -30.1430   23.8944 C   0  0  0  0  0  0
  -17.6351  -30.6614   24.0555 C   0  0  0  0  0  0
  -25.9181  -34.8869   23.4695 C   0  0  0  0  0  0
  -16.5235  -29.9135   23.6297 C   0  0  0  0  0  0
  -16.7118  -28.6547   23.0315 C   0  0  0  0  0  0
  -26.4483  -31.6588   25.1063 C   0  0  0  0  0  0
  -25.3299  -31.4427   26.1501 C   0  0  0  0  0  0
  -27.0946  -30.2785   24.8932 C   0  0  0  0  0  0
  -27.5716  -32.5074   25.7526 C   0  0  0  0  0  0
  -27.5522  -37.1555   24.8462 C   0  0  0  0  0  0
  -21.4053  -29.2765   22.4143 N   0  0  0  0  0  0
  -26.4250  -37.3354   23.9363 N   0  0  0  0  0  0
  -24.7734  -30.6565   22.1398 N   0  0  0  0  0  0
  -23.3368  -28.7530   23.4663 O   0  0  0  0  0  0
  -29.1259  -27.1405   19.0453 O   0  0  0  0  0  0
  -26.6107  -34.8611   22.4514 O   0  0  0  0  0  0
  -23.5775  -32.0713   23.5204 O   0  0  0  0  0  0
  -27.9900  -23.0775   21.3374 C   0  0  0  0  0  0
  -27.4554  -24.6592   21.3750 C   0  0  0  0  0  0
  -25.8970  -24.2101   20.3818 C   0  0  0  0  0  0
  -27.5717  -21.6655   20.7222 C   0  0  0  0  0  0
  -26.3147  -25.7430   20.8415 C   0  0  0  0  0  0
  -26.3534  -22.6119   20.2966 C   0  0  0  0  0  0
  -27.3983  -30.8089   18.6760 C   0  0  0  0  0  0
  -27.7181  -28.3643   18.0755 C   0  0  0  0  0  0
  -27.9862  -19.6482   20.6257 C   0  0  0  0  0  0
  -28.6944  -30.1036   18.0650 C   0  0  0  0  0  0
  -26.2378  -29.7302   18.8495 C   0  0  0  0  0  0
  -29.1564  -28.6329   18.6750 C   0  0  2  0  0  0
  -29.7240  -29.2296   20.0022 C   0  0  0  0  0  0
  -26.7158  -28.2464   19.0818 N   0  0  0  0  0  0
  -29.0308  -18.2126   20.5423 N   0  0  0  0  0  0
  -27.2972  -32.0097   18.9334 O   0  0  0  0  0  0
  -27.5203  -28.1249   16.8672 O   0  0  0  0  0  0
  -26.8579  -19.1542   20.5756 O   0  0  0  0  0  0
  -25.4002  -21.8973   19.6516 F   0  0  0  0  0  0
  -31.1105  -14.2732   19.1093 H   0  0  0  0  0  0
  -30.6694  -13.1812   20.3477 H   0  0  0  0  0  0
  -30.2135  -12.1793   18.0942 H   0  0  0  0  0  0
  -29.3491  -13.6094   17.5951 H   0  0  0  0  0  0
  -28.4195  -11.4540   19.4897 H   0  0  0  0  0  0
  -27.5880  -12.0775   18.0754 H   0  0  0  0  0  0
  -27.2978  -14.1954   19.1267 H   0  0  0  0  0  0
  -28.9065  -13.3126   21.5697 H   0  0  0  0  0  0
  -27.8071  -14.6471   21.5994 H   0  0  0  0  0  0
  -25.2779   -9.5684   22.4775 H   0  0  0  0  0  0
  -24.0009   -7.4636   22.7484 H   0  0  0  0  0  0
  -21.0871   -8.8761   19.8945 H   0  0  0  0  0  0
  -22.3731  -10.9645   19.6153 H   0  0  0  0  0  0
  -21.2009   -7.6155   23.9724 H   0  0  0  0  0  0
  -21.1477   -6.0524   25.9079 H   0  0  0  0  0  0
  -22.0599   -2.7618   23.2839 H   0  0  0  0  0  0
  -22.3857  -11.9728   22.4923 H   0  0  0  0  0  0
  -21.0806  -13.1028   22.2713 H   0  0  0  0  0  0
  -24.5697  -15.8579   20.5404 H   0  0  0  0  0  0
  -26.1835  -15.6570   20.0825 H   0  0  0  0  0  0
  -26.7375  -32.3725   23.0453 H   0  0  0  0  0  0
  -24.9432  -33.8718   24.9116 H   0  0  0  0  0  0
  -22.9215  -30.9127   21.1319 H   0  0  0  0  0  0
  -23.3791  -35.9169   23.3190 H   0  0  0  0  0  0
  -24.3526  -36.8729   22.2101 H   0  0  0  0  0  0
  -23.7261  -37.5967   23.6917 H   0  0  0  0  0  0
  -26.6710  -30.5721   21.2134 H   0  0  0  0  0  0
  -26.6737  -29.8578   22.6513 H   0  0  0  0  0  0
  -28.4054  -28.1185   21.7373 H   0  0  0  0  0  0
  -26.7906  -25.5247   17.7171 H   0  0  0  0  0  0
  -24.1837  -26.5450   18.4673 H   0  0  0  0  0  0
  -23.6769  -29.4609   19.3755 H   0  0  0  0  0  0
  -22.7775  -28.4007   20.2820 H   0  0  0  0  0  0
  -25.1453  -36.1131   25.0659 H   0  0  0  0  0  0
  -20.9396  -28.2959   24.1790 H   0  0  0  0  0  0
  -20.5311  -26.2097   23.3686 H   0  0  0  0  0  0
  -21.6424  -26.7265   22.1443 H   0  0  0  0  0  0
  -19.6764  -25.6330   21.1180 H   0  0  0  0  0  0
  -19.6638  -27.3280   20.6850 H   0  0  0  0  0  0
  -17.4067  -26.6728   21.3953 H   0  0  0  0  0  0
  -18.0117  -26.0047   22.8952 H   0  0  0  0  0  0
  -19.7821  -30.7186   24.2370 H   0  0  0  0  0  0
  -17.4924  -31.6302   24.5147 H   0  0  0  0  0  0
  -15.5247  -30.3074   23.7593 H   0  0  0  0  0  0
  -15.8504  -28.0905   22.7004 H   0  0  0  0  0  0
  -24.5636  -30.7525   25.7943 H   0  0  0  0  0  0
  -24.8316  -32.3786   26.4049 H   0  0  0  0  0  0
  -25.7215  -31.0292   27.0805 H   0  0  0  0  0  0
  -26.3654  -29.5138   24.6225 H   0  0  0  0  0  0
  -27.5185  -29.9089   25.8281 H   0  0  0  0  0  0
  -27.9361  -30.3097   24.1995 H   0  0  0  0  0  0
  -27.2114  -33.4740   26.1058 H   0  0  0  0  0  0
  -28.3783  -32.7015   25.0441 H   0  0  0  0  0  0
  -28.0129  -32.0144   26.6200 H   0  0  0  0  0  0
  -28.2462  -37.9915   24.7506 H   0  0  0  0  0  0
  -28.1097  -36.2423   24.6331 H   0  0  0  0  0  0
  -27.2208  -37.1194   25.8854 H   0  0  0  0  0  0
  -20.9750  -29.7940   21.6608 H   0  0  0  0  0  0
  -25.9985  -38.2365   24.1362 H   0  0  0  0  0  0
  -28.9055  -22.9710   21.9018 H   0  0  0  0  0  0
  -28.2235  -25.2104   21.9013 H   0  0  0  0  0  0
  -24.9778  -24.2661   19.8184 H   0  0  0  0  0  0
  -29.4969  -30.8177   18.2496 H   0  0  0  0  0  0
  -28.6609  -30.1553   16.9705 H   0  0  0  0  0  0
  -25.6611  -29.7443   17.9204 H   0  0  0  0  0  0
  -25.5573  -30.2156   19.5126 H   0  0  0  0  0  0
  -30.5452  -29.9172   19.7954 H   0  0  0  0  0  0
  -30.1987  -28.4724   20.6264 H   0  0  0  0  0  0
  -29.0115  -29.7968   20.6000 H   0  0  0  0  0  0
  -28.1360  -17.7430   20.5193 H   0  0  0  0  0  0
  1 25  1  0  0  0
  1 30  2  0  0  0
  1 85  1  0  0  0
  2  3  1  0  0  0
  2 25  1  0  0  0
  2 90  1  0  0  0
  2 91  1  0  0  0
  3  4  1  0  0  0
  3 92  1  0  0  0
  3 93  1  0  0  0
  4  5  1  0  0  0
  4 94  1  0  0  0
  4 95  1  0  0  0
  5  6  1  0  0  0
  5 26  1  0  0  0
  5 96  1  0  0  0
  6 25  1  0  0  0
  6 97  1  0  0  0
  6 98  1  0  0  0
  7  8  2  0  0  0
  7 26  1  0  0  0
  7 29  1  0  0  0
  8  9  1  0  0  0
  8 22  1  0  0  0
  9 10  1  0  0  0
  9 27  2  0  0  0
 10 11  2  0  0  0
 10 15  1  0  0  0
 11 12  1  0  0  0
 11 99  1  0  0  0
 12 13  2  0  0  0
 12100  1  0  0  0
 13 14  1  0  0  0
 13 31  1  0  0  0
 14 15  2  0  0  0
 14101  1  0  0  0
 15102  1  0  0  0
 16 17  2  0  0  0
 16 21  1  0  0  0
 16 31  1  0  0  0
 17 18  1  0  0  0
 17103  1  0  0  0
 18 19  2  0  0  0
 18104  1  0  0  0
 19 20  1  0  0  0
 19 24  1  0  0  0
 20 21  2  0  0  0
 20105  1  0  0  0
 21 23  1  0  0  0
 22 28  1  0  0  0
 22 32  2  0  0  0
 26 27  1  0  0  0
 28106  1  0  0  0
 28107  1  0  0  0
 29108  1  0  0  0
 29109  1  0  0  0
 33 34  1  0  0  0
 33 66  1  0  0  0
 33 70  2  0  0  0
 34 36  1  0  0  0
 34 59  1  0  0  0
 34110  1  0  0  0
 35 44  2  0  0  0
 35 45  1  0  0  0
 35 68  1  0  0  0
 36 56  1  0  0  0
 36111  1  0  0  0
 37 39  1  0  0  0
 37 47  1  0  0  0
 37 66  1  0  0  0
 37112  1  0  0  0
 38 43  2  0  0  0
 38 46  1  0  0  0
 38 47  1  0  0  0
 39 64  1  0  0  0
 39 67  2  0  0  0
 40 52  1  0  0  0
 40 53  2  0  0  0
 40 58  1  0  0  0
 41113  1  0  0  0
 41114  1  0  0  0
 41115  1  0  0  0
 41 48  1  0  0  0
 42 43  1  0  0  0
 42 66  1  0  0  0
 42116  1  0  0  0
 42117  1  0  0  0
 43 44  1  0  0  0
 44118  1  0  0  0
 45 46  2  0  0  0
 45119  1  0  0  0
 46120  1  0  0  0
 47121  1  0  0  0
 47122  1  0  0  0
 48 56  1  0  0  0
 48 65  1  0  0  0
 48123  1  0  0  0
 49 50  1  0  0  0
 49 53  1  0  0  0
 49 64  1  0  0  0
 49124  1  0  0  0
 50 51  1  0  0  0
 50125  1  0  0  0
 50126  1  0  0  0
 51 52  1  0  0  0
 51127  1  0  0  0
 51128  1  0  0  0
 52129  1  0  0  0
 52130  1  0  0  0
 53 54  1  0  0  0
 54 55  2  0  0  0
 54131  1  0  0  0
 55 57  1  0  0  0
 55132  1  0  0  0
 56 69  2  0  0  0
 57 58  2  0  0  0
 57133  1  0  0  0
 58134  1  0  0  0
 59 60  1  0  0  0
 59 61  1  0  0  0
 59 62  1  0  0  0
 60135  1  0  0  0
 60136  1  0  0  0
 60137  1  0  0  0
 61138  1  0  0  0
 61139  1  0  0  0
 61140  1  0  0  0
 62141  1  0  0  0
 62142  1  0  0  0
 62143  1  0  0  0
 63 65  1  0  0  0
 63144  1  0  0  0
 63145  1  0  0  0
 63146  1  0  0  0
 64147  1  0  0  0
 65148  1  0  0  0
 68 82  1  0  0  0
 71 72  2  0  0  0
 71 74  1  0  0  0
 71149  1  0  0  0
 72 75  1  0  0  0
 72150  1  0  0  0
 73 75  2  0  0  0
 73 76  1  0  0  0
 73151  1  0  0  0
 74 76  2  0  0  0
 74 79  1  0  0  0
 75 84  1  0  0  0
 76 89  1  0  0  0
 77 80  1  0  0  0
 77 81  1  0  0  0
 77 86  2  0  0  0
 78 82  1  0  0  0
 78 84  1  0  0  0
 78 87  2  0  0  0
 79 85  1  0  0  0
 79 88  2  0  0  0
 80 82  1  0  0  0
 80152  1  0  0  0
 80153  1  0  0  0
 81 84  1  0  0  0
 81154  1  0  0  0
 81155  1  0  0  0
 82 83  1  0  0  0
 83156  1  0  0  0
 83157  1  0  0  0
 83158  1  0  0  0
 85159  1  0  0  0
M  ISO  4   1 100  68 101  82 101  85 100
M  END
> <chiral flag>
0

> <version>
0

> <s_m_source_file>
/data/baiqing/PycharmProjects/Reinvent-master-3.2/result/LINK_invent/BTK/process_docking_weight1_custom_product_contain_oxygen_bond_distance_aromatic_linkinvent_7_9_3/rearranged_h_0093.sdf

> <i_m_source_file_index>
73

> <r_mmod_Potential_Energy-OPLS-2005>
16342.41796875

> <r_mmod_Stretch_Energy-OPLS-2005>
8309.7890625

> <r_mmod_Bend_Energy-OPLS-2005>
2255.66357421875

> <r_mmod_Torsional_Energy-OPLS-2005>
584.507995605469

> <r_mmod_Improper_Torsional_Energy-OPLS-2005>
79.1147079467773

> <r_mmod_Van_der_Waal_Energy-OPLS-2005>
2670.46948242188

> <r_mmod_Electrostatic_Energy-OPLS-2005>
-434.476043701172

> <r_mmod_Solvation_Energy-OPLS-2005>
-235.592254638672

> <b_mmod_Minimization_Converged-OPLS-2005>
0

> <r_mmod_RMS_Derivative-OPLS-2005>
2.35513520240784

$$$$
74
                    3D
 Structure written by MMmdl.
155164  0  0  1  0            999 V2000
  -30.6468  -14.6984   20.4633 C   0  0  0  0  0  0
  -30.4210  -12.4262   19.4675 C   0  0  0  0  0  0
  -29.5030  -12.4987   18.2295 C   0  0  0  0  0  0
  -28.0288  -12.3343   18.6449 C   0  0  0  0  0  0
  -27.6403  -13.2337   19.8498 C   0  0  2  0  0  0
  -28.6850  -13.1670   20.9838 C   0  0  0  0  0  0
  -25.2511  -13.8212   20.5713 C   0  0  0  0  0  0
  -24.1798  -13.0451   20.9203 C   0  0  0  0  0  0
  -24.6392  -11.6928   20.8746 C   0  0  0  0  0  0
  -23.9072  -10.4300   21.0406 C   0  0  0  0  0  0
  -24.3623   -9.4213   21.9182 C   0  0  0  0  0  0
  -23.6298   -8.2248   22.0753 C   0  0  0  0  0  0
  -22.4279   -8.0285   21.3544 C   0  0  0  0  0  0
  -21.9915   -9.0259   20.4646 C   0  0  0  0  0  0
  -22.7244  -10.2139   20.3056 C   0  0  0  0  0  0
  -21.6855   -6.0738   22.5280 C   0  0  0  0  0  0
  -21.4017   -6.5641   23.8213 C   0  0  0  0  0  0
  -21.3660   -5.6794   24.9175 C   0  0  0  0  0  0
  -21.6044   -4.3057   24.7226 C   0  0  0  0  0  0
  -21.8819   -3.8149   23.4346 C   0  0  0  0  0  0
  -21.9194   -4.6965   22.3403 C   0  0  0  0  0  0
  -22.7819  -13.5227   21.1864 C   0  0  0  0  0  0
  -22.1661   -4.2151   21.0980 F   0  0  0  0  0  0
  -21.5628   -3.4540   25.7738 F   0  0  0  0  0  0
  -29.9867  -13.4949   20.3941 N   0  0  0  0  0  0
  -26.2934  -12.9421   20.3296 N   0  0  0  0  0  0
  -25.9323  -11.6560   20.5760 N   0  0  0  0  0  0
  -22.0472  -12.8212   22.0422 N   0  0  0  0  0  0
  -25.4228  -15.1936   20.4167 N   0  0  0  0  0  0
  -31.8439  -14.7518   20.1617 O   0  0  0  0  0  0
  -21.6643   -6.8882   21.4241 O   0  0  0  0  0  0
  -22.3498  -14.5531   20.6712 O   0  0  0  0  0  0
  -24.6293  -31.8568   23.1995 C   0  0  0  0  0  0
  -25.9128  -32.4760   23.8334 C   0  0  1  0  0  0
  -27.2207  -27.2827   20.1114 C   0  0  0  0  0  0
  -25.5933  -33.8563   24.2260 N   0  0  0  0  0  0
  -23.4238  -30.4804   21.5431 C   0  0  2  0  0  0
  -24.8684  -28.9303   20.1084 C   0  0  0  0  0  0
  -22.7488  -29.4611   22.4921 C   0  0  0  0  0  0
  -18.0289  -28.1387   22.8486 C   0  0  0  0  0  0
  -24.1490  -36.7285   23.2638 C   0  0  0  0  0  0
  -25.9681  -30.7752   21.3758 C   0  0  0  0  0  0
  -26.0387  -29.4002   20.7156 C   0  0  0  0  0  0
  -27.2134  -28.5863   20.7100 C   0  0  0  0  0  0
  -26.0176  -26.8662   19.4964 C   0  0  0  0  0  0
  -24.8615  -27.6702   19.4922 C   0  0  0  0  0  0
  -23.6392  -29.8156   20.1581 C   0  0  0  0  0  0
  -25.4116  -36.3073   24.0326 C   0  0  1  0  0  0
  -20.5891  -28.3695   23.1277 C   0  0  2  0  0  0
  -20.6777  -26.9414   22.5413 C   0  0  0  0  0  0
  -19.5754  -26.6385   21.5214 C   0  0  0  0  0  0
  -18.1933  -26.7930   22.1623 C   0  0  0  0  0  0
  -19.1542  -28.8857   23.2876 C   0  0  0  0  0  0
  -18.9463  -30.1458   23.8895 C   0  0  0  0  0  0
  -17.6463  -30.6588   24.0563 C   0  0  0  0  0  0
  -25.9058  -34.9444   23.5095 C   0  0  0  0  0  0
  -16.5354  -29.9086   23.6331 C   0  0  0  0  0  0
  -16.7276  -28.6503   23.0352 C   0  0  0  0  0  0
  -26.4499  -31.6583   25.0720 C   0  0  0  0  0  0
  -25.3724  -31.3732   26.1442 C   0  0  0  0  0  0
  -27.0346  -30.3000   24.6201 C   0  0  0  0  0  0
  -27.6055  -32.4322   25.7492 C   0  0  0  0  0  0
  -27.5584  -37.1792   24.8459 C   0  0  0  0  0  0
  -21.4198  -29.3043   22.3665 N   0  0  0  0  0  0
  -26.4288  -37.3775   23.9415 N   0  0  0  0  0  0
  -24.6929  -31.0551   22.0959 N   0  0  0  0  0  0
  -23.4199  -28.8154   23.3013 O   0  0  0  0  0  0
  -28.3422  -26.4307   20.1905 O   0  0  0  0  0  0
  -26.5630  -34.8918   22.4665 O   0  0  0  0  0  0
  -23.5449  -32.1384   23.7305 O   0  0  0  0  0  0
  -29.8872  -19.1728   18.3549 C   0  0  0  0  0  0
  -29.6355  -20.5657   18.4177 C   0  0  0  0  0  0
  -28.9737  -20.3558   20.7263 C   0  0  0  0  0  0
  -29.6873  -18.3260   19.4668 C   0  0  0  0  0  0
  -29.2325  -18.9276   20.6581 C   0  0  0  0  0  0
  -29.1684  -21.2157   19.5878 C   0  0  0  0  0  0
  -28.5778  -23.7560   20.1849 C   0  0  0  0  0  0
  -29.0003  -17.9574   21.8182 C   0  0  0  0  0  0
  -29.9420  -16.7892   19.3290 C   0  0  0  0  0  0
  -29.8769  -16.6485   21.7914 C   0  0  0  0  0  0
  -28.4655  -25.1580   19.4180 C   0  0  0  0  0  0
  -29.9071  -15.8766   20.5225 N   0  0  0  0  0  0
  -28.9350  -22.6668   19.4216 N   0  0  0  0  0  0
  -28.3529  -23.6771   21.3956 O   0  0  0  0  0  0
  -31.4648  -12.5296   19.1662 H   0  0  0  0  0  0
  -30.3450  -11.4504   19.9500 H   0  0  0  0  0  0
  -29.7768  -11.7264   17.5093 H   0  0  0  0  0  0
  -29.6393  -13.4549   17.7216 H   0  0  0  0  0  0
  -27.8783  -11.2857   18.9041 H   0  0  0  0  0  0
  -27.3723  -12.5336   17.7972 H   0  0  0  0  0  0
  -27.6360  -14.2566   19.4725 H   0  0  0  0  0  0
  -28.7086  -12.1755   21.4384 H   0  0  0  0  0  0
  -28.4305  -13.8682   21.7801 H   0  0  0  0  0  0
  -25.2769   -9.5690   22.4756 H   0  0  0  0  0  0
  -24.0009   -7.4640   22.7472 H   0  0  0  0  0  0
  -21.0847   -8.8778   19.8952 H   0  0  0  0  0  0
  -22.3700  -10.9678   19.6167 H   0  0  0  0  0  0
  -21.2010   -7.6150   23.9716 H   0  0  0  0  0  0
  -21.1482   -6.0525   25.9078 H   0  0  0  0  0  0
  -22.0597   -2.7611   23.2847 H   0  0  0  0  0  0
  -22.4096  -11.9877   22.4809 H   0  0  0  0  0  0
  -21.1089  -13.1230   22.2633 H   0  0  0  0  0  0
  -24.6620  -15.8530   20.5391 H   0  0  0  0  0  0
  -26.2868  -15.6346   20.1274 H   0  0  0  0  0  0
  -26.7192  -32.5413   23.1073 H   0  0  0  0  0  0
  -25.0074  -33.9702   25.0401 H   0  0  0  0  0  0
  -22.7193  -31.3023   21.3994 H   0  0  0  0  0  0
  -23.3759  -35.9608   23.3284 H   0  0  0  0  0  0
  -24.3583  -36.8925   22.2056 H   0  0  0  0  0  0
  -23.7233  -37.6476   23.6673 H   0  0  0  0  0  0
  -26.1060  -31.5380   20.6082 H   0  0  0  0  0  0
  -26.8462  -30.8215   22.0083 H   0  0  0  0  0  0
  -28.1105  -28.9417   21.1975 H   0  0  0  0  0  0
  -25.9150  -25.8923   19.0464 H   0  0  0  0  0  0
  -23.9590  -27.2987   19.0263 H   0  0  0  0  0  0
  -23.7621  -30.5926   19.4027 H   0  0  0  0  0  0
  -22.7572  -29.2490   19.8542 H   0  0  0  0  0  0
  -25.1294  -36.1917   25.0817 H   0  0  0  0  0  0
  -20.9983  -28.3274   24.1398 H   0  0  0  0  0  0
  -20.5678  -26.2305   23.3615 H   0  0  0  0  0  0
  -21.6645  -26.7441   22.1209 H   0  0  0  0  0  0
  -19.6917  -25.6295   21.1245 H   0  0  0  0  0  0
  -19.6693  -27.3192   20.6741 H   0  0  0  0  0  0
  -17.4204  -26.6680   21.4023 H   0  0  0  0  0  0
  -18.0328  -26.0071   22.9018 H   0  0  0  0  0  0
  -19.7939  -30.7274   24.2265 H   0  0  0  0  0  0
  -17.5017  -31.6267   24.5167 H   0  0  0  0  0  0
  -15.5354  -30.2987   23.7657 H   0  0  0  0  0  0
  -15.8675  -28.0821   22.7070 H   0  0  0  0  0  0
  -24.5900  -30.7080   25.7771 H   0  0  0  0  0  0
  -24.8915  -32.2902   26.4857 H   0  0  0  0  0  0
  -25.8042  -30.8917   27.0225 H   0  0  0  0  0  0
  -26.2927  -29.6745   24.1222 H   0  0  0  0  0  0
  -27.4026  -29.7265   25.4719 H   0  0  0  0  0  0
  -27.8804  -30.4273   23.9441 H   0  0  0  0  0  0
  -27.2662  -33.3622   26.2066 H   0  0  0  0  0  0
  -28.3866  -32.6884   25.0322 H   0  0  0  0  0  0
  -28.0723  -31.8452   26.5411 H   0  0  0  0  0  0
  -28.2580  -38.0111   24.7540 H   0  0  0  0  0  0
  -28.1104  -36.2645   24.6239 H   0  0  0  0  0  0
  -27.2309  -37.1383   25.8862 H   0  0  0  0  0  0
  -20.9380  -29.8763   21.6870 H   0  0  0  0  0  0
  -26.0165  -38.2844   24.1439 H   0  0  0  0  0  0
  -30.2328  -18.7493   17.4218 H   0  0  0  0  0  0
  -29.8047  -21.1437   17.5195 H   0  0  0  0  0  0
  -28.6098  -20.7835   21.6503 H   0  0  0  0  0  0
  -27.9452  -17.6802   21.8073 H   0  0  0  0  0  0
  -29.1644  -18.4850   22.7588 H   0  0  0  0  0  0
  -30.9029  -16.6876   18.8207 H   0  0  0  0  0  0
  -29.2048  -16.4060   18.6222 H   0  0  0  0  0  0
  -29.5559  -15.9908   22.6006 H   0  0  0  0  0  0
  -30.9066  -16.9256   22.0248 H   0  0  0  0  0  0
  -27.7342  -25.0615   18.6199 H   0  0  0  0  0  0
  -29.4078  -25.2635   18.8799 H   0  0  0  0  0  0
  -29.0896  -22.9635   18.4679 H   0  0  0  0  0  0
  1 25  1  0  0  0
  1 30  2  0  0  0
  1 82  1  0  0  0
  2  3  1  0  0  0
  2 25  1  0  0  0
  2 85  1  0  0  0
  2 86  1  0  0  0
  3  4  1  0  0  0
  3 87  1  0  0  0
  3 88  1  0  0  0
  4  5  1  0  0  0
  4 89  1  0  0  0
  4 90  1  0  0  0
  5  6  1  0  0  0
  5 26  1  0  0  0
  5 91  1  0  0  0
  6 25  1  0  0  0
  6 92  1  0  0  0
  6 93  1  0  0  0
  7  8  2  0  0  0
  7 26  1  0  0  0
  7 29  1  0  0  0
  8  9  1  0  0  0
  8 22  1  0  0  0
  9 10  1  0  0  0
  9 27  2  0  0  0
 10 11  2  0  0  0
 10 15  1  0  0  0
 11 12  1  0  0  0
 11 94  1  0  0  0
 12 13  2  0  0  0
 12 95  1  0  0  0
 13 14  1  0  0  0
 13 31  1  0  0  0
 14 15  2  0  0  0
 14 96  1  0  0  0
 15 97  1  0  0  0
 16 17  2  0  0  0
 16 21  1  0  0  0
 16 31  1  0  0  0
 17 18  1  0  0  0
 17 98  1  0  0  0
 18 19  2  0  0  0
 18 99  1  0  0  0
 19 20  1  0  0  0
 19 24  1  0  0  0
 20 21  2  0  0  0
 20100  1  0  0  0
 21 23  1  0  0  0
 22 28  1  0  0  0
 22 32  2  0  0  0
 26 27  1  0  0  0
 28101  1  0  0  0
 28102  1  0  0  0
 29103  1  0  0  0
 29104  1  0  0  0
 33 34  1  0  0  0
 33 66  1  0  0  0
 33 70  2  0  0  0
 34 36  1  0  0  0
 34 59  1  0  0  0
 34105  1  0  0  0
 35 44  2  0  0  0
 35 45  1  0  0  0
 35 68  1  0  0  0
 36 56  1  0  0  0
 36106  1  0  0  0
 37 39  1  0  0  0
 37 47  1  0  0  0
 37 66  1  0  0  0
 37107  1  0  0  0
 38 43  2  0  0  0
 38 46  1  0  0  0
 38 47  1  0  0  0
 39 64  1  0  0  0
 39 67  2  0  0  0
 40 52  1  0  0  0
 40 53  2  0  0  0
 40 58  1  0  0  0
 41108  1  0  0  0
 41109  1  0  0  0
 41110  1  0  0  0
 41 48  1  0  0  0
 42 43  1  0  0  0
 42 66  1  0  0  0
 42111  1  0  0  0
 42112  1  0  0  0
 43 44  1  0  0  0
 44113  1  0  0  0
 45 46  2  0  0  0
 45114  1  0  0  0
 46115  1  0  0  0
 47116  1  0  0  0
 47117  1  0  0  0
 48 56  1  0  0  0
 48 65  1  0  0  0
 48118  1  0  0  0
 49 50  1  0  0  0
 49 53  1  0  0  0
 49 64  1  0  0  0
 49119  1  0  0  0
 50 51  1  0  0  0
 50120  1  0  0  0
 50121  1  0  0  0
 51 52  1  0  0  0
 51122  1  0  0  0
 51123  1  0  0  0
 52124  1  0  0  0
 52125  1  0  0  0
 53 54  1  0  0  0
 54 55  2  0  0  0
 54126  1  0  0  0
 55 57  1  0  0  0
 55127  1  0  0  0
 56 69  2  0  0  0
 57 58  2  0  0  0
 57128  1  0  0  0
 58129  1  0  0  0
 59 60  1  0  0  0
 59 61  1  0  0  0
 59 62  1  0  0  0
 60130  1  0  0  0
 60131  1  0  0  0
 60132  1  0  0  0
 61133  1  0  0  0
 61134  1  0  0  0
 61135  1  0  0  0
 62136  1  0  0  0
 62137  1  0  0  0
 62138  1  0  0  0
 63 65  1  0  0  0
 63139  1  0  0  0
 63140  1  0  0  0
 63141  1  0  0  0
 64142  1  0  0  0
 65143  1  0  0  0
 68 81  1  0  0  0
 71 72  2  0  0  0
 71 74  1  0  0  0
 71144  1  0  0  0
 72 76  1  0  0  0
 72145  1  0  0  0
 73 75  1  0  0  0
 73 76  2  0  0  0
 73146  1  0  0  0
 74 75  2  0  0  0
 74 79  1  0  0  0
 75 78  1  0  0  0
 76 83  1  0  0  0
 77 81  1  0  0  0
 77 83  1  0  0  0
 77 84  2  0  0  0
 78 80  1  0  0  0
 78147  1  0  0  0
 78148  1  0  0  0
 79 82  1  0  0  0
 79149  1  0  0  0
 79150  1  0  0  0
 80 82  1  0  0  0
 80151  1  0  0  0
 80152  1  0  0  0
 81153  1  0  0  0
 81154  1  0  0  0
 83155  1  0  0  0
M  ISO  4   1 100  68 101  81 101  82 100
M  END
> <chiral flag>
0

> <version>
0

> <s_m_source_file>
/data/baiqing/PycharmProjects/Reinvent-master-3.2/result/LINK_invent/BTK/process_docking_weight1_custom_product_contain_oxygen_bond_distance_aromatic_linkinvent_7_9_3/rearranged_h_0093.sdf

> <i_m_source_file_index>
74

> <r_mmod_Potential_Energy-OPLS-2005>
263.008850097656

> <r_mmod_Stretch_Energy-OPLS-2005>
100.241989135742

> <r_mmod_Bend_Energy-OPLS-2005>
198.604354858398

> <r_mmod_Torsional_Energy-OPLS-2005>
296.746307373047

> <r_mmod_Improper_Torsional_Energy-OPLS-2005>
12.5064258575439

> <r_mmod_Van_der_Waal_Energy-OPLS-2005>
138.70182800293

> <r_mmod_Electrostatic_Energy-OPLS-2005>
-319.001342773438

> <r_mmod_Solvation_Energy-OPLS-2005>
-234.829406738281

> <b_mmod_Minimization_Converged-OPLS-2005>
0

> <r_mmod_RMS_Derivative-OPLS-2005>
0.158099845051765

$$$$
75
                    3D
 Structure written by MMmdl.
168177  0  0  1  0            999 V2000
  -30.7108  -14.4671   20.5183 C   0  0  0  0  0  0
  -30.4113  -12.2824   19.4332 C   0  0  0  0  0  0
  -29.4860  -12.4396   18.2089 C   0  0  0  0  0  0
  -28.0052  -12.3342   18.6252 C   0  0  0  0  0  0
  -27.6514  -13.2028   19.8620 C   0  0  2  0  0  0
  -28.6949  -13.0245   20.9874 C   0  0  0  0  0  0
  -25.2564  -13.8162   20.5698 C   0  0  0  0  0  0
  -24.1824  -13.0433   20.9219 C   0  0  0  0  0  0
  -24.6379  -11.6907   20.8764 C   0  0  0  0  0  0
  -23.9066  -10.4282   21.0416 C   0  0  0  0  0  0
  -24.3607   -9.4197   21.9204 C   0  0  0  0  0  0
  -23.6288   -8.2224   22.0755 C   0  0  0  0  0  0
  -22.4274   -8.0269   21.3539 C   0  0  0  0  0  0
  -21.9912   -9.0247   20.4641 C   0  0  0  0  0  0
  -22.7233  -10.2133   20.3070 C   0  0  0  0  0  0
  -21.6848   -6.0735   22.5277 C   0  0  0  0  0  0
  -21.4007   -6.5643   23.8211 C   0  0  0  0  0  0
  -21.3662   -5.6799   24.9176 C   0  0  0  0  0  0
  -21.6040   -4.3058   24.7223 C   0  0  0  0  0  0
  -21.8819   -3.8144   23.4346 C   0  0  0  0  0  0
  -21.9188   -4.6965   22.3400 C   0  0  0  0  0  0
  -22.7852  -13.5241   21.1871 C   0  0  0  0  0  0
  -22.1657   -4.2154   21.0977 F   0  0  0  0  0  0
  -21.5624   -3.4558   25.7740 F   0  0  0  0  0  0
  -30.0194  -13.3005   20.4183 N   0  0  0  0  0  0
  -26.2975  -12.9331   20.3345 N   0  0  0  0  0  0
  -25.9299  -11.6502   20.5824 N   0  0  0  0  0  0
  -22.0478  -12.8225   22.0412 N   0  0  0  0  0  0
  -25.4265  -15.1873   20.4053 N   0  0  0  0  0  0
  -31.8911  -14.5544   20.1741 O   0  0  0  0  0  0
  -21.6624   -6.8877   21.4246 O   0  0  0  0  0  0
  -22.3551  -14.5547   20.6712 O   0  0  0  0  0  0
  -24.6111  -31.8709   23.2144 C   0  0  0  0  0  0
  -25.9020  -32.4846   23.8427 C   0  0  1  0  0  0
  -27.2395  -27.4688   20.0862 C   0  0  0  0  0  0
  -25.5893  -33.8644   24.2347 N   0  0  0  0  0  0
  -23.3962  -30.4965   21.5531 C   0  0  2  0  0  0
  -24.8421  -28.9657   20.1193 C   0  0  0  0  0  0
  -22.7368  -29.4689   22.5003 C   0  0  0  0  0  0
  -18.0258  -28.1387   22.8521 C   0  0  0  0  0  0
  -24.1474  -36.7320   23.2632 C   0  0  0  0  0  0
  -25.9198  -30.8497   21.3588 C   0  0  0  0  0  0
  -26.0002  -29.4846   20.7096 C   0  0  0  0  0  0
  -27.2001  -28.7408   20.6944 C   0  0  0  0  0  0
  -26.0527  -26.9482   19.5130 C   0  0  0  0  0  0
  -24.8608  -27.6941   19.5218 C   0  0  0  0  0  0
  -23.6036  -29.8300   20.1667 C   0  0  0  0  0  0
  -25.4101  -36.3122   24.0327 C   0  0  1  0  0  0
  -20.5848  -28.3671   23.1326 C   0  0  2  0  0  0
  -20.6748  -26.9415   22.5430 C   0  0  0  0  0  0
  -19.5728  -26.6405   21.5224 C   0  0  0  0  0  0
  -18.1904  -26.7940   22.1631 C   0  0  0  0  0  0
  -19.1512  -28.8843   23.2923 C   0  0  0  0  0  0
  -18.9454  -30.1458   23.8921 C   0  0  0  0  0  0
  -17.6458  -30.6594   24.0593 C   0  0  0  0  0  0
  -25.9030  -34.9484   23.5132 C   0  0  0  0  0  0
  -16.5347  -29.9117   23.6330 C   0  0  0  0  0  0
  -16.7258  -28.6532   23.0359 C   0  0  0  0  0  0
  -26.4463  -31.6616   25.0738 C   0  0  0  0  0  0
  -25.3744  -31.3685   26.1487 C   0  0  0  0  0  0
  -27.0292  -30.3075   24.6070 C   0  0  0  0  0  0
  -27.6045  -32.4316   25.7504 C   0  0  0  0  0  0
  -27.5583  -37.1801   24.8449 C   0  0  0  0  0  0
  -21.4100  -29.3053   22.3736 N   0  0  0  0  0  0
  -26.4278  -37.3818   23.9424 N   0  0  0  0  0  0
  -24.6609  -31.0838   22.1028 N   0  0  0  0  0  0
  -23.4145  -28.8223   23.3040 O   0  0  0  0  0  0
  -28.4248  -26.7668   20.1074 O   0  0  0  0  0  0
  -26.5595  -34.8929   22.4700 O   0  0  0  0  0  0
  -23.5317  -32.1446   23.7564 O   0  0  0  0  0  0
  -28.2155  -18.1885   21.0826 C   0  0  0  0  0  0
  -28.0397  -19.5621   20.8216 C   0  0  0  0  0  0
  -30.3386  -18.6725   22.1573 C   0  0  0  0  0  0
  -29.4153  -17.7249   21.6673 C   0  0  0  0  0  0
  -29.0353  -20.5021   21.1796 C   0  0  0  0  0  0
  -30.1606  -20.0477   21.9118 C   0  0  0  0  0  0
  -29.0519  -24.5022   19.6969 C   0  0  0  0  0  0
  -31.9726  -18.2162   16.8191 C   0  0  0  0  0  0
  -28.5604  -25.6832   19.2854 C   0  0  0  0  0  0
  -30.9205  -17.5763   17.3585 C   0  0  0  0  0  0
  -29.7715  -16.2600   21.7278 C   0  0  0  0  0  0
  -30.9145  -17.1507   18.7670 C   0  0  0  0  0  0
  -29.0975  -23.3013   18.7739 C   0  0  0  0  0  0
  -29.5603  -24.2268   21.1091 C   0  0  0  0  0  0
  -28.3919  -22.1013   19.4192 C   0  0  0  0  0  0
  -28.9641  -22.9367   21.7177 C   0  0  0  0  0  0
  -29.7673  -16.2235   19.2105 C   0  0  0  0  0  0
  -28.9426  -21.8423   20.7467 N   0  0  0  0  0  0
  -29.9512  -15.5902   20.5503 N   0  0  0  0  0  0
  -29.9596  -15.7608   22.8431 O   0  0  0  0  0  0
  -31.7748  -17.5056   19.5772 O   0  0  0  0  0  0
  -31.1241  -20.9154   22.3103 F   0  0  0  0  0  0
  -31.4556  -12.3650   19.1279 H   0  0  0  0  0  0
  -30.3084  -11.2882   19.8704 H   0  0  0  0  0  0
  -29.7114  -11.6657   17.4746 H   0  0  0  0  0  0
  -29.6696  -13.3864   17.7050 H   0  0  0  0  0  0
  -27.8072  -11.2856   18.8515 H   0  0  0  0  0  0
  -27.3550  -12.5873   17.7860 H   0  0  0  0  0  0
  -27.6806  -14.2398   19.5316 H   0  0  0  0  0  0
  -28.6673  -12.0061   21.3775 H   0  0  0  0  0  0
  -28.4684  -13.6772   21.8296 H   0  0  0  0  0  0
  -25.2740   -9.5687   22.4793 H   0  0  0  0  0  0
  -24.0002   -7.4618   22.7474 H   0  0  0  0  0  0
  -21.0848   -8.8770   19.8935 H   0  0  0  0  0  0
  -22.3696  -10.9684   19.6182 H   0  0  0  0  0  0
  -21.2000   -7.6150   23.9733 H   0  0  0  0  0  0
  -21.1487   -6.0514   25.9089 H   0  0  0  0  0  0
  -22.0596   -2.7607   23.2843 H   0  0  0  0  0  0
  -22.4095  -11.9879   22.4785 H   0  0  0  0  0  0
  -21.1086  -13.1216   22.2609 H   0  0  0  0  0  0
  -24.6380  -15.8224   20.4709 H   0  0  0  0  0  0
  -26.2398  -15.6105   19.9794 H   0  0  0  0  0  0
  -26.7100  -32.5572   23.1206 H   0  0  0  0  0  0
  -25.0042  -33.9828   25.0488 H   0  0  0  0  0  0
  -22.6853  -31.3133   21.4149 H   0  0  0  0  0  0
  -23.3752  -35.9632   23.3259 H   0  0  0  0  0  0
  -24.3556  -36.8995   22.2051 H   0  0  0  0  0  0
  -23.7191  -37.6500   23.6675 H   0  0  0  0  0  0
  -26.0130  -31.6130   20.5853 H   0  0  0  0  0  0
  -26.8156  -30.9162   21.9641 H   0  0  0  0  0  0
  -28.0974  -29.1392   21.1476 H   0  0  0  0  0  0
  -26.0305  -25.9665   19.0618 H   0  0  0  0  0  0
  -23.9656  -27.2844   19.0761 H   0  0  0  0  0  0
  -23.7140  -30.6064   19.4081 H   0  0  0  0  0  0
  -22.7280  -29.2494   19.8690 H   0  0  0  0  0  0
  -25.1269  -36.1996   25.0814 H   0  0  0  0  0  0
  -20.9958  -28.3254   24.1439 H   0  0  0  0  0  0
  -20.5671  -26.2287   23.3611 H   0  0  0  0  0  0
  -21.6618  -26.7456   22.1220 H   0  0  0  0  0  0
  -19.6887  -25.6325   21.1230 H   0  0  0  0  0  0
  -19.6664  -27.3231   20.6762 H   0  0  0  0  0  0
  -17.4185  -26.6744   21.4014 H   0  0  0  0  0  0
  -18.0274  -26.0041   22.8981 H   0  0  0  0  0  0
  -19.7930  -30.7286   24.2272 H   0  0  0  0  0  0
  -17.5015  -31.6263   24.5233 H   0  0  0  0  0  0
  -15.5364  -30.3054   23.7598 H   0  0  0  0  0  0
  -15.8651  -28.0863   22.7051 H   0  0  0  0  0  0
  -24.5975  -30.6955   25.7843 H   0  0  0  0  0  0
  -24.8856  -32.2812   26.4897 H   0  0  0  0  0  0
  -25.8133  -30.8921   27.0264 H   0  0  0  0  0  0
  -26.2819  -29.6835   24.1143 H   0  0  0  0  0  0
  -27.4119  -29.7301   25.4504 H   0  0  0  0  0  0
  -27.8627  -30.4417   23.9161 H   0  0  0  0  0  0
  -27.2701  -33.3655   26.2026 H   0  0  0  0  0  0
  -28.3900  -32.6802   25.0354 H   0  0  0  0  0  0
  -28.0642  -31.8450   26.5469 H   0  0  0  0  0  0
  -28.2560  -38.0145   24.7592 H   0  0  0  0  0  0
  -28.1133  -36.2685   24.6163 H   0  0  0  0  0  0
  -27.2300  -37.1331   25.8849 H   0  0  0  0  0  0
  -20.9234  -29.8837   21.7021 H   0  0  0  0  0  0
  -26.0163  -38.2877   24.1521 H   0  0  0  0  0  0
  -27.4586  -17.4873   20.7599 H   0  0  0  0  0  0
  -27.1462  -19.8798   20.3007 H   0  0  0  0  0  0
  -31.2410  -18.3397   22.6493 H   0  0  0  0  0  0
  -31.9607  -18.5219   15.7827 H   0  0  0  0  0  0
  -32.8592  -18.4405   17.3967 H   0  0  0  0  0  0
  -28.2031  -25.8703   18.2808 H   0  0  0  0  0  0
  -30.0492  -17.3593   16.7581 H   0  0  0  0  0  0
  -30.1416  -23.0592   18.5698 H   0  0  0  0  0  0
  -28.6355  -23.5379   17.8144 H   0  0  0  0  0  0
  -29.3690  -25.0757   21.7657 H   0  0  0  0  0  0
  -30.6454  -24.1280   21.0520 H   0  0  0  0  0  0
  -28.5020  -21.2308   18.7709 H   0  0  0  0  0  0
  -27.3226  -22.3030   19.5086 H   0  0  0  0  0  0
  -27.9399  -23.1305   22.0386 H   0  0  0  0  0  0
  -29.5167  -22.6653   22.6171 H   0  0  0  0  0  0
  -29.6824  -15.4542   18.4452 H   0  0  0  0  0  0
  -28.8210  -16.7482   19.1194 H   0  0  0  0  0  0
  1 25  1  0  0  0
  1 30  2  0  0  0
  1 89  1  0  0  0
  2  3  1  0  0  0
  2 25  1  0  0  0
  2 93  1  0  0  0
  2 94  1  0  0  0
  3  4  1  0  0  0
  3 95  1  0  0  0
  3 96  1  0  0  0
  4  5  1  0  0  0
  4 97  1  0  0  0
  4 98  1  0  0  0
  5  6  1  0  0  0
  5 26  1  0  0  0
  5 99  1  0  0  0
  6 25  1  0  0  0
  6100  1  0  0  0
  6101  1  0  0  0
  7  8  2  0  0  0
  7 26  1  0  0  0
  7 29  1  0  0  0
  8  9  1  0  0  0
  8 22  1  0  0  0
  9 10  1  0  0  0
  9 27  2  0  0  0
 10 11  2  0  0  0
 10 15  1  0  0  0
 11 12  1  0  0  0
 11102  1  0  0  0
 12 13  2  0  0  0
 12103  1  0  0  0
 13 14  1  0  0  0
 13 31  1  0  0  0
 14 15  2  0  0  0
 14104  1  0  0  0
 15105  1  0  0  0
 16 17  2  0  0  0
 16 21  1  0  0  0
 16 31  1  0  0  0
 17 18  1  0  0  0
 17106  1  0  0  0
 18 19  2  0  0  0
 18107  1  0  0  0
 19 20  1  0  0  0
 19 24  1  0  0  0
 20 21  2  0  0  0
 20108  1  0  0  0
 21 23  1  0  0  0
 22 28  1  0  0  0
 22 32  2  0  0  0
 26 27  1  0  0  0
 28109  1  0  0  0
 28110  1  0  0  0
 29111  1  0  0  0
 29112  1  0  0  0
 33 34  1  0  0  0
 33 66  1  0  0  0
 33 70  2  0  0  0
 34 36  1  0  0  0
 34 59  1  0  0  0
 34113  1  0  0  0
 35 44  2  0  0  0
 35 45  1  0  0  0
 35 68  1  0  0  0
 36 56  1  0  0  0
 36114  1  0  0  0
 37 39  1  0  0  0
 37 47  1  0  0  0
 37 66  1  0  0  0
 37115  1  0  0  0
 38 43  2  0  0  0
 38 46  1  0  0  0
 38 47  1  0  0  0
 39 64  1  0  0  0
 39 67  2  0  0  0
 40 52  1  0  0  0
 40 53  2  0  0  0
 40 58  1  0  0  0
 41116  1  0  0  0
 41117  1  0  0  0
 41118  1  0  0  0
 41 48  1  0  0  0
 42 43  1  0  0  0
 42 66  1  0  0  0
 42119  1  0  0  0
 42120  1  0  0  0
 43 44  1  0  0  0
 44121  1  0  0  0
 45 46  2  0  0  0
 45122  1  0  0  0
 46123  1  0  0  0
 47124  1  0  0  0
 47125  1  0  0  0
 48 56  1  0  0  0
 48 65  1  0  0  0
 48126  1  0  0  0
 49 50  1  0  0  0
 49 53  1  0  0  0
 49 64  1  0  0  0
 49127  1  0  0  0
 50 51  1  0  0  0
 50128  1  0  0  0
 50129  1  0  0  0
 51 52  1  0  0  0
 51130  1  0  0  0
 51131  1  0  0  0
 52132  1  0  0  0
 52133  1  0  0  0
 53 54  1  0  0  0
 54 55  2  0  0  0
 54134  1  0  0  0
 55 57  1  0  0  0
 55135  1  0  0  0
 56 69  2  0  0  0
 57 58  2  0  0  0
 57136  1  0  0  0
 58137  1  0  0  0
 59 60  1  0  0  0
 59 61  1  0  0  0
 59 62  1  0  0  0
 60138  1  0  0  0
 60139  1  0  0  0
 60140  1  0  0  0
 61141  1  0  0  0
 61142  1  0  0  0
 61143  1  0  0  0
 62144  1  0  0  0
 62145  1  0  0  0
 62146  1  0  0  0
 63 65  1  0  0  0
 63147  1  0  0  0
 63148  1  0  0  0
 63149  1  0  0  0
 64150  1  0  0  0
 65151  1  0  0  0
 68 79  1  0  0  0
 71 72  2  0  0  0
 71 74  1  0  0  0
 71152  1  0  0  0
 72 75  1  0  0  0
 72153  1  0  0  0
 73 74  2  0  0  0
 73 76  1  0  0  0
 73154  1  0  0  0
 74 81  1  0  0  0
 75 76  2  0  0  0
 75 88  1  0  0  0
 76 92  1  0  0  0
 77 79  2  0  0  0
 77 83  1  0  0  0
 77 84  1  0  0  0
 78 80  2  0  0  0
 78155  1  0  0  0
 78156  1  0  0  0
 79157  1  0  0  0
 80 82  1  0  0  0
 80158  1  0  0  0
 81 89  1  0  0  0
 81 90  2  0  0  0
 82 87  1  0  0  0
 82 91  2  0  0  0
 83 85  1  0  0  0
 83159  1  0  0  0
 83160  1  0  0  0
 84 86  1  0  0  0
 84161  1  0  0  0
 84162  1  0  0  0
 85 88  1  0  0  0
 85163  1  0  0  0
 85164  1  0  0  0
 86 88  1  0  0  0
 86165  1  0  0  0
 86166  1  0  0  0
 87 89  1  0  0  0
 87167  1  0  0  0
 87168  1  0  0  0
M  ISO  4   1 100  68 101  79 101  89 100
M  END
> <chiral flag>
0

> <version>
0

> <s_m_source_file>
/data/baiqing/PycharmProjects/Reinvent-master-3.2/result/LINK_invent/BTK/process_docking_weight1_custom_product_contain_oxygen_bond_distance_aromatic_linkinvent_7_9_3/rearranged_h_0093.sdf

> <i_m_source_file_index>
75

> <r_mmod_Potential_Energy-OPLS-2005>
46.8151168823242

> <r_mmod_Stretch_Energy-OPLS-2005>
39.4707946777344

> <r_mmod_Bend_Energy-OPLS-2005>
113.603820800781

> <r_mmod_Torsional_Energy-OPLS-2005>
357.755554199219

> <r_mmod_Improper_Torsional_Energy-OPLS-2005>
17.6588439941406

> <r_mmod_Van_der_Waal_Energy-OPLS-2005>
178.385040283203

> <r_mmod_Electrostatic_Energy-OPLS-2005>
-456.944000244141

> <r_mmod_Solvation_Energy-OPLS-2005>
-220.990875244141

> <b_mmod_Minimization_Converged-OPLS-2005>
0

> <r_mmod_RMS_Derivative-OPLS-2005>
2.43536233901978

$$$$
76
                    3D
 Structure written by MMmdl.
150158  0  0  1  0            999 V2000
  -30.6108  -14.6777   20.4828 C   0  0  0  0  0  0
  -30.4398  -12.4129   19.4591 C   0  0  0  0  0  0
  -29.5096  -12.5077   18.2287 C   0  0  0  0  0  0
  -28.0330  -12.3414   18.6411 C   0  0  0  0  0  0
  -27.6506  -13.2208   19.8615 C   0  0  2  0  0  0
  -28.6967  -13.0969   20.9924 C   0  0  0  0  0  0
  -25.2544  -13.8174   20.5693 C   0  0  0  0  0  0
  -24.1813  -13.0430   20.9173 C   0  0  0  0  0  0
  -24.6395  -11.6906   20.8730 C   0  0  0  0  0  0
  -23.9067  -10.4288   21.0400 C   0  0  0  0  0  0
  -24.3617   -9.4206   21.9181 C   0  0  0  0  0  0
  -23.6291   -8.2243   22.0753 C   0  0  0  0  0  0
  -22.4273   -8.0280   21.3544 C   0  0  0  0  0  0
  -21.9908   -9.0253   20.4646 C   0  0  0  0  0  0
  -22.7237  -10.2131   20.3052 C   0  0  0  0  0  0
  -21.6853   -6.0735   22.5279 C   0  0  0  0  0  0
  -21.4015   -6.5639   23.8212 C   0  0  0  0  0  0
  -21.3659   -5.6792   24.9174 C   0  0  0  0  0  0
  -21.6044   -4.3054   24.7225 C   0  0  0  0  0  0
  -21.8819   -3.8146   23.4346 C   0  0  0  0  0  0
  -21.9193   -4.6963   22.3402 C   0  0  0  0  0  0
  -22.7837  -13.5221   21.1846 C   0  0  0  0  0  0
  -22.1661   -4.2148   21.0980 F   0  0  0  0  0  0
  -21.5628   -3.4538   25.7738 F   0  0  0  0  0  0
  -30.0079  -13.4454   20.4239 N   0  0  0  0  0  0
  -26.2981  -12.9367   20.3328 N   0  0  0  0  0  0
  -25.9328  -11.6516   20.5761 N   0  0  0  0  0  0
  -22.0488  -12.8214   22.0410 N   0  0  0  0  0  0
  -25.4230  -15.1902   20.4167 N   0  0  0  0  0  0
  -31.7825  -14.8246   20.1231 O   0  0  0  0  0  0
  -21.6639   -6.8877   21.4241 O   0  0  0  0  0  0
  -22.3515  -14.5528   20.6701 O   0  0  0  0  0  0
  -24.6279  -31.8582   23.2011 C   0  0  0  0  0  0
  -25.9119  -32.4771   23.8346 C   0  0  1  0  0  0
  -27.2237  -27.3001   20.1186 C   0  0  0  0  0  0
  -25.5927  -33.8572   24.2271 N   0  0  0  0  0  0
  -23.4226  -30.4818   21.5442 C   0  0  2  0  0  0
  -24.8693  -28.9348   20.1105 C   0  0  0  0  0  0
  -22.7484  -29.4617   22.4927 C   0  0  0  0  0  0
  -18.0288  -28.1385   22.8486 C   0  0  0  0  0  0
  -24.1489  -36.7291   23.2639 C   0  0  0  0  0  0
  -25.9657  -30.7832   21.3752 C   0  0  0  0  0  0
  -26.0395  -29.4094   20.7161 C   0  0  0  0  0  0
  -27.2196  -28.6044   20.7090 C   0  0  0  0  0  0
  -26.0288  -26.8844   19.4865 C   0  0  0  0  0  0
  -24.8671  -27.6788   19.4863 C   0  0  0  0  0  0
  -23.6382  -29.8170   20.1596 C   0  0  0  0  0  0
  -25.4115  -36.3079   24.0327 C   0  0  1  0  0  0
  -20.5890  -28.3692   23.1278 C   0  0  2  0  0  0
  -20.6777  -26.9413   22.5409 C   0  0  0  0  0  0
  -19.5751  -26.6383   21.5212 C   0  0  0  0  0  0
  -18.1932  -26.7927   22.1626 C   0  0  0  0  0  0
  -19.1541  -28.8855   23.2877 C   0  0  0  0  0  0
  -18.9463  -30.1457   23.8895 C   0  0  0  0  0  0
  -17.6462  -30.6587   24.0563 C   0  0  0  0  0  0
  -25.9052  -34.9448   23.5100 C   0  0  0  0  0  0
  -16.5354  -29.9085   23.6330 C   0  0  0  0  0  0
  -16.7275  -28.6502   23.0352 C   0  0  0  0  0  0
  -26.4497  -31.6586   25.0724 C   0  0  0  0  0  0
  -25.3726  -31.3730   26.1448 C   0  0  0  0  0  0
  -27.0344  -30.3008   24.6192 C   0  0  0  0  0  0
  -27.6051  -32.4327   25.7497 C   0  0  0  0  0  0
  -27.5579  -37.1802   24.8465 C   0  0  0  0  0  0
  -21.4195  -29.3043   22.3671 N   0  0  0  0  0  0
  -26.4292  -37.3774   23.9407 N   0  0  0  0  0  0
  -24.6910  -31.0579   22.0969 N   0  0  0  0  0  0
  -23.4200  -28.8155   23.3013 O   0  0  0  0  0  0
  -28.3347  -26.4367   20.1750 O   0  0  0  0  0  0
  -26.5623  -34.8917   22.4668 O   0  0  0  0  0  0
  -23.5438  -32.1387   23.7329 O   0  0  0  0  0  0
  -31.1101  -19.3372   20.2412 C   0  0  0  0  0  0
  -31.0833  -17.9091   20.2845 C   0  0  0  0  0  0
  -28.8064  -19.4469   20.8983 C   0  0  0  0  0  0
  -29.9865  -20.1611   20.5574 C   0  0  0  0  0  0
  -29.9127  -17.2005   20.6585 C   0  0  0  0  0  0
  -28.7767  -18.0141   20.9442 C   0  0  0  0  0  0
  -30.1715  -21.6982   20.6967 C   0  0  0  0  0  0
  -29.2983  -24.0227   20.4600 C   0  0  0  0  0  0
  -28.1085  -24.9671   20.0116 C   0  0  0  0  0  0
  -29.7891  -15.7385   20.7825 N   0  0  0  0  0  0
  -29.2078  -22.6361   20.3775 N   0  0  0  0  0  0
  -31.2927  -22.0380   21.0925 O   0  0  0  0  0  0
  -30.3045  -24.6038   20.8861 O   0  0  0  0  0  0
  -27.6228  -17.3970   21.2952 F   0  0  0  0  0  0
  -31.4803  -12.5417   19.1559 H   0  0  0  0  0  0
  -30.3811  -11.4224   19.9130 H   0  0  0  0  0  0
  -29.7792  -11.7492   17.4925 H   0  0  0  0  0  0
  -29.6463  -13.4725   17.7374 H   0  0  0  0  0  0
  -27.8757  -11.2893   18.8816 H   0  0  0  0  0  0
  -27.3776  -12.5604   17.7974 H   0  0  0  0  0  0
  -27.6602  -14.2521   19.5086 H   0  0  0  0  0  0
  -28.7163  -12.0808   21.3891 H   0  0  0  0  0  0
  -28.4394  -13.7410   21.8347 H   0  0  0  0  0  0
  -25.2764   -9.5682   22.4753 H   0  0  0  0  0  0
  -24.0000   -7.4636   22.7474 H   0  0  0  0  0  0
  -21.0838   -8.8772   19.8953 H   0  0  0  0  0  0
  -22.3696  -10.9669   19.6160 H   0  0  0  0  0  0
  -21.2009   -7.6148   23.9715 H   0  0  0  0  0  0
  -21.1480   -6.0522   25.9077 H   0  0  0  0  0  0
  -22.0599   -2.7608   23.2847 H   0  0  0  0  0  0
  -22.4108  -11.9875   22.4794 H   0  0  0  0  0  0
  -21.1109  -13.1242   22.2627 H   0  0  0  0  0  0
  -24.6618  -15.8430   20.5650 H   0  0  0  0  0  0
  -26.2926  -15.6523   20.1826 H   0  0  0  0  0  0
  -26.7186  -32.5434   23.1092 H   0  0  0  0  0  0
  -25.0069  -33.9713   25.0413 H   0  0  0  0  0  0
  -22.7173  -31.3030   21.4006 H   0  0  0  0  0  0
  -23.3749  -35.9626   23.3304 H   0  0  0  0  0  0
  -24.3579  -36.8911   22.2053 H   0  0  0  0  0  0
  -23.7245  -37.6494   23.6661 H   0  0  0  0  0  0
  -26.1003  -31.5465   20.6076 H   0  0  0  0  0  0
  -26.8449  -30.8308   22.0063 H   0  0  0  0  0  0
  -28.1164  -28.9635   21.1943 H   0  0  0  0  0  0
  -25.9613  -25.9265   18.9934 H   0  0  0  0  0  0
  -23.9707  -27.3105   19.0063 H   0  0  0  0  0  0
  -23.7591  -30.5938   19.4036 H   0  0  0  0  0  0
  -22.7576  -29.2480   19.8561 H   0  0  0  0  0  0
  -25.1296  -36.1930   25.0820 H   0  0  0  0  0  0
  -20.9983  -28.3268   24.1398 H   0  0  0  0  0  0
  -20.5678  -26.2301   23.3610 H   0  0  0  0  0  0
  -21.6645  -26.7440   22.1202 H   0  0  0  0  0  0
  -19.6913  -25.6294   21.1242 H   0  0  0  0  0  0
  -19.6687  -27.3193   20.6742 H   0  0  0  0  0  0
  -17.4200  -26.6671   21.4031 H   0  0  0  0  0  0
  -18.0336  -26.0071   22.9025 H   0  0  0  0  0  0
  -19.7939  -30.7274   24.2263 H   0  0  0  0  0  0
  -17.5017  -31.6267   24.5165 H   0  0  0  0  0  0
  -15.5354  -30.2986   23.7654 H   0  0  0  0  0  0
  -15.8676  -28.0821   22.7068 H   0  0  0  0  0  0
  -24.5899  -30.7081   25.7776 H   0  0  0  0  0  0
  -24.8920  -32.2899   26.4871 H   0  0  0  0  0  0
  -25.8046  -30.8907   27.0225 H   0  0  0  0  0  0
  -26.2925  -29.6756   24.1211 H   0  0  0  0  0  0
  -27.4031  -29.7268   25.4703 H   0  0  0  0  0  0
  -27.8798  -30.4290   23.9427 H   0  0  0  0  0  0
  -27.2655  -33.3626   26.2071 H   0  0  0  0  0  0
  -28.3863  -32.6891   25.0328 H   0  0  0  0  0  0
  -28.0717  -31.8457   26.5418 H   0  0  0  0  0  0
  -28.2597  -38.0098   24.7509 H   0  0  0  0  0  0
  -28.1074  -36.2629   24.6295 H   0  0  0  0  0  0
  -27.2296  -37.1455   25.8868 H   0  0  0  0  0  0
  -20.9374  -29.8769   21.6883 H   0  0  0  0  0  0
  -26.0173  -38.2849   24.1405 H   0  0  0  0  0  0
  -32.0487  -19.8141   19.9924 H   0  0  0  0  0  0
  -31.9899  -17.3703   20.0503 H   0  0  0  0  0  0
  -27.9173  -19.9922   21.1786 H   0  0  0  0  0  0
  -27.2313  -24.6657   20.5856 H   0  0  0  0  0  0
  -27.9017  -24.7520   18.9629 H   0  0  0  0  0  0
  -28.8665  -15.4476   21.0683 H   0  0  0  0  0  0
  -28.3389  -22.2659   20.0265 H   0  0  0  0  0  0
  1 25  1  0  0  0
  1 30  2  0  0  0
  1 80  1  0  0  0
  2  3  1  0  0  0
  2 25  1  0  0  0
  2 85  1  0  0  0
  2 86  1  0  0  0
  3  4  1  0  0  0
  3 87  1  0  0  0
  3 88  1  0  0  0
  4  5  1  0  0  0
  4 89  1  0  0  0
  4 90  1  0  0  0
  5  6  1  0  0  0
  5 26  1  0  0  0
  5 91  1  0  0  0
  6 25  1  0  0  0
  6 92  1  0  0  0
  6 93  1  0  0  0
  7  8  2  0  0  0
  7 26  1  0  0  0
  7 29  1  0  0  0
  8  9  1  0  0  0
  8 22  1  0  0  0
  9 10  1  0  0  0
  9 27  2  0  0  0
 10 11  2  0  0  0
 10 15  1  0  0  0
 11 12  1  0  0  0
 11 94  1  0  0  0
 12 13  2  0  0  0
 12 95  1  0  0  0
 13 14  1  0  0  0
 13 31  1  0  0  0
 14 15  2  0  0  0
 14 96  1  0  0  0
 15 97  1  0  0  0
 16 17  2  0  0  0
 16 21  1  0  0  0
 16 31  1  0  0  0
 17 18  1  0  0  0
 17 98  1  0  0  0
 18 19  2  0  0  0
 18 99  1  0  0  0
 19 20  1  0  0  0
 19 24  1  0  0  0
 20 21  2  0  0  0
 20100  1  0  0  0
 21 23  1  0  0  0
 22 28  1  0  0  0
 22 32  2  0  0  0
 26 27  1  0  0  0
 28101  1  0  0  0
 28102  1  0  0  0
 29103  1  0  0  0
 29104  1  0  0  0
 33 34  1  0  0  0
 33 66  1  0  0  0
 33 70  2  0  0  0
 34 36  1  0  0  0
 34 59  1  0  0  0
 34105  1  0  0  0
 35 44  2  0  0  0
 35 45  1  0  0  0
 35 68  1  0  0  0
 36 56  1  0  0  0
 36106  1  0  0  0
 37 39  1  0  0  0
 37 47  1  0  0  0
 37 66  1  0  0  0
 37107  1  0  0  0
 38 43  2  0  0  0
 38 46  1  0  0  0
 38 47  1  0  0  0
 39 64  1  0  0  0
 39 67  2  0  0  0
 40 52  1  0  0  0
 40 53  2  0  0  0
 40 58  1  0  0  0
 41108  1  0  0  0
 41109  1  0  0  0
 41110  1  0  0  0
 41 48  1  0  0  0
 42 43  1  0  0  0
 42 66  1  0  0  0
 42111  1  0  0  0
 42112  1  0  0  0
 43 44  1  0  0  0
 44113  1  0  0  0
 45 46  2  0  0  0
 45114  1  0  0  0
 46115  1  0  0  0
 47116  1  0  0  0
 47117  1  0  0  0
 48 56  1  0  0  0
 48 65  1  0  0  0
 48118  1  0  0  0
 49 50  1  0  0  0
 49 53  1  0  0  0
 49 64  1  0  0  0
 49119  1  0  0  0
 50 51  1  0  0  0
 50120  1  0  0  0
 50121  1  0  0  0
 51 52  1  0  0  0
 51122  1  0  0  0
 51123  1  0  0  0
 52124  1  0  0  0
 52125  1  0  0  0
 53 54  1  0  0  0
 54 55  2  0  0  0
 54126  1  0  0  0
 55 57  1  0  0  0
 55127  1  0  0  0
 56 69  2  0  0  0
 57 58  2  0  0  0
 57128  1  0  0  0
 58129  1  0  0  0
 59 60  1  0  0  0
 59 61  1  0  0  0
 59 62  1  0  0  0
 60130  1  0  0  0
 60131  1  0  0  0
 60132  1  0  0  0
 61133  1  0  0  0
 61134  1  0  0  0
 61135  1  0  0  0
 62136  1  0  0  0
 62137  1  0  0  0
 62138  1  0  0  0
 63 65  1  0  0  0
 63139  1  0  0  0
 63140  1  0  0  0
 63141  1  0  0  0
 64142  1  0  0  0
 65143  1  0  0  0
 68 79  1  0  0  0
 71 72  2  0  0  0
 71 74  1  0  0  0
 71144  1  0  0  0
 72 75  1  0  0  0
 72145  1  0  0  0
 73 74  2  0  0  0
 73 76  1  0  0  0
 73146  1  0  0  0
 74 77  1  0  0  0
 75 76  2  0  0  0
 75 80  1  0  0  0
 76 84  1  0  0  0
 77 81  1  0  0  0
 77 82  2  0  0  0
 78 79  1  0  0  0
 78 81  1  0  0  0
 78 83  2  0  0  0
 79147  1  0  0  0
 79148  1  0  0  0
 80149  1  0  0  0
 81150  1  0  0  0
M  ISO  4   1 100  68 101  79 101  80 100
M  END
> <chiral flag>
0

> <version>
0

> <s_m_source_file>
/data/baiqing/PycharmProjects/Reinvent-master-3.2/result/LINK_invent/BTK/process_docking_weight1_custom_product_contain_oxygen_bond_distance_aromatic_linkinvent_7_9_3/rearranged_h_0093.sdf

> <i_m_source_file_index>
76

> <r_mmod_Potential_Energy-OPLS-2005>
-114.081840515137

> <r_mmod_Stretch_Energy-OPLS-2005>
91.3526306152344

> <r_mmod_Bend_Energy-OPLS-2005>
150.067779541016

> <r_mmod_Torsional_Energy-OPLS-2005>
219.889465332031

> <r_mmod_Improper_Torsional_Energy-OPLS-2005>
5.02043676376343

> <r_mmod_Van_der_Waal_Energy-OPLS-2005>
151.793029785156

> <r_mmod_Electrostatic_Energy-OPLS-2005>
-507.714721679688

> <r_mmod_Solvation_Energy-OPLS-2005>
-284.386077880859

> <b_mmod_Minimization_Converged-OPLS-2005>
0

> <r_mmod_RMS_Derivative-OPLS-2005>
0.106859803199768

$$$$
77
                    3D
 Structure written by MMmdl.
155163  0  0  1  0            999 V2000
  -30.7241  -14.5758   20.5770 C   0  0  0  0  0  0
  -30.4082  -12.3814   19.4443 C   0  0  0  0  0  0
  -29.4901  -12.4869   18.2110 C   0  0  0  0  0  0
  -28.0137  -12.3391   18.6296 C   0  0  0  0  0  0
  -27.6401  -13.2267   19.8463 C   0  0  2  0  0  0
  -28.6842  -13.1367   20.9803 C   0  0  0  0  0  0
  -25.2490  -13.8222   20.5665 C   0  0  0  0  0  0
  -24.1805  -13.0480   20.9211 C   0  0  0  0  0  0
  -24.6364  -11.6943   20.8740 C   0  0  0  0  0  0
  -23.9051  -10.4308   21.0411 C   0  0  0  0  0  0
  -24.3620   -9.4221   21.9181 C   0  0  0  0  0  0
  -23.6315   -8.2245   22.0737 C   0  0  0  0  0  0
  -22.4288   -8.0270   21.3537 C   0  0  0  0  0  0
  -21.9922   -9.0250   20.4631 C   0  0  0  0  0  0
  -22.7236  -10.2139   20.3060 C   0  0  0  0  0  0
  -21.6860   -6.0719   22.5277 C   0  0  0  0  0  0
  -21.4004   -6.5626   23.8207 C   0  0  0  0  0  0
  -21.3689   -5.6785   24.9173 C   0  0  0  0  0  0
  -21.6057   -4.3044   24.7230 C   0  0  0  0  0  0
  -21.8823   -3.8137   23.4361 C   0  0  0  0  0  0
  -21.9195   -4.6946   22.3412 C   0  0  0  0  0  0
  -22.7810  -13.5216   21.1936 C   0  0  0  0  0  0
  -22.1659   -4.2126   21.0983 F   0  0  0  0  0  0
  -21.5670   -3.4538   25.7751 F   0  0  0  0  0  0
  -29.9986  -13.4325   20.3977 N   0  0  0  0  0  0
  -26.2914  -12.9417   20.3284 N   0  0  0  0  0  0
  -25.9285  -11.6542   20.5726 N   0  0  0  0  0  0
  -22.0497  -12.8151   22.0459 N   0  0  0  0  0  0
  -25.4208  -15.1955   20.3998 N   0  0  0  0  0  0
  -31.8983  -14.6365   20.1990 O   0  0  0  0  0  0
  -21.6659   -6.8870   21.4231 O   0  0  0  0  0  0
  -22.3439  -14.5509   20.6776 O   0  0  0  0  0  0
  -24.6180  -31.8651   23.2090 C   0  0  0  0  0  0
  -25.9069  -32.4794   23.8373 C   0  0  1  0  0  0
  -27.2168  -27.4163   20.0911 C   0  0  0  0  0  0
  -25.5912  -33.8609   24.2295 N   0  0  0  0  0  0
  -23.4038  -30.4937   21.5493 C   0  0  2  0  0  0
  -24.8436  -28.9628   20.1056 C   0  0  0  0  0  0
  -22.7398  -29.4657   22.4963 C   0  0  0  0  0  0
  -18.0260  -28.1370   22.8500 C   0  0  0  0  0  0
  -24.1478  -36.7335   23.2634 C   0  0  0  0  0  0
  -25.9332  -30.8315   21.3575 C   0  0  0  0  0  0
  -26.0053  -29.4631   20.7068 C   0  0  0  0  0  0
  -27.1926  -28.6954   20.6987 C   0  0  0  0  0  0
  -26.0413  -26.9514   19.4562 C   0  0  0  0  0  0
  -24.8581  -27.7102   19.4736 C   0  0  0  0  0  0
  -23.6113  -29.8347   20.1605 C   0  0  0  0  0  0
  -25.4077  -36.3099   24.0338 C   0  0  1  0  0  0
  -20.5859  -28.3672   23.1291 C   0  0  2  0  0  0
  -20.6752  -26.9407   22.5404 C   0  0  0  0  0  0
  -19.5730  -26.6380   21.5202 C   0  0  0  0  0  0
  -18.1896  -26.7909   22.1619 C   0  0  0  0  0  0
  -19.1517  -28.8825   23.2896 C   0  0  0  0  0  0
  -18.9452  -30.1432   23.8913 C   0  0  0  0  0  0
  -17.6470  -30.6586   24.0570 C   0  0  0  0  0  0
  -25.9028  -34.9474   23.5111 C   0  0  0  0  0  0
  -16.5348  -29.9114   23.6316 C   0  0  0  0  0  0
  -16.7247  -28.6518   23.0336 C   0  0  0  0  0  0
  -26.4480  -31.6565   25.0711 C   0  0  0  0  0  0
  -25.3795  -31.3670   26.1489 C   0  0  0  0  0  0
  -27.0278  -30.3003   24.6061 C   0  0  0  0  0  0
  -27.6042  -32.4289   25.7485 C   0  0  0  0  0  0
  -27.5575  -37.1786   24.8456 C   0  0  0  0  0  0
  -21.4122  -29.3052   22.3709 N   0  0  0  0  0  0
  -26.4245  -37.3807   23.9474 N   0  0  0  0  0  0
  -24.6707  -31.0789   22.0965 N   0  0  0  0  0  0
  -23.4175  -28.8187   23.2978 O   0  0  0  0  0  0
  -28.3772  -26.6654   20.1425 O   0  0  0  0  0  0
  -26.5593  -34.8941   22.4680 O   0  0  0  0  0  0
  -23.5386  -32.1379   23.7517 O   0  0  0  0  0  0
  -30.0594  -19.1178   22.4656 C   0  0  0  0  0  0
  -29.4350  -20.3849   22.4250 C   0  0  0  0  0  0
  -29.8576  -18.1569   21.4427 C   0  0  0  0  0  0
  -28.4158  -19.8216   20.3018 C   0  0  0  0  0  0
  -28.6093  -20.7751   21.3483 C   0  0  0  0  0  0
  -29.0431  -18.5425   20.3511 C   0  0  0  0  0  0
  -30.6188  -16.8340   21.4819 C   0  0  0  0  0  0
  -27.5240  -24.3275   20.6874 C   0  0  0  0  0  0
  -28.3597  -25.2696   19.7687 C   0  0  0  0  0  0
  -27.6114  -22.8131   20.3310 C   0  0  0  0  0  0
  -27.5904  -20.0768   19.2056 N   0  0  0  0  0  0
  -30.0568  -15.6939   20.9872 N   0  0  0  0  0  0
  -31.7184  -16.8343   22.0487 O   0  0  0  0  0  0
  -28.0543  -22.0501   21.4632 O   0  0  0  0  0  0
  -28.8608  -17.6870   19.3130 F   0  0  0  0  0  0
  -31.4533  -12.4646   19.1413 H   0  0  0  0  0  0
  -30.3096  -11.4013   19.9157 H   0  0  0  0  0  0
  -29.7463  -11.7166   17.4834 H   0  0  0  0  0  0
  -29.6417  -13.4429   17.7065 H   0  0  0  0  0  0
  -27.8460  -11.2880   18.8671 H   0  0  0  0  0  0
  -27.3602  -12.5662   17.7866 H   0  0  0  0  0  0
  -27.6413  -14.2520   19.4733 H   0  0  0  0  0  0
  -28.6928  -12.1520   21.4461 H   0  0  0  0  0  0
  -28.4265  -13.8391   21.7732 H   0  0  0  0  0  0
  -25.2778   -9.5693   22.4722 H   0  0  0  0  0  0
  -24.0056   -7.4607   22.7413 H   0  0  0  0  0  0
  -21.0884   -8.8752   19.8888 H   0  0  0  0  0  0
  -22.3720  -10.9672   19.6150 H   0  0  0  0  0  0
  -21.1963   -7.6121   23.9700 H   0  0  0  0  0  0
  -21.1525   -6.0515   25.9080 H   0  0  0  0  0  0
  -22.0580   -2.7589   23.2869 H   0  0  0  0  0  0
  -22.4162  -11.9842   22.4863 H   0  0  0  0  0  0
  -21.1075  -13.1077   22.2667 H   0  0  0  0  0  0
  -24.6521  -15.8509   20.4930 H   0  0  0  0  0  0
  -26.2608  -15.6313   20.0384 H   0  0  0  0  0  0
  -26.7151  -32.5515   23.1152 H   0  0  0  0  0  0
  -25.0106  -33.9751   25.0481 H   0  0  0  0  0  0
  -22.6960  -31.3123   21.4071 H   0  0  0  0  0  0
  -23.3720  -35.9688   23.3244 H   0  0  0  0  0  0
  -24.3602  -36.8997   22.2062 H   0  0  0  0  0  0
  -23.7208  -37.6520   23.6674 H   0  0  0  0  0  0
  -26.0379  -31.5912   20.5815 H   0  0  0  0  0  0
  -26.8271  -30.8915   21.9643 H   0  0  0  0  0  0
  -28.0877  -29.0745   21.1723 H   0  0  0  0  0  0
  -26.0144  -26.0031   18.9398 H   0  0  0  0  0  0
  -23.9743  -27.3272   18.9859 H   0  0  0  0  0  0
  -23.7293  -30.6129   19.4060 H   0  0  0  0  0  0
  -22.7309  -29.2634   19.8596 H   0  0  0  0  0  0
  -25.1217  -36.1940   25.0815 H   0  0  0  0  0  0
  -20.9939  -28.3241   24.1427 H   0  0  0  0  0  0
  -20.5620  -26.2279   23.3606 H   0  0  0  0  0  0
  -21.6610  -26.7434   22.1202 H   0  0  0  0  0  0
  -19.6908  -25.6293   21.1227 H   0  0  0  0  0  0
  -19.6656  -27.3188   20.6742 H   0  0  0  0  0  0
  -17.4154  -26.6628   21.4039 H   0  0  0  0  0  0
  -18.0331  -26.0048   22.9023 H   0  0  0  0  0  0
  -19.7944  -30.7223   24.2278 H   0  0  0  0  0  0
  -17.5042  -31.6270   24.5175 H   0  0  0  0  0  0
  -15.5361  -30.3038   23.7612 H   0  0  0  0  0  0
  -15.8633  -28.0861   22.7035 H   0  0  0  0  0  0
  -24.6005  -30.6903   25.7932 H   0  0  0  0  0  0
  -24.8934  -32.2807   26.4943 H   0  0  0  0  0  0
  -25.8241  -30.8927   27.0255 H   0  0  0  0  0  0
  -26.2783  -29.6748   24.1168 H   0  0  0  0  0  0
  -27.4081  -29.7236   25.4505 H   0  0  0  0  0  0
  -27.8624  -30.4281   23.9154 H   0  0  0  0  0  0
  -27.2639  -33.3621   26.2009 H   0  0  0  0  0  0
  -28.3904  -32.6786   25.0342 H   0  0  0  0  0  0
  -28.0631  -31.8427   26.5454 H   0  0  0  0  0  0
  -28.2503  -38.0172   24.7612 H   0  0  0  0  0  0
  -28.1123  -36.2697   24.6083 H   0  0  0  0  0  0
  -27.2348  -37.1233   25.8869 H   0  0  0  0  0  0
  -20.9266  -29.8840   21.7013 H   0  0  0  0  0  0
  -26.0101  -38.2863   24.1544 H   0  0  0  0  0  0
  -30.7178  -18.8968   23.2943 H   0  0  0  0  0  0
  -29.6022  -21.0770   23.2392 H   0  0  0  0  0  0
  -26.4759  -24.6149   20.6557 H   0  0  0  0  0  0
  -27.8213  -24.4810   21.7239 H   0  0  0  0  0  0
  -28.0735  -25.1638   18.7208 H   0  0  0  0  0  0
  -29.3974  -24.9363   19.8154 H   0  0  0  0  0  0
  -28.2755  -22.6618   19.4798 H   0  0  0  0  0  0
  -26.6167  -22.4709   20.0314 H   0  0  0  0  0  0
  -27.4749  -21.0345   18.9005 H   0  0  0  0  0  0
  -27.6497  -19.4141   18.4408 H   0  0  0  0  0  0
  -29.0630  -15.7107   20.8313 H   0  0  0  0  0  0
  1 25  1  0  0  0
  1 30  2  0  0  0
  1 82  1  0  0  0
  2  3  1  0  0  0
  2 25  1  0  0  0
  2 86  1  0  0  0
  2 87  1  0  0  0
  3  4  1  0  0  0
  3 88  1  0  0  0
  3 89  1  0  0  0
  4  5  1  0  0  0
  4 90  1  0  0  0
  4 91  1  0  0  0
  5  6  1  0  0  0
  5 26  1  0  0  0
  5 92  1  0  0  0
  6 25  1  0  0  0
  6 93  1  0  0  0
  6 94  1  0  0  0
  7  8  2  0  0  0
  7 26  1  0  0  0
  7 29  1  0  0  0
  8  9  1  0  0  0
  8 22  1  0  0  0
  9 10  1  0  0  0
  9 27  2  0  0  0
 10 11  2  0  0  0
 10 15  1  0  0  0
 11 12  1  0  0  0
 11 95  1  0  0  0
 12 13  2  0  0  0
 12 96  1  0  0  0
 13 14  1  0  0  0
 13 31  1  0  0  0
 14 15  2  0  0  0
 14 97  1  0  0  0
 15 98  1  0  0  0
 16 17  2  0  0  0
 16 21  1  0  0  0
 16 31  1  0  0  0
 17 18  1  0  0  0
 17 99  1  0  0  0
 18 19  2  0  0  0
 18100  1  0  0  0
 19 20  1  0  0  0
 19 24  1  0  0  0
 20 21  2  0  0  0
 20101  1  0  0  0
 21 23  1  0  0  0
 22 28  1  0  0  0
 22 32  2  0  0  0
 26 27  1  0  0  0
 28102  1  0  0  0
 28103  1  0  0  0
 29104  1  0  0  0
 29105  1  0  0  0
 33 34  1  0  0  0
 33 66  1  0  0  0
 33 70  2  0  0  0
 34 36  1  0  0  0
 34 59  1  0  0  0
 34106  1  0  0  0
 35 44  2  0  0  0
 35 45  1  0  0  0
 35 68  1  0  0  0
 36 56  1  0  0  0
 36107  1  0  0  0
 37 39  1  0  0  0
 37 47  1  0  0  0
 37 66  1  0  0  0
 37108  1  0  0  0
 38 43  2  0  0  0
 38 46  1  0  0  0
 38 47  1  0  0  0
 39 64  1  0  0  0
 39 67  2  0  0  0
 40 52  1  0  0  0
 40 53  2  0  0  0
 40 58  1  0  0  0
 41109  1  0  0  0
 41110  1  0  0  0
 41111  1  0  0  0
 41 48  1  0  0  0
 42 43  1  0  0  0
 42 66  1  0  0  0
 42112  1  0  0  0
 42113  1  0  0  0
 43 44  1  0  0  0
 44114  1  0  0  0
 45 46  2  0  0  0
 45115  1  0  0  0
 46116  1  0  0  0
 47117  1  0  0  0
 47118  1  0  0  0
 48 56  1  0  0  0
 48 65  1  0  0  0
 48119  1  0  0  0
 49 50  1  0  0  0
 49 53  1  0  0  0
 49 64  1  0  0  0
 49120  1  0  0  0
 50 51  1  0  0  0
 50121  1  0  0  0
 50122  1  0  0  0
 51 52  1  0  0  0
 51123  1  0  0  0
 51124  1  0  0  0
 52125  1  0  0  0
 52126  1  0  0  0
 53 54  1  0  0  0
 54 55  2  0  0  0
 54127  1  0  0  0
 55 57  1  0  0  0
 55128  1  0  0  0
 56 69  2  0  0  0
 57 58  2  0  0  0
 57129  1  0  0  0
 58130  1  0  0  0
 59 60  1  0  0  0
 59 61  1  0  0  0
 59 62  1  0  0  0
 60131  1  0  0  0
 60132  1  0  0  0
 60133  1  0  0  0
 61134  1  0  0  0
 61135  1  0  0  0
 61136  1  0  0  0
 62137  1  0  0  0
 62138  1  0  0  0
 62139  1  0  0  0
 63 65  1  0  0  0
 63140  1  0  0  0
 63141  1  0  0  0
 63142  1  0  0  0
 64143  1  0  0  0
 65144  1  0  0  0
 68 79  1  0  0  0
 71 72  2  0  0  0
 71 73  1  0  0  0
 71145  1  0  0  0
 72 75  1  0  0  0
 72146  1  0  0  0
 73 76  2  0  0  0
 73 77  1  0  0  0
 74 75  2  0  0  0
 74 76  1  0  0  0
 74 81  1  0  0  0
 75 84  1  0  0  0
 76 85  1  0  0  0
 77 82  1  0  0  0
 77 83  2  0  0  0
 78 79  1  0  0  0
 78 80  1  0  0  0
 78147  1  0  0  0
 78148  1  0  0  0
 79149  1  0  0  0
 79150  1  0  0  0
 80 84  1  0  0  0
 80151  1  0  0  0
 80152  1  0  0  0
 81153  1  0  0  0
 81154  1  0  0  0
 82155  1  0  0  0
M  ISO  4   1 100  68 101  79 101  82 100
M  END
> <chiral flag>
0

> <version>
0

> <s_m_source_file>
/data/baiqing/PycharmProjects/Reinvent-master-3.2/result/LINK_invent/BTK/process_docking_weight1_custom_product_contain_oxygen_bond_distance_aromatic_linkinvent_7_9_3/rearranged_h_0093.sdf

> <i_m_source_file_index>
77

> <r_mmod_Potential_Energy-OPLS-2005>
-59.5485877990723

> <r_mmod_Stretch_Energy-OPLS-2005>
48.0557975769043

> <r_mmod_Bend_Energy-OPLS-2005>
133.103912353516

> <r_mmod_Torsional_Energy-OPLS-2005>
242.638458251953

> <r_mmod_Improper_Torsional_Energy-OPLS-2005>
8.64477729797363

> <r_mmod_Van_der_Waal_Energy-OPLS-2005>
164.162124633789

> <r_mmod_Electrostatic_Energy-OPLS-2005>
-466.067504882812

> <r_mmod_Solvation_Energy-OPLS-2005>
-222.220947265625

> <b_mmod_Minimization_Converged-OPLS-2005>
0

> <r_mmod_RMS_Derivative-OPLS-2005>
5.37265300750732

$$$$
78
                    3D
 Structure written by MMmdl.
156164  0  0  1  0            999 V2000
  -30.6503  -14.6852   20.3782 C   0  0  0  0  0  0
  -30.4343  -12.3854   19.4624 C   0  0  0  0  0  0
  -29.4964  -12.3675   18.2330 C   0  0  0  0  0  0
  -28.0169  -12.2865   18.6547 C   0  0  0  0  0  0
  -27.6410  -13.2163   19.8416 C   0  0  2  0  0  0
  -28.6989  -13.1756   20.9650 C   0  0  0  0  0  0
  -25.2546  -13.8183   20.5732 C   0  0  0  0  0  0
  -24.1809  -13.0449   20.9222 C   0  0  0  0  0  0
  -24.6376  -11.6920   20.8789 C   0  0  0  0  0  0
  -23.9053  -10.4298   21.0430 C   0  0  0  0  0  0
  -24.3609   -9.4207   21.9197 C   0  0  0  0  0  0
  -23.6289   -8.2239   22.0756 C   0  0  0  0  0  0
  -22.4273   -8.0279   21.3544 C   0  0  0  0  0  0
  -21.9908   -9.0255   20.4648 C   0  0  0  0  0  0
  -22.7232  -10.2139   20.3068 C   0  0  0  0  0  0
  -21.6851   -6.0734   22.5277 C   0  0  0  0  0  0
  -21.4013   -6.5639   23.8210 C   0  0  0  0  0  0
  -21.3659   -5.6793   24.9173 C   0  0  0  0  0  0
  -21.6044   -4.3055   24.7225 C   0  0  0  0  0  0
  -21.8819   -3.8146   23.4346 C   0  0  0  0  0  0
  -21.9192   -4.6962   22.3402 C   0  0  0  0  0  0
  -22.7831  -13.5240   21.1864 C   0  0  0  0  0  0
  -22.1661   -4.2147   21.0980 F   0  0  0  0  0  0
  -21.5629   -3.4539   25.7738 F   0  0  0  0  0  0
  -29.9978  -13.4777   20.3530 N   0  0  0  0  0  0
  -26.2957  -12.9358   20.3343 N   0  0  0  0  0  0
  -25.9308  -11.6523   20.5853 N   0  0  0  0  0  0
  -22.0470  -12.8232   22.0415 N   0  0  0  0  0  0
  -25.4284  -15.1900   20.4149 N   0  0  0  0  0  0
  -31.8777  -14.7273   20.2649 O   0  0  0  0  0  0
  -21.6639   -6.8876   21.4238 O   0  0  0  0  0  0
  -22.3521  -14.5544   20.6704 O   0  0  0  0  0  0
  -24.6251  -31.8615   23.2050 C   0  0  0  0  0  0
  -25.9106  -32.4788   23.8370 C   0  0  1  0  0  0
  -27.2188  -27.3256   20.1176 C   0  0  0  0  0  0
  -25.5927  -33.8589   24.2294 N   0  0  0  0  0  0
  -23.4180  -30.4874   21.5473 C   0  0  2  0  0  0
  -24.8641  -28.9494   20.1087 C   0  0  0  0  0  0
  -22.7470  -29.4633   22.4937 C   0  0  0  0  0  0
  -18.0286  -28.1383   22.8488 C   0  0  0  0  0  0
  -24.1490  -36.7298   23.2638 C   0  0  0  0  0  0
  -25.9596  -30.7943   21.3771 C   0  0  0  0  0  0
  -26.0328  -29.4236   20.7177 C   0  0  0  0  0  0
  -27.2127  -28.6225   20.7161 C   0  0  0  0  0  0
  -26.0294  -26.9143   19.4677 C   0  0  0  0  0  0
  -24.8644  -27.7000   19.4744 C   0  0  0  0  0  0
  -23.6319  -29.8275   20.1607 C   0  0  0  0  0  0
  -25.4114  -36.3090   24.0331 C   0  0  1  0  0  0
  -20.5886  -28.3687   23.1284 C   0  0  2  0  0  0
  -20.6776  -26.9411   22.5408 C   0  0  0  0  0  0
  -19.5750  -26.6384   21.5211 C   0  0  0  0  0  0
  -18.1931  -26.7926   22.1625 C   0  0  0  0  0  0
  -19.1538  -28.8851   23.2882 C   0  0  0  0  0  0
  -18.9461  -30.1454   23.8897 C   0  0  0  0  0  0
  -17.6462  -30.6586   24.0563 C   0  0  0  0  0  0
  -25.9050  -34.9457   23.5111 C   0  0  0  0  0  0
  -16.5353  -29.9084   23.6330 C   0  0  0  0  0  0
  -16.7273  -28.6501   23.0352 C   0  0  0  0  0  0
  -26.4494  -31.6592   25.0734 C   0  0  0  0  0  0
  -25.3730  -31.3725   26.1462 C   0  0  0  0  0  0
  -27.0336  -30.3016   24.6184 C   0  0  0  0  0  0
  -27.6054  -32.4326   25.7503 C   0  0  0  0  0  0
  -27.5580  -37.1806   24.8465 C   0  0  0  0  0  0
  -21.4185  -29.3044   22.3679 N   0  0  0  0  0  0
  -26.4294  -37.3781   23.9406 N   0  0  0  0  0  0
  -24.6862  -31.0637   22.0999 N   0  0  0  0  0  0
  -23.4200  -28.8166   23.3007 O   0  0  0  0  0  0
  -28.3234  -26.4620   20.1944 O   0  0  0  0  0  0
  -26.5614  -34.8919   22.4674 O   0  0  0  0  0  0
  -23.5418  -32.1411   23.7384 O   0  0  0  0  0  0
  -28.6744  -19.3469   19.9749 C   0  0  0  0  0  0
  -28.7620  -17.9450   19.7518 C   0  0  0  0  0  0
  -29.5800  -20.0122   20.8314 C   0  0  0  0  0  0
  -29.7612  -17.1168   20.3479 C   0  0  0  0  0  0
  -30.5222  -19.1833   21.5100 C   0  0  0  0  0  0
  -30.6107  -17.7685   21.2861 C   0  0  0  0  0  0
  -29.0473  -23.9656   20.5526 C   0  0  0  0  0  0
  -29.8996  -15.7133   18.3642 C   0  0  0  0  0  0
  -28.7820  -22.4316   20.2705 C   0  0  0  0  0  0
  -28.0580  -25.0260   19.9411 C   0  0  0  0  0  0
  -31.3948  -19.7878   22.4204 N   0  0  0  0  0  0
  -29.5953  -21.4327   21.0321 N   0  0  0  0  0  0
  -29.9303  -15.7415   19.8437 N   0  0  0  0  0  0
  -30.0126  -24.3108   21.2440 O   0  0  0  0  0  0
  -31.5551  -17.0628   21.9563 F   0  0  0  0  0  0
  -31.4704  -12.5043   19.1403 H   0  0  0  0  0  0
  -30.3903  -11.4331   19.9931 H   0  0  0  0  0  0
  -29.7381  -11.5055   17.6097 H   0  0  0  0  0  0
  -29.6534  -13.2238   17.5865 H   0  0  0  0  0  0
  -27.8333  -11.2490   18.9353 H   0  0  0  0  0  0
  -27.3683  -12.4826   17.8001 H   0  0  0  0  0  0
  -27.6229  -14.2288   19.4437 H   0  0  0  0  0  0
  -28.7211  -12.1989   21.4502 H   0  0  0  0  0  0
  -28.4625  -13.9082   21.7387 H   0  0  0  0  0  0
  -25.2751   -9.5683   22.4776 H   0  0  0  0  0  0
  -24.0000   -7.4627   22.7471 H   0  0  0  0  0  0
  -21.0842   -8.8773   19.8949 H   0  0  0  0  0  0
  -22.3690  -10.9681   19.6181 H   0  0  0  0  0  0
  -21.2005   -7.6147   23.9713 H   0  0  0  0  0  0
  -21.1481   -6.0524   25.9076 H   0  0  0  0  0  0
  -22.0599   -2.7609   23.2847 H   0  0  0  0  0  0
  -22.4085  -11.9894   22.4806 H   0  0  0  0  0  0
  -21.1086  -13.1254   22.2615 H   0  0  0  0  0  0
  -24.6690  -15.8512   20.5360 H   0  0  0  0  0  0
  -26.2945  -15.6280   20.1284 H   0  0  0  0  0  0
  -26.7172  -32.5460   23.1119 H   0  0  0  0  0  0
  -25.0077  -33.9738   25.0440 H   0  0  0  0  0  0
  -22.7112  -31.3080   21.4075 H   0  0  0  0  0  0
  -23.3750  -35.9633   23.3306 H   0  0  0  0  0  0
  -24.3581  -36.8912   22.2051 H   0  0  0  0  0  0
  -23.7247  -37.6505   23.6655 H   0  0  0  0  0  0
  -26.0922  -31.5593   20.6108 H   0  0  0  0  0  0
  -26.8398  -30.8404   22.0066 H   0  0  0  0  0  0
  -28.1056  -28.9782   21.2112 H   0  0  0  0  0  0
  -25.9612  -25.9676   18.9530 H   0  0  0  0  0  0
  -23.9711  -27.3346   18.9865 H   0  0  0  0  0  0
  -23.7495  -30.6066   19.4066 H   0  0  0  0  0  0
  -22.7520  -29.2571   19.8574 H   0  0  0  0  0  0
  -25.1294  -36.1947   25.0824 H   0  0  0  0  0  0
  -20.9980  -28.3261   24.1404 H   0  0  0  0  0  0
  -20.5681  -26.2296   23.3607 H   0  0  0  0  0  0
  -21.6644  -26.7444   22.1199 H   0  0  0  0  0  0
  -19.6914  -25.6295   21.1239 H   0  0  0  0  0  0
  -19.6687  -27.3196   20.6742 H   0  0  0  0  0  0
  -17.4200  -26.6672   21.4028 H   0  0  0  0  0  0
  -18.0334  -26.0067   22.9021 H   0  0  0  0  0  0
  -19.7938  -30.7269   24.2266 H   0  0  0  0  0  0
  -17.5017  -31.6266   24.5164 H   0  0  0  0  0  0
  -15.5354  -30.2986   23.7654 H   0  0  0  0  0  0
  -15.8673  -28.0820   22.7067 H   0  0  0  0  0  0
  -24.5907  -30.7071   25.7793 H   0  0  0  0  0  0
  -24.8918  -32.2888   26.4890 H   0  0  0  0  0  0
  -25.8058  -30.8903   27.0236 H   0  0  0  0  0  0
  -26.2910  -29.6769   24.1205 H   0  0  0  0  0  0
  -27.4033  -29.7269   25.4686 H   0  0  0  0  0  0
  -27.8781  -30.4304   23.9409 H   0  0  0  0  0  0
  -27.2664  -33.3624   26.2084 H   0  0  0  0  0  0
  -28.3862  -32.6891   25.0331 H   0  0  0  0  0  0
  -28.0724  -31.8450   26.5418 H   0  0  0  0  0  0
  -28.2601  -38.0099   24.7507 H   0  0  0  0  0  0
  -28.1072  -36.2631   24.6299 H   0  0  0  0  0  0
  -27.2296  -37.1464   25.8868 H   0  0  0  0  0  0
  -20.9358  -29.8775   21.6900 H   0  0  0  0  0  0
  -26.0178  -38.2859   24.1401 H   0  0  0  0  0  0
  -27.9165  -19.9071   19.4470 H   0  0  0  0  0  0
  -28.0668  -17.5128   19.0466 H   0  0  0  0  0  0
  -28.9294  -15.3814   17.9971 H   0  0  0  0  0  0
  -30.6729  -15.0783   17.9277 H   0  0  0  0  0  0
  -30.0946  -16.6917   17.9231 H   0  0  0  0  0  0
  -28.9330  -22.2653   19.2032 H   0  0  0  0  0  0
  -27.7258  -22.2401   20.4633 H   0  0  0  0  0  0
  -27.0821  -24.7620   20.3489 H   0  0  0  0  0  0
  -28.0102  -24.8621   18.8643 H   0  0  0  0  0  0
  -30.9869  -20.5613   22.9312 H   0  0  0  0  0  0
  -31.8602  -19.1344   23.0407 H   0  0  0  0  0  0
  -30.4362  -21.8015   21.4698 H   0  0  0  0  0  0
  1 25  1  0  0  0
  1 30  2  0  0  0
  1 83  1  0  0  0
  2  3  1  0  0  0
  2 25  1  0  0  0
  2 86  1  0  0  0
  2 87  1  0  0  0
  3  4  1  0  0  0
  3 88  1  0  0  0
  3 89  1  0  0  0
  4  5  1  0  0  0
  4 90  1  0  0  0
  4 91  1  0  0  0
  5  6  1  0  0  0
  5 26  1  0  0  0
  5 92  1  0  0  0
  6 25  1  0  0  0
  6 93  1  0  0  0
  6 94  1  0  0  0
  7  8  2  0  0  0
  7 26  1  0  0  0
  7 29  1  0  0  0
  8  9  1  0  0  0
  8 22  1  0  0  0
  9 10  1  0  0  0
  9 27  2  0  0  0
 10 11  2  0  0  0
 10 15  1  0  0  0
 11 12  1  0  0  0
 11 95  1  0  0  0
 12 13  2  0  0  0
 12 96  1  0  0  0
 13 14  1  0  0  0
 13 31  1  0  0  0
 14 15  2  0  0  0
 14 97  1  0  0  0
 15 98  1  0  0  0
 16 17  2  0  0  0
 16 21  1  0  0  0
 16 31  1  0  0  0
 17 18  1  0  0  0
 17 99  1  0  0  0
 18 19  2  0  0  0
 18100  1  0  0  0
 19 20  1  0  0  0
 19 24  1  0  0  0
 20 21  2  0  0  0
 20101  1  0  0  0
 21 23  1  0  0  0
 22 28  1  0  0  0
 22 32  2  0  0  0
 26 27  1  0  0  0
 28102  1  0  0  0
 28103  1  0  0  0
 29104  1  0  0  0
 29105  1  0  0  0
 33 34  1  0  0  0
 33 66  1  0  0  0
 33 70  2  0  0  0
 34 36  1  0  0  0
 34 59  1  0  0  0
 34106  1  0  0  0
 35 44  2  0  0  0
 35 45  1  0  0  0
 35 68  1  0  0  0
 36 56  1  0  0  0
 36107  1  0  0  0
 37 39  1  0  0  0
 37 47  1  0  0  0
 37 66  1  0  0  0
 37108  1  0  0  0
 38 43  2  0  0  0
 38 46  1  0  0  0
 38 47  1  0  0  0
 39 64  1  0  0  0
 39 67  2  0  0  0
 40 52  1  0  0  0
 40 53  2  0  0  0
 40 58  1  0  0  0
 41109  1  0  0  0
 41110  1  0  0  0
 41111  1  0  0  0
 41 48  1  0  0  0
 42 43  1  0  0  0
 42 66  1  0  0  0
 42112  1  0  0  0
 42113  1  0  0  0
 43 44  1  0  0  0
 44114  1  0  0  0
 45 46  2  0  0  0
 45115  1  0  0  0
 46116  1  0  0  0
 47117  1  0  0  0
 47118  1  0  0  0
 48 56  1  0  0  0
 48 65  1  0  0  0
 48119  1  0  0  0
 49 50  1  0  0  0
 49 53  1  0  0  0
 49 64  1  0  0  0
 49120  1  0  0  0
 50 51  1  0  0  0
 50121  1  0  0  0
 50122  1  0  0  0
 51 52  1  0  0  0
 51123  1  0  0  0
 51124  1  0  0  0
 52125  1  0  0  0
 52126  1  0  0  0
 53 54  1  0  0  0
 54 55  2  0  0  0
 54127  1  0  0  0
 55 57  1  0  0  0
 55128  1  0  0  0
 56 69  2  0  0  0
 57 58  2  0  0  0
 57129  1  0  0  0
 58130  1  0  0  0
 59 60  1  0  0  0
 59 61  1  0  0  0
 59 62  1  0  0  0
 60131  1  0  0  0
 60132  1  0  0  0
 60133  1  0  0  0
 61134  1  0  0  0
 61135  1  0  0  0
 61136  1  0  0  0
 62137  1  0  0  0
 62138  1  0  0  0
 62139  1  0  0  0
 63 65  1  0  0  0
 63140  1  0  0  0
 63141  1  0  0  0
 63142  1  0  0  0
 64143  1  0  0  0
 65144  1  0  0  0
 68 80  1  0  0  0
 71 72  2  0  0  0
 71 73  1  0  0  0
 71145  1  0  0  0
 72 74  1  0  0  0
 72146  1  0  0  0
 73 75  2  0  0  0
 73 82  1  0  0  0
 74 76  2  0  0  0
 74 83  1  0  0  0
 75 76  1  0  0  0
 75 81  1  0  0  0
 76 85  1  0  0  0
 77 79  1  0  0  0
 77 80  1  0  0  0
 77 84  2  0  0  0
 78 83  1  0  0  0
 78147  1  0  0  0
 78148  1  0  0  0
 78149  1  0  0  0
 79 82  1  0  0  0
 79150  1  0  0  0
 79151  1  0  0  0
 80152  1  0  0  0
 80153  1  0  0  0
 81154  1  0  0  0
 81155  1  0  0  0
 82156  1  0  0  0
M  ISO  4   1 100  68 101  80 101  83 100
M  END
> <chiral flag>
0

> <version>
0

> <s_m_source_file>
/data/baiqing/PycharmProjects/Reinvent-master-3.2/result/LINK_invent/BTK/process_docking_weight1_custom_product_contain_oxygen_bond_distance_aromatic_linkinvent_7_9_3/rearranged_h_0093.sdf

> <i_m_source_file_index>
78

> <r_mmod_Potential_Energy-OPLS-2005>
259.617645263672

> <r_mmod_Stretch_Energy-OPLS-2005>
81.8079223632812

> <r_mmod_Bend_Energy-OPLS-2005>
151.859115600586

> <r_mmod_Torsional_Energy-OPLS-2005>
305.086456298828

> <r_mmod_Improper_Torsional_Energy-OPLS-2005>
34.6066093444824

> <r_mmod_Van_der_Waal_Energy-OPLS-2005>
162.329940795898

> <r_mmod_Electrostatic_Energy-OPLS-2005>
-309.277526855469

> <r_mmod_Solvation_Energy-OPLS-2005>
-239.238754272461

> <b_mmod_Minimization_Converged-OPLS-2005>
0

> <r_mmod_RMS_Derivative-OPLS-2005>
0.123837225139141

$$$$
79
                    3D
 Structure written by MMmdl.
150158  0  0  1  0            999 V2000
  -30.5277  -14.8961   20.4786 C   0  0  0  0  0  0
  -30.4589  -12.5627   19.4917 C   0  0  0  0  0  0
  -29.5269  -12.5558   18.2527 C   0  0  0  0  0  0
  -28.0517  -12.3482   18.6548 C   0  0  0  0  0  0
  -27.6460  -13.2309   19.8633 C   0  0  2  0  0  0
  -28.6925  -13.1228   20.9898 C   0  0  0  0  0  0
  -25.2524  -13.8175   20.5711 C   0  0  0  0  0  0
  -24.1798  -13.0422   20.9171 C   0  0  0  0  0  0
  -24.6393  -11.6901   20.8721 C   0  0  0  0  0  0
  -23.9068  -10.4284   21.0394 C   0  0  0  0  0  0
  -24.3618   -9.4204   21.9178 C   0  0  0  0  0  0
  -23.6290   -8.2242   22.0753 C   0  0  0  0  0  0
  -22.4273   -8.0278   21.3544 C   0  0  0  0  0  0
  -21.9907   -9.0250   20.4645 C   0  0  0  0  0  0
  -22.7237  -10.2127   20.3048 C   0  0  0  0  0  0
  -21.6852   -6.0734   22.5279 C   0  0  0  0  0  0
  -21.4014   -6.5639   23.8212 C   0  0  0  0  0  0
  -21.3659   -5.6792   24.9174 C   0  0  0  0  0  0
  -21.6044   -4.3055   24.7225 C   0  0  0  0  0  0
  -21.8819   -3.8146   23.4346 C   0  0  0  0  0  0
  -21.9192   -4.6962   22.3402 C   0  0  0  0  0  0
  -22.7824  -13.5211   21.1849 C   0  0  0  0  0  0
  -22.1660   -4.2148   21.0980 F   0  0  0  0  0  0
  -21.5629   -3.4538   25.7738 F   0  0  0  0  0  0
  -29.9739  -13.6079   20.4411 N   0  0  0  0  0  0
  -26.2960  -12.9376   20.3331 N   0  0  0  0  0  0
  -25.9328  -11.6515   20.5736 N   0  0  0  0  0  0
  -22.0479  -12.8203   22.0414 N   0  0  0  0  0  0
  -25.4236  -15.1902   20.4195 N   0  0  0  0  0  0
  -31.6785  -15.0335   20.0426 O   0  0  0  0  0  0
  -21.6637   -6.8877   21.4241 O   0  0  0  0  0  0
  -22.3504  -14.5521   20.6709 O   0  0  0  0  0  0
  -24.6410  -31.8469   23.1918 C   0  0  0  0  0  0
  -25.9195  -32.4710   23.8295 C   0  0  1  0  0  0
  -27.2210  -27.1649   20.1378 C   0  0  0  0  0  0
  -25.5953  -33.8516   24.2208 N   0  0  0  0  0  0
  -23.4434  -30.4682   21.5366 C   0  0  2  0  0  0
  -24.8941  -28.9046   20.1077 C   0  0  0  0  0  0
  -22.7558  -29.4560   22.4867 C   0  0  0  0  0  0
  -18.0302  -28.1395   22.8477 C   0  0  0  0  0  0
  -24.1491  -36.7262   23.2641 C   0  0  0  0  0  0
  -25.9988  -30.7274   21.3900 C   0  0  0  0  0  0
  -26.0701  -29.3424   20.7297 C   0  0  0  0  0  0
  -27.2326  -28.4865   20.7345 C   0  0  0  0  0  0
  -26.0221  -26.8349   19.4624 C   0  0  0  0  0  0
  -24.8816  -27.6624   19.4601 C   0  0  0  0  0  0
  -23.6688  -29.8020   20.1543 C   0  0  0  0  0  0
  -25.4122  -36.3041   24.0317 C   0  0  1  0  0  0
  -20.5914  -28.3719   23.1239 C   0  0  2  0  0  0
  -20.6788  -26.9424   22.5403 C   0  0  0  0  0  0
  -19.5761  -26.6382   21.5211 C   0  0  0  0  0  0
  -18.1942  -26.7934   22.1623 C   0  0  0  0  0  0
  -19.1559  -28.8875   23.2851 C   0  0  0  0  0  0
  -18.9477  -30.1471   23.8876 C   0  0  0  0  0  0
  -17.6474  -30.6592   24.0560 C   0  0  0  0  0  0
  -25.9071  -34.9415   23.5069 C   0  0  0  0  0  0
  -16.5365  -29.9086   23.6337 C   0  0  0  0  0  0
  -16.7287  -28.6505   23.0356 C   0  0  0  0  0  0
  -26.4525  -31.6570   25.0726 C   0  0  0  0  0  0
  -25.3713  -31.3753   26.1422 C   0  0  0  0  0  0
  -27.0393  -30.2969   24.6297 C   0  0  0  0  0  0
  -27.6056  -32.4337   25.7509 C   0  0  0  0  0  0
  -27.5576  -37.1788   24.8466 C   0  0  0  0  0  0
  -21.4252  -29.3050   22.3616 N   0  0  0  0  0  0
  -26.4287  -37.3750   23.9408 N   0  0  0  0  0  0
  -24.7138  -31.0345   22.0945 N   0  0  0  0  0  0
  -23.4212  -28.8100   23.3003 O   0  0  0  0  0  0
  -28.2694  -26.1801   20.2251 O   0  0  0  0  0  0
  -26.5653  -34.8907   22.4645 O   0  0  0  0  0  0
  -23.5535  -32.1337   23.7150 O   0  0  0  0  0  0
  -29.7971  -18.8013   21.6400 C   0  0  0  0  0  0
  -29.5405  -20.2138   21.4121 C   0  0  0  0  0  0
  -29.4805  -18.3232   19.3575 C   0  0  0  0  0  0
  -29.7552  -17.7572   20.6427 C   0  0  0  0  0  0
  -29.1916  -20.7594   20.1375 C   0  0  0  0  0  0
  -29.2105  -19.7322   19.1245 C   0  0  0  0  0  0
  -28.8132  -23.3544   20.3652 C   0  0  0  0  0  0
  -29.6763  -16.2019   21.0487 C   0  0  0  0  0  0
  -27.9731  -24.6994   19.8855 C   0  0  0  0  0  0
  -28.8422  -16.0114   21.9813 N   0  0  0  0  0  0
  -28.7079  -22.1370   19.8119 N   0  0  0  0  0  0
  -28.8874  -20.1298   17.8289 N   0  0  0  0  0  0
  -31.4883  -12.7404   19.1773 H   0  0  0  0  0  0
  -30.4721  -11.5815   19.9689 H   0  0  0  0  0  0
  -29.8366  -11.7809   17.5505 H   0  0  0  0  0  0
  -29.6262  -13.5045   17.7231 H   0  0  0  0  0  0
  -27.9223  -11.2956   18.9095 H   0  0  0  0  0  0
  -27.3946  -12.5392   17.8055 H   0  0  0  0  0  0
  -27.6462  -14.2616   19.5086 H   0  0  0  0  0  0
  -28.7818  -12.0852   21.3147 H   0  0  0  0  0  0
  -28.3746  -13.6448   21.8868 H   0  0  0  0  0  0
  -25.2764   -9.5682   22.4749 H   0  0  0  0  0  0
  -23.9999   -7.4636   22.7476 H   0  0  0  0  0  0
  -21.0837   -8.8768   19.8953 H   0  0  0  0  0  0
  -22.3696  -10.9664   19.6154 H   0  0  0  0  0  0
  -21.2006   -7.6147   23.9715 H   0  0  0  0  0  0
  -21.1482   -6.0523   25.9077 H   0  0  0  0  0  0
  -22.0598   -2.7609   23.2846 H   0  0  0  0  0  0
  -22.4100  -11.9860   22.4791 H   0  0  0  0  0  0
  -21.1102  -13.1231   22.2640 H   0  0  0  0  0  0
  -24.6726  -15.8546   20.5697 H   0  0  0  0  0  0
  -26.3119  -15.6321   20.2178 H   0  0  0  0  0  0
  -26.7259  -32.5325   23.1024 H   0  0  0  0  0  0
  -25.0086  -33.9638   25.0346 H   0  0  0  0  0  0
  -22.7445  -31.2936   21.3853 H   0  0  0  0  0  0
  -23.3757  -35.9589   23.3294 H   0  0  0  0  0  0
  -24.3576  -36.8901   22.2057 H   0  0  0  0  0  0
  -23.7243  -37.6454   23.6683 H   0  0  0  0  0  0
  -26.1540  -31.4837   20.6194 H   0  0  0  0  0  0
  -26.8696  -30.7750   22.0321 H   0  0  0  0  0  0
  -28.1243  -28.8136   21.2506 H   0  0  0  0  0  0
  -25.9216  -25.8962   18.9397 H   0  0  0  0  0  0
  -23.9868  -27.3255   18.9547 H   0  0  0  0  0  0
  -23.8019  -30.5788   19.4005 H   0  0  0  0  0  0
  -22.7846  -29.2423   19.8438 H   0  0  0  0  0  0
  -25.1308  -36.1872   25.0809 H   0  0  0  0  0  0
  -21.0006  -28.3307   24.1360 H   0  0  0  0  0  0
  -20.5684  -26.2332   23.3619 H   0  0  0  0  0  0
  -21.6654  -26.7433   22.1198 H   0  0  0  0  0  0
  -19.6923  -25.6287   21.1254 H   0  0  0  0  0  0
  -19.6698  -27.3181   20.6732 H   0  0  0  0  0  0
  -17.4210  -26.6677   21.4027 H   0  0  0  0  0  0
  -18.0343  -26.0081   22.9025 H   0  0  0  0  0  0
  -19.7952  -30.7293   24.2236 H   0  0  0  0  0  0
  -17.5027  -31.6270   24.5165 H   0  0  0  0  0  0
  -15.5365  -30.2981   23.7674 H   0  0  0  0  0  0
  -15.8686  -28.0817   22.7084 H   0  0  0  0  0  0
  -24.5901  -30.7091   25.7743 H   0  0  0  0  0  0
  -24.8892  -32.2932   26.4794 H   0  0  0  0  0  0
  -25.7998  -30.8963   27.0234 H   0  0  0  0  0  0
  -26.3011  -29.6690   24.1294 H   0  0  0  0  0  0
  -27.4001  -29.7267   25.4868 H   0  0  0  0  0  0
  -27.8920  -30.4210   23.9619 H   0  0  0  0  0  0
  -27.2648  -33.3657   26.2032 H   0  0  0  0  0  0
  -28.3894  -32.6867   25.0358 H   0  0  0  0  0  0
  -28.0692  -31.8499   26.5471 H   0  0  0  0  0  0
  -28.2586  -38.0091   24.7512 H   0  0  0  0  0  0
  -28.1079  -36.2620   24.6295 H   0  0  0  0  0  0
  -27.2292  -37.1437   25.8869 H   0  0  0  0  0  0
  -20.9459  -29.8771   21.6804 H   0  0  0  0  0  0
  -26.0156  -38.2819   24.1411 H   0  0  0  0  0  0
  -29.9685  -18.4999   22.6642 H   0  0  0  0  0  0
  -29.5493  -20.8727   22.2685 H   0  0  0  0  0  0
  -29.3898  -17.6358   18.5284 H   0  0  0  0  0  0
  -29.4541  -23.5235   21.2343 H   0  0  0  0  0  0
  -26.9652  -24.4999   20.2489 H   0  0  0  0  0  0
  -27.9063  -24.6465   18.7986 H   0  0  0  0  0  0
  -28.3984  -16.8818   22.2476 H   0  0  0  0  0  0
  -28.4234  -19.4538   17.2315 H   0  0  0  0  0  0
  -28.4579  -21.0501   17.7816 H   0  0  0  0  0  0
  1 25  1  0  0  0
  1 30  2  0  0  0
  1 78  1  0  0  0
  2  3  1  0  0  0
  2 25  1  0  0  0
  2 83  1  0  0  0
  2 84  1  0  0  0
  3  4  1  0  0  0
  3 85  1  0  0  0
  3 86  1  0  0  0
  4  5  1  0  0  0
  4 87  1  0  0  0
  4 88  1  0  0  0
  5  6  1  0  0  0
  5 26  1  0  0  0
  5 89  1  0  0  0
  6 25  1  0  0  0
  6 90  1  0  0  0
  6 91  1  0  0  0
  7  8  2  0  0  0
  7 26  1  0  0  0
  7 29  1  0  0  0
  8  9  1  0  0  0
  8 22  1  0  0  0
  9 10  1  0  0  0
  9 27  2  0  0  0
 10 11  2  0  0  0
 10 15  1  0  0  0
 11 12  1  0  0  0
 11 92  1  0  0  0
 12 13  2  0  0  0
 12 93  1  0  0  0
 13 14  1  0  0  0
 13 31  1  0  0  0
 14 15  2  0  0  0
 14 94  1  0  0  0
 15 95  1  0  0  0
 16 17  2  0  0  0
 16 21  1  0  0  0
 16 31  1  0  0  0
 17 18  1  0  0  0
 17 96  1  0  0  0
 18 19  2  0  0  0
 18 97  1  0  0  0
 19 20  1  0  0  0
 19 24  1  0  0  0
 20 21  2  0  0  0
 20 98  1  0  0  0
 21 23  1  0  0  0
 22 28  1  0  0  0
 22 32  2  0  0  0
 26 27  1  0  0  0
 28 99  1  0  0  0
 28100  1  0  0  0
 29101  1  0  0  0
 29102  1  0  0  0
 33 34  1  0  0  0
 33 66  1  0  0  0
 33 70  2  0  0  0
 34 36  1  0  0  0
 34 59  1  0  0  0
 34103  1  0  0  0
 35 44  2  0  0  0
 35 45  1  0  0  0
 35 68  1  0  0  0
 36 56  1  0  0  0
 36104  1  0  0  0
 37 39  1  0  0  0
 37 47  1  0  0  0
 37 66  1  0  0  0
 37105  1  0  0  0
 38 43  2  0  0  0
 38 46  1  0  0  0
 38 47  1  0  0  0
 39 64  1  0  0  0
 39 67  2  0  0  0
 40 52  1  0  0  0
 40 53  2  0  0  0
 40 58  1  0  0  0
 41106  1  0  0  0
 41107  1  0  0  0
 41108  1  0  0  0
 41 48  1  0  0  0
 42 43  1  0  0  0
 42 66  1  0  0  0
 42109  1  0  0  0
 42110  1  0  0  0
 43 44  1  0  0  0
 44111  1  0  0  0
 45 46  2  0  0  0
 45112  1  0  0  0
 46113  1  0  0  0
 47114  1  0  0  0
 47115  1  0  0  0
 48 56  1  0  0  0
 48 65  1  0  0  0
 48116  1  0  0  0
 49 50  1  0  0  0
 49 53  1  0  0  0
 49 64  1  0  0  0
 49117  1  0  0  0
 50 51  1  0  0  0
 50118  1  0  0  0
 50119  1  0  0  0
 51 52  1  0  0  0
 51120  1  0  0  0
 51121  1  0  0  0
 52122  1  0  0  0
 52123  1  0  0  0
 53 54  1  0  0  0
 54 55  2  0  0  0
 54124  1  0  0  0
 55 57  1  0  0  0
 55125  1  0  0  0
 56 69  2  0  0  0
 57 58  2  0  0  0
 57126  1  0  0  0
 58127  1  0  0  0
 59 60  1  0  0  0
 59 61  1  0  0  0
 59 62  1  0  0  0
 60128  1  0  0  0
 60129  1  0  0  0
 60130  1  0  0  0
 61131  1  0  0  0
 61132  1  0  0  0
 61133  1  0  0  0
 62134  1  0  0  0
 62135  1  0  0  0
 62136  1  0  0  0
 63 65  1  0  0  0
 63137  1  0  0  0
 63138  1  0  0  0
 63139  1  0  0  0
 64140  1  0  0  0
 65141  1  0  0  0
 68 79  1  0  0  0
 71 72  2  0  0  0
 71 74  1  0  0  0
 71142  1  0  0  0
 72 75  1  0  0  0
 72143  1  0  0  0
 73 74  2  0  0  0
 73 76  1  0  0  0
 73144  1  0  0  0
 74 78  1  0  0  0
 75 76  2  0  0  0
 75 81  1  0  0  0
 76 82  1  0  0  0
 77 79  1  0  0  0
 77 81  2  0  0  0
 77145  1  0  0  0
 78 80  2  0  0  0
 79146  1  0  0  0
 79147  1  0  0  0
 80148  1  0  0  0
 82149  1  0  0  0
 82150  1  0  0  0
M  ISO  4   1 100  68 101  78 100  79 101
M  END
> <chiral flag>
0

> <version>
0

> <s_m_source_file>
/data/baiqing/PycharmProjects/Reinvent-master-3.2/result/LINK_invent/BTK/process_docking_weight1_custom_product_contain_oxygen_bond_distance_aromatic_linkinvent_7_9_3/rearranged_h_0093.sdf

> <i_m_source_file_index>
79

> <r_mmod_Potential_Energy-OPLS-2005>
513.202941894531

> <r_mmod_Stretch_Energy-OPLS-2005>
229.865051269531

> <r_mmod_Bend_Energy-OPLS-2005>
277.254119873047

> <r_mmod_Torsional_Energy-OPLS-2005>
213.294982910156

> <r_mmod_Improper_Torsional_Energy-OPLS-2005>
9.85877799987793

> <r_mmod_Van_der_Waal_Energy-OPLS-2005>
149.243057250977

> <r_mmod_Electrostatic_Energy-OPLS-2005>
-309.984130859375

> <r_mmod_Solvation_Energy-OPLS-2005>
-215.444946289062

> <b_mmod_Minimization_Converged-OPLS-2005>
0

> <r_mmod_RMS_Derivative-OPLS-2005>
0.172383055090904

$$$$
80
                    3D
 Structure written by MMmdl.
151159  0  0  1  0            999 V2000
  -30.5256  -14.8894   20.4787 C   0  0  0  0  0  0
  -30.4609  -12.5587   19.4902 C   0  0  0  0  0  0
  -29.5271  -12.5546   18.2528 C   0  0  0  0  0  0
  -28.0518  -12.3479   18.6562 C   0  0  0  0  0  0
  -27.6475  -13.2292   19.8663 C   0  0  2  0  0  0
  -28.6949  -13.1155   20.9915 C   0  0  0  0  0  0
  -25.2536  -13.8171   20.5718 C   0  0  0  0  0  0
  -24.1803  -13.0419   20.9167 C   0  0  0  0  0  0
  -24.6396  -11.6897   20.8721 C   0  0  0  0  0  0
  -23.9068  -10.4282   21.0395 C   0  0  0  0  0  0
  -24.3617   -9.4202   21.9179 C   0  0  0  0  0  0
  -23.6288   -8.2240   22.0757 C   0  0  0  0  0  0
  -22.4271   -8.0278   21.3546 C   0  0  0  0  0  0
  -21.9905   -9.0250   20.4647 C   0  0  0  0  0  0
  -22.7236  -10.2127   20.3051 C   0  0  0  0  0  0
  -21.6850   -6.0735   22.5279 C   0  0  0  0  0  0
  -21.4013   -6.5641   23.8211 C   0  0  0  0  0  0
  -21.3657   -5.6795   24.9174 C   0  0  0  0  0  0
  -21.6043   -4.3057   24.7225 C   0  0  0  0  0  0
  -21.8819   -3.8149   23.4346 C   0  0  0  0  0  0
  -21.9192   -4.6964   22.3402 C   0  0  0  0  0  0
  -22.7830  -13.5212   21.1839 C   0  0  0  0  0  0
  -22.1660   -4.2151   21.0979 F   0  0  0  0  0  0
  -21.5627   -3.4540   25.7737 F   0  0  0  0  0  0
  -29.9753  -13.6008   20.4419 N   0  0  0  0  0  0
  -26.2970  -12.9367   20.3350 N   0  0  0  0  0  0
  -25.9332  -11.6506   20.5746 N   0  0  0  0  0  0
  -22.0483  -12.8209   22.0410 N   0  0  0  0  0  0
  -25.4256  -15.1896   20.4213 N   0  0  0  0  0  0
  -31.6788  -15.0295   20.0493 O   0  0  0  0  0  0
  -21.6635   -6.8876   21.4240 O   0  0  0  0  0  0
  -22.3511  -14.5520   20.6696 O   0  0  0  0  0  0
  -24.6407  -31.8470   23.1918 C   0  0  0  0  0  0
  -25.9194  -32.4707   23.8290 C   0  0  1  0  0  0
  -27.2216  -27.1712   20.1361 C   0  0  0  0  0  0
  -25.5954  -33.8514   24.2205 N   0  0  0  0  0  0
  -23.4423  -30.4690   21.5364 C   0  0  2  0  0  0
  -24.8922  -28.9048   20.1077 C   0  0  0  0  0  0
  -22.7553  -29.4567   22.4864 C   0  0  0  0  0  0
  -18.0302  -28.1398   22.8478 C   0  0  0  0  0  0
  -24.1489  -36.7260   23.2644 C   0  0  0  0  0  0
  -25.9974  -30.7287   21.3893 C   0  0  0  0  0  0
  -26.0682  -29.3448   20.7284 C   0  0  0  0  0  0
  -27.2320  -28.4922   20.7316 C   0  0  0  0  0  0
  -26.0224  -26.8347   19.4650 C   0  0  0  0  0  0
  -24.8804  -27.6608   19.4625 C   0  0  0  0  0  0
  -23.6669  -29.8023   20.1541 C   0  0  0  0  0  0
  -25.4121  -36.3039   24.0317 C   0  0  1  0  0  0
  -20.5914  -28.3724   23.1235 C   0  0  2  0  0  0
  -20.6787  -26.9428   22.5401 C   0  0  0  0  0  0
  -19.5758  -26.6383   21.5210 C   0  0  0  0  0  0
  -18.1939  -26.7936   22.1623 C   0  0  0  0  0  0
  -19.1559  -28.8878   23.2849 C   0  0  0  0  0  0
  -18.9479  -30.1473   23.8875 C   0  0  0  0  0  0
  -17.6478  -30.6594   24.0563 C   0  0  0  0  0  0
  -25.9073  -34.9414   23.5067 C   0  0  0  0  0  0
  -16.5368  -29.9089   23.6340 C   0  0  0  0  0  0
  -16.7288  -28.6508   23.0358 C   0  0  0  0  0  0
  -26.4525  -31.6573   25.0724 C   0  0  0  0  0  0
  -25.3709  -31.3758   26.1420 C   0  0  0  0  0  0
  -27.0400  -30.2972   24.6303 C   0  0  0  0  0  0
  -27.6054  -32.4347   25.7504 C   0  0  0  0  0  0
  -27.5573  -37.1785   24.8468 C   0  0  0  0  0  0
  -21.4249  -29.3054   22.3611 N   0  0  0  0  0  0
  -26.4286  -37.3750   23.9410 N   0  0  0  0  0  0
  -24.7129  -31.0352   22.0942 N   0  0  0  0  0  0
  -23.4209  -28.8105   23.2999 O   0  0  0  0  0  0
  -28.2759  -26.1961   20.2219 O   0  0  0  0  0  0
  -26.5654  -34.8905   22.4643 O   0  0  0  0  0  0
  -23.5533  -32.1341   23.7150 O   0  0  0  0  0  0
  -29.9817  -18.7854   21.5851 C   0  0  0  0  0  0
  -29.7326  -20.2021   21.3798 C   0  0  0  0  0  0
  -29.2849  -18.3023   19.3847 C   0  0  0  0  0  0
  -29.7539  -17.7418   20.6157 C   0  0  0  0  0  0
  -29.2020  -20.7389   20.1660 C   0  0  0  0  0  0
  -29.0235  -19.7150   19.1721 C   0  0  0  0  0  0
  -29.6607  -16.1940   21.0265 C   0  0  0  0  0  0
  -28.8965  -23.4522   20.4182 C   0  0  0  0  0  0
  -27.9978  -24.7169   19.8741 C   0  0  0  0  0  0
  -28.7958  -16.0154   21.9326 N   0  0  0  0  0  0
  -28.5290  -20.1090   17.9283 N   0  0  0  0  0  0
  -28.7252  -22.1568   19.8913 N   0  0  0  0  0  0
  -29.7231  -23.6576   21.3111 O   0  0  0  0  0  0
  -31.4895  -12.7391   19.1746 H   0  0  0  0  0  0
  -30.4770  -11.5763   19.9649 H   0  0  0  0  0  0
  -29.8352  -11.7807   17.5487 H   0  0  0  0  0  0
  -29.6268  -13.5042   17.7251 H   0  0  0  0  0  0
  -27.9222  -11.2952   18.9104 H   0  0  0  0  0  0
  -27.3939  -12.5390   17.8078 H   0  0  0  0  0  0
  -27.6494  -14.2607   19.5140 H   0  0  0  0  0  0
  -28.7839  -12.0762   21.3114 H   0  0  0  0  0  0
  -28.3828  -13.6340   21.8930 H   0  0  0  0  0  0
  -25.2762   -9.5677   22.4753 H   0  0  0  0  0  0
  -23.9993   -7.4634   22.7482 H   0  0  0  0  0  0
  -21.0833   -8.8768   19.8958 H   0  0  0  0  0  0
  -22.3693  -10.9664   19.6161 H   0  0  0  0  0  0
  -21.2006   -7.6149   23.9713 H   0  0  0  0  0  0
  -21.1478   -6.0526   25.9075 H   0  0  0  0  0  0
  -22.0601   -2.7611   23.2846 H   0  0  0  0  0  0
  -22.4097  -11.9860   22.4778 H   0  0  0  0  0  0
  -21.1117  -13.1255   22.2649 H   0  0  0  0  0  0
  -24.6770  -15.8551   20.5785 H   0  0  0  0  0  0
  -26.3187  -15.6301   20.2368 H   0  0  0  0  0  0
  -26.7257  -32.5311   23.1018 H   0  0  0  0  0  0
  -25.0088  -33.9637   25.0342 H   0  0  0  0  0  0
  -22.7435  -31.2944   21.3850 H   0  0  0  0  0  0
  -23.3754  -35.9588   23.3300 H   0  0  0  0  0  0
  -24.3575  -36.8898   22.2061 H   0  0  0  0  0  0
  -23.7241  -37.6452   23.6686 H   0  0  0  0  0  0
  -26.1539  -31.4853   20.6193 H   0  0  0  0  0  0
  -26.8682  -30.7733   22.0319 H   0  0  0  0  0  0
  -28.1249  -28.8218   21.2443 H   0  0  0  0  0  0
  -25.9241  -25.8940   18.9455 H   0  0  0  0  0  0
  -23.9848  -27.3217   18.9600 H   0  0  0  0  0  0
  -23.7996  -30.5789   19.4000 H   0  0  0  0  0  0
  -22.7820  -29.2435   19.8438 H   0  0  0  0  0  0
  -25.1305  -36.1870   25.0809 H   0  0  0  0  0  0
  -21.0010  -28.3316   24.1354 H   0  0  0  0  0  0
  -20.5684  -26.2339   23.3621 H   0  0  0  0  0  0
  -21.6652  -26.7435   22.1195 H   0  0  0  0  0  0
  -19.6922  -25.6288   21.1255 H   0  0  0  0  0  0
  -19.6693  -27.3182   20.6730 H   0  0  0  0  0  0
  -17.4208  -26.6683   21.4027 H   0  0  0  0  0  0
  -18.0341  -26.0080   22.9022 H   0  0  0  0  0  0
  -19.7957  -30.7294   24.2233 H   0  0  0  0  0  0
  -17.5032  -31.6271   24.5172 H   0  0  0  0  0  0
  -15.5368  -30.2986   23.7679 H   0  0  0  0  0  0
  -15.8687  -28.0822   22.7088 H   0  0  0  0  0  0
  -24.5889  -30.7111   25.7733 H   0  0  0  0  0  0
  -24.8899  -32.2941   26.4798 H   0  0  0  0  0  0
  -25.7987  -30.8955   27.0229 H   0  0  0  0  0  0
  -26.3024  -29.6682   24.1309 H   0  0  0  0  0  0
  -27.4019  -29.7280   25.4876 H   0  0  0  0  0  0
  -27.8923  -30.4213   23.9620 H   0  0  0  0  0  0
  -27.2649  -33.3672   26.2019 H   0  0  0  0  0  0
  -28.3894  -32.6877   25.0352 H   0  0  0  0  0  0
  -28.0692  -31.8517   26.5471 H   0  0  0  0  0  0
  -28.2586  -38.0084   24.7513 H   0  0  0  0  0  0
  -28.1073  -36.2615   24.6298 H   0  0  0  0  0  0
  -27.2289  -37.1436   25.8869 H   0  0  0  0  0  0
  -20.9457  -29.8778   21.6801 H   0  0  0  0  0  0
  -26.0152  -38.2816   24.1417 H   0  0  0  0  0  0
  -30.2947  -18.4818   22.5745 H   0  0  0  0  0  0
  -29.8956  -20.8766   22.2082 H   0  0  0  0  0  0
  -29.0362  -17.6073   18.5953 H   0  0  0  0  0  0
  -26.9953  -24.4773   20.2285 H   0  0  0  0  0  0
  -27.9648  -24.6405   18.7870 H   0  0  0  0  0  0
  -28.3520  -16.8919   22.1791 H   0  0  0  0  0  0
  -28.6058  -19.4317   17.1765 H   0  0  0  0  0  0
  -28.8024  -21.0320   17.6092 H   0  0  0  0  0  0
  -28.0829  -22.1668   19.1106 H   0  0  0  0  0  0
  1 25  1  0  0  0
  1 30  2  0  0  0
  1 77  1  0  0  0
  2  3  1  0  0  0
  2 25  1  0  0  0
  2 84  1  0  0  0
  2 85  1  0  0  0
  3  4  1  0  0  0
  3 86  1  0  0  0
  3 87  1  0  0  0
  4  5  1  0  0  0
  4 88  1  0  0  0
  4 89  1  0  0  0
  5  6  1  0  0  0
  5 26  1  0  0  0
  5 90  1  0  0  0
  6 25  1  0  0  0
  6 91  1  0  0  0
  6 92  1  0  0  0
  7  8  2  0  0  0
  7 26  1  0  0  0
  7 29  1  0  0  0
  8  9  1  0  0  0
  8 22  1  0  0  0
  9 10  1  0  0  0
  9 27  2  0  0  0
 10 11  2  0  0  0
 10 15  1  0  0  0
 11 12  1  0  0  0
 11 93  1  0  0  0
 12 13  2  0  0  0
 12 94  1  0  0  0
 13 14  1  0  0  0
 13 31  1  0  0  0
 14 15  2  0  0  0
 14 95  1  0  0  0
 15 96  1  0  0  0
 16 17  2  0  0  0
 16 21  1  0  0  0
 16 31  1  0  0  0
 17 18  1  0  0  0
 17 97  1  0  0  0
 18 19  2  0  0  0
 18 98  1  0  0  0
 19 20  1  0  0  0
 19 24  1  0  0  0
 20 21  2  0  0  0
 20 99  1  0  0  0
 21 23  1  0  0  0
 22 28  1  0  0  0
 22 32  2  0  0  0
 26 27  1  0  0  0
 28100  1  0  0  0
 28101  1  0  0  0
 29102  1  0  0  0
 29103  1  0  0  0
 33 34  1  0  0  0
 33 66  1  0  0  0
 33 70  2  0  0  0
 34 36  1  0  0  0
 34 59  1  0  0  0
 34104  1  0  0  0
 35 44  2  0  0  0
 35 45  1  0  0  0
 35 68  1  0  0  0
 36 56  1  0  0  0
 36105  1  0  0  0
 37 39  1  0  0  0
 37 47  1  0  0  0
 37 66  1  0  0  0
 37106  1  0  0  0
 38 43  2  0  0  0
 38 46  1  0  0  0
 38 47  1  0  0  0
 39 64  1  0  0  0
 39 67  2  0  0  0
 40 52  1  0  0  0
 40 53  2  0  0  0
 40 58  1  0  0  0
 41107  1  0  0  0
 41108  1  0  0  0
 41109  1  0  0  0
 41 48  1  0  0  0
 42 43  1  0  0  0
 42 66  1  0  0  0
 42110  1  0  0  0
 42111  1  0  0  0
 43 44  1  0  0  0
 44112  1  0  0  0
 45 46  2  0  0  0
 45113  1  0  0  0
 46114  1  0  0  0
 47115  1  0  0  0
 47116  1  0  0  0
 48 56  1  0  0  0
 48 65  1  0  0  0
 48117  1  0  0  0
 49 50  1  0  0  0
 49 53  1  0  0  0
 49 64  1  0  0  0
 49118  1  0  0  0
 50 51  1  0  0  0
 50119  1  0  0  0
 50120  1  0  0  0
 51 52  1  0  0  0
 51121  1  0  0  0
 51122  1  0  0  0
 52123  1  0  0  0
 52124  1  0  0  0
 53 54  1  0  0  0
 54 55  2  0  0  0
 54125  1  0  0  0
 55 57  1  0  0  0
 55126  1  0  0  0
 56 69  2  0  0  0
 57 58  2  0  0  0
 57127  1  0  0  0
 58128  1  0  0  0
 59 60  1  0  0  0
 59 61  1  0  0  0
 59 62  1  0  0  0
 60129  1  0  0  0
 60130  1  0  0  0
 60131  1  0  0  0
 61132  1  0  0  0
 61133  1  0  0  0
 61134  1  0  0  0
 62135  1  0  0  0
 62136  1  0  0  0
 62137  1  0  0  0
 63 65  1  0  0  0
 63138  1  0  0  0
 63139  1  0  0  0
 63140  1  0  0  0
 64141  1  0  0  0
 65142  1  0  0  0
 68 79  1  0  0  0
 71 72  2  0  0  0
 71 74  1  0  0  0
 71143  1  0  0  0
 72 75  1  0  0  0
 72144  1  0  0  0
 73 74  2  0  0  0
 73 76  1  0  0  0
 73145  1  0  0  0
 74 77  1  0  0  0
 75 76  2  0  0  0
 75 82  1  0  0  0
 76 81  1  0  0  0
 77 80  2  0  0  0
 78 79  1  0  0  0
 78 82  1  0  0  0
 78 83  2  0  0  0
 79146  1  0  0  0
 79147  1  0  0  0
 80148  1  0  0  0
 81149  1  0  0  0
 81150  1  0  0  0
 82151  1  0  0  0
M  ISO  4   1 100  68 101  77 100  79 101
M  END
> <chiral flag>
0

> <version>
0

> <s_m_source_file>
/data/baiqing/PycharmProjects/Reinvent-master-3.2/result/LINK_invent/BTK/process_docking_weight1_custom_product_contain_oxygen_bond_distance_aromatic_linkinvent_7_9_3/rearranged_h_0093.sdf

> <i_m_source_file_index>
80

> <r_mmod_Potential_Energy-OPLS-2005>
424.472625732422

> <r_mmod_Stretch_Energy-OPLS-2005>
215.786926269531

> <r_mmod_Bend_Energy-OPLS-2005>
255.771362304688

> <r_mmod_Torsional_Energy-OPLS-2005>
225.786468505859

> <r_mmod_Improper_Torsional_Energy-OPLS-2005>
10.2868709564209

> <r_mmod_Van_der_Waal_Energy-OPLS-2005>
144.25276184082

> <r_mmod_Electrostatic_Energy-OPLS-2005>
-338.353363037109

> <r_mmod_Solvation_Energy-OPLS-2005>
-243.047012329102

> <b_mmod_Minimization_Converged-OPLS-2005>
0

> <r_mmod_RMS_Derivative-OPLS-2005>
0.509174048900604

$$$$
81
                    3D
 Structure written by MMmdl.
159168  0  0  1  0            999 V2000
  -30.6965  -14.5763   20.4633 C   0  0  0  0  0  0
  -30.4187  -12.3362   19.4418 C   0  0  0  0  0  0
  -29.4916  -12.4453   18.2150 C   0  0  0  0  0  0
  -28.0176  -12.3085   18.6410 C   0  0  0  0  0  0
  -27.6458  -13.2070   19.8515 C   0  0  2  0  0  0
  -28.6977  -13.1071   20.9787 C   0  0  0  0  0  0
  -25.2590  -13.8279   20.5706 C   0  0  0  0  0  0
  -24.1844  -13.0543   20.9196 C   0  0  0  0  0  0
  -24.6381  -11.7010   20.8717 C   0  0  0  0  0  0
  -23.9077  -10.4400   21.0359 C   0  0  0  0  0  0
  -24.3645   -9.4331   21.9134 C   0  0  0  0  0  0
  -23.6337   -8.2358   22.0711 C   0  0  0  0  0  0
  -22.4297   -8.0400   21.3526 C   0  0  0  0  0  0
  -21.9945   -9.0369   20.4601 C   0  0  0  0  0  0
  -22.7258  -10.2248   20.3002 C   0  0  0  0  0  0
  -21.6916   -6.0802   22.5252 C   0  0  0  0  0  0
  -21.4094   -6.5687   23.8196 C   0  0  0  0  0  0
  -21.3621   -5.6790   24.9117 C   0  0  0  0  0  0
  -21.6018   -4.3058   24.7158 C   0  0  0  0  0  0
  -21.8838   -3.8184   23.4274 C   0  0  0  0  0  0
  -21.9245   -4.7025   22.3351 C   0  0  0  0  0  0
  -22.7876  -13.5348   21.1831 C   0  0  0  0  0  0
  -22.1712   -4.2225   21.0924 F   0  0  0  0  0  0
  -21.5555   -3.4527   25.7660 F   0  0  0  0  0  0
  -30.0110  -13.3935   20.3865 N   0  0  0  0  0  0
  -26.2961  -12.9390   20.3321 N   0  0  0  0  0  0
  -25.9286  -11.6564   20.5742 N   0  0  0  0  0  0
  -22.0531  -12.8310   22.0356 N   0  0  0  0  0  0
  -25.4390  -15.1998   20.4144 N   0  0  0  0  0  0
  -31.8871  -14.6433   20.1560 O   0  0  0  0  0  0
  -21.6684   -6.8976   21.4229 O   0  0  0  0  0  0
  -22.3569  -14.5676   20.6713 O   0  0  0  0  0  0
  -24.6167  -31.8643   23.2086 C   0  0  0  0  0  0
  -25.9045  -32.4807   23.8419 C   0  0  1  0  0  0
  -27.2432  -27.3994   20.1196 C   0  0  0  0  0  0
  -25.5926  -33.8614   24.2335 N   0  0  0  0  0  0
  -23.4115  -30.4831   21.5466 C   0  0  2  0  0  0
  -24.8658  -28.9440   20.1148 C   0  0  0  0  0  0
  -22.7440  -29.4619   22.4966 C   0  0  0  0  0  0
  -18.0282  -28.1355   22.8483 C   0  0  0  0  0  0
  -24.1486  -36.7292   23.2648 C   0  0  0  0  0  0
  -25.9441  -30.8140   21.3753 C   0  0  0  0  0  0
  -26.0232  -29.4472   20.7231 C   0  0  0  0  0  0
  -27.2158  -28.6812   20.7289 C   0  0  0  0  0  0
  -26.0747  -26.9237   19.4906 C   0  0  0  0  0  0
  -24.8864  -27.6818   19.4935 C   0  0  0  0  0  0
  -23.6251  -29.8104   20.1636 C   0  0  0  0  0  0
  -25.4110  -36.3096   24.0348 C   0  0  1  0  0  0
  -20.5874  -28.3646   23.1305 C   0  0  2  0  0  0
  -20.6759  -26.9377   22.5400 C   0  0  0  0  0  0
  -19.5740  -26.6366   21.5191 C   0  0  0  0  0  0
  -18.1925  -26.7912   22.1597 C   0  0  0  0  0  0
  -19.1535  -28.8819   23.2899 C   0  0  0  0  0  0
  -18.9456  -30.1433   23.8902 C   0  0  0  0  0  0
  -17.6450  -30.6563   24.0541 C   0  0  0  0  0  0
  -25.9050  -34.9466   23.5135 C   0  0  0  0  0  0
  -16.5340  -29.9051   23.6329 C   0  0  0  0  0  0
  -16.7263  -28.6463   23.0362 C   0  0  0  0  0  0
  -26.4475  -31.6611   25.0769 C   0  0  0  0  0  0
  -25.3746  -31.3728   26.1526 C   0  0  0  0  0  0
  -27.0321  -30.3048   24.6184 C   0  0  0  0  0  0
  -27.6055  -32.4348   25.7518 C   0  0  0  0  0  0
  -27.5582  -37.1792   24.8455 C   0  0  0  0  0  0
  -21.4158  -29.3015   22.3715 N   0  0  0  0  0  0
  -26.4275  -37.3788   23.9432 N   0  0  0  0  0  0
  -24.6749  -31.0702   22.1003 N   0  0  0  0  0  0
  -23.4197  -28.8173   23.3035 O   0  0  0  0  0  0
  -28.3479  -26.5658   20.1487 O   0  0  0  0  0  0
  -26.5582  -34.8910   22.4684 O   0  0  0  0  0  0
  -23.5343  -32.1416   23.7443 O   0  0  0  0  0  0
  -28.7732  -18.6272   22.2338 C   0  0  0  0  0  0
  -28.4916  -20.0135   22.2685 C   0  0  0  0  0  0
  -30.2150  -20.4432   20.6350 C   0  0  0  0  0  0
  -29.8034  -18.1133   21.4146 C   0  0  0  0  0  0
  -29.2150  -20.9570   21.4937 C   0  0  0  0  0  0
  -30.5146  -19.0466   20.6046 C   0  0  0  0  0  0
  -29.0280  -24.7382   21.6727 C   0  0  0  0  0  0
  -28.6394  -26.0111   21.3795 C   0  0  0  0  0  0
  -30.2132  -16.6412   21.5532 C   0  0  0  0  0  0
  -29.2133  -24.2722   23.0965 C   0  0  0  0  0  0
  -29.2353  -23.4983   20.7944 C   0  0  0  0  0  0
  -28.8540  -22.7835   23.0732 C   0  0  0  0  0  0
  -29.3572  -16.2264   19.3101 C   0  0  0  0  0  0
  -28.9512  -22.3465   21.6834 N   0  0  0  0  0  0
  -29.9630  -15.7328   20.5589 N   0  0  0  0  0  0
  -30.7274  -16.3126   22.6295 O   0  0  0  0  0  0
  -31.5349  -18.6217   19.8205 F   0  0  0  0  0  0
  -31.4582  -12.4271   19.1229 H   0  0  0  0  0  0
  -30.3389  -11.3501   19.9066 H   0  0  0  0  0  0
  -29.7291  -11.6623   17.4937 H   0  0  0  0  0  0
  -29.6528  -13.3902   17.6973 H   0  0  0  0  0  0
  -27.8486  -11.2607   18.8942 H   0  0  0  0  0  0
  -27.3586  -12.5224   17.8002 H   0  0  0  0  0  0
  -27.6422  -14.2241   19.4732 H   0  0  0  0  0  0
  -28.6973  -12.1129   21.4281 H   0  0  0  0  0  0
  -28.4636  -13.8052   21.7846 H   0  0  0  0  0  0
  -25.2820   -9.5873   22.4633 H   0  0  0  0  0  0
  -24.0110   -7.4777   22.7427 H   0  0  0  0  0  0
  -21.0879   -8.8907   19.8898 H   0  0  0  0  0  0
  -22.3742  -10.9789   19.6093 H   0  0  0  0  0  0
  -21.2156   -7.6207   23.9750 H   0  0  0  0  0  0
  -21.1349   -6.0466   25.9008 H   0  0  0  0  0  0
  -22.0641   -2.7663   23.2702 H   0  0  0  0  0  0
  -22.4200  -11.9949   22.4663 H   0  0  0  0  0  0
  -21.1117  -13.1262   22.2514 H   0  0  0  0  0  0
  -24.6830  -15.8708   20.5018 H   0  0  0  0  0  0
  -26.3002  -15.6278   20.0991 H   0  0  0  0  0  0
  -26.7118  -32.5509   23.1192 H   0  0  0  0  0  0
  -25.0110  -33.9777   25.0495 H   0  0  0  0  0  0
  -22.7019  -31.3003   21.4037 H   0  0  0  0  0  0
  -23.3756  -35.9612   23.3285 H   0  0  0  0  0  0
  -24.3567  -36.8924   22.2062 H   0  0  0  0  0  0
  -23.7191  -37.6481   23.6661 H   0  0  0  0  0  0
  -26.0743  -31.5778   20.6085 H   0  0  0  0  0  0
  -26.8233  -30.8575   22.0049 H   0  0  0  0  0  0
  -28.1022  -29.0552   21.2222 H   0  0  0  0  0  0
  -26.0824  -25.9500   19.0205 H   0  0  0  0  0  0
  -23.9972  -27.2849   19.0220 H   0  0  0  0  0  0
  -23.7314  -30.5828   19.4024 H   0  0  0  0  0  0
  -22.7501  -29.2279   19.8695 H   0  0  0  0  0  0
  -25.1267  -36.1971   25.0831 H   0  0  0  0  0  0
  -20.9965  -28.3189   24.1424 H   0  0  0  0  0  0
  -20.5621  -26.2251   23.3584 H   0  0  0  0  0  0
  -21.6633  -26.7385   22.1214 H   0  0  0  0  0  0
  -19.6901  -25.6284   21.1206 H   0  0  0  0  0  0
  -19.6697  -27.3182   20.6732 H   0  0  0  0  0  0
  -17.4203  -26.6681   21.3997 H   0  0  0  0  0  0
  -18.0322  -26.0036   22.8967 H   0  0  0  0  0  0
  -19.7938  -30.7247   24.2271 H   0  0  0  0  0  0
  -17.5003  -31.6244   24.5136 H   0  0  0  0  0  0
  -15.5337  -30.2943   23.7644 H   0  0  0  0  0  0
  -15.8673  -28.0765   22.7075 H   0  0  0  0  0  0
  -24.5894  -30.7103   25.7865 H   0  0  0  0  0  0
  -24.8982  -32.2891   26.5033 H   0  0  0  0  0  0
  -25.8112  -30.8855   27.0253 H   0  0  0  0  0  0
  -26.2884  -29.6820   24.1201 H   0  0  0  0  0  0
  -27.4022  -29.7286   25.4674 H   0  0  0  0  0  0
  -27.8757  -30.4364   23.9403 H   0  0  0  0  0  0
  -27.2673  -33.3630   26.2139 H   0  0  0  0  0  0
  -28.3842  -32.6942   25.0331 H   0  0  0  0  0  0
  -28.0763  -31.8464   26.5401 H   0  0  0  0  0  0
  -28.2569  -38.0120   24.7543 H   0  0  0  0  0  0
  -28.1101  -36.2649   24.6213 H   0  0  0  0  0  0
  -27.2313  -37.1359   25.8858 H   0  0  0  0  0  0
  -20.9326  -29.8757   21.6951 H   0  0  0  0  0  0
  -26.0169  -38.2866   24.1442 H   0  0  0  0  0  0
  -28.2153  -17.9593   22.8765 H   0  0  0  0  0  0
  -27.7091  -20.3487   22.9326 H   0  0  0  0  0  0
  -30.8006  -21.1213   20.0299 H   0  0  0  0  0  0
  -28.5023  -26.7334   22.1736 H   0  0  0  0  0  0
  -28.6069  -24.8307   23.8135 H   0  0  0  0  0  0
  -30.2634  -24.4003   23.3689 H   0  0  0  0  0  0
  -30.2779  -23.4787   20.4639 H   0  0  0  0  0  0
  -28.5928  -23.5223   19.9116 H   0  0  0  0  0  0
  -27.8302  -22.6322   23.4163 H   0  0  0  0  0  0
  -29.5137  -22.2054   23.7249 H   0  0  0  0  0  0
  -29.9742  -16.9990   18.8524 H   0  0  0  0  0  0
  -28.3627  -16.6422   19.4891 H   0  0  0  0  0  0
  -29.2441  -15.4537   18.5492 H   0  0  0  0  0  0
  1 25  1  0  0  0
  1 30  2  0  0  0
  1 85  1  0  0  0
  2  3  1  0  0  0
  2 25  1  0  0  0
  2 88  1  0  0  0
  2 89  1  0  0  0
  3  4  1  0  0  0
  3 90  1  0  0  0
  3 91  1  0  0  0
  4  5  1  0  0  0
  4 92  1  0  0  0
  4 93  1  0  0  0
  5  6  1  0  0  0
  5 26  1  0  0  0
  5 94  1  0  0  0
  6 25  1  0  0  0
  6 95  1  0  0  0
  6 96  1  0  0  0
  7  8  2  0  0  0
  7 26  1  0  0  0
  7 29  1  0  0  0
  8  9  1  0  0  0
  8 22  1  0  0  0
  9 10  1  0  0  0
  9 27  2  0  0  0
 10 11  2  0  0  0
 10 15  1  0  0  0
 11 12  1  0  0  0
 11 97  1  0  0  0
 12 13  2  0  0  0
 12 98  1  0  0  0
 13 14  1  0  0  0
 13 31  1  0  0  0
 14 15  2  0  0  0
 14 99  1  0  0  0
 15100  1  0  0  0
 16 17  2  0  0  0
 16 21  1  0  0  0
 16 31  1  0  0  0
 17 18  1  0  0  0
 17101  1  0  0  0
 18 19  2  0  0  0
 18102  1  0  0  0
 19 20  1  0  0  0
 19 24  1  0  0  0
 20 21  2  0  0  0
 20103  1  0  0  0
 21 23  1  0  0  0
 22 28  1  0  0  0
 22 32  2  0  0  0
 26 27  1  0  0  0
 28104  1  0  0  0
 28105  1  0  0  0
 29106  1  0  0  0
 29107  1  0  0  0
 33 34  1  0  0  0
 33 66  1  0  0  0
 33 70  2  0  0  0
 34 36  1  0  0  0
 34 59  1  0  0  0
 34108  1  0  0  0
 35 44  2  0  0  0
 35 45  1  0  0  0
 35 68  1  0  0  0
 36 56  1  0  0  0
 36109  1  0  0  0
 37 39  1  0  0  0
 37 47  1  0  0  0
 37 66  1  0  0  0
 37110  1  0  0  0
 38 43  2  0  0  0
 38 46  1  0  0  0
 38 47  1  0  0  0
 39 64  1  0  0  0
 39 67  2  0  0  0
 40 52  1  0  0  0
 40 53  2  0  0  0
 40 58  1  0  0  0
 41111  1  0  0  0
 41112  1  0  0  0
 41113  1  0  0  0
 41 48  1  0  0  0
 42 43  1  0  0  0
 42 66  1  0  0  0
 42114  1  0  0  0
 42115  1  0  0  0
 43 44  1  0  0  0
 44116  1  0  0  0
 45 46  2  0  0  0
 45117  1  0  0  0
 46118  1  0  0  0
 47119  1  0  0  0
 47120  1  0  0  0
 48 56  1  0  0  0
 48 65  1  0  0  0
 48121  1  0  0  0
 49 50  1  0  0  0
 49 53  1  0  0  0
 49 64  1  0  0  0
 49122  1  0  0  0
 50 51  1  0  0  0
 50123  1  0  0  0
 50124  1  0  0  0
 51 52  1  0  0  0
 51125  1  0  0  0
 51126  1  0  0  0
 52127  1  0  0  0
 52128  1  0  0  0
 53 54  1  0  0  0
 54 55  2  0  0  0
 54129  1  0  0  0
 55 57  1  0  0  0
 55130  1  0  0  0
 56 69  2  0  0  0
 57 58  2  0  0  0
 57131  1  0  0  0
 58132  1  0  0  0
 59 60  1  0  0  0
 59 61  1  0  0  0
 59 62  1  0  0  0
 60133  1  0  0  0
 60134  1  0  0  0
 60135  1  0  0  0
 61136  1  0  0  0
 61137  1  0  0  0
 61138  1  0  0  0
 62139  1  0  0  0
 62140  1  0  0  0
 62141  1  0  0  0
 63 65  1  0  0  0
 63142  1  0  0  0
 63143  1  0  0  0
 63144  1  0  0  0
 64145  1  0  0  0
 65146  1  0  0  0
 68 78  1  0  0  0
 71 72  2  0  0  0
 71 74  1  0  0  0
 71147  1  0  0  0
 72 75  1  0  0  0
 72148  1  0  0  0
 73 75  2  0  0  0
 73 76  1  0  0  0
 73149  1  0  0  0
 74 76  2  0  0  0
 74 79  1  0  0  0
 75 84  1  0  0  0
 76 87  1  0  0  0
 77 78  2  0  0  0
 77 80  1  0  0  0
 77 81  1  0  0  0
 78150  1  0  0  0
 79 85  1  0  0  0
 79 86  2  0  0  0
 80 82  1  0  0  0
 80151  1  0  0  0
 80152  1  0  0  0
 81 84  1  0  0  0
 81153  1  0  0  0
 81154  1  0  0  0
 82 84  1  0  0  0
 82155  1  0  0  0
 82156  1  0  0  0
 83 85  1  0  0  0
 83157  1  0  0  0
 83158  1  0  0  0
 83159  1  0  0  0
M  ISO  4   1 100  68 101  78 101  85 100
M  END
> <chiral flag>
0

> <version>
0

> <s_m_source_file>
/data/baiqing/PycharmProjects/Reinvent-master-3.2/result/LINK_invent/BTK/process_docking_weight1_custom_product_contain_oxygen_bond_distance_aromatic_linkinvent_7_9_3/rearranged_h_0093.sdf

> <i_m_source_file_index>
81

> <r_mmod_Potential_Energy-OPLS-2005>
263.203887939453

> <r_mmod_Stretch_Energy-OPLS-2005>
53.6826324462891

> <r_mmod_Bend_Energy-OPLS-2005>
169.003463745117

> <r_mmod_Torsional_Energy-OPLS-2005>
367.354095458984

> <r_mmod_Improper_Torsional_Energy-OPLS-2005>
12.615140914917

> <r_mmod_Van_der_Waal_Energy-OPLS-2005>
148.156890869141

> <r_mmod_Electrostatic_Energy-OPLS-2005>
-311.943481445312

> <r_mmod_Solvation_Energy-OPLS-2005>
-210.580764770508

> <b_mmod_Minimization_Converged-OPLS-2005>
0

> <r_mmod_RMS_Derivative-OPLS-2005>
4.56291103363037

$$$$
82
                    3D
 Structure written by MMmdl.
149157  0  0  1  0            999 V2000
  -30.5832  -14.9716   20.4196 C   0  0  0  0  0  0
  -30.4262  -12.6065   19.5045 C   0  0  0  0  0  0
  -29.5157  -12.5269   18.2594 C   0  0  0  0  0  0
  -28.0506  -12.3137   18.6783 C   0  0  0  0  0  0
  -27.6235  -13.2569   19.8330 C   0  0  2  0  0  0
  -28.6679  -13.3235   20.9680 C   0  0  0  0  0  0
  -25.2435  -13.8228   20.5727 C   0  0  0  0  0  0
  -24.1765  -13.0441   20.9243 C   0  0  0  0  0  0
  -24.6395  -11.6930   20.8764 C   0  0  0  0  0  0
  -23.9083  -10.4296   21.0418 C   0  0  0  0  0  0
  -24.3633   -9.4208   21.9195 C   0  0  0  0  0  0
  -23.6305   -8.2241   22.0758 C   0  0  0  0  0  0
  -22.4285   -8.0284   21.3549 C   0  0  0  0  0  0
  -21.9925   -9.0256   20.4648 C   0  0  0  0  0  0
  -22.7253  -10.2138   20.3064 C   0  0  0  0  0  0
  -21.6853   -6.0744   22.5282 C   0  0  0  0  0  0
  -21.4010   -6.5647   23.8216 C   0  0  0  0  0  0
  -21.3656   -5.6799   24.9179 C   0  0  0  0  0  0
  -21.6048   -4.3063   24.7226 C   0  0  0  0  0  0
  -21.8815   -3.8154   23.4345 C   0  0  0  0  0  0
  -21.9190   -4.6971   22.3404 C   0  0  0  0  0  0
  -22.7782  -13.5202   21.1889 C   0  0  0  0  0  0
  -22.1663   -4.2160   21.0981 F   0  0  0  0  0  0
  -21.5627   -3.4543   25.7736 F   0  0  0  0  0  0
  -29.9370  -13.7329   20.3557 N   0  0  0  0  0  0
  -26.2867  -12.9478   20.3256 N   0  0  0  0  0  0
  -25.9332  -11.6600   20.5751 N   0  0  0  0  0  0
  -22.0439  -12.8186   22.0443 N   0  0  0  0  0  0
  -25.4091  -15.1956   20.4141 N   0  0  0  0  0  0
  -31.7968  -14.9294   20.1886 O   0  0  0  0  0  0
  -21.6640   -6.8886   21.4246 O   0  0  0  0  0  0
  -22.3464  -14.5506   20.6731 O   0  0  0  0  0  0
  -24.6468  -31.8419   23.1866 C   0  0  0  0  0  0
  -25.9233  -32.4686   23.8247 C   0  0  1  0  0  0
  -27.2101  -27.1090   20.1410 C   0  0  0  0  0  0
  -25.5985  -33.8499   24.2176 N   0  0  0  0  0  0
  -23.4511  -30.4654   21.5317 C   0  0  2  0  0  0
  -24.8994  -28.8943   20.1049 C   0  0  0  0  0  0
  -22.7580  -29.4557   22.4817 C   0  0  0  0  0  0
  -18.0321  -28.1399   22.8486 C   0  0  0  0  0  0
  -24.1501  -36.7247   23.2641 C   0  0  0  0  0  0
  -26.0125  -30.7059   21.3919 C   0  0  0  0  0  0
  -26.0800  -29.3179   20.7281 C   0  0  0  0  0  0
  -27.2347  -28.4405   20.7341 C   0  0  0  0  0  0
  -25.9928  -26.7961   19.4892 C   0  0  0  0  0  0
  -24.8700  -27.6469   19.4712 C   0  0  0  0  0  0
  -23.6787  -29.8008   20.1493 C   0  0  0  0  0  0
  -25.4133  -36.3022   24.0309 C   0  0  1  0  0  0
  -20.5937  -28.3751   23.1213 C   0  0  2  0  0  0
  -20.6808  -26.9451   22.5397 C   0  0  0  0  0  0
  -19.5776  -26.6387   21.5216 C   0  0  0  0  0  0
  -18.1957  -26.7940   22.1626 C   0  0  0  0  0  0
  -19.1578  -28.8889   23.2845 C   0  0  0  0  0  0
  -18.9494  -30.1483   23.8880 C   0  0  0  0  0  0
  -17.6486  -30.6598   24.0563 C   0  0  0  0  0  0
  -25.9085  -34.9402   23.5041 C   0  0  0  0  0  0
  -16.5375  -29.9091   23.6336 C   0  0  0  0  0  0
  -16.7301  -28.6502   23.0368 C   0  0  0  0  0  0
  -26.4543  -31.6561   25.0695 C   0  0  0  0  0  0
  -25.3711  -31.3773   26.1377 C   0  0  0  0  0  0
  -27.0416  -30.2945   24.6314 C   0  0  0  0  0  0
  -27.6061  -32.4338   25.7489 C   0  0  0  0  0  0
  -27.5576  -37.1784   24.8463 C   0  0  0  0  0  0
  -21.4273  -29.3066   22.3564 N   0  0  0  0  0  0
  -26.4290  -37.3741   23.9405 N   0  0  0  0  0  0
  -24.7236  -31.0258   22.0914 N   0  0  0  0  0  0
  -23.4212  -28.8096   23.2967 O   0  0  0  0  0  0
  -28.2157  -26.0640   20.2511 O   0  0  0  0  0  0
  -26.5661  -34.8902   22.4616 O   0  0  0  0  0  0
  -23.5581  -32.1314   23.7068 O   0  0  0  0  0  0
  -30.2593  -20.1850   21.0736 C   0  0  0  0  0  0
  -29.8330  -21.5689   20.8660 C   0  0  0  0  0  0
  -28.5382  -19.3817   19.6989 C   0  0  0  0  0  0
  -29.6711  -18.9986   20.4815 C   0  0  0  0  0  0
  -28.7524  -21.9610   20.0071 C   0  0  0  0  0  0
  -28.1075  -20.7609   19.4885 C   0  0  0  0  0  0
  -28.3300  -23.4177   19.4362 C   0  0  0  0  0  0
  -28.1421  -24.8421   19.4525 C   0  0  0  0  0  0
  -30.4042  -17.5558   20.5238 C   0  0  0  0  0  0
  -26.9923  -20.9180   18.6654 N   0  0  0  0  0  0
  -29.8831  -16.2236   20.5176 N   0  0  0  0  0  0
  -31.6303  -17.6869   20.5979 O   0  0  0  0  0  0
  -31.4619  -12.7386   19.1909 H   0  0  0  0  0  0
  -30.4064  -11.6678   20.0614 H   0  0  0  0  0  0
  -29.8400  -11.7168   17.6046 H   0  0  0  0  0  0
  -29.6004  -13.4472   17.6799 H   0  0  0  0  0  0
  -27.9510  -11.2751   18.9956 H   0  0  0  0  0  0
  -27.3877  -12.4381   17.8208 H   0  0  0  0  0  0
  -27.5755  -14.2511   19.3881 H   0  0  0  0  0  0
  -28.7664  -12.3612   21.4729 H   0  0  0  0  0  0
  -28.3641  -14.0472   21.7260 H   0  0  0  0  0  0
  -25.2781   -9.5674   22.4774 H   0  0  0  0  0  0
  -24.0013   -7.4623   22.7473 H   0  0  0  0  0  0
  -21.0858   -8.8768   19.8948 H   0  0  0  0  0  0
  -22.3711  -10.9679   19.6172 H   0  0  0  0  0  0
  -21.2001   -7.6157   23.9717 H   0  0  0  0  0  0
  -21.1485   -6.0536   25.9083 H   0  0  0  0  0  0
  -22.0596   -2.7618   23.2839 H   0  0  0  0  0  0
  -22.4064  -11.9860   22.4844 H   0  0  0  0  0  0
  -21.1050  -13.1190   22.2642 H   0  0  0  0  0  0
  -24.6394  -15.8464   20.5287 H   0  0  0  0  0  0
  -26.2491  -15.6356   20.0623 H   0  0  0  0  0  0
  -26.7293  -32.5273   23.0966 H   0  0  0  0  0  0
  -25.0157  -33.9610   25.0338 H   0  0  0  0  0  0
  -22.7549  -31.2928   21.3778 H   0  0  0  0  0  0
  -23.3763  -35.9578   23.3291 H   0  0  0  0  0  0
  -24.3591  -36.8889   22.2056 H   0  0  0  0  0  0
  -23.7245  -37.6436   23.6690 H   0  0  0  0  0  0
  -26.1758  -31.4626   20.6236 H   0  0  0  0  0  0
  -26.8811  -30.7506   22.0379 H   0  0  0  0  0  0
  -28.1291  -28.7555   21.2522 H   0  0  0  0  0  0
  -25.8477  -25.8329   19.0250 H   0  0  0  0  0  0
  -23.9653  -27.3094   18.9837 H   0  0  0  0  0  0
  -23.8186  -30.5789   19.3978 H   0  0  0  0  0  0
  -22.7916  -29.2492   19.8328 H   0  0  0  0  0  0
  -25.1318  -36.1846   25.0800 H   0  0  0  0  0  0
  -21.0050  -28.3351   24.1325 H   0  0  0  0  0  0
  -20.5720  -26.2363   23.3622 H   0  0  0  0  0  0
  -21.6667  -26.7455   22.1180 H   0  0  0  0  0  0
  -19.6936  -25.6288   21.1270 H   0  0  0  0  0  0
  -19.6699  -27.3177   20.6732 H   0  0  0  0  0  0
  -17.4225  -26.6704   21.4029 H   0  0  0  0  0  0
  -18.0346  -26.0079   22.9020 H   0  0  0  0  0  0
  -19.7969  -30.7312   24.2233 H   0  0  0  0  0  0
  -17.5038  -31.6279   24.5169 H   0  0  0  0  0  0
  -15.5374  -30.2989   23.7672 H   0  0  0  0  0  0
  -15.8703  -28.0810   22.7099 H   0  0  0  0  0  0
  -24.5898  -30.7122   25.7678 H   0  0  0  0  0  0
  -24.8893  -32.2969   26.4723 H   0  0  0  0  0  0
  -25.7969  -30.8984   27.0206 H   0  0  0  0  0  0
  -26.3038  -29.6656   24.1321 H   0  0  0  0  0  0
  -27.4004  -29.7264   25.4907 H   0  0  0  0  0  0
  -27.8966  -30.4145   23.9653 H   0  0  0  0  0  0
  -27.2642  -33.3668   26.1994 H   0  0  0  0  0  0
  -28.3919  -32.6864   25.0351 H   0  0  0  0  0  0
  -28.0687  -31.8508   26.5468 H   0  0  0  0  0  0
  -28.2585  -38.0091   24.7514 H   0  0  0  0  0  0
  -28.1081  -36.2617   24.6292 H   0  0  0  0  0  0
  -27.2290  -37.1424   25.8865 H   0  0  0  0  0  0
  -20.9481  -29.8774   21.6743 H   0  0  0  0  0  0
  -26.0150  -38.2809   24.1407 H   0  0  0  0  0  0
  -31.1419  -20.0383   21.6811 H   0  0  0  0  0  0
  -30.4258  -22.3533   21.3167 H   0  0  0  0  0  0
  -28.0118  -18.5899   19.1830 H   0  0  0  0  0  0
  -28.0840  -23.1800   18.4110 H   0  0  0  0  0  0
  -27.8228  -25.1860   18.4772 H   0  0  0  0  0  0
  -26.3814  -20.1187   18.5340 H   0  0  0  0  0  0
  -26.4726  -21.7853   18.7499 H   0  0  0  0  0  0
  -28.8808  -16.1622   20.5709 H   0  0  0  0  0  0
  1 25  1  0  0  0
  1 30  2  0  0  0
  1 81  1  0  0  0
  2  3  1  0  0  0
  2 25  1  0  0  0
  2 83  1  0  0  0
  2 84  1  0  0  0
  3  4  1  0  0  0
  3 85  1  0  0  0
  3 86  1  0  0  0
  4  5  1  0  0  0
  4 87  1  0  0  0
  4 88  1  0  0  0
  5  6  1  0  0  0
  5 26  1  0  0  0
  5 89  1  0  0  0
  6 25  1  0  0  0
  6 90  1  0  0  0
  6 91  1  0  0  0
  7  8  2  0  0  0
  7 26  1  0  0  0
  7 29  1  0  0  0
  8  9  1  0  0  0
  8 22  1  0  0  0
  9 10  1  0  0  0
  9 27  2  0  0  0
 10 11  2  0  0  0
 10 15  1  0  0  0
 11 12  1  0  0  0
 11 92  1  0  0  0
 12 13  2  0  0  0
 12 93  1  0  0  0
 13 14  1  0  0  0
 13 31  1  0  0  0
 14 15  2  0  0  0
 14 94  1  0  0  0
 15 95  1  0  0  0
 16 17  2  0  0  0
 16 21  1  0  0  0
 16 31  1  0  0  0
 17 18  1  0  0  0
 17 96  1  0  0  0
 18 19  2  0  0  0
 18 97  1  0  0  0
 19 20  1  0  0  0
 19 24  1  0  0  0
 20 21  2  0  0  0
 20 98  1  0  0  0
 21 23  1  0  0  0
 22 28  1  0  0  0
 22 32  2  0  0  0
 26 27  1  0  0  0
 28 99  1  0  0  0
 28100  1  0  0  0
 29101  1  0  0  0
 29102  1  0  0  0
 33 34  1  0  0  0
 33 66  1  0  0  0
 33 70  2  0  0  0
 34 36  1  0  0  0
 34 59  1  0  0  0
 34103  1  0  0  0
 35 44  2  0  0  0
 35 45  1  0  0  0
 35 68  1  0  0  0
 36 56  1  0  0  0
 36104  1  0  0  0
 37 39  1  0  0  0
 37 47  1  0  0  0
 37 66  1  0  0  0
 37105  1  0  0  0
 38 43  2  0  0  0
 38 46  1  0  0  0
 38 47  1  0  0  0
 39 64  1  0  0  0
 39 67  2  0  0  0
 40 52  1  0  0  0
 40 53  2  0  0  0
 40 58  1  0  0  0
 41106  1  0  0  0
 41107  1  0  0  0
 41108  1  0  0  0
 41 48  1  0  0  0
 42 43  1  0  0  0
 42 66  1  0  0  0
 42109  1  0  0  0
 42110  1  0  0  0
 43 44  1  0  0  0
 44111  1  0  0  0
 45 46  2  0  0  0
 45112  1  0  0  0
 46113  1  0  0  0
 47114  1  0  0  0
 47115  1  0  0  0
 48 56  1  0  0  0
 48 65  1  0  0  0
 48116  1  0  0  0
 49 50  1  0  0  0
 49 53  1  0  0  0
 49 64  1  0  0  0
 49117  1  0  0  0
 50 51  1  0  0  0
 50118  1  0  0  0
 50119  1  0  0  0
 51 52  1  0  0  0
 51120  1  0  0  0
 51121  1  0  0  0
 52122  1  0  0  0
 52123  1  0  0  0
 53 54  1  0  0  0
 54 55  2  0  0  0
 54124  1  0  0  0
 55 57  1  0  0  0
 55125  1  0  0  0
 56 69  2  0  0  0
 57 58  2  0  0  0
 57126  1  0  0  0
 58127  1  0  0  0
 59 60  1  0  0  0
 59 61  1  0  0  0
 59 62  1  0  0  0
 60128  1  0  0  0
 60129  1  0  0  0
 60130  1  0  0  0
 61131  1  0  0  0
 61132  1  0  0  0
 61133  1  0  0  0
 62134  1  0  0  0
 62135  1  0  0  0
 62136  1  0  0  0
 63 65  1  0  0  0
 63137  1  0  0  0
 63138  1  0  0  0
 63139  1  0  0  0
 64140  1  0  0  0
 65141  1  0  0  0
 68 78  1  0  0  0
 71 72  2  0  0  0
 71 74  1  0  0  0
 71142  1  0  0  0
 72 75  1  0  0  0
 72143  1  0  0  0
 73 74  2  0  0  0
 73 76  1  0  0  0
 73144  1  0  0  0
 74 79  1  0  0  0
 75 76  2  0  0  0
 75 77  1  0  0  0
 76 80  1  0  0  0
 77 78  2  0  0  0
 77145  1  0  0  0
 78146  1  0  0  0
 79 81  1  0  0  0
 79 82  2  0  0  0
 80147  1  0  0  0
 80148  1  0  0  0
 81149  1  0  0  0
M  ISO  4   1 100  68 101  78 101  81 100
M  END
> <chiral flag>
0

> <version>
0

> <s_m_source_file>
/data/baiqing/PycharmProjects/Reinvent-master-3.2/result/LINK_invent/BTK/process_docking_weight1_custom_product_contain_oxygen_bond_distance_aromatic_linkinvent_7_9_3/rearranged_h_0093.sdf

> <i_m_source_file_index>
82

> <r_mmod_Potential_Energy-OPLS-2005>
574.739440917969

> <r_mmod_Stretch_Energy-OPLS-2005>
242.835327148438

> <r_mmod_Bend_Energy-OPLS-2005>
415.540588378906

> <r_mmod_Torsional_Energy-OPLS-2005>
241.784576416016

> <r_mmod_Improper_Torsional_Energy-OPLS-2005>
11.5941743850708

> <r_mmod_Van_der_Waal_Energy-OPLS-2005>
153.739120483398

> <r_mmod_Electrostatic_Energy-OPLS-2005>
-472.25439453125

> <r_mmod_Solvation_Energy-OPLS-2005>
-238.178466796875

> <b_mmod_Minimization_Converged-OPLS-2005>
0

> <r_mmod_RMS_Derivative-OPLS-2005>
1.58739840984344

$$$$
83
                    3D
 Structure written by MMmdl.
162171  0  0  1  0            999 V2000
  -30.6542  -14.6382   20.5255 C   0  0  0  0  0  0
  -30.4293  -12.4090   19.4372 C   0  0  0  0  0  0
  -29.4889  -12.4954   18.2153 C   0  0  0  0  0  0
  -28.0161  -12.3416   18.6378 C   0  0  0  0  0  0
  -27.6488  -13.2213   19.8613 C   0  0  2  0  0  0
  -28.6949  -13.0837   20.9854 C   0  0  0  0  0  0
  -25.2537  -13.8203   20.5730 C   0  0  0  0  0  0
  -24.1807  -13.0452   20.9215 C   0  0  0  0  0  0
  -24.6390  -11.6923   20.8763 C   0  0  0  0  0  0
  -23.9060  -10.4298   21.0404 C   0  0  0  0  0  0
  -24.3603   -9.4226   21.9194 C   0  0  0  0  0  0
  -23.6289   -8.2258   22.0763 C   0  0  0  0  0  0
  -22.4284   -8.0274   21.3538 C   0  0  0  0  0  0
  -21.9927   -9.0244   20.4626 C   0  0  0  0  0  0
  -22.7246  -10.2132   20.3037 C   0  0  0  0  0  0
  -21.6851   -6.0732   22.5266 C   0  0  0  0  0  0
  -21.4008   -6.5633   23.8197 C   0  0  0  0  0  0
  -21.3665   -5.6791   24.9161 C   0  0  0  0  0  0
  -21.6038   -4.3050   24.7218 C   0  0  0  0  0  0
  -21.8824   -3.8143   23.4340 C   0  0  0  0  0  0
  -21.9199   -4.6962   22.3393 C   0  0  0  0  0  0
  -22.7823  -13.5216   21.1860 C   0  0  0  0  0  0
  -22.1667   -4.2145   21.0972 F   0  0  0  0  0  0
  -21.5639   -3.4537   25.7734 F   0  0  0  0  0  0
  -30.0050  -13.4320   20.4138 N   0  0  0  0  0  0
  -26.2958  -12.9388   20.3356 N   0  0  0  0  0  0
  -25.9312  -11.6538   20.5798 N   0  0  0  0  0  0
  -22.0455  -12.8157   22.0367 N   0  0  0  0  0  0
  -25.4229  -15.1913   20.4118 N   0  0  0  0  0  0
  -31.7769  -14.7989   20.0326 O   0  0  0  0  0  0
  -21.6642   -6.8876   21.4224 O   0  0  0  0  0  0
  -22.3509  -14.5546   20.6751 O   0  0  0  0  0  0
  -24.6327  -31.8569   23.1961 C   0  0  0  0  0  0
  -25.9179  -32.4766   23.8303 C   0  0  1  0  0  0
  -27.2058  -27.2821   20.1111 C   0  0  0  0  0  0
  -25.5966  -33.8557   24.2246 N   0  0  0  0  0  0
  -23.4243  -30.4781   21.5444 C   0  0  2  0  0  0
  -24.8665  -28.9259   20.1069 C   0  0  0  0  0  0
  -22.7493  -29.4644   22.4973 C   0  0  0  0  0  0
  -18.0280  -28.1394   22.8490 C   0  0  0  0  0  0
  -24.1458  -36.7241   23.2652 C   0  0  0  0  0  0
  -25.9657  -30.7758   21.3658 C   0  0  0  0  0  0
  -26.0385  -29.3973   20.7148 C   0  0  0  0  0  0
  -27.2171  -28.5876   20.7034 C   0  0  0  0  0  0
  -26.0111  -26.8616   19.4931 C   0  0  0  0  0  0
  -24.8583  -27.6684   19.4824 C   0  0  0  0  0  0
  -23.6314  -29.8046   20.1622 C   0  0  0  0  0  0
  -25.4099  -36.3059   24.0324 C   0  0  1  0  0  0
  -20.5891  -28.3725   23.1266 C   0  0  2  0  0  0
  -20.6775  -26.9456   22.5386 C   0  0  0  0  0  0
  -19.5733  -26.6405   21.5200 C   0  0  0  0  0  0
  -18.1920  -26.7949   22.1600 C   0  0  0  0  0  0
  -19.1537  -28.8876   23.2874 C   0  0  0  0  0  0
  -18.9472  -30.1473   23.8908 C   0  0  0  0  0  0
  -17.6472  -30.6612   24.0571 C   0  0  0  0  0  0
  -25.9052  -34.9442   23.5082 C   0  0  0  0  0  0
  -16.5357  -29.9116   23.6354 C   0  0  0  0  0  0
  -16.7268  -28.6517   23.0392 C   0  0  0  0  0  0
  -26.4556  -31.6598   25.0682 C   0  0  0  0  0  0
  -25.3746  -31.3680   26.1352 C   0  0  0  0  0  0
  -27.0490  -30.3061   24.6127 C   0  0  0  0  0  0
  -27.6052  -32.4396   25.7506 C   0  0  0  0  0  0
  -27.5552  -37.1789   24.8464 C   0  0  0  0  0  0
  -21.4206  -29.3074   22.3680 N   0  0  0  0  0  0
  -26.4259  -37.3776   23.9417 N   0  0  0  0  0  0
  -24.6950  -31.0532   22.0944 N   0  0  0  0  0  0
  -23.4194  -28.8204   23.3082 O   0  0  0  0  0  0
  -28.3041  -26.4085   20.0888 O   0  0  0  0  0  0
  -26.5609  -34.8939   22.4640 O   0  0  0  0  0  0
  -23.5476  -32.1410   23.7270 O   0  0  0  0  0  0
  -28.9736  -19.3896   21.0918 C   0  0  0  0  0  0
  -29.3286  -18.0855   21.5427 C   0  0  0  0  0  0
  -29.6111  -17.3557   19.2931 C   0  0  0  0  0  0
  -28.9789  -19.7726   19.7261 C   0  0  0  0  0  0
  -29.6723  -17.0107   20.6702 C   0  0  0  0  0  0
  -29.2907  -18.6770   18.8364 C   0  0  0  0  0  0
  -28.1856  -23.9180   18.3094 C   0  0  0  0  0  0
  -28.3591  -23.7680   19.6343 C   0  0  0  0  0  0
  -28.3612  -22.8097   17.3636 C   0  0  0  0  0  0
  -28.7506  -21.4090   17.8672 C   0  0  0  0  0  0
  -28.7438  -22.3493   20.2413 C   0  0  2  0  0  0
  -30.1441  -22.4331   20.8769 C   0  0  0  0  0  0
  -30.1996  -15.5612   22.6546 C   0  0  0  0  0  0
  -28.1133  -25.0117   20.5857 C   0  0  0  0  0  0
  -28.6954  -21.1524   19.3165 N   0  0  0  0  0  0
  -30.0306  -15.6677   21.1975 N   0  0  0  0  0  0
  -28.2133  -22.9759   16.1503 O   0  0  0  0  0  0
  -29.3051  -18.8491   17.4905 F   0  0  0  0  0  0
  -31.4629  -12.5430   19.1125 H   0  0  0  0  0  0
  -30.3907  -11.4172   19.8922 H   0  0  0  0  0  0
  -29.7461  -11.7205   17.4917 H   0  0  0  0  0  0
  -29.6243  -13.4495   17.7047 H   0  0  0  0  0  0
  -27.8507  -11.2911   18.8778 H   0  0  0  0  0  0
  -27.3538  -12.5661   17.8014 H   0  0  0  0  0  0
  -27.6660  -14.2568   19.5198 H   0  0  0  0  0  0
  -28.7142  -12.0648   21.3740 H   0  0  0  0  0  0
  -28.4239  -13.7180   21.8277 H   0  0  0  0  0  0
  -25.2729   -9.5720   22.4801 H   0  0  0  0  0  0
  -23.9989   -7.4657   22.7497 H   0  0  0  0  0  0
  -21.0878   -8.8749   19.8908 H   0  0  0  0  0  0
  -22.3704  -10.9666   19.6145 H   0  0  0  0  0  0
  -21.1992   -7.6139   23.9696 H   0  0  0  0  0  0
  -21.1477   -6.0520   25.9068 H   0  0  0  0  0  0
  -22.0604   -2.7601   23.2833 H   0  0  0  0  0  0
  -22.4057  -11.9763   22.4661 H   0  0  0  0  0  0
  -21.1043  -13.1122   22.2550 H   0  0  0  0  0  0
  -24.6644  -15.8494   20.5512 H   0  0  0  0  0  0
  -26.2731  -15.6302   20.0816 H   0  0  0  0  0  0
  -26.7239  -32.5414   23.1039 H   0  0  0  0  0  0
  -25.0148  -33.9698   25.0408 H   0  0  0  0  0  0
  -22.7233  -31.3025   21.3987 H   0  0  0  0  0  0
  -23.3754  -35.9532   23.3283 H   0  0  0  0  0  0
  -24.3539  -36.8904   22.2073 H   0  0  0  0  0  0
  -23.7164  -37.6403   23.6703 H   0  0  0  0  0  0
  -26.0794  -31.5288   20.5844 H   0  0  0  0  0  0
  -26.8556  -30.8442   21.9815 H   0  0  0  0  0  0
  -28.1202  -28.9402   21.1836 H   0  0  0  0  0  0
  -25.9574  -25.8912   19.0194 H   0  0  0  0  0  0
  -23.9661  -27.3067   18.9916 H   0  0  0  0  0  0
  -23.7217  -30.5716   19.3920 H   0  0  0  0  0  0
  -22.7515  -29.2189   19.8866 H   0  0  0  0  0  0
  -25.1275  -36.1903   25.0814 H   0  0  0  0  0  0
  -20.9963  -28.3303   24.1392 H   0  0  0  0  0  0
  -20.5720  -26.2338   23.3581 H   0  0  0  0  0  0
  -21.6635  -26.7508   22.1164 H   0  0  0  0  0  0
  -19.6912  -25.6319   21.1244 H   0  0  0  0  0  0
  -19.6673  -27.3199   20.6718 H   0  0  0  0  0  0
  -17.4200  -26.6742   21.3985 H   0  0  0  0  0  0
  -18.0277  -26.0072   22.8961 H   0  0  0  0  0  0
  -19.7955  -30.7263   24.2300 H   0  0  0  0  0  0
  -17.5046  -31.6307   24.5156 H   0  0  0  0  0  0
  -15.5377  -30.3026   23.7680 H   0  0  0  0  0  0
  -15.8655  -28.0839   22.7143 H   0  0  0  0  0  0
  -24.6007  -30.6957   25.7628 H   0  0  0  0  0  0
  -24.8813  -32.2791   26.4714 H   0  0  0  0  0  0
  -25.8023  -30.8902   27.0169 H   0  0  0  0  0  0
  -26.3099  -29.6717   24.1191 H   0  0  0  0  0  0
  -27.4320  -29.7399   25.4634 H   0  0  0  0  0  0
  -27.8878  -30.4430   23.9292 H   0  0  0  0  0  0
  -27.2669  -33.3814   26.1841 H   0  0  0  0  0  0
  -28.3988  -32.6767   25.0410 H   0  0  0  0  0  0
  -28.0541  -31.8650   26.5615 H   0  0  0  0  0  0
  -28.2533  -38.0132   24.7586 H   0  0  0  0  0  0
  -28.1097  -36.2652   24.6208 H   0  0  0  0  0  0
  -27.2263  -37.1348   25.8871 H   0  0  0  0  0  0
  -20.9425  -29.8769   21.6842 H   0  0  0  0  0  0
  -26.0118  -38.2834   24.1454 H   0  0  0  0  0  0
  -28.7159  -20.1136   21.8488 H   0  0  0  0  0  0
  -29.3348  -17.9524   22.6131 H   0  0  0  0  0  0
  -29.8270  -16.6060   18.5462 H   0  0  0  0  0  0
  -27.8987  -24.8742   17.9006 H   0  0  0  0  0  0
  -29.7557  -21.1898   17.5021 H   0  0  0  0  0  0
  -28.0676  -20.7250   17.3625 H   0  0  0  0  0  0
  -28.0090  -22.1623   21.0262 H   0  0  0  0  0  0
  -30.9011  -22.6711   20.1311 H   0  0  0  0  0  0
  -30.4510  -21.5011   21.3456 H   0  0  0  0  0  0
  -30.1917  -23.1854   21.6615 H   0  0  0  0  0  0
  -31.0281  -16.1959   22.9761 H   0  0  0  0  0  0
  -30.4285  -14.5499   22.9988 H   0  0  0  0  0  0
  -29.2952  -15.8665   23.1808 H   0  0  0  0  0  0
  -28.8197  -24.9188   21.4067 H   0  0  0  0  0  0
  -27.1304  -24.8894   21.0465 H   0  0  0  0  0  0
  1 25  1  0  0  0
  1 30  2  0  0  0
  1 86  1  0  0  0
  2  3  1  0  0  0
  2 25  1  0  0  0
  2 89  1  0  0  0
  2 90  1  0  0  0
  3  4  1  0  0  0
  3 91  1  0  0  0
  3 92  1  0  0  0
  4  5  1  0  0  0
  4 93  1  0  0  0
  4 94  1  0  0  0
  5  6  1  0  0  0
  5 26  1  0  0  0
  5 95  1  0  0  0
  6 25  1  0  0  0
  6 96  1  0  0  0
  6 97  1  0  0  0
  7  8  2  0  0  0
  7 26  1  0  0  0
  7 29  1  0  0  0
  8  9  1  0  0  0
  8 22  1  0  0  0
  9 10  1  0  0  0
  9 27  2  0  0  0
 10 11  2  0  0  0
 10 15  1  0  0  0
 11 12  1  0  0  0
 11 98  1  0  0  0
 12 13  2  0  0  0
 12 99  1  0  0  0
 13 14  1  0  0  0
 13 31  1  0  0  0
 14 15  2  0  0  0
 14100  1  0  0  0
 15101  1  0  0  0
 16 17  2  0  0  0
 16 21  1  0  0  0
 16 31  1  0  0  0
 17 18  1  0  0  0
 17102  1  0  0  0
 18 19  2  0  0  0
 18103  1  0  0  0
 19 20  1  0  0  0
 19 24  1  0  0  0
 20 21  2  0  0  0
 20104  1  0  0  0
 21 23  1  0  0  0
 22 28  1  0  0  0
 22 32  2  0  0  0
 26 27  1  0  0  0
 28105  1  0  0  0
 28106  1  0  0  0
 29107  1  0  0  0
 29108  1  0  0  0
 33 34  1  0  0  0
 33 66  1  0  0  0
 33 70  2  0  0  0
 34 36  1  0  0  0
 34 59  1  0  0  0
 34109  1  0  0  0
 35 44  2  0  0  0
 35 45  1  0  0  0
 35 68  1  0  0  0
 36 56  1  0  0  0
 36110  1  0  0  0
 37 39  1  0  0  0
 37 47  1  0  0  0
 37 66  1  0  0  0
 37111  1  0  0  0
 38 43  2  0  0  0
 38 46  1  0  0  0
 38 47  1  0  0  0
 39 64  1  0  0  0
 39 67  2  0  0  0
 40 52  1  0  0  0
 40 53  2  0  0  0
 40 58  1  0  0  0
 41112  1  0  0  0
 41113  1  0  0  0
 41114  1  0  0  0
 41 48  1  0  0  0
 42 43  1  0  0  0
 42 66  1  0  0  0
 42115  1  0  0  0
 42116  1  0  0  0
 43 44  1  0  0  0
 44117  1  0  0  0
 45 46  2  0  0  0
 45118  1  0  0  0
 46119  1  0  0  0
 47120  1  0  0  0
 47121  1  0  0  0
 48 56  1  0  0  0
 48 65  1  0  0  0
 48122  1  0  0  0
 49 50  1  0  0  0
 49 53  1  0  0  0
 49 64  1  0  0  0
 49123  1  0  0  0
 50 51  1  0  0  0
 50124  1  0  0  0
 50125  1  0  0  0
 51 52  1  0  0  0
 51126  1  0  0  0
 51127  1  0  0  0
 52128  1  0  0  0
 52129  1  0  0  0
 53 54  1  0  0  0
 54 55  2  0  0  0
 54130  1  0  0  0
 55 57  1  0  0  0
 55131  1  0  0  0
 56 69  2  0  0  0
 57 58  2  0  0  0
 57132  1  0  0  0
 58133  1  0  0  0
 59 60  1  0  0  0
 59 61  1  0  0  0
 59 62  1  0  0  0
 60134  1  0  0  0
 60135  1  0  0  0
 60136  1  0  0  0
 61137  1  0  0  0
 61138  1  0  0  0
 61139  1  0  0  0
 62140  1  0  0  0
 62141  1  0  0  0
 62142  1  0  0  0
 63 65  1  0  0  0
 63143  1  0  0  0
 63144  1  0  0  0
 63145  1  0  0  0
 64146  1  0  0  0
 65147  1  0  0  0
 68 84  1  0  0  0
 71 72  2  0  0  0
 71 74  1  0  0  0
 71148  1  0  0  0
 72 75  1  0  0  0
 72149  1  0  0  0
 73 75  2  0  0  0
 73 76  1  0  0  0
 73150  1  0  0  0
 74 76  2  0  0  0
 74 85  1  0  0  0
 75 86  1  0  0  0
 76 88  1  0  0  0
 77 78  2  0  0  0
 77 79  1  0  0  0
 77151  1  0  0  0
 78 81  1  0  0  0
 78 84  1  0  0  0
 79 80  1  0  0  0
 79 87  2  0  0  0
 80 85  1  0  0  0
 80152  1  0  0  0
 80153  1  0  0  0
 81 82  1  0  0  0
 81 85  1  0  0  0
 81154  1  0  0  0
 82155  1  0  0  0
 82156  1  0  0  0
 82157  1  0  0  0
 83 86  1  0  0  0
 83158  1  0  0  0
 83159  1  0  0  0
 83160  1  0  0  0
 84161  1  0  0  0
 84162  1  0  0  0
M  ISO  4   1 100  68 101  84 101  86 100
M  END
> <chiral flag>
0

> <version>
0

> <s_m_source_file>
/data/baiqing/PycharmProjects/Reinvent-master-3.2/result/LINK_invent/BTK/process_docking_weight1_custom_product_contain_oxygen_bond_distance_aromatic_linkinvent_7_9_3/rearranged_h_0093.sdf

> <i_m_source_file_index>
83

> <r_mmod_Potential_Energy-OPLS-2005>
298.101654052734

> <r_mmod_Stretch_Energy-OPLS-2005>
109.408378601074

> <r_mmod_Bend_Energy-OPLS-2005>
170.790161132812

> <r_mmod_Torsional_Energy-OPLS-2005>
282.462677001953

> <r_mmod_Improper_Torsional_Energy-OPLS-2005>
3.79399466514587

> <r_mmod_Van_der_Waal_Energy-OPLS-2005>
165.302185058594

> <r_mmod_Electrostatic_Energy-OPLS-2005>
-275.282440185547

> <r_mmod_Solvation_Energy-OPLS-2005>
-213.635589599609

> <b_mmod_Minimization_Converged-OPLS-2005>
0

> <r_mmod_RMS_Derivative-OPLS-2005>
3.81740951538086

$$$$
84
                    3D
 Structure written by MMmdl.
162171  0  0  1  0            999 V2000
  -30.7001  -14.5976   20.4990 C   0  0  0  0  0  0
  -30.4105  -12.3656   19.4597 C   0  0  0  0  0  0
  -29.4960  -12.4947   18.2249 C   0  0  0  0  0  0
  -28.0207  -12.3438   18.6381 C   0  0  0  0  0  0
  -27.6473  -13.2275   19.8594 C   0  0  2  0  0  0
  -28.6924  -13.1187   20.9934 C   0  0  0  0  0  0
  -25.2522  -13.8202   20.5692 C   0  0  0  0  0  0
  -24.1809  -13.0450   20.9203 C   0  0  0  0  0  0
  -24.6393  -11.6924   20.8754 C   0  0  0  0  0  0
  -23.9070  -10.4299   21.0410 C   0  0  0  0  0  0
  -24.3621   -9.4212   21.9184 C   0  0  0  0  0  0
  -23.6296   -8.2249   22.0755 C   0  0  0  0  0  0
  -22.4280   -8.0283   21.3545 C   0  0  0  0  0  0
  -21.9916   -9.0257   20.4648 C   0  0  0  0  0  0
  -22.7245  -10.2136   20.3059 C   0  0  0  0  0  0
  -21.6850   -6.0737   22.5275 C   0  0  0  0  0  0
  -21.4016   -6.5642   23.8209 C   0  0  0  0  0  0
  -21.3662   -5.6795   24.9172 C   0  0  0  0  0  0
  -21.6043   -4.3058   24.7221 C   0  0  0  0  0  0
  -21.8819   -3.8148   23.4345 C   0  0  0  0  0  0
  -21.9194   -4.6966   22.3400 C   0  0  0  0  0  0
  -22.7830  -13.5229   21.1860 C   0  0  0  0  0  0
  -22.1659   -4.2151   21.0977 F   0  0  0  0  0  0
  -21.5631   -3.4540   25.7736 F   0  0  0  0  0  0
  -30.0095  -13.4178   20.4175 N   0  0  0  0  0  0
  -26.2961  -12.9407   20.3329 N   0  0  0  0  0  0
  -25.9325  -11.6548   20.5786 N   0  0  0  0  0  0
  -22.0477  -12.8216   22.0413 N   0  0  0  0  0  0
  -25.4223  -15.1922   20.4067 N   0  0  0  0  0  0
  -31.8637  -14.6541   20.0977 O   0  0  0  0  0  0
  -21.6642   -6.8882   21.4237 O   0  0  0  0  0  0
  -22.3512  -14.5533   20.6707 O   0  0  0  0  0  0
  -24.6230  -31.8631   23.2054 C   0  0  0  0  0  0
  -25.9093  -32.4796   23.8376 C   0  0  1  0  0  0
  -27.2143  -27.3467   20.1152 C   0  0  0  0  0  0
  -25.5924  -33.8597   24.2303 N   0  0  0  0  0  0
  -23.4158  -30.4879   21.5475 C   0  0  2  0  0  0
  -24.8627  -28.9537   20.1045 C   0  0  0  0  0  0
  -22.7467  -29.4634   22.4944 C   0  0  0  0  0  0
  -18.0292  -28.1379   22.8485 C   0  0  0  0  0  0
  -24.1493  -36.7294   23.2636 C   0  0  0  0  0  0
  -25.9550  -30.8022   21.3748 C   0  0  0  0  0  0
  -26.0304  -29.4338   20.7137 C   0  0  0  0  0  0
  -27.2134  -28.6398   20.7142 C   0  0  0  0  0  0
  -26.0366  -26.9257   19.4601 C   0  0  0  0  0  0
  -24.8662  -27.7038   19.4674 C   0  0  0  0  0  0
  -23.6290  -29.8287   20.1597 C   0  0  0  0  0  0
  -25.4110  -36.3094   24.0339 C   0  0  1  0  0  0
  -20.5888  -28.3679   23.1286 C   0  0  2  0  0  0
  -20.6775  -26.9405   22.5406 C   0  0  0  0  0  0
  -19.5755  -26.6379   21.5207 C   0  0  0  0  0  0
  -18.1934  -26.7920   22.1618 C   0  0  0  0  0  0
  -19.1543  -28.8845   23.2876 C   0  0  0  0  0  0
  -18.9467  -30.1447   23.8895 C   0  0  0  0  0  0
  -17.6465  -30.6580   24.0566 C   0  0  0  0  0  0
  -25.9049  -34.9464   23.5117 C   0  0  0  0  0  0
  -16.5358  -29.9079   23.6326 C   0  0  0  0  0  0
  -16.7277  -28.6498   23.0347 C   0  0  0  0  0  0
  -26.4486  -31.6595   25.0730 C   0  0  0  0  0  0
  -25.3727  -31.3726   26.1460 C   0  0  0  0  0  0
  -27.0331  -30.3031   24.6155 C   0  0  0  0  0  0
  -27.6052  -32.4320   25.7496 C   0  0  0  0  0  0
  -27.5598  -37.1777   24.8452 C   0  0  0  0  0  0
  -21.4182  -29.3040   22.3689 N   0  0  0  0  0  0
  -26.4286  -37.3793   23.9435 N   0  0  0  0  0  0
  -24.6831  -31.0662   22.1001 N   0  0  0  0  0  0
  -23.4201  -28.8168   23.3009 O   0  0  0  0  0  0
  -28.2926  -26.4620   20.1813 O   0  0  0  0  0  0
  -26.5617  -34.8933   22.4680 O   0  0  0  0  0  0
  -23.5397  -32.1425   23.7388 O   0  0  0  0  0  0
  -32.3633  -18.7151   21.0107 C   0  0  0  0  0  0
  -31.5004  -19.8075   20.8509 C   0  0  0  0  0  0
  -31.8622  -17.4052   21.0267 C   0  0  0  0  0  0
  -29.5999  -18.2738   20.7331 C   0  0  0  0  0  0
  -30.1031  -19.6340   20.7273 C   0  0  0  0  0  0
  -30.4826  -17.1314   20.8521 C   0  0  0  0  0  0
  -28.5084  -22.8955   21.8880 C   0  0  0  0  0  0
  -28.7653  -23.0342   19.4582 C   0  0  0  0  0  0
  -29.3445  -21.5836   21.9093 C   0  0  0  0  0  0
  -29.6024  -21.7064   19.5016 C   0  0  0  0  0  0
  -28.8762  -23.8913   20.7504 C   0  0  0  0  0  0
  -28.1058  -18.0196   20.6037 C   0  0  0  0  0  0
  -27.9544  -25.1810   20.8267 C   0  0  0  0  0  0
  -29.2955  -20.8216   20.6490 N   0  0  0  0  0  0
  -30.0117  -15.7375   20.8360 N   0  0  0  0  0  0
  -31.4576  -12.4370   19.1603 H   0  0  0  0  0  0
  -30.3026  -11.3799   19.9158 H   0  0  0  0  0  0
  -29.7534  -11.7392   17.4810 H   0  0  0  0  0  0
  -29.6501  -13.4634   17.7463 H   0  0  0  0  0  0
  -27.8542  -11.2929   18.8779 H   0  0  0  0  0  0
  -27.3666  -12.5688   17.7955 H   0  0  0  0  0  0
  -27.6586  -14.2579   19.5023 H   0  0  0  0  0  0
  -28.6921  -12.1175   21.4258 H   0  0  0  0  0  0
  -28.4510  -13.8012   21.8100 H   0  0  0  0  0  0
  -25.2765   -9.5684   22.4763 H   0  0  0  0  0  0
  -24.0001   -7.4639   22.7474 H   0  0  0  0  0  0
  -21.0850   -8.8778   19.8953 H   0  0  0  0  0  0
  -22.3702  -10.9677   19.6173 H   0  0  0  0  0  0
  -21.2007   -7.6148   23.9712 H   0  0  0  0  0  0
  -21.1484   -6.0526   25.9075 H   0  0  0  0  0  0
  -22.0597   -2.7610   23.2841 H   0  0  0  0  0  0
  -22.4093  -11.9868   22.4790 H   0  0  0  0  0  0
  -21.1101  -13.1246   22.2640 H   0  0  0  0  0  0
  -24.6508  -15.8435   20.5024 H   0  0  0  0  0  0
  -26.2614  -15.6233   20.0426 H   0  0  0  0  0  0
  -26.7166  -32.5480   23.1132 H   0  0  0  0  0  0
  -25.0086  -33.9759   25.0457 H   0  0  0  0  0  0
  -22.7086  -31.3078   21.4073 H   0  0  0  0  0  0
  -23.3780  -35.9601   23.3260 H   0  0  0  0  0  0
  -24.3603  -36.8946   22.2061 H   0  0  0  0  0  0
  -23.7209  -37.6467   23.6672 H   0  0  0  0  0  0
  -26.0821  -31.5698   20.6105 H   0  0  0  0  0  0
  -26.8362  -30.8481   22.0024 H   0  0  0  0  0  0
  -28.1050  -28.9942   21.2134 H   0  0  0  0  0  0
  -26.0066  -25.9701   18.9555 H   0  0  0  0  0  0
  -23.9752  -27.3332   18.9792 H   0  0  0  0  0  0
  -23.7451  -30.6087   19.4062 H   0  0  0  0  0  0
  -22.7502  -29.2563   19.8566 H   0  0  0  0  0  0
  -25.1275  -36.1952   25.0826 H   0  0  0  0  0  0
  -20.9966  -28.3253   24.1410 H   0  0  0  0  0  0
  -20.5683  -26.2294   23.3607 H   0  0  0  0  0  0
  -21.6647  -26.7451   22.1194 H   0  0  0  0  0  0
  -19.6931  -25.6291   21.1239 H   0  0  0  0  0  0
  -19.6695  -27.3198   20.6739 H   0  0  0  0  0  0
  -17.4200  -26.6677   21.4016 H   0  0  0  0  0  0
  -18.0329  -26.0065   22.9018 H   0  0  0  0  0  0
  -19.7955  -30.7251   24.2273 H   0  0  0  0  0  0
  -17.5034  -31.6273   24.5155 H   0  0  0  0  0  0
  -15.5360  -30.2981   23.7655 H   0  0  0  0  0  0
  -15.8679  -28.0818   22.7052 H   0  0  0  0  0  0
  -24.5905  -30.7067   25.7791 H   0  0  0  0  0  0
  -24.8911  -32.2892   26.4883 H   0  0  0  0  0  0
  -25.8058  -30.8909   27.0242 H   0  0  0  0  0  0
  -26.2902  -29.6782   24.1184 H   0  0  0  0  0  0
  -27.4058  -29.7277   25.4642 H   0  0  0  0  0  0
  -27.8758  -30.4340   23.9363 H   0  0  0  0  0  0
  -27.2671  -33.3625   26.2073 H   0  0  0  0  0  0
  -28.3859  -32.6870   25.0315 H   0  0  0  0  0  0
  -28.0723  -31.8444   26.5412 H   0  0  0  0  0  0
  -28.2534  -38.0154   24.7603 H   0  0  0  0  0  0
  -28.1169  -36.2685   24.6131 H   0  0  0  0  0  0
  -27.2333  -37.1240   25.8855 H   0  0  0  0  0  0
  -20.9352  -29.8786   21.6925 H   0  0  0  0  0  0
  -26.0173  -38.2854   24.1500 H   0  0  0  0  0  0
  -33.4234  -18.8863   21.1302 H   0  0  0  0  0  0
  -31.9370  -20.7963   20.8564 H   0  0  0  0  0  0
  -32.5835  -16.6172   21.1810 H   0  0  0  0  0  0
  -28.6177  -23.3910   22.8539 H   0  0  0  0  0  0
  -27.4515  -22.6344   21.8114 H   0  0  0  0  0  0
  -27.7185  -22.7861   19.2743 H   0  0  0  0  0  0
  -29.0822  -23.6328   18.6035 H   0  0  0  0  0  0
  -28.9845  -20.9449   22.7178 H   0  0  0  0  0  0
  -30.3761  -21.8351   22.1581 H   0  0  0  0  0  0
  -30.6597  -21.9729   19.5050 H   0  0  0  0  0  0
  -29.4370  -21.1492   18.5774 H   0  0  0  0  0  0
  -29.9137  -24.1984   20.8877 H   0  0  0  0  0  0
  -27.5168  -18.9245   20.7489 H   0  0  0  0  0  0
  -27.7724  -17.2970   21.3485 H   0  0  0  0  0  0
  -27.8782  -17.6244   19.6139 H   0  0  0  0  0  0
  -27.8695  -25.4430   21.8824 H   0  0  0  0  0  0
  -26.9537  -24.8443   20.5591 H   0  0  0  0  0  0
  -29.0303  -15.5976   21.0183 H   0  0  0  0  0  0
  1 25  1  0  0  0
  1 30  2  0  0  0
  1 85  1  0  0  0
  2  3  1  0  0  0
  2 25  1  0  0  0
  2 86  1  0  0  0
  2 87  1  0  0  0
  3  4  1  0  0  0
  3 88  1  0  0  0
  3 89  1  0  0  0
  4  5  1  0  0  0
  4 90  1  0  0  0
  4 91  1  0  0  0
  5  6  1  0  0  0
  5 26  1  0  0  0
  5 92  1  0  0  0
  6 25  1  0  0  0
  6 93  1  0  0  0
  6 94  1  0  0  0
  7  8  2  0  0  0
  7 26  1  0  0  0
  7 29  1  0  0  0
  8  9  1  0  0  0
  8 22  1  0  0  0
  9 10  1  0  0  0
  9 27  2  0  0  0
 10 11  2  0  0  0
 10 15  1  0  0  0
 11 12  1  0  0  0
 11 95  1  0  0  0
 12 13  2  0  0  0
 12 96  1  0  0  0
 13 14  1  0  0  0
 13 31  1  0  0  0
 14 15  2  0  0  0
 14 97  1  0  0  0
 15 98  1  0  0  0
 16 17  2  0  0  0
 16 21  1  0  0  0
 16 31  1  0  0  0
 17 18  1  0  0  0
 17 99  1  0  0  0
 18 19  2  0  0  0
 18100  1  0  0  0
 19 20  1  0  0  0
 19 24  1  0  0  0
 20 21  2  0  0  0
 20101  1  0  0  0
 21 23  1  0  0  0
 22 28  1  0  0  0
 22 32  2  0  0  0
 26 27  1  0  0  0
 28102  1  0  0  0
 28103  1  0  0  0
 29104  1  0  0  0
 29105  1  0  0  0
 33 34  1  0  0  0
 33 66  1  0  0  0
 33 70  2  0  0  0
 34 36  1  0  0  0
 34 59  1  0  0  0
 34106  1  0  0  0
 35 44  2  0  0  0
 35 45  1  0  0  0
 35 68  1  0  0  0
 36 56  1  0  0  0
 36107  1  0  0  0
 37 39  1  0  0  0
 37 47  1  0  0  0
 37 66  1  0  0  0
 37108  1  0  0  0
 38 43  2  0  0  0
 38 46  1  0  0  0
 38 47  1  0  0  0
 39 64  1  0  0  0
 39 67  2  0  0  0
 40 52  1  0  0  0
 40 53  2  0  0  0
 40 58  1  0  0  0
 41109  1  0  0  0
 41110  1  0  0  0
 41111  1  0  0  0
 41 48  1  0  0  0
 42 43  1  0  0  0
 42 66  1  0  0  0
 42112  1  0  0  0
 42113  1  0  0  0
 43 44  1  0  0  0
 44114  1  0  0  0
 45 46  2  0  0  0
 45115  1  0  0  0
 46116  1  0  0  0
 47117  1  0  0  0
 47118  1  0  0  0
 48 56  1  0  0  0
 48 65  1  0  0  0
 48119  1  0  0  0
 49 50  1  0  0  0
 49 53  1  0  0  0
 49 64  1  0  0  0
 49120  1  0  0  0
 50 51  1  0  0  0
 50121  1  0  0  0
 50122  1  0  0  0
 51 52  1  0  0  0
 51123  1  0  0  0
 51124  1  0  0  0
 52125  1  0  0  0
 52126  1  0  0  0
 53 54  1  0  0  0
 54 55  2  0  0  0
 54127  1  0  0  0
 55 57  1  0  0  0
 55128  1  0  0  0
 56 69  2  0  0  0
 57 58  2  0  0  0
 57129  1  0  0  0
 58130  1  0  0  0
 59 60  1  0  0  0
 59 61  1  0  0  0
 59 62  1  0  0  0
 60131  1  0  0  0
 60132  1  0  0  0
 60133  1  0  0  0
 61134  1  0  0  0
 61135  1  0  0  0
 61136  1  0  0  0
 62137  1  0  0  0
 62138  1  0  0  0
 62139  1  0  0  0
 63 65  1  0  0  0
 63140  1  0  0  0
 63141  1  0  0  0
 63142  1  0  0  0
 64143  1  0  0  0
 65144  1  0  0  0
 68 83  1  0  0  0
 71 72  2  0  0  0
 71 73  1  0  0  0
 71145  1  0  0  0
 72 75  1  0  0  0
 72146  1  0  0  0
 73 76  2  0  0  0
 73147  1  0  0  0
 74 75  2  0  0  0
 74 76  1  0  0  0
 74 82  1  0  0  0
 75 84  1  0  0  0
 76 85  1  0  0  0
 77 79  1  0  0  0
 77 81  1  0  0  0
 77148  1  0  0  0
 77149  1  0  0  0
 78 80  1  0  0  0
 78 81  1  0  0  0
 78150  1  0  0  0
 78151  1  0  0  0
 79 84  1  0  0  0
 79152  1  0  0  0
 79153  1  0  0  0
 80 84  1  0  0  0
 80154  1  0  0  0
 80155  1  0  0  0
 81 83  1  0  0  0
 81156  1  0  0  0
 82157  1  0  0  0
 82158  1  0  0  0
 82159  1  0  0  0
 83160  1  0  0  0
 83161  1  0  0  0
 85162  1  0  0  0
M  ISO  4   1 100  68 101  83 101  85 100
M  END
> <chiral flag>
0

> <version>
0

> <s_m_source_file>
/data/baiqing/PycharmProjects/Reinvent-master-3.2/result/LINK_invent/BTK/process_docking_weight1_custom_product_contain_oxygen_bond_distance_aromatic_linkinvent_7_9_3/rearranged_h_0093.sdf

> <i_m_source_file_index>
84

> <r_mmod_Potential_Energy-OPLS-2005>
98.394905090332

> <r_mmod_Stretch_Energy-OPLS-2005>
75.7107849121094

> <r_mmod_Bend_Energy-OPLS-2005>
131.529693603516

> <r_mmod_Torsional_Energy-OPLS-2005>
279.623779296875

> <r_mmod_Improper_Torsional_Energy-OPLS-2005>
10.192530632019

> <r_mmod_Van_der_Waal_Energy-OPLS-2005>
163.651870727539

> <r_mmod_Electrostatic_Energy-OPLS-2005>
-397.539031982422

> <r_mmod_Solvation_Energy-OPLS-2005>
-209.00910949707

> <b_mmod_Minimization_Converged-OPLS-2005>
0

> <r_mmod_RMS_Derivative-OPLS-2005>
1.30280447006226

$$$$
85
                    3D
 Structure written by MMmdl.
167176  0  0  1  0            999 V2000
  -30.5922  -14.7899   20.5022 C   0  0  0  0  0  0
  -30.4357  -12.4895   19.4815 C   0  0  0  0  0  0
  -29.5143  -12.5343   18.2421 C   0  0  0  0  0  0
  -28.0411  -12.3457   18.6508 C   0  0  0  0  0  0
  -27.6445  -13.2376   19.8572 C   0  0  2  0  0  0
  -28.6866  -13.1585   20.9928 C   0  0  0  0  0  0
  -25.2524  -13.8215   20.5712 C   0  0  0  0  0  0
  -24.1811  -13.0450   20.9204 C   0  0  0  0  0  0
  -24.6409  -11.6928   20.8738 C   0  0  0  0  0  0
  -23.9085  -10.4299   21.0398 C   0  0  0  0  0  0
  -24.3632   -9.4215   21.9178 C   0  0  0  0  0  0
  -23.6303   -8.2251   22.0754 C   0  0  0  0  0  0
  -22.4285   -8.0287   21.3548 C   0  0  0  0  0  0
  -21.9927   -9.0261   20.4648 C   0  0  0  0  0  0
  -22.7254  -10.2139   20.3052 C   0  0  0  0  0  0
  -21.6862   -6.0740   22.5280 C   0  0  0  0  0  0
  -21.4016   -6.5641   23.8213 C   0  0  0  0  0  0
  -21.3661   -5.6792   24.9175 C   0  0  0  0  0  0
  -21.6046   -4.3055   24.7226 C   0  0  0  0  0  0
  -21.8819   -3.8151   23.4345 C   0  0  0  0  0  0
  -21.9196   -4.6967   22.3402 C   0  0  0  0  0  0
  -22.7830  -13.5223   21.1855 C   0  0  0  0  0  0
  -22.1661   -4.2151   21.0979 F   0  0  0  0  0  0
  -21.5632   -3.4538   25.7740 F   0  0  0  0  0  0
  -29.9843  -13.5462   20.4254 N   0  0  0  0  0  0
  -26.2956  -12.9428   20.3306 N   0  0  0  0  0  0
  -25.9344  -11.6560   20.5743 N   0  0  0  0  0  0
  -22.0481  -12.8209   22.0413 N   0  0  0  0  0  0
  -25.4236  -15.1942   20.4153 N   0  0  0  0  0  0
  -31.7332  -14.8919   20.0356 O   0  0  0  0  0  0
  -21.6646   -6.8887   21.4244 O   0  0  0  0  0  0
  -22.3504  -14.5520   20.6694 O   0  0  0  0  0  0
  -24.6337  -31.8503   23.1925 C   0  0  0  0  0  0
  -25.9147  -32.4725   23.8293 C   0  0  1  0  0  0
  -27.2285  -27.2321   20.1314 C   0  0  0  0  0  0
  -25.5927  -33.8534   24.2220 N   0  0  0  0  0  0
  -23.4335  -30.4685   21.5355 C   0  0  2  0  0  0
  -24.8839  -28.9085   20.1006 C   0  0  0  0  0  0
  -22.7516  -29.4571   22.4888 C   0  0  0  0  0  0
  -18.0293  -28.1390   22.8483 C   0  0  0  0  0  0
  -24.1491  -36.7274   23.2642 C   0  0  0  0  0  0
  -25.9797  -30.7530   21.3767 C   0  0  0  0  0  0
  -26.0526  -29.3739   20.7153 C   0  0  0  0  0  0
  -27.2225  -28.5456   20.7222 C   0  0  0  0  0  0
  -26.0390  -26.8373   19.4830 C   0  0  0  0  0  0
  -24.8845  -27.6510   19.4717 C   0  0  0  0  0  0
  -23.6534  -29.7967   20.1523 C   0  0  0  0  0  0
  -25.4121  -36.3056   24.0322 C   0  0  1  0  0  0
  -20.5898  -28.3707   23.1260 C   0  0  2  0  0  0
  -20.6779  -26.9420   22.5410 C   0  0  0  0  0  0
  -19.5754  -26.6382   21.5216 C   0  0  0  0  0  0
  -18.1934  -26.7932   22.1623 C   0  0  0  0  0  0
  -19.1547  -28.8867   23.2864 C   0  0  0  0  0  0
  -18.9468  -30.1467   23.8886 C   0  0  0  0  0  0
  -17.6467  -30.6593   24.0563 C   0  0  0  0  0  0
  -25.9062  -34.9429   23.5080 C   0  0  0  0  0  0
  -16.5358  -29.9090   23.6336 C   0  0  0  0  0  0
  -16.7279  -28.6506   23.0357 C   0  0  0  0  0  0
  -26.4501  -31.6571   25.0706 C   0  0  0  0  0  0
  -25.3711  -31.3731   26.1419 C   0  0  0  0  0  0
  -27.0360  -30.2979   24.6230 C   0  0  0  0  0  0
  -27.6044  -32.4324   25.7486 C   0  0  0  0  0  0
  -27.5579  -37.1790   24.8463 C   0  0  0  0  0  0
  -21.4217  -29.3042   22.3638 N   0  0  0  0  0  0
  -26.4290  -37.3761   23.9411 N   0  0  0  0  0  0
  -24.7015  -31.0433   22.0913 N   0  0  0  0  0  0
  -23.4195  -28.8129   23.3019 O   0  0  0  0  0  0
  -28.2983  -26.3138   20.2971 O   0  0  0  0  0  0
  -26.5649  -34.8915   22.4658 O   0  0  0  0  0  0
  -23.5478  -32.1345   23.7196 O   0  0  0  0  0  0
  -30.1990  -20.3925   18.3971 C   0  0  0  0  0  0
  -30.7726  -20.9912   17.2722 C   0  0  0  0  0  0
  -30.0263  -23.1290   18.0862 C   0  0  0  0  0  0
  -29.4097  -22.5957   19.2565 C   0  0  0  0  0  0
  -29.5181  -21.1056   19.4163 C   0  0  0  0  0  0
  -30.6874  -22.3751   17.0954 C   0  0  0  0  0  0
  -30.9218  -24.1096   15.3158 C   0  0  0  0  0  0
  -28.8496  -23.8032   20.0907 C   0  0  0  0  0  0
  -28.4541  -25.0668   19.6105 C   0  0  0  0  0  0
  -29.4972  -17.3932   20.3219 C   0  0  0  0  0  0
  -31.8387  -24.4241   14.1461 C   0  0  0  0  0  0
  -32.9892  -23.4364   14.3273 C   0  0  0  0  0  0
  -32.4290  -22.3590   15.2599 C   0  0  0  0  0  0
  -28.6665  -20.7552   21.8303 C   0  0  0  0  0  0
  -29.9625  -16.1144   21.2020 C   0  0  0  0  0  0
  -28.9517  -20.0647   20.4910 C   0  0  2  0  0  0
  -31.3075  -22.9859   15.9559 N   0  0  0  0  0  0
  -29.6650  -18.7076   20.7754 N   0  0  0  0  0  0
  -29.9520  -24.8256   15.5835 O   0  0  0  0  0  0
  -28.8710  -17.1864   19.2813 O   0  0  0  0  0  0
  -31.4762  -12.6168   19.1788 H   0  0  0  0  0  0
  -30.3907  -11.5090   19.9576 H   0  0  0  0  0  0
  -29.8052  -11.7668   17.5231 H   0  0  0  0  0  0
  -29.6344  -13.4924   17.7340 H   0  0  0  0  0  0
  -27.9017  -11.2948   18.9061 H   0  0  0  0  0  0
  -27.3842  -12.5412   17.8028 H   0  0  0  0  0  0
  -27.6441  -14.2644   19.4892 H   0  0  0  0  0  0
  -28.7349  -12.1466   21.3988 H   0  0  0  0  0  0
  -28.3979  -13.7954   21.8275 H   0  0  0  0  0  0
  -25.2779   -9.5688   22.4747 H   0  0  0  0  0  0
  -24.0017   -7.4644   22.7476 H   0  0  0  0  0  0
  -21.0861   -8.8780   19.8950 H   0  0  0  0  0  0
  -22.3718  -10.9678   19.6157 H   0  0  0  0  0  0
  -21.2002   -7.6148   23.9716 H   0  0  0  0  0  0
  -21.1484   -6.0521   25.9077 H   0  0  0  0  0  0
  -22.0596   -2.7612   23.2846 H   0  0  0  0  0  0
  -22.4102  -11.9881   22.4816 H   0  0  0  0  0  0
  -21.1091  -13.1220   22.2600 H   0  0  0  0  0  0
  -24.6588  -15.8507   20.5270 H   0  0  0  0  0  0
  -26.2767  -15.6332   20.0899 H   0  0  0  0  0  0
  -26.7214  -32.5361   23.1031 H   0  0  0  0  0  0
  -25.0055  -33.9664   25.0350 H   0  0  0  0  0  0
  -22.7317  -31.2913   21.3844 H   0  0  0  0  0  0
  -23.3758  -35.9599   23.3293 H   0  0  0  0  0  0
  -24.3579  -36.8914   22.2057 H   0  0  0  0  0  0
  -23.7238  -37.6466   23.6681 H   0  0  0  0  0  0
  -26.1241  -31.5135   20.6083 H   0  0  0  0  0  0
  -26.8540  -30.8007   22.0141 H   0  0  0  0  0  0
  -28.1099  -28.8863   21.2365 H   0  0  0  0  0  0
  -25.9749  -25.8599   19.0271 H   0  0  0  0  0  0
  -23.9877  -27.2862   18.9901 H   0  0  0  0  0  0
  -23.7760  -30.5713   19.3945 H   0  0  0  0  0  0
  -22.7720  -29.2284   19.8500 H   0  0  0  0  0  0
  -25.1304  -36.1896   25.0813 H   0  0  0  0  0  0
  -20.9988  -28.3298   24.1381 H   0  0  0  0  0  0
  -20.5678  -26.2324   23.3623 H   0  0  0  0  0  0
  -21.6646  -26.7438   22.1207 H   0  0  0  0  0  0
  -19.6918  -25.6288   21.1259 H   0  0  0  0  0  0
  -19.6694  -27.3184   20.6737 H   0  0  0  0  0  0
  -17.4205  -26.6683   21.4024 H   0  0  0  0  0  0
  -18.0327  -26.0074   22.9017 H   0  0  0  0  0  0
  -19.7945  -30.7283   24.2249 H   0  0  0  0  0  0
  -17.5024  -31.6273   24.5161 H   0  0  0  0  0  0
  -15.5360  -30.2989   23.7662 H   0  0  0  0  0  0
  -15.8677  -28.0821   22.7078 H   0  0  0  0  0  0
  -24.5893  -30.7077   25.7738 H   0  0  0  0  0  0
  -24.8899  -32.2905   26.4817 H   0  0  0  0  0  0
  -25.8015  -30.8922   27.0212 H   0  0  0  0  0  0
  -26.2959  -29.6709   24.1243 H   0  0  0  0  0  0
  -27.4012  -29.7260   25.4771 H   0  0  0  0  0  0
  -27.8849  -30.4236   23.9503 H   0  0  0  0  0  0
  -27.2641  -33.3632   26.2037 H   0  0  0  0  0  0
  -28.3868  -32.6873   25.0325 H   0  0  0  0  0  0
  -28.0702  -31.8471   26.5425 H   0  0  0  0  0  0
  -28.2585  -38.0098   24.7520 H   0  0  0  0  0  0
  -28.1088  -36.2629   24.6278 H   0  0  0  0  0  0
  -27.2302  -37.1422   25.8867 H   0  0  0  0  0  0
  -20.9413  -29.8751   21.6823 H   0  0  0  0  0  0
  -26.0165  -38.2833   24.1410 H   0  0  0  0  0  0
  -30.2882  -19.3187   18.4451 H   0  0  0  0  0  0
  -31.2692  -20.3626   16.5467 H   0  0  0  0  0  0
  -30.0633  -24.1964   17.9485 H   0  0  0  0  0  0
  -28.9026  -23.6772   21.1624 H   0  0  0  0  0  0
  -28.3256  -25.2398   18.5507 H   0  0  0  0  0  0
  -32.1731  -25.4615   14.1606 H   0  0  0  0  0  0
  -31.3011  -24.2408   13.2156 H   0  0  0  0  0  0
  -33.8341  -23.9381   14.8013 H   0  0  0  0  0  0
  -33.3376  -23.0223   13.3806 H   0  0  0  0  0  0
  -33.1873  -21.9951   15.9548 H   0  0  0  0  0  0
  -32.0632  -21.5118   14.6776 H   0  0  0  0  0  0
  -27.9440  -21.5619   21.7077 H   0  0  0  0  0  0
  -29.5729  -21.1795   22.2617 H   0  0  0  0  0  0
  -28.2426  -20.0593   22.5547 H   0  0  0  0  0  0
  -29.1084  -15.8304   21.8115 H   0  0  0  0  0  0
  -30.7077  -16.4668   21.9145 H   0  0  0  0  0  0
  -27.9785  -19.7783   20.0875 H   0  0  0  0  0  0
  -30.2561  -18.7592   21.5939 H   0  0  0  0  0  0
  1 25  1  0  0  0
  1 30  2  0  0  0
  1 85  1  0  0  0
  2  3  1  0  0  0
  2 25  1  0  0  0
  2 91  1  0  0  0
  2 92  1  0  0  0
  3  4  1  0  0  0
  3 93  1  0  0  0
  3 94  1  0  0  0
  4  5  1  0  0  0
  4 95  1  0  0  0
  4 96  1  0  0  0
  5  6  1  0  0  0
  5 26  1  0  0  0
  5 97  1  0  0  0
  6 25  1  0  0  0
  6 98  1  0  0  0
  6 99  1  0  0  0
  7  8  2  0  0  0
  7 26  1  0  0  0
  7 29  1  0  0  0
  8  9  1  0  0  0
  8 22  1  0  0  0
  9 10  1  0  0  0
  9 27  2  0  0  0
 10 11  2  0  0  0
 10 15  1  0  0  0
 11 12  1  0  0  0
 11100  1  0  0  0
 12 13  2  0  0  0
 12101  1  0  0  0
 13 14  1  0  0  0
 13 31  1  0  0  0
 14 15  2  0  0  0
 14102  1  0  0  0
 15103  1  0  0  0
 16 17  2  0  0  0
 16 21  1  0  0  0
 16 31  1  0  0  0
 17 18  1  0  0  0
 17104  1  0  0  0
 18 19  2  0  0  0
 18105  1  0  0  0
 19 20  1  0  0  0
 19 24  1  0  0  0
 20 21  2  0  0  0
 20106  1  0  0  0
 21 23  1  0  0  0
 22 28  1  0  0  0
 22 32  2  0  0  0
 26 27  1  0  0  0
 28107  1  0  0  0
 28108  1  0  0  0
 29109  1  0  0  0
 29110  1  0  0  0
 33 34  1  0  0  0
 33 66  1  0  0  0
 33 70  2  0  0  0
 34 36  1  0  0  0
 34 59  1  0  0  0
 34111  1  0  0  0
 35 44  2  0  0  0
 35 45  1  0  0  0
 35 68  1  0  0  0
 36 56  1  0  0  0
 36112  1  0  0  0
 37 39  1  0  0  0
 37 47  1  0  0  0
 37 66  1  0  0  0
 37113  1  0  0  0
 38 43  2  0  0  0
 38 46  1  0  0  0
 38 47  1  0  0  0
 39 64  1  0  0  0
 39 67  2  0  0  0
 40 52  1  0  0  0
 40 53  2  0  0  0
 40 58  1  0  0  0
 41114  1  0  0  0
 41115  1  0  0  0
 41116  1  0  0  0
 41 48  1  0  0  0
 42 43  1  0  0  0
 42 66  1  0  0  0
 42117  1  0  0  0
 42118  1  0  0  0
 43 44  1  0  0  0
 44119  1  0  0  0
 45 46  2  0  0  0
 45120  1  0  0  0
 46121  1  0  0  0
 47122  1  0  0  0
 47123  1  0  0  0
 48 56  1  0  0  0
 48 65  1  0  0  0
 48124  1  0  0  0
 49 50  1  0  0  0
 49 53  1  0  0  0
 49 64  1  0  0  0
 49125  1  0  0  0
 50 51  1  0  0  0
 50126  1  0  0  0
 50127  1  0  0  0
 51 52  1  0  0  0
 51128  1  0  0  0
 51129  1  0  0  0
 52130  1  0  0  0
 52131  1  0  0  0
 53 54  1  0  0  0
 54 55  2  0  0  0
 54132  1  0  0  0
 55 57  1  0  0  0
 55133  1  0  0  0
 56 69  2  0  0  0
 57 58  2  0  0  0
 57134  1  0  0  0
 58135  1  0  0  0
 59 60  1  0  0  0
 59 61  1  0  0  0
 59 62  1  0  0  0
 60136  1  0  0  0
 60137  1  0  0  0
 60138  1  0  0  0
 61139  1  0  0  0
 61140  1  0  0  0
 61141  1  0  0  0
 62142  1  0  0  0
 62143  1  0  0  0
 62144  1  0  0  0
 63 65  1  0  0  0
 63145  1  0  0  0
 63146  1  0  0  0
 63147  1  0  0  0
 64148  1  0  0  0
 65149  1  0  0  0
 68 79  1  0  0  0
 71 72  2  0  0  0
 71 75  1  0  0  0
 71150  1  0  0  0
 72 76  1  0  0  0
 72151  1  0  0  0
 73 74  1  0  0  0
 73 76  2  0  0  0
 73152  1  0  0  0
 74 75  2  0  0  0
 74 78  1  0  0  0
 75 86  1  0  0  0
 76 87  1  0  0  0
 77 81  1  0  0  0
 77 87  1  0  0  0
 77 89  2  0  0  0
 78 79  2  0  0  0
 78153  1  0  0  0
 79154  1  0  0  0
 80 85  1  0  0  0
 80 88  1  0  0  0
 80 90  2  0  0  0
 81 82  1  0  0  0
 81155  1  0  0  0
 81156  1  0  0  0
 82 83  1  0  0  0
 82157  1  0  0  0
 82158  1  0  0  0
 83 87  1  0  0  0
 83159  1  0  0  0
 83160  1  0  0  0
 84161  1  0  0  0
 84162  1  0  0  0
 84163  1  0  0  0
 84 86  1  0  0  0
 85164  1  0  0  0
 85165  1  0  0  0
 86 88  1  0  0  0
 86166  1  0  0  0
 88167  1  0  0  0
M  ISO  4   1 100  68 101  79 101  85 100
M  END
> <chiral flag>
0

> <version>
0

> <s_m_source_file>
/data/baiqing/PycharmProjects/Reinvent-master-3.2/result/LINK_invent/BTK/process_docking_weight1_custom_product_contain_oxygen_bond_distance_aromatic_linkinvent_7_9_3/rearranged_h_0093.sdf

> <i_m_source_file_index>
85

> <r_mmod_Potential_Energy-OPLS-2005>
386.035308837891

> <r_mmod_Stretch_Energy-OPLS-2005>
173.121841430664

> <r_mmod_Bend_Energy-OPLS-2005>
286.516204833984

> <r_mmod_Torsional_Energy-OPLS-2005>
248.235626220703

> <r_mmod_Improper_Torsional_Energy-OPLS-2005>
8.20515632629395

> <r_mmod_Van_der_Waal_Energy-OPLS-2005>
146.54020690918

> <r_mmod_Electrostatic_Energy-OPLS-2005>
-350.492919921875

> <r_mmod_Solvation_Energy-OPLS-2005>
-233.273590087891

> <b_mmod_Minimization_Converged-OPLS-2005>
0

> <r_mmod_RMS_Derivative-OPLS-2005>
0.898200213909149

$$$$
86
                    3D
 Structure written by MMmdl.
158167  0  0  1  0            999 V2000
  -30.6023  -14.6749   20.4762 C   0  0  0  0  0  0
  -30.4447  -12.4110   19.4498 C   0  0  0  0  0  0
  -29.5090  -12.5074   18.2234 C   0  0  0  0  0  0
  -28.0323  -12.3397   18.6380 C   0  0  0  0  0  0
  -27.6506  -13.2154   19.8608 C   0  0  2  0  0  0
  -28.7008  -13.0868   20.9877 C   0  0  0  0  0  0
  -25.2543  -13.8160   20.5723 C   0  0  0  0  0  0
  -24.1810  -13.0411   20.9182 C   0  0  0  0  0  0
  -24.6393  -11.6891   20.8731 C   0  0  0  0  0  0
  -23.9065  -10.4277   21.0398 C   0  0  0  0  0  0
  -24.3616   -9.4197   21.9179 C   0  0  0  0  0  0
  -23.6286   -8.2238   22.0755 C   0  0  0  0  0  0
  -22.4267   -8.0278   21.3547 C   0  0  0  0  0  0
  -21.9902   -9.0250   20.4648 C   0  0  0  0  0  0
  -22.7237  -10.2123   20.3050 C   0  0  0  0  0  0
  -21.6852   -6.0730   22.5279 C   0  0  0  0  0  0
  -21.4014   -6.5634   23.8213 C   0  0  0  0  0  0
  -21.3656   -5.6788   24.9176 C   0  0  0  0  0  0
  -21.6042   -4.3051   24.7228 C   0  0  0  0  0  0
  -21.8821   -3.8142   23.4349 C   0  0  0  0  0  0
  -21.9192   -4.6958   22.3403 C   0  0  0  0  0  0
  -22.7832  -13.5206   21.1846 C   0  0  0  0  0  0
  -22.1661   -4.2143   21.0980 F   0  0  0  0  0  0
  -21.5626   -3.4536   25.7741 F   0  0  0  0  0  0
  -30.0110  -13.4381   20.4163 N   0  0  0  0  0  0
  -26.2983  -12.9348   20.3336 N   0  0  0  0  0  0
  -25.9322  -11.6497   20.5755 N   0  0  0  0  0  0
  -22.0477  -12.8212   22.0416 N   0  0  0  0  0  0
  -25.4137  -15.1905   20.4259 N   0  0  0  0  0  0
  -31.7816  -14.8410   20.1508 O   0  0  0  0  0  0
  -21.6636   -6.8874   21.4243 O   0  0  0  0  0  0
  -22.3512  -14.5509   20.6693 O   0  0  0  0  0  0
  -24.6274  -31.8591   23.2020 C   0  0  0  0  0  0
  -25.9118  -32.4774   23.8353 C   0  0  1  0  0  0
  -27.2237  -27.3105   20.1251 C   0  0  0  0  0  0
  -25.5931  -33.8575   24.2282 N   0  0  0  0  0  0
  -23.4222  -30.4822   21.5443 C   0  0  2  0  0  0
  -24.8714  -28.9373   20.1104 C   0  0  0  0  0  0
  -22.7484  -29.4615   22.4926 C   0  0  0  0  0  0
  -18.0290  -28.1384   22.8482 C   0  0  0  0  0  0
  -24.1489  -36.7289   23.2637 C   0  0  0  0  0  0
  -25.9645  -30.7873   21.3758 C   0  0  0  0  0  0
  -26.0407  -29.4136   20.7189 C   0  0  0  0  0  0
  -27.2231  -28.6122   20.7166 C   0  0  0  0  0  0
  -26.0388  -26.8965   19.4785 C   0  0  0  0  0  0
  -24.8726  -27.6839   19.4798 C   0  0  0  0  0  0
  -23.6389  -29.8178   20.1595 C   0  0  0  0  0  0
  -25.4112  -36.3078   24.0327 C   0  0  1  0  0  0
  -20.5891  -28.3690   23.1276 C   0  0  2  0  0  0
  -20.6778  -26.9411   22.5408 C   0  0  0  0  0  0
  -19.5756  -26.6382   21.5208 C   0  0  0  0  0  0
  -18.1934  -26.7926   22.1620 C   0  0  0  0  0  0
  -19.1542  -28.8853   23.2875 C   0  0  0  0  0  0
  -18.9465  -30.1453   23.8895 C   0  0  0  0  0  0
  -17.6464  -30.6586   24.0563 C   0  0  0  0  0  0
  -25.9052  -34.9447   23.5105 C   0  0  0  0  0  0
  -16.5355  -29.9084   23.6327 C   0  0  0  0  0  0
  -16.7277  -28.6500   23.0350 C   0  0  0  0  0  0
  -26.4499  -31.6581   25.0721 C   0  0  0  0  0  0
  -25.3733  -31.3722   26.1450 C   0  0  0  0  0  0
  -27.0337  -30.3001   24.6178 C   0  0  0  0  0  0
  -27.6061  -32.4311   25.7493 C   0  0  0  0  0  0
  -27.5578  -37.1798   24.8460 C   0  0  0  0  0  0
  -21.4195  -29.3039   22.3666 N   0  0  0  0  0  0
  -26.4287  -37.3773   23.9408 N   0  0  0  0  0  0
  -24.6901  -31.0596   22.0975 N   0  0  0  0  0  0
  -23.4200  -28.8153   23.3010 O   0  0  0  0  0  0
  -28.3106  -26.4210   20.1566 O   0  0  0  0  0  0
  -26.5618  -34.8915   22.4670 O   0  0  0  0  0  0
  -23.5434  -32.1392   23.7341 O   0  0  0  0  0  0
  -29.9910  -23.6964   19.5389 C   0  0  0  0  0  0
  -28.5848  -19.2541   19.9058 C   0  0  0  0  0  0
  -30.8650  -18.0195   20.9746 C   0  0  0  0  0  0
  -28.8319  -23.7975   20.3639 C   0  0  0  0  0  0
  -29.6234  -20.1092   20.3577 C   0  0  0  0  0  0
  -28.6818  -17.8317   19.9811 C   0  0  0  0  0  0
  -29.8170  -17.1717   20.5259 C   0  0  0  0  0  0
  -30.7715  -19.4485   20.8938 C   0  0  0  0  0  0
  -28.5768  -22.4776   20.7594 C   0  0  0  0  0  0
  -30.3694  -22.3784   19.4664 C   0  0  0  0  0  0
  -27.4779  -21.9655   21.6387 C   0  0  0  0  0  0
  -28.0235  -25.0922   20.7591 C   0  0  0  0  0  0
  -29.5258  -21.5718   20.2200 N   0  0  0  0  0  0
  -27.6393  -17.0513   19.4809 N   0  0  0  0  0  0
  -29.7431  -15.7174   20.7075 N   0  0  0  0  0  0
  -31.3986  -21.8347   18.7623 O   0  0  0  0  0  0
  -31.8048  -20.1863   21.3701 F   0  0  0  0  0  0
  -31.4839  -12.5472   19.1456 H   0  0  0  0  0  0
  -30.3901  -11.4190   19.9012 H   0  0  0  0  0  0
  -29.7769  -11.7517   17.4837 H   0  0  0  0  0  0
  -29.6439  -13.4735   17.7348 H   0  0  0  0  0  0
  -27.8751  -11.2873   18.8761 H   0  0  0  0  0  0
  -27.3760  -12.5610   17.7954 H   0  0  0  0  0  0
  -27.6568  -14.2451   19.5080 H   0  0  0  0  0  0
  -28.7219  -12.0687   21.3791 H   0  0  0  0  0  0
  -28.4473  -13.7266   21.8346 H   0  0  0  0  0  0
  -25.2762   -9.5669   22.4752 H   0  0  0  0  0  0
  -23.9992   -7.4629   22.7476 H   0  0  0  0  0  0
  -21.0830   -8.8774   19.8957 H   0  0  0  0  0  0
  -22.3703  -10.9662   19.6159 H   0  0  0  0  0  0
  -21.2010   -7.6143   23.9715 H   0  0  0  0  0  0
  -21.1474   -6.0518   25.9077 H   0  0  0  0  0  0
  -22.0602   -2.7605   23.2855 H   0  0  0  0  0  0
  -22.4090  -11.9883   22.4820 H   0  0  0  0  0  0
  -21.1097  -13.1249   22.2618 H   0  0  0  0  0  0
  -24.6345  -15.8251   20.5556 H   0  0  0  0  0  0
  -26.2682  -15.6860   20.1698 H   0  0  0  0  0  0
  -26.7185  -32.5444   23.1100 H   0  0  0  0  0  0
  -25.0075  -33.9719   25.0424 H   0  0  0  0  0  0
  -22.7163  -31.3029   21.4009 H   0  0  0  0  0  0
  -23.3747  -35.9626   23.3305 H   0  0  0  0  0  0
  -24.3582  -36.8902   22.2050 H   0  0  0  0  0  0
  -23.7248  -37.6495   23.6656 H   0  0  0  0  0  0
  -26.0974  -31.5502   20.6073 H   0  0  0  0  0  0
  -26.8443  -30.8366   22.0057 H   0  0  0  0  0  0
  -28.1186  -28.9704   21.2049 H   0  0  0  0  0  0
  -26.0036  -25.9385   18.9791 H   0  0  0  0  0  0
  -23.9796  -27.3162   18.9932 H   0  0  0  0  0  0
  -23.7592  -30.5952   19.4041 H   0  0  0  0  0  0
  -22.7588  -29.2482   19.8555 H   0  0  0  0  0  0
  -25.1291  -36.1927   25.0819 H   0  0  0  0  0  0
  -20.9984  -28.3269   24.1397 H   0  0  0  0  0  0
  -20.5674  -26.2299   23.3608 H   0  0  0  0  0  0
  -21.6650  -26.7438   22.1208 H   0  0  0  0  0  0
  -19.6921  -25.6294   21.1235 H   0  0  0  0  0  0
  -19.6693  -27.3190   20.6737 H   0  0  0  0  0  0
  -17.4203  -26.6667   21.4023 H   0  0  0  0  0  0
  -18.0340  -26.0068   22.9019 H   0  0  0  0  0  0
  -19.7942  -30.7267   24.2264 H   0  0  0  0  0  0
  -17.5020  -31.6265   24.5167 H   0  0  0  0  0  0
  -15.5356  -30.2987   23.7653 H   0  0  0  0  0  0
  -15.8675  -28.0818   22.7068 H   0  0  0  0  0  0
  -24.5910  -30.7066   25.7782 H   0  0  0  0  0  0
  -24.8923  -32.2888   26.4871 H   0  0  0  0  0  0
  -25.8060  -30.8904   27.0227 H   0  0  0  0  0  0
  -26.2908  -29.6752   24.1205 H   0  0  0  0  0  0
  -27.4034  -29.7254   25.4682 H   0  0  0  0  0  0
  -27.8781  -30.4281   23.9400 H   0  0  0  0  0  0
  -27.2674  -33.3610   26.2074 H   0  0  0  0  0  0
  -28.3872  -32.6870   25.0321 H   0  0  0  0  0  0
  -28.0728  -31.8430   26.5407 H   0  0  0  0  0  0
  -28.2591  -38.0099   24.7516 H   0  0  0  0  0  0
  -28.1079  -36.2633   24.6273 H   0  0  0  0  0  0
  -27.2300  -37.1432   25.8864 H   0  0  0  0  0  0
  -20.9374  -29.8759   21.6872 H   0  0  0  0  0  0
  -26.0166  -38.2845   24.1418 H   0  0  0  0  0  0
  -30.4884  -24.5182   19.0419 H   0  0  0  0  0  0
  -27.7048  -19.7075   19.4740 H   0  0  0  0  0  0
  -31.7453  -17.5822   21.4210 H   0  0  0  0  0  0
  -27.0260  -22.7697   22.2192 H   0  0  0  0  0  0
  -27.8471  -21.2220   22.3458 H   0  0  0  0  0  0
  -26.6890  -21.5026   21.0453 H   0  0  0  0  0  0
  -28.1611  -25.2178   21.8335 H   0  0  0  0  0  0
  -26.9736  -24.8233   20.6499 H   0  0  0  0  0  0
  -26.9311  -17.5724   18.9743 H   0  0  0  0  0  0
  -27.9615  -16.2807   18.9069 H   0  0  0  0  0  0
  -28.7921  -15.4036   20.8278 H   0  0  0  0  0  0
  -31.8570  -22.5454   18.3249 H   0  0  0  0  0  0
  1 25  1  0  0  0
  1 30  2  0  0  0
  1 85  1  0  0  0
  2  3  1  0  0  0
  2 25  1  0  0  0
  2 88  1  0  0  0
  2 89  1  0  0  0
  3  4  1  0  0  0
  3 90  1  0  0  0
  3 91  1  0  0  0
  4  5  1  0  0  0
  4 92  1  0  0  0
  4 93  1  0  0  0
  5  6  1  0  0  0
  5 26  1  0  0  0
  5 94  1  0  0  0
  6 25  1  0  0  0
  6 95  1  0  0  0
  6 96  1  0  0  0
  7  8  2  0  0  0
  7 26  1  0  0  0
  7 29  1  0  0  0
  8  9  1  0  0  0
  8 22  1  0  0  0
  9 10  1  0  0  0
  9 27  2  0  0  0
 10 11  2  0  0  0
 10 15  1  0  0  0
 11 12  1  0  0  0
 11 97  1  0  0  0
 12 13  2  0  0  0
 12 98  1  0  0  0
 13 14  1  0  0  0
 13 31  1  0  0  0
 14 15  2  0  0  0
 14 99  1  0  0  0
 15100  1  0  0  0
 16 17  2  0  0  0
 16 21  1  0  0  0
 16 31  1  0  0  0
 17 18  1  0  0  0
 17101  1  0  0  0
 18 19  2  0  0  0
 18102  1  0  0  0
 19 20  1  0  0  0
 19 24  1  0  0  0
 20 21  2  0  0  0
 20103  1  0  0  0
 21 23  1  0  0  0
 22 28  1  0  0  0
 22 32  2  0  0  0
 26 27  1  0  0  0
 28104  1  0  0  0
 28105  1  0  0  0
 29106  1  0  0  0
 29107  1  0  0  0
 33 34  1  0  0  0
 33 66  1  0  0  0
 33 70  2  0  0  0
 34 36  1  0  0  0
 34 59  1  0  0  0
 34108  1  0  0  0
 35 44  2  0  0  0
 35 45  1  0  0  0
 35 68  1  0  0  0
 36 56  1  0  0  0
 36109  1  0  0  0
 37 39  1  0  0  0
 37 47  1  0  0  0
 37 66  1  0  0  0
 37110  1  0  0  0
 38 43  2  0  0  0
 38 46  1  0  0  0
 38 47  1  0  0  0
 39 64  1  0  0  0
 39 67  2  0  0  0
 40 52  1  0  0  0
 40 53  2  0  0  0
 40 58  1  0  0  0
 41111  1  0  0  0
 41112  1  0  0  0
 41113  1  0  0  0
 41 48  1  0  0  0
 42 43  1  0  0  0
 42 66  1  0  0  0
 42114  1  0  0  0
 42115  1  0  0  0
 43 44  1  0  0  0
 44116  1  0  0  0
 45 46  2  0  0  0
 45117  1  0  0  0
 46118  1  0  0  0
 47119  1  0  0  0
 47120  1  0  0  0
 48 56  1  0  0  0
 48 65  1  0  0  0
 48121  1  0  0  0
 49 50  1  0  0  0
 49 53  1  0  0  0
 49 64  1  0  0  0
 49122  1  0  0  0
 50 51  1  0  0  0
 50123  1  0  0  0
 50124  1  0  0  0
 51 52  1  0  0  0
 51125  1  0  0  0
 51126  1  0  0  0
 52127  1  0  0  0
 52128  1  0  0  0
 53 54  1  0  0  0
 54 55  2  0  0  0
 54129  1  0  0  0
 55 57  1  0  0  0
 55130  1  0  0  0
 56 69  2  0  0  0
 57 58  2  0  0  0
 57131  1  0  0  0
 58132  1  0  0  0
 59 60  1  0  0  0
 59 61  1  0  0  0
 59 62  1  0  0  0
 60133  1  0  0  0
 60134  1  0  0  0
 60135  1  0  0  0
 61136  1  0  0  0
 61137  1  0  0  0
 61138  1  0  0  0
 62139  1  0  0  0
 62140  1  0  0  0
 62141  1  0  0  0
 63 65  1  0  0  0
 63142  1  0  0  0
 63143  1  0  0  0
 63144  1  0  0  0
 64145  1  0  0  0
 65146  1  0  0  0
 68 82  1  0  0  0
 71 74  1  0  0  0
 71 80  2  0  0  0
 71147  1  0  0  0
 72 75  2  0  0  0
 72 76  1  0  0  0
 72148  1  0  0  0
 73 77  1  0  0  0
 73 78  2  0  0  0
 73149  1  0  0  0
 74 79  2  0  0  0
 74 82  1  0  0  0
 75 78  1  0  0  0
 75 83  1  0  0  0
 76 77  2  0  0  0
 76 84  1  0  0  0
 77 85  1  0  0  0
 78 87  1  0  0  0
 79 81  1  0  0  0
 79 83  1  0  0  0
 80 83  1  0  0  0
 80 86  1  0  0  0
 81150  1  0  0  0
 81151  1  0  0  0
 81152  1  0  0  0
 82153  1  0  0  0
 82154  1  0  0  0
 84155  1  0  0  0
 84156  1  0  0  0
 85157  1  0  0  0
 86158  1  0  0  0
M  ISO  4   1 100  68 101  82 101  85 100
M  END
> <chiral flag>
0

> <version>
0

> <s_m_source_file>
/data/baiqing/PycharmProjects/Reinvent-master-3.2/result/LINK_invent/BTK/process_docking_weight1_custom_product_contain_oxygen_bond_distance_aromatic_linkinvent_7_9_3/rearranged_h_0093.sdf

> <i_m_source_file_index>
86

> <r_mmod_Potential_Energy-OPLS-2005>
-14.5801734924316

> <r_mmod_Stretch_Energy-OPLS-2005>
82.8752975463867

> <r_mmod_Bend_Energy-OPLS-2005>
138.903869628906

> <r_mmod_Torsional_Energy-OPLS-2005>
271.704406738281

> <r_mmod_Improper_Torsional_Energy-OPLS-2005>
11.4820041656494

> <r_mmod_Van_der_Waal_Energy-OPLS-2005>
136.22917175293

> <r_mmod_Electrostatic_Energy-OPLS-2005>
-493.971282958984

> <r_mmod_Solvation_Energy-OPLS-2005>
-221.876373291016

> <b_mmod_Minimization_Converged-OPLS-2005>
0

> <r_mmod_RMS_Derivative-OPLS-2005>
0.584849417209625

$$$$
87
                    3D
 Structure written by MMmdl.
157166  0  0  1  0            999 V2000
  -30.7737  -14.5345   20.5409 C   0  0  0  0  0  0
  -30.4017  -12.3649   19.4313 C   0  0  0  0  0  0
  -29.4777  -12.4897   18.2072 C   0  0  0  0  0  0
  -28.0075  -12.3252   18.6324 C   0  0  0  0  0  0
  -27.6412  -13.2027   19.8577 C   0  0  2  0  0  0
  -28.6996  -13.0736   20.9837 C   0  0  0  0  0  0
  -25.2472  -13.8111   20.5728 C   0  0  0  0  0  0
  -24.1739  -13.0384   20.9173 C   0  0  0  0  0  0
  -24.6322  -11.6857   20.8742 C   0  0  0  0  0  0
  -23.9015  -10.4247   21.0409 C   0  0  0  0  0  0
  -24.3572   -9.4168   21.9185 C   0  0  0  0  0  0
  -23.6257   -8.2206   22.0755 C   0  0  0  0  0  0
  -22.4243   -8.0242   21.3540 C   0  0  0  0  0  0
  -21.9863   -9.0216   20.4644 C   0  0  0  0  0  0
  -22.7191  -10.2097   20.3058 C   0  0  0  0  0  0
  -21.6842   -6.0698   22.5280 C   0  0  0  0  0  0
  -21.3998   -6.5613   23.8208 C   0  0  0  0  0  0
  -21.3666   -5.6779   24.9178 C   0  0  0  0  0  0
  -21.6055   -4.3043   24.7237 C   0  0  0  0  0  0
  -21.8813   -3.8120   23.4362 C   0  0  0  0  0  0
  -21.9184   -4.6926   22.3410 C   0  0  0  0  0  0
  -22.7770  -13.5182   21.1867 C   0  0  0  0  0  0
  -22.1649   -4.2113   21.0991 F   0  0  0  0  0  0
  -21.5642   -3.4532   25.7754 F   0  0  0  0  0  0
  -29.9995  -13.4125   20.3952 N   0  0  0  0  0  0
  -26.2914  -12.9291   20.3379 N   0  0  0  0  0  0
  -25.9251  -11.6449   20.5809 N   0  0  0  0  0  0
  -22.0424  -12.8183   22.0438 N   0  0  0  0  0  0
  -25.4153  -15.1824   20.4260 N   0  0  0  0  0  0
  -31.9471  -14.5236   20.1798 O   0  0  0  0  0  0
  -21.6617   -6.8837   21.4241 O   0  0  0  0  0  0
  -22.3464  -14.5517   20.6765 O   0  0  0  0  0  0
  -24.6176  -31.8687   23.2100 C   0  0  0  0  0  0
  -25.9072  -32.4809   23.8389 C   0  0  1  0  0  0
  -27.2216  -27.4030   20.0893 C   0  0  0  0  0  0
  -25.5933  -33.8610   24.2328 N   0  0  0  0  0  0
  -23.4045  -30.4945   21.5531 C   0  0  2  0  0  0
  -24.8469  -28.9655   20.1115 C   0  0  0  0  0  0
  -22.7432  -29.4655   22.4992 C   0  0  0  0  0  0
  -18.0277  -28.1373   22.8495 C   0  0  0  0  0  0
  -24.1496  -36.7308   23.2637 C   0  0  0  0  0  0
  -25.9395  -30.8212   21.3715 C   0  0  0  0  0  0
  -26.0119  -29.4566   20.7135 C   0  0  0  0  0  0
  -27.1991  -28.6822   20.7023 C   0  0  0  0  0  0
  -26.0342  -26.9506   19.4612 C   0  0  0  0  0  0
  -24.8552  -27.7127   19.4826 C   0  0  0  0  0  0
  -23.6124  -29.8363   20.1654 C   0  0  0  0  0  0
  -25.4113  -36.3102   24.0338 C   0  0  1  0  0  0
  -20.5866  -28.3662   23.1324 C   0  0  2  0  0  0
  -20.6771  -26.9398   22.5420 C   0  0  0  0  0  0
  -19.5744  -26.6383   21.5224 C   0  0  0  0  0  0
  -18.1921  -26.7923   22.1633 C   0  0  0  0  0  0
  -19.1524  -28.8838   23.2904 C   0  0  0  0  0  0
  -18.9454  -30.1449   23.8907 C   0  0  0  0  0  0
  -17.6454  -30.6582   24.0564 C   0  0  0  0  0  0
  -25.9051  -34.9467   23.5126 C   0  0  0  0  0  0
  -16.5343  -29.9079   23.6322 C   0  0  0  0  0  0
  -16.7264  -28.6495   23.0341 C   0  0  0  0  0  0
  -26.4477  -31.6572   25.0711 C   0  0  0  0  0  0
  -25.3741  -31.3695   26.1464 C   0  0  0  0  0  0
  -27.0300  -30.3002   24.6098 C   0  0  0  0  0  0
  -27.6053  -32.4277   25.7471 C   0  0  0  0  0  0
  -27.5583  -37.1812   24.8465 C   0  0  0  0  0  0
  -21.4157  -29.3029   22.3735 N   0  0  0  0  0  0
  -26.4302  -37.3782   23.9405 N   0  0  0  0  0  0
  -24.6722  -31.0763   22.1019 N   0  0  0  0  0  0
  -23.4206  -28.8196   23.3028 O   0  0  0  0  0  0
  -28.3758  -26.6302   20.1334 O   0  0  0  0  0  0
  -26.5600  -34.8916   22.4680 O   0  0  0  0  0  0
  -23.5360  -32.1462   23.7479 O   0  0  0  0  0  0
  -28.6971  -20.2202   21.8207 C   0  0  0  0  0  0
  -30.1973  -20.0329   19.9777 C   0  0  0  0  0  0
  -29.3074  -17.9705   21.0020 C   0  0  0  0  0  0
  -28.5865  -18.8069   21.9048 C   0  0  0  0  0  0
  -29.4940  -20.8892   20.8596 C   0  0  0  0  0  0
  -30.1127  -18.6227   20.0353 C   0  0  0  0  0  0
  -28.9916  -23.4024   21.4178 C   0  0  0  0  0  0
  -29.1778  -16.4486   20.9988 C   0  0  0  0  0  0
  -29.6617  -22.9706   19.4920 C   0  0  0  0  0  0
  -29.4026  -24.3149   20.2200 C   0  0  1  0  0  0
  -27.6855  -18.2371   22.9927 C   0  0  0  0  0  0
  -28.2794  -25.2473   19.7150 C   0  0  0  0  0  0
  -29.6041  -22.3224   20.7943 N   0  0  0  0  0  0
  -30.3382  -15.7796   20.8594 N   0  0  0  0  0  0
  -28.3164  -23.4815   22.4243 O   0  0  0  0  0  0
  -28.0667  -15.9434   21.1356 O   0  0  0  0  0  0
  -30.8177  -17.9023   19.1283 F   0  0  0  0  0  0
  -31.4414  -12.4414   19.1063 H   0  0  0  0  0  0
  -30.3155  -11.3761   19.8838 H   0  0  0  0  0  0
  -29.7387  -11.7403   17.4577 H   0  0  0  0  0  0
  -29.6204  -13.4614   17.7314 H   0  0  0  0  0  0
  -27.8480  -11.2725   18.8689 H   0  0  0  0  0  0
  -27.3454  -12.5511   17.7959 H   0  0  0  0  0  0
  -27.6457  -14.2221   19.4788 H   0  0  0  0  0  0
  -28.7161  -12.0516   21.3652 H   0  0  0  0  0  0
  -28.4720  -13.6897   21.8512 H   0  0  0  0  0  0
  -25.2707   -9.5655   22.4765 H   0  0  0  0  0  0
  -23.9961   -7.4600   22.7475 H   0  0  0  0  0  0
  -21.0791   -8.8738   19.8951 H   0  0  0  0  0  0
  -22.3644  -10.9639   19.6175 H   0  0  0  0  0  0
  -21.1972   -7.6122   23.9703 H   0  0  0  0  0  0
  -21.1508   -6.0512   25.9088 H   0  0  0  0  0  0
  -22.0586   -2.7580   23.2884 H   0  0  0  0  0  0
  -22.4019  -11.9833   22.4819 H   0  0  0  0  0  0
  -21.1054  -13.1235   22.2675 H   0  0  0  0  0  0
  -24.6897  -15.8237   20.7240 H   0  0  0  0  0  0
  -26.3545  -15.5726   20.5157 H   0  0  0  0  0  0
  -26.7131  -32.5508   23.1140 H   0  0  0  0  0  0
  -25.0098  -33.9770   25.0481 H   0  0  0  0  0  0
  -22.6918  -31.3108   21.4180 H   0  0  0  0  0  0
  -23.3755  -35.9647   23.3313 H   0  0  0  0  0  0
  -24.3589  -36.8909   22.2049 H   0  0  0  0  0  0
  -23.7258  -37.6520   23.6640 H   0  0  0  0  0  0
  -26.0627  -31.5891   20.6070 H   0  0  0  0  0  0
  -26.8250  -30.8673   21.9939 H   0  0  0  0  0  0
  -28.0942  -29.0554   21.1808 H   0  0  0  0  0  0
  -25.9804  -26.0070   18.9403 H   0  0  0  0  0  0
  -23.9621  -27.3326   19.0057 H   0  0  0  0  0  0
  -23.7237  -30.6163   19.4111 H   0  0  0  0  0  0
  -22.7345  -29.2612   19.8650 H   0  0  0  0  0  0
  -25.1289  -36.1965   25.0831 H   0  0  0  0  0  0
  -20.9947  -28.3225   24.1453 H   0  0  0  0  0  0
  -20.5697  -26.2265   23.3605 H   0  0  0  0  0  0
  -21.6639  -26.7459   22.1197 H   0  0  0  0  0  0
  -19.6909  -25.6304   21.1233 H   0  0  0  0  0  0
  -19.6680  -27.3216   20.6772 H   0  0  0  0  0  0
  -17.4195  -26.6679   21.4025 H   0  0  0  0  0  0
  -18.0310  -26.0056   22.9018 H   0  0  0  0  0  0
  -19.7925  -30.7262   24.2272 H   0  0  0  0  0  0
  -17.5003  -31.6259   24.5171 H   0  0  0  0  0  0
  -15.5340  -30.2984   23.7644 H   0  0  0  0  0  0
  -15.8664  -28.0826   22.7040 H   0  0  0  0  0  0
  -24.5907  -30.7040   25.7808 H   0  0  0  0  0  0
  -24.8944  -32.2866   26.4899 H   0  0  0  0  0  0
  -25.8107  -30.8870   27.0221 H   0  0  0  0  0  0
  -26.2851  -29.6765   24.1144 H   0  0  0  0  0  0
  -27.4056  -29.7220   25.4549 H   0  0  0  0  0  0
  -27.8691  -30.4295   23.9260 H   0  0  0  0  0  0
  -27.2677  -33.3568   26.2069 H   0  0  0  0  0  0
  -28.3860  -32.6857   25.0304 H   0  0  0  0  0  0
  -28.0724  -31.8389   26.5375 H   0  0  0  0  0  0
  -28.2610  -38.0099   24.7497 H   0  0  0  0  0  0
  -28.1076  -36.2634   24.6315 H   0  0  0  0  0  0
  -27.2302  -37.1485   25.8868 H   0  0  0  0  0  0
  -20.9323  -29.8754   21.6959 H   0  0  0  0  0  0
  -26.0195  -38.2867   24.1385 H   0  0  0  0  0  0
  -28.1364  -20.8191   22.5252 H   0  0  0  0  0  0
  -30.8349  -20.4621   19.2191 H   0  0  0  0  0  0
  -30.6372  -22.9056   19.0066 H   0  0  0  0  0  0
  -28.8503  -22.6645   18.8258 H   0  0  0  0  0  0
  -30.3439  -24.8430   20.3735 H   0  0  0  0  0  0
  -27.3927  -19.0035   23.7111 H   0  0  0  0  0  0
  -28.1840  -17.4426   23.5501 H   0  0  0  0  0  0
  -26.7719  -17.8315   22.5582 H   0  0  0  0  0  0
  -27.3326  -24.8181   20.0451 H   0  0  0  0  0  0
  -28.2561  -25.2323   18.6247 H   0  0  0  0  0  0
  -31.1106  -16.4245   20.8204 H   0  0  0  0  0  0
  1 25  1  0  0  0
  1 30  2  0  0  0
  1 84  1  0  0  0
  2  3  1  0  0  0
  2 25  1  0  0  0
  2 88  1  0  0  0
  2 89  1  0  0  0
  3  4  1  0  0  0
  3 90  1  0  0  0
  3 91  1  0  0  0
  4  5  1  0  0  0
  4 92  1  0  0  0
  4 93  1  0  0  0
  5  6  1  0  0  0
  5 26  1  0  0  0
  5 94  1  0  0  0
  6 25  1  0  0  0
  6 95  1  0  0  0
  6 96  1  0  0  0
  7  8  2  0  0  0
  7 26  1  0  0  0
  7 29  1  0  0  0
  8  9  1  0  0  0
  8 22  1  0  0  0
  9 10  1  0  0  0
  9 27  2  0  0  0
 10 11  2  0  0  0
 10 15  1  0  0  0
 11 12  1  0  0  0
 11 97  1  0  0  0
 12 13  2  0  0  0
 12 98  1  0  0  0
 13 14  1  0  0  0
 13 31  1  0  0  0
 14 15  2  0  0  0
 14 99  1  0  0  0
 15100  1  0  0  0
 16 17  2  0  0  0
 16 21  1  0  0  0
 16 31  1  0  0  0
 17 18  1  0  0  0
 17101  1  0  0  0
 18 19  2  0  0  0
 18102  1  0  0  0
 19 20  1  0  0  0
 19 24  1  0  0  0
 20 21  2  0  0  0
 20103  1  0  0  0
 21 23  1  0  0  0
 22 28  1  0  0  0
 22 32  2  0  0  0
 26 27  1  0  0  0
 28104  1  0  0  0
 28105  1  0  0  0
 29106  1  0  0  0
 29107  1  0  0  0
 33 34  1  0  0  0
 33 66  1  0  0  0
 33 70  2  0  0  0
 34 36  1  0  0  0
 34 59  1  0  0  0
 34108  1  0  0  0
 35 44  2  0  0  0
 35 45  1  0  0  0
 35 68  1  0  0  0
 36 56  1  0  0  0
 36109  1  0  0  0
 37 39  1  0  0  0
 37 47  1  0  0  0
 37 66  1  0  0  0
 37110  1  0  0  0
 38 43  2  0  0  0
 38 46  1  0  0  0
 38 47  1  0  0  0
 39 64  1  0  0  0
 39 67  2  0  0  0
 40 52  1  0  0  0
 40 53  2  0  0  0
 40 58  1  0  0  0
 41111  1  0  0  0
 41112  1  0  0  0
 41113  1  0  0  0
 41 48  1  0  0  0
 42 43  1  0  0  0
 42 66  1  0  0  0
 42114  1  0  0  0
 42115  1  0  0  0
 43 44  1  0  0  0
 44116  1  0  0  0
 45 46  2  0  0  0
 45117  1  0  0  0
 46118  1  0  0  0
 47119  1  0  0  0
 47120  1  0  0  0
 48 56  1  0  0  0
 48 65  1  0  0  0
 48121  1  0  0  0
 49 50  1  0  0  0
 49 53  1  0  0  0
 49 64  1  0  0  0
 49122  1  0  0  0
 50 51  1  0  0  0
 50123  1  0  0  0
 50124  1  0  0  0
 51 52  1  0  0  0
 51125  1  0  0  0
 51126  1  0  0  0
 52127  1  0  0  0
 52128  1  0  0  0
 53 54  1  0  0  0
 54 55  2  0  0  0
 54129  1  0  0  0
 55 57  1  0  0  0
 55130  1  0  0  0
 56 69  2  0  0  0
 57 58  2  0  0  0
 57131  1  0  0  0
 58132  1  0  0  0
 59 60  1  0  0  0
 59 61  1  0  0  0
 59 62  1  0  0  0
 60133  1  0  0  0
 60134  1  0  0  0
 60135  1  0  0  0
 61136  1  0  0  0
 61137  1  0  0  0
 61138  1  0  0  0
 62139  1  0  0  0
 62140  1  0  0  0
 62141  1  0  0  0
 63 65  1  0  0  0
 63142  1  0  0  0
 63143  1  0  0  0
 63144  1  0  0  0
 64145  1  0  0  0
 65146  1  0  0  0
 68 82  1  0  0  0
 71 74  2  0  0  0
 71 75  1  0  0  0
 71147  1  0  0  0
 72 75  2  0  0  0
 72 76  1  0  0  0
 72148  1  0  0  0
 73 74  1  0  0  0
 73 76  2  0  0  0
 73 78  1  0  0  0
 74 81  1  0  0  0
 75 83  1  0  0  0
 76 87  1  0  0  0
 77 80  1  0  0  0
 77 83  1  0  0  0
 77 85  2  0  0  0
 78 84  1  0  0  0
 78 86  2  0  0  0
 79 80  1  0  0  0
 79 83  1  0  0  0
 79149  1  0  0  0
 79150  1  0  0  0
 80 82  1  0  0  0
 80151  1  0  0  0
 81152  1  0  0  0
 81153  1  0  0  0
 81154  1  0  0  0
 82155  1  0  0  0
 82156  1  0  0  0
 84157  1  0  0  0
M  ISO  4   1 100  68 101  82 101  84 100
M  END
> <chiral flag>
0

> <version>
0

> <s_m_source_file>
/data/baiqing/PycharmProjects/Reinvent-master-3.2/result/LINK_invent/BTK/process_docking_weight1_custom_product_contain_oxygen_bond_distance_aromatic_linkinvent_7_9_3/rearranged_h_0093.sdf

> <i_m_source_file_index>
87

> <r_mmod_Potential_Energy-OPLS-2005>
47.1665344238281

> <r_mmod_Stretch_Energy-OPLS-2005>
45.9719009399414

> <r_mmod_Bend_Energy-OPLS-2005>
196.265319824219

> <r_mmod_Torsional_Energy-OPLS-2005>
230.384872436523

> <r_mmod_Improper_Torsional_Energy-OPLS-2005>
11.6144094467163

> <r_mmod_Van_der_Waal_Energy-OPLS-2005>
166.958770751953

> <r_mmod_Electrostatic_Energy-OPLS-2005>
-434.143768310547

> <r_mmod_Solvation_Energy-OPLS-2005>
-201.818710327148

> <b_mmod_Minimization_Converged-OPLS-2005>
0

> <r_mmod_RMS_Derivative-OPLS-2005>
1.95819914340973

$$$$
88
                    3D
 Structure written by MMmdl.
160169  0  0  1  0            999 V2000
  -30.6319  -14.6046   20.5028 C   0  0  0  0  0  0
  -30.4414  -12.3745   19.4268 C   0  0  0  0  0  0
  -29.5007  -12.4896   18.2081 C   0  0  0  0  0  0
  -28.0247  -12.3318   18.6303 C   0  0  0  0  0  0
  -27.6515  -13.2064   19.8561 C   0  0  2  0  0  0
  -28.7024  -13.0644   20.9793 C   0  0  0  0  0  0
  -25.2576  -13.8151   20.5673 C   0  0  0  0  0  0
  -24.1840  -13.0427   20.9189 C   0  0  0  0  0  0
  -24.6399  -11.6894   20.8752 C   0  0  0  0  0  0
  -23.9063  -10.4285   21.0418 C   0  0  0  0  0  0
  -24.3616   -9.4199   21.9195 C   0  0  0  0  0  0
  -23.6287   -8.2239   22.0765 C   0  0  0  0  0  0
  -22.4272   -8.0281   21.3550 C   0  0  0  0  0  0
  -21.9907   -9.0257   20.4655 C   0  0  0  0  0  0
  -22.7237  -10.2134   20.3065 C   0  0  0  0  0  0
  -21.6851   -6.0733   22.5277 C   0  0  0  0  0  0
  -21.4012   -6.5637   23.8210 C   0  0  0  0  0  0
  -21.3657   -5.6792   24.9172 C   0  0  0  0  0  0
  -21.6043   -4.3054   24.7223 C   0  0  0  0  0  0
  -21.8821   -3.8145   23.4345 C   0  0  0  0  0  0
  -21.9193   -4.6961   22.3400 C   0  0  0  0  0  0
  -22.7864  -13.5234   21.1844 C   0  0  0  0  0  0
  -22.1663   -4.2146   21.0977 F   0  0  0  0  0  0
  -21.5630   -3.4539   25.7738 F   0  0  0  0  0  0
  -30.0124  -13.3932   20.3987 N   0  0  0  0  0  0
  -26.2991  -12.9308   20.3305 N   0  0  0  0  0  0
  -25.9323  -11.6476   20.5770 N   0  0  0  0  0  0
  -22.0496  -12.8237   22.0396 N   0  0  0  0  0  0
  -25.4273  -15.1874   20.4074 N   0  0  0  0  0  0
  -31.8245  -14.7619   20.2283 O   0  0  0  0  0  0
  -21.6636   -6.8877   21.4241 O   0  0  0  0  0  0
  -22.3555  -14.5542   20.6686 O   0  0  0  0  0  0
  -24.6211  -31.8642   23.2064 C   0  0  0  0  0  0
  -25.9077  -32.4805   23.8381 C   0  0  1  0  0  0
  -27.2277  -27.3679   20.1165 C   0  0  0  0  0  0
  -25.5920  -33.8603   24.2318 N   0  0  0  0  0  0
  -23.4139  -30.4873   21.5474 C   0  0  2  0  0  0
  -24.8630  -28.9413   20.1233 C   0  0  0  0  0  0
  -22.7456  -29.4643   22.4960 C   0  0  0  0  0  0
  -18.0293  -28.1376   22.8498 C   0  0  0  0  0  0
  -24.1491  -36.7297   23.2643 C   0  0  0  0  0  0
  -25.9507  -30.8063   21.3745 C   0  0  0  0  0  0
  -26.0277  -29.4320   20.7313 C   0  0  0  0  0  0
  -27.2179  -28.6514   20.7308 C   0  0  0  0  0  0
  -26.0482  -26.9118   19.4997 C   0  0  0  0  0  0
  -24.8693  -27.6797   19.5069 C   0  0  0  0  0  0
  -23.6291  -29.8174   20.1650 C   0  0  0  0  0  0
  -25.4111  -36.3100   24.0343 C   0  0  1  0  0  0
  -20.5891  -28.3668   23.1304 C   0  0  2  0  0  0
  -20.6785  -26.9401   22.5407 C   0  0  0  0  0  0
  -19.5751  -26.6381   21.5220 C   0  0  0  0  0  0
  -18.1935  -26.7923   22.1632 C   0  0  0  0  0  0
  -19.1545  -28.8842   23.2899 C   0  0  0  0  0  0
  -18.9467  -30.1452   23.8901 C   0  0  0  0  0  0
  -17.6466  -30.6579   24.0570 C   0  0  0  0  0  0
  -25.9042  -34.9468   23.5127 C   0  0  0  0  0  0
  -16.5357  -29.9075   23.6334 C   0  0  0  0  0  0
  -16.7284  -28.6496   23.0352 C   0  0  0  0  0  0
  -26.4479  -31.6596   25.0726 C   0  0  0  0  0  0
  -25.3725  -31.3714   26.1459 C   0  0  0  0  0  0
  -27.0322  -30.3035   24.6131 C   0  0  0  0  0  0
  -27.6054  -32.4312   25.7484 C   0  0  0  0  0  0
  -27.5582  -37.1805   24.8471 C   0  0  0  0  0  0
  -21.4173  -29.3033   22.3704 N   0  0  0  0  0  0
  -26.4298  -37.3783   23.9411 N   0  0  0  0  0  0
  -24.6800  -31.0693   22.1002 N   0  0  0  0  0  0
  -23.4204  -28.8191   23.3023 O   0  0  0  0  0  0
  -28.3296  -26.5330   20.0052 O   0  0  0  0  0  0
  -26.5598  -34.8922   22.4684 O   0  0  0  0  0  0
  -23.5383  -32.1418   23.7419 O   0  0  0  0  0  0
  -29.7731  -19.4153   22.6297 C   0  0  0  0  0  0
  -29.7301  -18.2039   20.5237 C   0  0  0  0  0  0
  -30.0962  -16.9879   22.6062 C   0  0  0  0  0  0
  -29.6752  -19.4642   21.2174 C   0  0  0  0  0  0
  -30.0000  -18.2023   23.3116 C   0  0  0  0  0  0
  -29.9381  -16.9575   21.2062 C   0  0  0  0  0  0
  -29.0945  -24.5592   21.2830 C   0  0  0  0  0  0
  -28.8380  -25.8942   21.1187 C   0  0  0  0  0  0
  -29.8694  -24.0392   22.4682 C   0  0  0  0  0  0
  -28.7775  -23.3217   20.4101 C   0  0  0  0  0  0
  -30.3534  -22.6549   22.0181 C   0  0  0  0  0  0
  -29.5083  -20.8260   20.4424 C   0  0  0  0  0  0
  -30.1032  -18.1982   24.7013 N   0  0  0  0  0  0
  -29.7795  -15.6667   20.5742 N   0  0  0  0  0  0
  -29.2404  -22.1162   21.2003 N   0  3  2  0  0  0
  -31.4792  -12.5131   19.1178 H   0  0  0  0  0  0
  -30.3864  -11.3787   19.8699 H   0  0  0  0  0  0
  -29.7573  -11.7355   17.4626 H   0  0  0  0  0  0
  -29.6429  -13.4565   17.7229 H   0  0  0  0  0  0
  -27.8620  -11.2798   18.8666 H   0  0  0  0  0  0
  -27.3661  -12.5585   17.7910 H   0  0  0  0  0  0
  -27.6651  -14.2378   19.5062 H   0  0  0  0  0  0
  -28.7127  -12.0487   21.3775 H   0  0  0  0  0  0
  -28.4651  -13.7162   21.8226 H   0  0  0  0  0  0
  -25.2763   -9.5670   22.4767 H   0  0  0  0  0  0
  -23.9992   -7.4630   22.7488 H   0  0  0  0  0  0
  -21.0837   -8.8781   19.8962 H   0  0  0  0  0  0
  -22.3703  -10.9677   19.6175 H   0  0  0  0  0  0
  -21.2003   -7.6146   23.9711 H   0  0  0  0  0  0
  -21.1477   -6.0522   25.9073 H   0  0  0  0  0  0
  -22.0603   -2.7608   23.2845 H   0  0  0  0  0  0
  -22.4097  -11.9885   22.4772 H   0  0  0  0  0  0
  -21.1125  -13.1288   22.2610 H   0  0  0  0  0  0
  -24.6574  -15.8375   20.5233 H   0  0  0  0  0  0
  -26.2682  -15.6337   20.0654 H   0  0  0  0  0  0
  -26.7149  -32.5499   23.1142 H   0  0  0  0  0  0
  -25.0105  -33.9757   25.0489 H   0  0  0  0  0  0
  -22.7051  -31.3064   21.4040 H   0  0  0  0  0  0
  -23.3756  -35.9629   23.3313 H   0  0  0  0  0  0
  -24.3599  -36.8888   22.2059 H   0  0  0  0  0  0
  -23.7234  -37.6505   23.6638 H   0  0  0  0  0  0
  -26.0741  -31.5645   20.6004 H   0  0  0  0  0  0
  -26.8352  -30.8614   21.9976 H   0  0  0  0  0  0
  -28.1191  -29.0294   21.1930 H   0  0  0  0  0  0
  -26.0456  -25.9473   19.0119 H   0  0  0  0  0  0
  -23.9761  -27.2948   19.0341 H   0  0  0  0  0  0
  -23.7451  -30.5908   19.4044 H   0  0  0  0  0  0
  -22.7515  -29.2409   19.8670 H   0  0  0  0  0  0
  -25.1284  -36.1968   25.0836 H   0  0  0  0  0  0
  -20.9996  -28.3234   24.1423 H   0  0  0  0  0  0
  -20.5705  -26.2276   23.3595 H   0  0  0  0  0  0
  -21.6649  -26.7435   22.1191 H   0  0  0  0  0  0
  -19.6908  -25.6298   21.1238 H   0  0  0  0  0  0
  -19.6694  -27.3210   20.6767 H   0  0  0  0  0  0
  -17.4210  -26.6701   21.4025 H   0  0  0  0  0  0
  -18.0315  -26.0052   22.9013 H   0  0  0  0  0  0
  -19.7943  -30.7282   24.2252 H   0  0  0  0  0  0
  -17.5015  -31.6261   24.5168 H   0  0  0  0  0  0
  -15.5354  -30.2977   23.7648 H   0  0  0  0  0  0
  -15.8688  -28.0819   22.7045 H   0  0  0  0  0  0
  -24.5918  -30.7038   25.7786 H   0  0  0  0  0  0
  -24.8893  -32.2875   26.4871 H   0  0  0  0  0  0
  -25.8065  -30.8910   27.0237 H   0  0  0  0  0  0
  -26.2888  -29.6793   24.1162 H   0  0  0  0  0  0
  -27.4068  -29.7270   25.4599 H   0  0  0  0  0  0
  -27.8730  -30.4354   23.9316 H   0  0  0  0  0  0
  -27.2689  -33.3618   26.2060 H   0  0  0  0  0  0
  -28.3862  -32.6851   25.0305 H   0  0  0  0  0  0
  -28.0720  -31.8430   26.5395 H   0  0  0  0  0  0
  -28.2601  -38.0100   24.7516 H   0  0  0  0  0  0
  -28.1075  -36.2633   24.6297 H   0  0  0  0  0  0
  -27.2306  -37.1449   25.8876 H   0  0  0  0  0  0
  -20.9345  -29.8750   21.6919 H   0  0  0  0  0  0
  -26.0189  -38.2863   24.1403 H   0  0  0  0  0  0
  -29.6567  -20.3032   23.2258 H   0  0  0  0  0  0
  -29.5910  -18.1933   19.4511 H   0  0  0  0  0  0
  -30.2273  -16.0632   23.1510 H   0  0  0  0  0  0
  -29.1509  -26.6187   21.8575 H   0  0  0  0  0  0
  -29.1984  -23.9529   23.3244 H   0  0  0  0  0  0
  -30.6923  -24.6997   22.7457 H   0  0  0  0  0  0
  -29.3297  -23.4006   19.4727 H   0  0  0  0  0  0
  -27.7144  -23.2627   20.1761 H   0  0  0  0  0  0
  -30.6522  -22.0486   22.8678 H   0  0  0  0  0  0
  -31.2359  -22.7639   21.3849 H   0  0  0  0  0  0
  -28.6796  -20.6852   19.7477 H   0  0  0  0  0  0
  -30.3922  -20.9696   19.8201 H   0  0  0  0  0  0
  -29.7573  -18.9956   25.2264 H   0  0  0  0  0  0
  -29.9718  -17.3193   25.1930 H   0  0  0  0  0  0
  -28.8177  -15.3914   20.4552 H   0  0  0  0  0  0
  -28.4838  -21.9088   21.8340 H   0  0  0  0  0  0
  1 25  1  0  0  0
  1 30  2  0  0  0
  1 84  1  0  0  0
  2  3  1  0  0  0
  2 25  1  0  0  0
  2 86  1  0  0  0
  2 87  1  0  0  0
  3  4  1  0  0  0
  3 88  1  0  0  0
  3 89  1  0  0  0
  4  5  1  0  0  0
  4 90  1  0  0  0
  4 91  1  0  0  0
  5  6  1  0  0  0
  5 26  1  0  0  0
  5 92  1  0  0  0
  6 25  1  0  0  0
  6 93  1  0  0  0
  6 94  1  0  0  0
  7  8  2  0  0  0
  7 26  1  0  0  0
  7 29  1  0  0  0
  8  9  1  0  0  0
  8 22  1  0  0  0
  9 10  1  0  0  0
  9 27  2  0  0  0
 10 11  2  0  0  0
 10 15  1  0  0  0
 11 12  1  0  0  0
 11 95  1  0  0  0
 12 13  2  0  0  0
 12 96  1  0  0  0
 13 14  1  0  0  0
 13 31  1  0  0  0
 14 15  2  0  0  0
 14 97  1  0  0  0
 15 98  1  0  0  0
 16 17  2  0  0  0
 16 21  1  0  0  0
 16 31  1  0  0  0
 17 18  1  0  0  0
 17 99  1  0  0  0
 18 19  2  0  0  0
 18100  1  0  0  0
 19 20  1  0  0  0
 19 24  1  0  0  0
 20 21  2  0  0  0
 20101  1  0  0  0
 21 23  1  0  0  0
 22 28  1  0  0  0
 22 32  2  0  0  0
 26 27  1  0  0  0
 28102  1  0  0  0
 28103  1  0  0  0
 29104  1  0  0  0
 29105  1  0  0  0
 33 34  1  0  0  0
 33 66  1  0  0  0
 33 70  2  0  0  0
 34 36  1  0  0  0
 34 59  1  0  0  0
 34106  1  0  0  0
 35 44  2  0  0  0
 35 45  1  0  0  0
 35 68  1  0  0  0
 36 56  1  0  0  0
 36107  1  0  0  0
 37 39  1  0  0  0
 37 47  1  0  0  0
 37 66  1  0  0  0
 37108  1  0  0  0
 38 43  2  0  0  0
 38 46  1  0  0  0
 38 47  1  0  0  0
 39 64  1  0  0  0
 39 67  2  0  0  0
 40 52  1  0  0  0
 40 53  2  0  0  0
 40 58  1  0  0  0
 41109  1  0  0  0
 41110  1  0  0  0
 41111  1  0  0  0
 41 48  1  0  0  0
 42 43  1  0  0  0
 42 66  1  0  0  0
 42112  1  0  0  0
 42113  1  0  0  0
 43 44  1  0  0  0
 44114  1  0  0  0
 45 46  2  0  0  0
 45115  1  0  0  0
 46116  1  0  0  0
 47117  1  0  0  0
 47118  1  0  0  0
 48 56  1  0  0  0
 48 65  1  0  0  0
 48119  1  0  0  0
 49 50  1  0  0  0
 49 53  1  0  0  0
 49 64  1  0  0  0
 49120  1  0  0  0
 50 51  1  0  0  0
 50121  1  0  0  0
 50122  1  0  0  0
 51 52  1  0  0  0
 51123  1  0  0  0
 51124  1  0  0  0
 52125  1  0  0  0
 52126  1  0  0  0
 53 54  1  0  0  0
 54 55  2  0  0  0
 54127  1  0  0  0
 55 57  1  0  0  0
 55128  1  0  0  0
 56 69  2  0  0  0
 57 58  2  0  0  0
 57129  1  0  0  0
 58130  1  0  0  0
 59 60  1  0  0  0
 59 61  1  0  0  0
 59 62  1  0  0  0
 60131  1  0  0  0
 60132  1  0  0  0
 60133  1  0  0  0
 61134  1  0  0  0
 61135  1  0  0  0
 61136  1  0  0  0
 62137  1  0  0  0
 62138  1  0  0  0
 62139  1  0  0  0
 63 65  1  0  0  0
 63140  1  0  0  0
 63141  1  0  0  0
 63142  1  0  0  0
 64143  1  0  0  0
 65144  1  0  0  0
 68 78  1  0  0  0
 71 74  2  0  0  0
 71 75  1  0  0  0
 71145  1  0  0  0
 72 74  1  0  0  0
 72 76  2  0  0  0
 72146  1  0  0  0
 73 75  2  0  0  0
 73 76  1  0  0  0
 73147  1  0  0  0
 74 82  1  0  0  0
 75 83  1  0  0  0
 76 84  1  0  0  0
 77 78  2  0  0  0
 77 79  1  0  0  0
 77 80  1  0  0  0
 78148  1  0  0  0
 79 81  1  0  0  0
 79149  1  0  0  0
 79150  1  0  0  0
 80 85  1  0  0  0
 80151  1  0  0  0
 80152  1  0  0  0
 81 85  1  0  0  0
 81153  1  0  0  0
 81154  1  0  0  0
 82155  1  0  0  0
 82156  1  0  0  0
 82 85  1  0  0  0
 83157  1  0  0  0
 83158  1  0  0  0
 84159  1  0  0  0
 85160  1  0  0  0
M  CHG  1  85   1
M  ISO  4   1 100  68 101  78 101  84 100
M  END
> <chiral flag>
0

> <version>
0

> <s_m_source_file>
/data/baiqing/PycharmProjects/Reinvent-master-3.2/result/LINK_invent/BTK/process_docking_weight1_custom_product_contain_oxygen_bond_distance_aromatic_linkinvent_7_9_3/rearranged_h_0093.sdf

> <i_m_source_file_index>
88

> <r_mmod_Potential_Energy-OPLS-2005>
-21.4717140197754

> <r_mmod_Stretch_Energy-OPLS-2005>
60.3106536865234

> <r_mmod_Bend_Energy-OPLS-2005>
166.238510131836

> <r_mmod_Torsional_Energy-OPLS-2005>
296.447082519531

> <r_mmod_Improper_Torsional_Energy-OPLS-2005>
14.6837930679321

> <r_mmod_Van_der_Waal_Energy-OPLS-2005>
132.891036987305

> <r_mmod_Electrostatic_Energy-OPLS-2005>
-273.803924560547

> <r_mmod_Solvation_Energy-OPLS-2005>
-455.940307617188

> <b_mmod_Minimization_Converged-OPLS-2005>
0

> <r_mmod_RMS_Derivative-OPLS-2005>
1.064732670784

$$$$
89
                    3D
 Structure written by MMmdl.
154163  0  0  1  0            999 V2000
  -30.6110  -14.6740   20.5861 C   0  0  0  0  0  0
  -30.4467  -12.4409   19.4603 C   0  0  0  0  0  0
  -29.5158  -12.5523   18.2286 C   0  0  0  0  0  0
  -28.0360  -12.3668   18.6260 C   0  0  0  0  0  0
  -27.6542  -13.2116   19.8690 C   0  0  2  0  0  0
  -28.6899  -13.0014   20.9891 C   0  0  0  0  0  0
  -25.2551  -13.8141   20.5673 C   0  0  0  0  0  0
  -24.1814  -13.0415   20.9183 C   0  0  0  0  0  0
  -24.6379  -11.6890   20.8714 C   0  0  0  0  0  0
  -23.9044  -10.4283   21.0389 C   0  0  0  0  0  0
  -24.3602   -9.4212   21.9172 C   0  0  0  0  0  0
  -23.6294   -8.2241   22.0734 C   0  0  0  0  0  0
  -22.4270   -8.0275   21.3538 C   0  0  0  0  0  0
  -21.9900   -9.0234   20.4632 C   0  0  0  0  0  0
  -22.7217  -10.2122   20.3041 C   0  0  0  0  0  0
  -21.6845   -6.0741   22.5287 C   0  0  0  0  0  0
  -21.4008   -6.5635   23.8221 C   0  0  0  0  0  0
  -21.3664   -5.6786   24.9178 C   0  0  0  0  0  0
  -21.6037   -4.3050   24.7219 C   0  0  0  0  0  0
  -21.8820   -3.8151   23.4343 C   0  0  0  0  0  0
  -21.9191   -4.6972   22.3405 C   0  0  0  0  0  0
  -22.7844  -13.5218   21.1884 C   0  0  0  0  0  0
  -22.1659   -4.2162   21.0986 F   0  0  0  0  0  0
  -21.5627   -3.4537   25.7731 F   0  0  0  0  0  0
  -30.0045  -13.4324   20.4732 N   0  0  0  0  0  0
  -26.2972  -12.9317   20.3288 N   0  0  0  0  0  0
  -25.9299  -11.6472   20.5690 N   0  0  0  0  0  0
  -22.0494  -12.8190   22.0438 N   0  0  0  0  0  0
  -25.4281  -15.1873   20.4129 N   0  0  0  0  0  0
  -31.7060  -14.8793   20.0484 O   0  0  0  0  0  0
  -21.6632   -6.8880   21.4248 O   0  0  0  0  0  0
  -22.3538  -14.5545   20.6767 O   0  0  0  0  0  0
  -24.6293  -31.8566   23.2020 C   0  0  0  0  0  0
  -25.9135  -32.4766   23.8342 C   0  0  1  0  0  0
  -27.2269  -27.3114   20.1286 C   0  0  0  0  0  0
  -25.5955  -33.8568   24.2301 N   0  0  0  0  0  0
  -23.4234  -30.4775   21.5452 C   0  0  2  0  0  0
  -24.8703  -28.9259   20.1161 C   0  0  0  0  0  0
  -22.7474  -29.4584   22.4943 C   0  0  0  0  0  0
  -18.0280  -28.1395   22.8478 C   0  0  0  0  0  0
  -24.1479  -36.7268   23.2640 C   0  0  0  0  0  0
  -25.9622  -30.7868   21.3699 C   0  0  0  0  0  0
  -26.0394  -29.4096   20.7196 C   0  0  0  0  0  0
  -27.2238  -28.6140   20.7168 C   0  0  0  0  0  0
  -26.0378  -26.8752   19.5079 C   0  0  0  0  0  0
  -24.8693  -27.6630   19.5025 C   0  0  0  0  0  0
  -23.6386  -29.8087   20.1614 C   0  0  0  0  0  0
  -25.4104  -36.3074   24.0335 C   0  0  1  0  0  0
  -20.5878  -28.3675   23.1294 C   0  0  2  0  0  0
  -20.6767  -26.9399   22.5414 C   0  0  0  0  0  0
  -19.5741  -26.6384   21.5214 C   0  0  0  0  0  0
  -18.1919  -26.7939   22.1615 C   0  0  0  0  0  0
  -19.1534  -28.8853   23.2881 C   0  0  0  0  0  0
  -18.9463  -30.1471   23.8872 C   0  0  0  0  0  0
  -17.6456  -30.6593   24.0556 C   0  0  0  0  0  0
  -25.9035  -34.9436   23.5103 C   0  0  0  0  0  0
  -16.5345  -29.9080   23.6354 C   0  0  0  0  0  0
  -16.7266  -28.6516   23.0346 C   0  0  0  0  0  0
  -26.4532  -31.6566   25.0705 C   0  0  0  0  0  0
  -25.3784  -31.3701   26.1449 C   0  0  0  0  0  0
  -27.0374  -30.2994   24.6134 C   0  0  0  0  0  0
  -27.6082  -32.4308   25.7486 C   0  0  0  0  0  0
  -27.5577  -37.1784   24.8465 C   0  0  0  0  0  0
  -21.4188  -29.3024   22.3687 N   0  0  0  0  0  0
  -26.4284  -37.3771   23.9415 N   0  0  0  0  0  0
  -24.6910  -31.0561   22.0967 N   0  0  0  0  0  0
  -23.4174  -28.8126   23.3033 O   0  0  0  0  0  0
  -28.3316  -26.4486   20.1240 O   0  0  0  0  0  0
  -26.5574  -34.8897   22.4645 O   0  0  0  0  0  0
  -23.5452  -32.1343   23.7355 O   0  0  0  0  0  0
  -29.7861  -18.3440   22.0152 C   0  0  0  0  0  0
  -29.5887  -19.7316   21.7395 C   0  0  0  0  0  0
  -29.7813  -17.8428   19.6849 C   0  0  0  0  0  0
  -29.8734  -17.3310   21.0083 C   0  0  0  0  0  0
  -29.4774  -20.2380   20.4168 C   0  0  0  0  0  0
  -29.5954  -19.2379   19.3971 C   0  0  0  0  0  0
  -28.7867  -23.9777   20.2090 C   0  0  0  0  0  0
  -28.6095  -22.6417   20.8318 C   0  0  0  0  0  0
  -28.1672  -25.1379   20.6279 C   0  0  0  0  0  0
  -29.9032  -15.8306   21.4251 C   0  0  0  0  0  0
  -29.7322  -23.8333   19.0546 C   0  0  0  0  0  0
  -29.9157  -22.3048   18.9332 C   0  0  0  0  0  0
  -29.3713  -15.5600   22.5448 N   0  0  0  0  0  0
  -29.3104  -21.6874   20.1257 N   0  0  0  0  0  0
  -27.9333  -22.4044   21.8385 O   0  0  0  0  0  0
  -29.4941  -19.5954   18.0957 F   0  0  0  0  0  0
  -31.4855  -12.5880   19.1625 H   0  0  0  0  0  0
  -30.4080  -11.4320   19.8751 H   0  0  0  0  0  0
  -29.7991  -11.8190   17.4721 H   0  0  0  0  0  0
  -29.6454  -13.5323   17.7658 H   0  0  0  0  0  0
  -27.8792  -11.3079   18.8375 H   0  0  0  0  0  0
  -27.3833  -12.6080   17.7862 H   0  0  0  0  0  0
  -27.6893  -14.2584   19.5676 H   0  0  0  0  0  0
  -28.7280  -11.9453   21.2624 H   0  0  0  0  0  0
  -28.3665  -13.4850   21.9038 H   0  0  0  0  0  0
  -25.2749   -9.5691   22.4739 H   0  0  0  0  0  0
  -24.0013   -7.4625   22.7437 H   0  0  0  0  0  0
  -21.0838   -8.8748   19.8930 H   0  0  0  0  0  0
  -22.3677  -10.9655   19.6139 H   0  0  0  0  0  0
  -21.2000   -7.6142   23.9728 H   0  0  0  0  0  0
  -21.1478   -6.0512   25.9084 H   0  0  0  0  0  0
  -22.0595   -2.7618   23.2834 H   0  0  0  0  0  0
  -22.4110  -11.9831   22.4789 H   0  0  0  0  0  0
  -21.1119  -13.1209   22.2668 H   0  0  0  0  0  0
  -24.6668  -15.8466   20.5297 H   0  0  0  0  0  0
  -26.2968  -15.6298   20.1402 H   0  0  0  0  0  0
  -26.7191  -32.5440   23.1075 H   0  0  0  0  0  0
  -25.0223  -33.9694   25.0534 H   0  0  0  0  0  0
  -22.7208  -31.3002   21.4029 H   0  0  0  0  0  0
  -23.3752  -35.9591   23.3298 H   0  0  0  0  0  0
  -24.3593  -36.8880   22.2061 H   0  0  0  0  0  0
  -23.7190  -37.6454   23.6645 H   0  0  0  0  0  0
  -26.0859  -31.5464   20.5963 H   0  0  0  0  0  0
  -26.8430  -30.8418   21.9969 H   0  0  0  0  0  0
  -28.1247  -28.9799   21.1911 H   0  0  0  0  0  0
  -26.0049  -25.9022   19.0385 H   0  0  0  0  0  0
  -23.9736  -27.2841   19.0308 H   0  0  0  0  0  0
  -23.7632  -30.5818   19.4026 H   0  0  0  0  0  0
  -22.7587  -29.2386   19.8600 H   0  0  0  0  0  0
  -25.1289  -36.1935   25.0833 H   0  0  0  0  0  0
  -20.9969  -28.3237   24.1411 H   0  0  0  0  0  0
  -20.5679  -26.2264   23.3599 H   0  0  0  0  0  0
  -21.6642  -26.7440   22.1210 H   0  0  0  0  0  0
  -19.6883  -25.6291   21.1252 H   0  0  0  0  0  0
  -19.6705  -27.3203   20.6749 H   0  0  0  0  0  0
  -17.4207  -26.6701   21.3999 H   0  0  0  0  0  0
  -18.0299  -26.0091   22.9020 H   0  0  0  0  0  0
  -19.7939  -30.7309   24.2197 H   0  0  0  0  0  0
  -17.5015  -31.6265   24.5171 H   0  0  0  0  0  0
  -15.5343  -30.2963   23.7701 H   0  0  0  0  0  0
  -15.8669  -28.0836   22.7038 H   0  0  0  0  0  0
  -24.5996  -30.6986   25.7824 H   0  0  0  0  0  0
  -24.8935  -32.2862   26.4837 H   0  0  0  0  0  0
  -25.8161  -30.8954   27.0239 H   0  0  0  0  0  0
  -26.2929  -29.6728   24.1212 H   0  0  0  0  0  0
  -27.4144  -29.7282   25.4625 H   0  0  0  0  0  0
  -27.8766  -30.4311   23.9301 H   0  0  0  0  0  0
  -27.2701  -33.3643   26.2011 H   0  0  0  0  0  0
  -28.3927  -32.6799   25.0327 H   0  0  0  0  0  0
  -28.0690  -31.8447   26.5451 H   0  0  0  0  0  0
  -28.2588  -38.0094   24.7566 H   0  0  0  0  0  0
  -28.1080  -36.2624   24.6244 H   0  0  0  0  0  0
  -27.2305  -37.1400   25.8872 H   0  0  0  0  0  0
  -20.9360  -29.8767   21.6924 H   0  0  0  0  0  0
  -26.0164  -38.2833   24.1466 H   0  0  0  0  0  0
  -29.8535  -18.0598   23.0564 H   0  0  0  0  0  0
  -29.5338  -20.4127   22.5771 H   0  0  0  0  0  0
  -29.8114  -17.1523   18.8538 H   0  0  0  0  0  0
  -27.4850  -25.1313   21.4679 H   0  0  0  0  0  0
  -30.6747  -24.3254   19.2957 H   0  0  0  0  0  0
  -29.3219  -24.2813   18.1485 H   0  0  0  0  0  0
  -30.9691  -22.0362   18.8485 H   0  0  0  0  0  0
  -29.4048  -21.9550   18.0356 H   0  0  0  0  0  0
  -28.9645  -16.3859   22.9649 H   0  0  0  0  0  0
  1 25  1  0  0  0
  1 30  2  0  0  0
  1 80  1  0  0  0
  2  3  1  0  0  0
  2 25  1  0  0  0
  2 87  1  0  0  0
  2 88  1  0  0  0
  3  4  1  0  0  0
  3 89  1  0  0  0
  3 90  1  0  0  0
  4  5  1  0  0  0
  4 91  1  0  0  0
  4 92  1  0  0  0
  5  6  1  0  0  0
  5 26  1  0  0  0
  5 93  1  0  0  0
  6 25  1  0  0  0
  6 94  1  0  0  0
  6 95  1  0  0  0
  7  8  2  0  0  0
  7 26  1  0  0  0
  7 29  1  0  0  0
  8  9  1  0  0  0
  8 22  1  0  0  0
  9 10  1  0  0  0
  9 27  2  0  0  0
 10 11  2  0  0  0
 10 15  1  0  0  0
 11 12  1  0  0  0
 11 96  1  0  0  0
 12 13  2  0  0  0
 12 97  1  0  0  0
 13 14  1  0  0  0
 13 31  1  0  0  0
 14 15  2  0  0  0
 14 98  1  0  0  0
 15 99  1  0  0  0
 16 17  2  0  0  0
 16 21  1  0  0  0
 16 31  1  0  0  0
 17 18  1  0  0  0
 17100  1  0  0  0
 18 19  2  0  0  0
 18101  1  0  0  0
 19 20  1  0  0  0
 19 24  1  0  0  0
 20 21  2  0  0  0
 20102  1  0  0  0
 21 23  1  0  0  0
 22 28  1  0  0  0
 22 32  2  0  0  0
 26 27  1  0  0  0
 28103  1  0  0  0
 28104  1  0  0  0
 29105  1  0  0  0
 29106  1  0  0  0
 33 34  1  0  0  0
 33 66  1  0  0  0
 33 70  2  0  0  0
 34 36  1  0  0  0
 34 59  1  0  0  0
 34107  1  0  0  0
 35 44  2  0  0  0
 35 45  1  0  0  0
 35 68  1  0  0  0
 36 56  1  0  0  0
 36108  1  0  0  0
 37 39  1  0  0  0
 37 47  1  0  0  0
 37 66  1  0  0  0
 37109  1  0  0  0
 38 43  2  0  0  0
 38 46  1  0  0  0
 38 47  1  0  0  0
 39 64  1  0  0  0
 39 67  2  0  0  0
 40 52  1  0  0  0
 40 53  2  0  0  0
 40 58  1  0  0  0
 41110  1  0  0  0
 41111  1  0  0  0
 41112  1  0  0  0
 41 48  1  0  0  0
 42 43  1  0  0  0
 42 66  1  0  0  0
 42113  1  0  0  0
 42114  1  0  0  0
 43 44  1  0  0  0
 44115  1  0  0  0
 45 46  2  0  0  0
 45116  1  0  0  0
 46117  1  0  0  0
 47118  1  0  0  0
 47119  1  0  0  0
 48 56  1  0  0  0
 48 65  1  0  0  0
 48120  1  0  0  0
 49 50  1  0  0  0
 49 53  1  0  0  0
 49 64  1  0  0  0
 49121  1  0  0  0
 50 51  1  0  0  0
 50122  1  0  0  0
 50123  1  0  0  0
 51 52  1  0  0  0
 51124  1  0  0  0
 51125  1  0  0  0
 52126  1  0  0  0
 52127  1  0  0  0
 53 54  1  0  0  0
 54 55  2  0  0  0
 54128  1  0  0  0
 55 57  1  0  0  0
 55129  1  0  0  0
 56 69  2  0  0  0
 57 58  2  0  0  0
 57130  1  0  0  0
 58131  1  0  0  0
 59 60  1  0  0  0
 59 61  1  0  0  0
 59 62  1  0  0  0
 60132  1  0  0  0
 60133  1  0  0  0
 60134  1  0  0  0
 61135  1  0  0  0
 61136  1  0  0  0
 61137  1  0  0  0
 62138  1  0  0  0
 62139  1  0  0  0
 62140  1  0  0  0
 63 65  1  0  0  0
 63141  1  0  0  0
 63142  1  0  0  0
 63143  1  0  0  0
 64144  1  0  0  0
 65145  1  0  0  0
 68 79  1  0  0  0
 71 72  2  0  0  0
 71 74  1  0  0  0
 71146  1  0  0  0
 72 75  1  0  0  0
 72147  1  0  0  0
 73 74  2  0  0  0
 73 76  1  0  0  0
 73148  1  0  0  0
 74 80  1  0  0  0
 75 76  2  0  0  0
 75 84  1  0  0  0
 76 86  1  0  0  0
 77 78  1  0  0  0
 77 79  2  0  0  0
 77 81  1  0  0  0
 78 84  1  0  0  0
 78 85  2  0  0  0
 79149  1  0  0  0
 80 83  2  0  0  0
 81 82  1  0  0  0
 81150  1  0  0  0
 81151  1  0  0  0
 82 84  1  0  0  0
 82152  1  0  0  0
 82153  1  0  0  0
 83154  1  0  0  0
M  ISO  4   1 100  68 101  79 101  80 100
M  END
> <chiral flag>
0

> <version>
0

> <s_m_source_file>
/data/baiqing/PycharmProjects/Reinvent-master-3.2/result/LINK_invent/BTK/process_docking_weight1_custom_product_contain_oxygen_bond_distance_aromatic_linkinvent_7_9_3/rearranged_h_0093.sdf

> <i_m_source_file_index>
89

> <r_mmod_Potential_Energy-OPLS-2005>
307.045501708984

> <r_mmod_Stretch_Energy-OPLS-2005>
102.942176818848

> <r_mmod_Bend_Energy-OPLS-2005>
177.167877197266

> <r_mmod_Torsional_Energy-OPLS-2005>
249.435562133789

> <r_mmod_Improper_Torsional_Energy-OPLS-2005>
2.84174418449402

> <r_mmod_Van_der_Waal_Energy-OPLS-2005>
149.253158569336

> <r_mmod_Electrostatic_Energy-OPLS-2005>
-230.510375976562

> <r_mmod_Solvation_Energy-OPLS-2005>
-198.526840209961

> <b_mmod_Minimization_Converged-OPLS-2005>
0

> <r_mmod_RMS_Derivative-OPLS-2005>
2.54099917411804

$$$$
90
                    3D
 Structure written by MMmdl.
150158  0  0  1  0            999 V2000
  -30.5700  -14.7720   20.4565 C   0  0  0  0  0  0
  -30.4382  -12.4713   19.4885 C   0  0  0  0  0  0
  -29.5176  -12.5228   18.2476 C   0  0  0  0  0  0
  -28.0385  -12.3531   18.6460 C   0  0  0  0  0  0
  -27.6437  -13.2374   19.8591 C   0  0  2  0  0  0
  -28.6855  -13.1469   20.9968 C   0  0  0  0  0  0
  -25.2494  -13.8216   20.5710 C   0  0  0  0  0  0
  -24.1786  -13.0439   20.9188 C   0  0  0  0  0  0
  -24.6391  -11.6924   20.8706 C   0  0  0  0  0  0
  -23.9071  -10.4299   21.0376 C   0  0  0  0  0  0
  -24.3623   -9.4225   21.9162 C   0  0  0  0  0  0
  -23.6303   -8.2255   22.0742 C   0  0  0  0  0  0
  -22.4284   -8.0271   21.3535 C   0  0  0  0  0  0
  -21.9920   -9.0242   20.4637 C   0  0  0  0  0  0
  -22.7242  -10.2124   20.3034 C   0  0  0  0  0  0
  -21.6858   -6.0728   22.5282 C   0  0  0  0  0  0
  -21.4023   -6.5632   23.8218 C   0  0  0  0  0  0
  -21.3660   -5.6781   24.9175 C   0  0  0  0  0  0
  -21.6045   -4.3046   24.7227 C   0  0  0  0  0  0
  -21.8819   -3.8136   23.4349 C   0  0  0  0  0  0
  -21.9205   -4.6955   22.3405 C   0  0  0  0  0  0
  -22.7811  -13.5217   21.1857 C   0  0  0  0  0  0
  -22.1664   -4.2143   21.0981 F   0  0  0  0  0  0
  -21.5627   -3.4526   25.7740 F   0  0  0  0  0  0
  -29.9878  -13.5216   20.4336 N   0  0  0  0  0  0
  -26.2933  -12.9435   20.3298 N   0  0  0  0  0  0
  -25.9330  -11.6563   20.5739 N   0  0  0  0  0  0
  -22.0465  -12.8200   22.0407 N   0  0  0  0  0  0
  -25.4164  -15.1952   20.4178 N   0  0  0  0  0  0
  -31.7290  -14.9060   20.0501 O   0  0  0  0  0  0
  -21.6641   -6.8868   21.4240 O   0  0  0  0  0  0
  -22.3498  -14.5522   20.6708 O   0  0  0  0  0  0
  -24.6333  -31.8534   23.1985 C   0  0  0  0  0  0
  -25.9150  -32.4749   23.8346 C   0  0  1  0  0  0
  -27.2184  -27.2308   20.1299 C   0  0  0  0  0  0
  -25.5936  -33.8555   24.2262 N   0  0  0  0  0  0
  -23.4333  -30.4767   21.5410 C   0  0  2  0  0  0
  -24.8824  -28.9242   20.1080 C   0  0  0  0  0  0
  -22.7513  -29.4607   22.4897 C   0  0  0  0  0  0
  -18.0309  -28.1391   22.8470 C   0  0  0  0  0  0
  -24.1491  -36.7275   23.2639 C   0  0  0  0  0  0
  -25.9841  -30.7524   21.3898 C   0  0  0  0  0  0
  -26.0554  -29.3756   20.7255 C   0  0  0  0  0  0
  -27.2235  -28.5407   20.7300 C   0  0  0  0  0  0
  -26.0243  -26.8668   19.4650 C   0  0  0  0  0  0
  -24.8739  -27.6774   19.4671 C   0  0  0  0  0  0
  -23.6547  -29.8147   20.1564 C   0  0  0  0  0  0
  -25.4121  -36.3076   24.0332 C   0  0  1  0  0  0
  -20.5907  -28.3702   23.1224 C   0  0  2  0  0  0
  -20.6809  -26.9430   22.5322 C   0  0  0  0  0  0
  -19.5754  -26.6408   21.5155 C   0  0  0  0  0  0
  -18.1958  -26.7917   22.1620 C   0  0  0  0  0  0
  -19.1567  -28.8861   23.2857 C   0  0  0  0  0  0
  -18.9494  -30.1460   23.8883 C   0  0  0  0  0  0
  -17.6498  -30.6593   24.0547 C   0  0  0  0  0  0
  -25.9057  -34.9441   23.5098 C   0  0  0  0  0  0
  -16.5387  -29.9090   23.6331 C   0  0  0  0  0  0
  -16.7301  -28.6506   23.0342 C   0  0  0  0  0  0
  -26.4499  -31.6584   25.0752 C   0  0  0  0  0  0
  -25.3720  -31.3729   26.1471 C   0  0  0  0  0  0
  -27.0357  -30.2999   24.6281 C   0  0  0  0  0  0
  -27.6041  -32.4337   25.7526 C   0  0  0  0  0  0
  -27.5586  -37.1810   24.8473 C   0  0  0  0  0  0
  -21.4211  -29.3085   22.3646 N   0  0  0  0  0  0
  -26.4301  -37.3779   23.9403 N   0  0  0  0  0  0
  -24.7026  -31.0474   22.0984 N   0  0  0  0  0  0
  -23.4177  -28.8122   23.3002 O   0  0  0  0  0  0
  -28.2907  -26.2987   20.2060 O   0  0  0  0  0  0
  -26.5627  -34.8924   22.4671 O   0  0  0  0  0  0
  -23.5470  -32.1370   23.7252 O   0  0  0  0  0  0
  -28.8908  -18.3733   18.1403 C   0  0  0  0  0  0
  -28.9302  -19.6315   18.7796 C   0  0  0  0  0  0
  -29.2400  -17.1860   18.8159 C   0  0  0  0  0  0
  -29.3049  -19.7613   20.1366 C   0  0  0  0  0  0
  -29.6138  -17.1933   20.1760 C   0  0  0  0  0  0
  -29.6172  -18.5010   20.8286 C   0  0  0  0  0  0
  -29.4806  -21.2035   20.7394 C   0  0  0  0  0  0
  -28.9991  -23.6955   20.5098 C   0  0  0  0  0  0
  -28.0281  -24.8300   19.9045 C   0  0  0  0  0  0
  -29.8070  -15.8703   20.8387 N   0  0  0  0  0  0
  -28.8227  -22.3305   20.2299 N   0  0  0  0  0  0
  -30.2513  -21.3019   21.6976 O   0  0  0  0  0  0
  -29.9180  -24.0979   21.2334 O   0  0  0  0  0  0
  -29.9202  -18.5244   22.1494 F   0  0  0  0  0  0
  -31.4783  -12.6090   19.1885 H   0  0  0  0  0  0
  -30.3962  -11.4912   19.9661 H   0  0  0  0  0  0
  -29.8062  -11.7523   17.5316 H   0  0  0  0  0  0
  -29.6484  -13.4783   17.7388 H   0  0  0  0  0  0
  -27.8739  -11.3013   18.8839 H   0  0  0  0  0  0
  -27.3955  -12.5747   17.7942 H   0  0  0  0  0  0
  -27.6441  -14.2658   19.4962 H   0  0  0  0  0  0
  -28.7285  -12.1347   21.3995 H   0  0  0  0  0  0
  -28.4155  -13.7928   21.8323 H   0  0  0  0  0  0
  -25.2761   -9.5713   22.4740 H   0  0  0  0  0  0
  -24.0012   -7.4654   22.7474 H   0  0  0  0  0  0
  -21.0842   -8.8750   19.8956 H   0  0  0  0  0  0
  -22.3679  -10.9649   19.6137 H   0  0  0  0  0  0
  -21.2004   -7.6139   23.9719 H   0  0  0  0  0  0
  -21.1486   -6.0509   25.9083 H   0  0  0  0  0  0
  -22.0603   -2.7602   23.2848 H   0  0  0  0  0  0
  -22.4103  -11.9872   22.4804 H   0  0  0  0  0  0
  -21.1082  -13.1208   22.2619 H   0  0  0  0  0  0
  -24.6478  -15.8465   20.5403 H   0  0  0  0  0  0
  -26.2658  -15.6430   20.0991 H   0  0  0  0  0  0
  -26.7213  -32.5396   23.1071 H   0  0  0  0  0  0
  -25.0101  -33.9681   25.0424 H   0  0  0  0  0  0
  -22.7325  -31.3013   21.3938 H   0  0  0  0  0  0
  -23.3773  -35.9590   23.3307 H   0  0  0  0  0  0
  -24.3570  -36.8892   22.2053 H   0  0  0  0  0  0
  -23.7237  -37.6473   23.6657 H   0  0  0  0  0  0
  -26.1380  -31.5150   20.6249 H   0  0  0  0  0  0
  -26.8555  -30.7943   22.0329 H   0  0  0  0  0  0
  -28.1131  -28.8766   21.2452 H   0  0  0  0  0  0
  -25.9406  -25.9234   18.9484 H   0  0  0  0  0  0
  -23.9787  -27.3264   18.9725 H   0  0  0  0  0  0
  -23.7866  -30.5966   19.4068 H   0  0  0  0  0  0
  -22.7723  -29.2509   19.8446 H   0  0  0  0  0  0
  -25.1310  -36.1929   25.0830 H   0  0  0  0  0  0
  -20.9997  -28.3230   24.1347 H   0  0  0  0  0  0
  -20.5763  -26.2310   23.3511 H   0  0  0  0  0  0
  -21.6665  -26.7500   22.1066 H   0  0  0  0  0  0
  -19.6945  -25.6341   21.1143 H   0  0  0  0  0  0
  -19.6658  -27.3252   20.6712 H   0  0  0  0  0  0
  -17.4166  -26.6541   21.4096 H   0  0  0  0  0  0
  -18.0458  -26.0067   22.9038 H   0  0  0  0  0  0
  -19.7967  -30.7297   24.2258 H   0  0  0  0  0  0
  -17.5053  -31.6251   24.5197 H   0  0  0  0  0  0
  -15.5391  -30.2983   23.7688 H   0  0  0  0  0  0
  -15.8712  -28.0806   22.7083 H   0  0  0  0  0  0
  -24.5900  -30.7067   25.7806 H   0  0  0  0  0  0
  -24.8893  -32.2887   26.4900 H   0  0  0  0  0  0
  -25.8034  -30.8910   27.0258 H   0  0  0  0  0  0
  -26.2957  -29.6745   24.1272 H   0  0  0  0  0  0
  -27.3983  -29.7263   25.4823 H   0  0  0  0  0  0
  -27.8864  -30.4256   23.9580 H   0  0  0  0  0  0
  -27.2638  -33.3642   26.2081 H   0  0  0  0  0  0
  -28.3858  -32.6899   25.0363 H   0  0  0  0  0  0
  -28.0709  -31.8490   26.5461 H   0  0  0  0  0  0
  -28.2620  -38.0092   24.7517 H   0  0  0  0  0  0
  -28.1065  -36.2629   24.6312 H   0  0  0  0  0  0
  -27.2290  -37.1480   25.8871 H   0  0  0  0  0  0
  -20.9369  -29.8808   21.6872 H   0  0  0  0  0  0
  -26.0181  -38.2857   24.1395 H   0  0  0  0  0  0
  -28.5889  -18.3109   17.1033 H   0  0  0  0  0  0
  -28.6852  -20.5065   18.1940 H   0  0  0  0  0  0
  -29.1735  -16.2510   18.2795 H   0  0  0  0  0  0
  -27.0340  -24.5632   20.2633 H   0  0  0  0  0  0
  -28.0181  -24.7000   18.8226 H   0  0  0  0  0  0
  -29.0332  -15.6154   21.4335 H   0  0  0  0  0  0
  -28.1102  -22.1313   19.5468 H   0  0  0  0  0  0
  1 25  1  0  0  0
  1 30  2  0  0  0
  1 80  1  0  0  0
  2  3  1  0  0  0
  2 25  1  0  0  0
  2 85  1  0  0  0
  2 86  1  0  0  0
  3  4  1  0  0  0
  3 87  1  0  0  0
  3 88  1  0  0  0
  4  5  1  0  0  0
  4 89  1  0  0  0
  4 90  1  0  0  0
  5  6  1  0  0  0
  5 26  1  0  0  0
  5 91  1  0  0  0
  6 25  1  0  0  0
  6 92  1  0  0  0
  6 93  1  0  0  0
  7  8  2  0  0  0
  7 26  1  0  0  0
  7 29  1  0  0  0
  8  9  1  0  0  0
  8 22  1  0  0  0
  9 10  1  0  0  0
  9 27  2  0  0  0
 10 11  2  0  0  0
 10 15  1  0  0  0
 11 12  1  0  0  0
 11 94  1  0  0  0
 12 13  2  0  0  0
 12 95  1  0  0  0
 13 14  1  0  0  0
 13 31  1  0  0  0
 14 15  2  0  0  0
 14 96  1  0  0  0
 15 97  1  0  0  0
 16 17  2  0  0  0
 16 21  1  0  0  0
 16 31  1  0  0  0
 17 18  1  0  0  0
 17 98  1  0  0  0
 18 19  2  0  0  0
 18 99  1  0  0  0
 19 20  1  0  0  0
 19 24  1  0  0  0
 20 21  2  0  0  0
 20100  1  0  0  0
 21 23  1  0  0  0
 22 28  1  0  0  0
 22 32  2  0  0  0
 26 27  1  0  0  0
 28101  1  0  0  0
 28102  1  0  0  0
 29103  1  0  0  0
 29104  1  0  0  0
 33 34  1  0  0  0
 33 66  1  0  0  0
 33 70  2  0  0  0
 34 36  1  0  0  0
 34 59  1  0  0  0
 34105  1  0  0  0
 35 44  2  0  0  0
 35 45  1  0  0  0
 35 68  1  0  0  0
 36 56  1  0  0  0
 36106  1  0  0  0
 37 39  1  0  0  0
 37 47  1  0  0  0
 37 66  1  0  0  0
 37107  1  0  0  0
 38 43  2  0  0  0
 38 46  1  0  0  0
 38 47  1  0  0  0
 39 64  1  0  0  0
 39 67  2  0  0  0
 40 52  1  0  0  0
 40 53  2  0  0  0
 40 58  1  0  0  0
 41108  1  0  0  0
 41109  1  0  0  0
 41110  1  0  0  0
 41 48  1  0  0  0
 42 43  1  0  0  0
 42 66  1  0  0  0
 42111  1  0  0  0
 42112  1  0  0  0
 43 44  1  0  0  0
 44113  1  0  0  0
 45 46  2  0  0  0
 45114  1  0  0  0
 46115  1  0  0  0
 47116  1  0  0  0
 47117  1  0  0  0
 48 56  1  0  0  0
 48 65  1  0  0  0
 48118  1  0  0  0
 49 50  1  0  0  0
 49 53  1  0  0  0
 49 64  1  0  0  0
 49119  1  0  0  0
 50 51  1  0  0  0
 50120  1  0  0  0
 50121  1  0  0  0
 51 52  1  0  0  0
 51122  1  0  0  0
 51123  1  0  0  0
 52124  1  0  0  0
 52125  1  0  0  0
 53 54  1  0  0  0
 54 55  2  0  0  0
 54126  1  0  0  0
 55 57  1  0  0  0
 55127  1  0  0  0
 56 69  2  0  0  0
 57 58  2  0  0  0
 57128  1  0  0  0
 58129  1  0  0  0
 59 60  1  0  0  0
 59 61  1  0  0  0
 59 62  1  0  0  0
 60130  1  0  0  0
 60131  1  0  0  0
 60132  1  0  0  0
 61133  1  0  0  0
 61134  1  0  0  0
 61135  1  0  0  0
 62136  1  0  0  0
 62137  1  0  0  0
 62138  1  0  0  0
 63 65  1  0  0  0
 63139  1  0  0  0
 63140  1  0  0  0
 63141  1  0  0  0
 64142  1  0  0  0
 65143  1  0  0  0
 68 79  1  0  0  0
 71 72  2  0  0  0
 71 73  1  0  0  0
 71144  1  0  0  0
 72 74  1  0  0  0
 72145  1  0  0  0
 73 75  2  0  0  0
 73146  1  0  0  0
 74 76  2  0  0  0
 74 77  1  0  0  0
 75 76  1  0  0  0
 75 80  1  0  0  0
 76 84  1  0  0  0
 77 81  1  0  0  0
 77 82  2  0  0  0
 78 79  1  0  0  0
 78 81  1  0  0  0
 78 83  2  0  0  0
 79147  1  0  0  0
 79148  1  0  0  0
 80149  1  0  0  0
 81150  1  0  0  0
M  ISO  4   1 100  68 101  79 101  80 100
M  END
> <chiral flag>
0

> <version>
0

> <s_m_source_file>
/data/baiqing/PycharmProjects/Reinvent-master-3.2/result/LINK_invent/BTK/process_docking_weight1_custom_product_contain_oxygen_bond_distance_aromatic_linkinvent_7_9_3/rearranged_h_0093.sdf

> <i_m_source_file_index>
90

> <r_mmod_Potential_Energy-OPLS-2005>
55.4089279174805

> <r_mmod_Stretch_Energy-OPLS-2005>
141.313583374023

> <r_mmod_Bend_Energy-OPLS-2005>
163.612869262695

> <r_mmod_Torsional_Energy-OPLS-2005>
256.726959228516

> <r_mmod_Improper_Torsional_Energy-OPLS-2005>
5.24621438980103

> <r_mmod_Van_der_Waal_Energy-OPLS-2005>
141.306289672852

> <r_mmod_Electrostatic_Energy-OPLS-2005>
-450.048858642578

> <r_mmod_Solvation_Energy-OPLS-2005>
-305.440551757812

> <b_mmod_Minimization_Converged-OPLS-2005>
0

> <r_mmod_RMS_Derivative-OPLS-2005>
2.69987320899963

$$$$
91
                    3D
 Structure written by MMmdl.
152160  0  0  1  0            999 V2000
  -30.6898  -14.6367   20.4774 C   0  0  0  0  0  0
  -30.4125  -12.3940   19.4419 C   0  0  0  0  0  0
  -29.4905  -12.4849   18.2107 C   0  0  0  0  0  0
  -28.0193  -12.3236   18.6363 C   0  0  0  0  0  0
  -27.6406  -13.2235   19.8449 C   0  0  2  0  0  0
  -28.6913  -13.1414   20.9724 C   0  0  0  0  0  0
  -25.2523  -13.8184   20.5699 C   0  0  0  0  0  0
  -24.1805  -13.0442   20.9211 C   0  0  0  0  0  0
  -24.6384  -11.6912   20.8752 C   0  0  0  0  0  0
  -23.9066  -10.4287   21.0412 C   0  0  0  0  0  0
  -24.3618   -9.4208   21.9187 C   0  0  0  0  0  0
  -23.6288   -8.2243   22.0755 C   0  0  0  0  0  0
  -22.4275   -8.0278   21.3545 C   0  0  0  0  0  0
  -21.9917   -9.0257   20.4655 C   0  0  0  0  0  0
  -22.7240  -10.2132   20.3062 C   0  0  0  0  0  0
  -21.6853   -6.0734   22.5281 C   0  0  0  0  0  0
  -21.4009   -6.5641   23.8214 C   0  0  0  0  0  0
  -21.3652   -5.6796   24.9175 C   0  0  0  0  0  0
  -21.6044   -4.3058   24.7226 C   0  0  0  0  0  0
  -21.8818   -3.8151   23.4351 C   0  0  0  0  0  0
  -21.9194   -4.6968   22.3406 C   0  0  0  0  0  0
  -22.7829  -13.5234   21.1861 C   0  0  0  0  0  0
  -22.1659   -4.2152   21.0986 F   0  0  0  0  0  0
  -21.5629   -3.4545   25.7739 F   0  0  0  0  0  0
  -29.9917  -13.4608   20.3753 N   0  0  0  0  0  0
  -26.2932  -12.9376   20.3285 N   0  0  0  0  0  0
  -25.9309  -11.6527   20.5759 N   0  0  0  0  0  0
  -22.0475  -12.8217   22.0412 N   0  0  0  0  0  0
  -25.4254  -15.1898   20.4079 N   0  0  0  0  0  0
  -31.8872  -14.6403   20.1812 O   0  0  0  0  0  0
  -21.6640   -6.8874   21.4240 O   0  0  0  0  0  0
  -22.3519  -14.5547   20.6715 O   0  0  0  0  0  0
  -24.6298  -31.8612   23.2044 C   0  0  0  0  0  0
  -25.9142  -32.4786   23.8363 C   0  0  1  0  0  0
  -27.1992  -27.3052   20.1124 C   0  0  0  0  0  0
  -25.5953  -33.8584   24.2281 N   0  0  0  0  0  0
  -23.4197  -30.4890   21.5501 C   0  0  2  0  0  0
  -24.8586  -28.9542   20.1088 C   0  0  0  0  0  0
  -22.7491  -29.4627   22.4954 C   0  0  0  0  0  0
  -18.0283  -28.1399   22.8470 C   0  0  0  0  0  0
  -24.1487  -36.7289   23.2635 C   0  0  0  0  0  0
  -25.9648  -30.7912   21.3734 C   0  0  0  0  0  0
  -26.0344  -29.4201   20.7117 C   0  0  0  0  0  0
  -27.2103  -28.6096   20.7022 C   0  0  0  0  0  0
  -25.9955  -26.9046   19.4830 C   0  0  0  0  0  0
  -24.8420  -27.7017   19.4875 C   0  0  0  0  0  0
  -23.6307  -29.8359   20.1622 C   0  0  0  0  0  0
  -25.4104  -36.3085   24.0330 C   0  0  1  0  0  0
  -20.5881  -28.3694   23.1293 C   0  0  2  0  0  0
  -20.6780  -26.9420   22.5414 C   0  0  0  0  0  0
  -19.5754  -26.6386   21.5223 C   0  0  0  0  0  0
  -18.1922  -26.7934   22.1619 C   0  0  0  0  0  0
  -19.1537  -28.8862   23.2874 C   0  0  0  0  0  0
  -18.9465  -30.1460   23.8890 C   0  0  0  0  0  0
  -17.6465  -30.6600   24.0553 C   0  0  0  0  0  0
  -25.9061  -34.9455   23.5101 C   0  0  0  0  0  0
  -16.5348  -29.9092   23.6342 C   0  0  0  0  0  0
  -16.7268  -28.6510   23.0345 C   0  0  0  0  0  0
  -26.4497  -31.6601   25.0742 C   0  0  0  0  0  0
  -25.3715  -31.3768   26.1464 C   0  0  0  0  0  0
  -27.0334  -30.3022   24.6205 C   0  0  0  0  0  0
  -27.6071  -32.4310   25.7505 C   0  0  0  0  0  0
  -27.5576  -37.1784   24.8453 C   0  0  0  0  0  0
  -21.4200  -29.3047   22.3693 N   0  0  0  0  0  0
  -26.4276  -37.3787   23.9432 N   0  0  0  0  0  0
  -24.6911  -31.0635   22.0992 N   0  0  0  0  0  0
  -23.4222  -28.8138   23.3005 O   0  0  0  0  0  0
  -28.2870  -26.4120   20.1709 O   0  0  0  0  0  0
  -26.5625  -34.8918   22.4664 O   0  0  0  0  0  0
  -23.5456  -32.1398   23.7370 O   0  0  0  0  0  0
  -28.5449  -18.7392   20.8115 C   0  0  0  0  0  0
  -28.0732  -20.0850   20.6679 C   0  0  0  0  0  0
  -30.7239  -19.4972   20.1577 C   0  0  0  0  0  0
  -29.9041  -18.4118   20.5754 C   0  0  0  0  0  0
  -30.2585  -20.8344   20.0075 C   0  0  0  0  0  0
  -28.9072  -21.1814   20.2934 C   0  0  0  0  0  0
  -30.5755  -17.0511   20.8752 C   0  0  0  0  0  0
  -27.9596  -24.9665   20.0202 C   0  0  0  0  0  0
  -28.9738  -23.7721   20.2938 C   0  0  0  0  0  0
  -31.1655  -21.7754   19.5293 N   0  0  0  0  0  0
  -29.9982  -15.8207   20.6487 N   0  0  0  0  0  0
  -31.7269  -17.1424   21.3202 O   0  0  0  0  0  0
  -28.3081  -22.4604   20.1726 O   0  0  0  0  0  0
  -31.4554  -12.4798   19.1316 H   0  0  0  0  0  0
  -30.3247  -11.4147   19.9155 H   0  0  0  0  0  0
  -29.7553  -11.7168   17.4826 H   0  0  0  0  0  0
  -29.6292  -13.4433   17.7080 H   0  0  0  0  0  0
  -27.8698  -11.2745   18.8954 H   0  0  0  0  0  0
  -27.3564  -12.5216   17.7928 H   0  0  0  0  0  0
  -27.6414  -14.2471   19.4697 H   0  0  0  0  0  0
  -28.7104  -12.1415   21.4096 H   0  0  0  0  0  0
  -28.4489  -13.8291   21.7840 H   0  0  0  0  0  0
  -25.2769   -9.5676   22.4758 H   0  0  0  0  0  0
  -24.0005   -7.4632   22.7465 H   0  0  0  0  0  0
  -21.0858   -8.8771   19.8954 H   0  0  0  0  0  0
  -22.3708  -10.9670   19.6167 H   0  0  0  0  0  0
  -21.1997   -7.6143   23.9712 H   0  0  0  0  0  0
  -21.1470   -6.0528   25.9076 H   0  0  0  0  0  0
  -22.0606   -2.7613   23.2855 H   0  0  0  0  0  0
  -22.4107  -11.9891   22.4808 H   0  0  0  0  0  0
  -21.1082  -13.1231   22.2599 H   0  0  0  0  0  0
  -24.6607  -15.8466   20.5139 H   0  0  0  0  0  0
  -26.2669  -15.6211   20.0493 H   0  0  0  0  0  0
  -26.7206  -32.5433   23.1102 H   0  0  0  0  0  0
  -25.0102  -33.9736   25.0427 H   0  0  0  0  0  0
  -22.7127  -31.3102   21.4135 H   0  0  0  0  0  0
  -23.3770  -35.9607   23.3273 H   0  0  0  0  0  0
  -24.3585  -36.8943   22.2062 H   0  0  0  0  0  0
  -23.7216  -37.6469   23.6666 H   0  0  0  0  0  0
  -26.0982  -31.5564   20.6076 H   0  0  0  0  0  0
  -26.8468  -30.8374   22.0006 H   0  0  0  0  0  0
  -28.1094  -28.9615   21.1867 H   0  0  0  0  0  0
  -25.8899  -25.9501   18.9913 H   0  0  0  0  0  0
  -23.9402  -27.3359   19.0172 H   0  0  0  0  0  0
  -23.7470  -30.6170   19.4112 H   0  0  0  0  0  0
  -22.7479  -29.2713   19.8556 H   0  0  0  0  0  0
  -25.1277  -36.1928   25.0823 H   0  0  0  0  0  0
  -20.9945  -28.3257   24.1428 H   0  0  0  0  0  0
  -20.5719  -26.2293   23.3612 H   0  0  0  0  0  0
  -21.6637  -26.7467   22.1176 H   0  0  0  0  0  0
  -19.6929  -25.6301   21.1246 H   0  0  0  0  0  0
  -19.6705  -27.3200   20.6762 H   0  0  0  0  0  0
  -17.4198  -26.6681   21.4012 H   0  0  0  0  0  0
  -18.0305  -26.0093   22.9030 H   0  0  0  0  0  0
  -19.7944  -30.7266   24.2254 H   0  0  0  0  0  0
  -17.5028  -31.6280   24.5155 H   0  0  0  0  0  0
  -15.5350  -30.2990   23.7700 H   0  0  0  0  0  0
  -15.8656  -28.0837   22.7071 H   0  0  0  0  0  0
  -24.5895  -30.7098   25.7800 H   0  0  0  0  0  0
  -24.8892  -32.2949   26.4832 H   0  0  0  0  0  0
  -25.8024  -30.8984   27.0273 H   0  0  0  0  0  0
  -26.2909  -29.6787   24.1204 H   0  0  0  0  0  0
  -27.4013  -29.7264   25.4715 H   0  0  0  0  0  0
  -27.8787  -30.4320   23.9440 H   0  0  0  0  0  0
  -27.2717  -33.3636   26.2048 H   0  0  0  0  0  0
  -28.3900  -32.6825   25.0337 H   0  0  0  0  0  0
  -28.0709  -31.8446   26.5450 H   0  0  0  0  0  0
  -28.2558  -38.0120   24.7553 H   0  0  0  0  0  0
  -28.1111  -36.2647   24.6191 H   0  0  0  0  0  0
  -27.2308  -37.1326   25.8862 H   0  0  0  0  0  0
  -20.9381  -29.8801   21.6931 H   0  0  0  0  0  0
  -26.0154  -38.2859   24.1477 H   0  0  0  0  0  0
  -27.8558  -17.9728   21.1391 H   0  0  0  0  0  0
  -27.0300  -20.2829   20.8724 H   0  0  0  0  0  0
  -31.7653  -19.2906   19.9535 H   0  0  0  0  0  0
  -27.0903  -24.7636   20.6474 H   0  0  0  0  0  0
  -27.6440  -24.8141   18.9889 H   0  0  0  0  0  0
  -29.3959  -23.8593   21.2965 H   0  0  0  0  0  0
  -29.7888  -23.8754   19.5818 H   0  0  0  0  0  0
  -32.0025  -21.4242   19.0770 H   0  0  0  0  0  0
  -30.7652  -22.5568   19.0232 H   0  0  0  0  0  0
  -29.0011  -15.7947   20.5274 H   0  0  0  0  0  0
  1 25  1  0  0  0
  1 30  2  0  0  0
  1 81  1  0  0  0
  2  3  1  0  0  0
  2 25  1  0  0  0
  2 84  1  0  0  0
  2 85  1  0  0  0
  3  4  1  0  0  0
  3 86  1  0  0  0
  3 87  1  0  0  0
  4  5  1  0  0  0
  4 88  1  0  0  0
  4 89  1  0  0  0
  5  6  1  0  0  0
  5 26  1  0  0  0
  5 90  1  0  0  0
  6 25  1  0  0  0
  6 91  1  0  0  0
  6 92  1  0  0  0
  7  8  2  0  0  0
  7 26  1  0  0  0
  7 29  1  0  0  0
  8  9  1  0  0  0
  8 22  1  0  0  0
  9 10  1  0  0  0
  9 27  2  0  0  0
 10 11  2  0  0  0
 10 15  1  0  0  0
 11 12  1  0  0  0
 11 93  1  0  0  0
 12 13  2  0  0  0
 12 94  1  0  0  0
 13 14  1  0  0  0
 13 31  1  0  0  0
 14 15  2  0  0  0
 14 95  1  0  0  0
 15 96  1  0  0  0
 16 17  2  0  0  0
 16 21  1  0  0  0
 16 31  1  0  0  0
 17 18  1  0  0  0
 17 97  1  0  0  0
 18 19  2  0  0  0
 18 98  1  0  0  0
 19 20  1  0  0  0
 19 24  1  0  0  0
 20 21  2  0  0  0
 20 99  1  0  0  0
 21 23  1  0  0  0
 22 28  1  0  0  0
 22 32  2  0  0  0
 26 27  1  0  0  0
 28100  1  0  0  0
 28101  1  0  0  0
 29102  1  0  0  0
 29103  1  0  0  0
 33 34  1  0  0  0
 33 66  1  0  0  0
 33 70  2  0  0  0
 34 36  1  0  0  0
 34 59  1  0  0  0
 34104  1  0  0  0
 35 44  2  0  0  0
 35 45  1  0  0  0
 35 68  1  0  0  0
 36 56  1  0  0  0
 36105  1  0  0  0
 37 39  1  0  0  0
 37 47  1  0  0  0
 37 66  1  0  0  0
 37106  1  0  0  0
 38 43  2  0  0  0
 38 46  1  0  0  0
 38 47  1  0  0  0
 39 64  1  0  0  0
 39 67  2  0  0  0
 40 52  1  0  0  0
 40 53  2  0  0  0
 40 58  1  0  0  0
 41107  1  0  0  0
 41108  1  0  0  0
 41109  1  0  0  0
 41 48  1  0  0  0
 42 43  1  0  0  0
 42 66  1  0  0  0
 42110  1  0  0  0
 42111  1  0  0  0
 43 44  1  0  0  0
 44112  1  0  0  0
 45 46  2  0  0  0
 45113  1  0  0  0
 46114  1  0  0  0
 47115  1  0  0  0
 47116  1  0  0  0
 48 56  1  0  0  0
 48 65  1  0  0  0
 48117  1  0  0  0
 49 50  1  0  0  0
 49 53  1  0  0  0
 49 64  1  0  0  0
 49118  1  0  0  0
 50 51  1  0  0  0
 50119  1  0  0  0
 50120  1  0  0  0
 51 52  1  0  0  0
 51121  1  0  0  0
 51122  1  0  0  0
 52123  1  0  0  0
 52124  1  0  0  0
 53 54  1  0  0  0
 54 55  2  0  0  0
 54125  1  0  0  0
 55 57  1  0  0  0
 55126  1  0  0  0
 56 69  2  0  0  0
 57 58  2  0  0  0
 57127  1  0  0  0
 58128  1  0  0  0
 59 60  1  0  0  0
 59 61  1  0  0  0
 59 62  1  0  0  0
 60129  1  0  0  0
 60130  1  0  0  0
 60131  1  0  0  0
 61132  1  0  0  0
 61133  1  0  0  0
 61134  1  0  0  0
 62135  1  0  0  0
 62136  1  0  0  0
 62137  1  0  0  0
 63 65  1  0  0  0
 63138  1  0  0  0
 63139  1  0  0  0
 63140  1  0  0  0
 64141  1  0  0  0
 65142  1  0  0  0
 68 78  1  0  0  0
 71 72  2  0  0  0
 71 74  1  0  0  0
 71143  1  0  0  0
 72 76  1  0  0  0
 72144  1  0  0  0
 73 74  2  0  0  0
 73 75  1  0  0  0
 73145  1  0  0  0
 74 77  1  0  0  0
 75 76  2  0  0  0
 75 80  1  0  0  0
 76 83  1  0  0  0
 77 81  1  0  0  0
 77 82  2  0  0  0
 78 79  1  0  0  0
 78146  1  0  0  0
 78147  1  0  0  0
 79 83  1  0  0  0
 79148  1  0  0  0
 79149  1  0  0  0
 80150  1  0  0  0
 80151  1  0  0  0
 81152  1  0  0  0
M  ISO  4   1 100  68 101  78 101  81 100
M  END
> <chiral flag>
0

> <version>
0

> <s_m_source_file>
/data/baiqing/PycharmProjects/Reinvent-master-3.2/result/LINK_invent/BTK/process_docking_weight1_custom_product_contain_oxygen_bond_distance_aromatic_linkinvent_7_9_3/rearranged_h_0093.sdf

> <i_m_source_file_index>
91

> <r_mmod_Potential_Energy-OPLS-2005>
5.63725662231445

> <r_mmod_Stretch_Energy-OPLS-2005>
83.6613159179688

> <r_mmod_Bend_Energy-OPLS-2005>
172.836929321289

> <r_mmod_Torsional_Energy-OPLS-2005>
238.247604370117

> <r_mmod_Improper_Torsional_Energy-OPLS-2005>
11.0228090286255

> <r_mmod_Van_der_Waal_Energy-OPLS-2005>
166.725143432617

> <r_mmod_Electrostatic_Energy-OPLS-2005>
-487.866424560547

> <r_mmod_Solvation_Energy-OPLS-2005>
-239.389755249023

> <b_mmod_Minimization_Converged-OPLS-2005>
0

> <r_mmod_RMS_Derivative-OPLS-2005>
2.30067896842957

$$$$
92
                    3D
 Structure written by MMmdl.
153161  0  0  1  0            999 V2000
  -30.6087  -14.7262   20.5400 C   0  0  0  0  0  0
  -30.4459  -12.4613   19.4738 C   0  0  0  0  0  0
  -29.5181  -12.5419   18.2378 C   0  0  0  0  0  0
  -28.0394  -12.3585   18.6363 C   0  0  0  0  0  0
  -27.6523  -13.2207   19.8656 C   0  0  2  0  0  0
  -28.6910  -13.0578   20.9925 C   0  0  0  0  0  0
  -25.2548  -13.8168   20.5676 C   0  0  0  0  0  0
  -24.1818  -13.0429   20.9172 C   0  0  0  0  0  0
  -24.6393  -11.6902   20.8719 C   0  0  0  0  0  0
  -23.9065  -10.4287   21.0396 C   0  0  0  0  0  0
  -24.3616   -9.4207   21.9179 C   0  0  0  0  0  0
  -23.6291   -8.2244   22.0753 C   0  0  0  0  0  0
  -22.4273   -8.0279   21.3545 C   0  0  0  0  0  0
  -21.9906   -9.0252   20.4646 C   0  0  0  0  0  0
  -22.7235  -10.2129   20.3049 C   0  0  0  0  0  0
  -21.6853   -6.0735   22.5280 C   0  0  0  0  0  0
  -21.4014   -6.5639   23.8213 C   0  0  0  0  0  0
  -21.3660   -5.6792   24.9175 C   0  0  0  0  0  0
  -21.6043   -4.3054   24.7226 C   0  0  0  0  0  0
  -21.8819   -3.8146   23.4348 C   0  0  0  0  0  0
  -21.9193   -4.6963   22.3404 C   0  0  0  0  0  0
  -22.7843  -13.5223   21.1849 C   0  0  0  0  0  0
  -22.1661   -4.2149   21.0981 F   0  0  0  0  0  0
  -21.5629   -3.4537   25.7739 F   0  0  0  0  0  0
  -30.0010  -13.4799   20.4603 N   0  0  0  0  0  0
  -26.2977  -12.9353   20.3298 N   0  0  0  0  0  0
  -25.9319  -11.6501   20.5714 N   0  0  0  0  0  0
  -22.0493  -12.8215   22.0412 N   0  0  0  0  0  0
  -25.4257  -15.1892   20.4122 N   0  0  0  0  0  0
  -31.7181  -14.8976   20.0204 O   0  0  0  0  0  0
  -21.6638   -6.8877   21.4241 O   0  0  0  0  0  0
  -22.3526  -14.5535   20.6709 O   0  0  0  0  0  0
  -24.6314  -31.8552   23.1986 C   0  0  0  0  0  0
  -25.9140  -32.4755   23.8334 C   0  0  1  0  0  0
  -27.2300  -27.2763   20.1114 C   0  0  0  0  0  0
  -25.5939  -33.8558   24.2258 N   0  0  0  0  0  0
  -23.4285  -30.4778   21.5416 C   0  0  2  0  0  0
  -24.8777  -28.9286   20.1068 C   0  0  0  0  0  0
  -22.7507  -29.4598   22.4907 C   0  0  0  0  0  0
  -18.0294  -28.1383   22.8486 C   0  0  0  0  0  0
  -24.1492  -36.7282   23.2640 C   0  0  0  0  0  0
  -25.9744  -30.7713   21.3779 C   0  0  0  0  0  0
  -26.0495  -29.3959   20.7164 C   0  0  0  0  0  0
  -27.2265  -28.5795   20.7140 C   0  0  0  0  0  0
  -26.0271  -26.8685   19.4899 C   0  0  0  0  0  0
  -24.8706  -27.6714   19.4848 C   0  0  0  0  0  0
  -23.6467  -29.8128   20.1573 C   0  0  0  0  0  0
  -25.4119  -36.3070   24.0327 C   0  0  1  0  0  0
  -20.5899  -28.3697   23.1267 C   0  0  2  0  0  0
  -20.6779  -26.9413   22.5408 C   0  0  0  0  0  0
  -19.5755  -26.6381   21.5211 C   0  0  0  0  0  0
  -18.1936  -26.7926   22.1623 C   0  0  0  0  0  0
  -19.1548  -28.8857   23.2871 C   0  0  0  0  0  0
  -18.9468  -30.1458   23.8889 C   0  0  0  0  0  0
  -17.6466  -30.6586   24.0560 C   0  0  0  0  0  0
  -25.9060  -34.9439   23.5094 C   0  0  0  0  0  0
  -16.5357  -29.9082   23.6329 C   0  0  0  0  0  0
  -16.7280  -28.6497   23.0354 C   0  0  0  0  0  0
  -26.4506  -31.6580   25.0723 C   0  0  0  0  0  0
  -25.3727  -31.3729   26.1442 C   0  0  0  0  0  0
  -27.0353  -30.2997   24.6212 C   0  0  0  0  0  0
  -27.6060  -32.4321   25.7496 C   0  0  0  0  0  0
  -27.5579  -37.1798   24.8465 C   0  0  0  0  0  0
  -21.4213  -29.3043   22.3654 N   0  0  0  0  0  0
  -26.4291  -37.3770   23.9408 N   0  0  0  0  0  0
  -24.6970  -31.0523   22.0958 N   0  0  0  0  0  0
  -23.4207  -28.8139   23.3006 O   0  0  0  0  0  0
  -28.3021  -26.3558   20.1950 O   0  0  0  0  0  0
  -26.5630  -34.8913   22.4662 O   0  0  0  0  0  0
  -23.5465  -32.1367   23.7286 O   0  0  0  0  0  0
  -29.8633  -18.5120   21.7687 C   0  0  0  0  0  0
  -29.6549  -19.8917   21.4307 C   0  0  0  0  0  0
  -29.6788  -17.8704   19.4812 C   0  0  0  0  0  0
  -29.8700  -17.4321   20.8220 C   0  0  0  0  0  0
  -29.4296  -20.3098   20.0939 C   0  0  0  0  0  0
  -29.4589  -19.2490   19.1326 C   0  0  0  0  0  0
  -28.4660  -25.3790   19.1900 C   0  0  0  0  0  0
  -29.8975  -15.9412   21.3112 C   0  0  0  0  0  0
  -28.7410  -24.0115   19.1273 C   0  0  0  0  0  0
  -28.9643  -22.9493   20.1797 C   0  0  0  0  0  0
  -29.3659  -15.7295   22.4432 N   0  0  0  0  0  0
  -29.2334  -19.5606   17.7902 N   0  0  0  0  0  0
  -29.1988  -21.6982   19.6288 N   0  0  0  0  0  0
  -28.9426  -23.1416   21.3964 O   0  0  0  0  0  0
  -28.8127  -23.5450   17.8657 O   0  0  0  0  0  0
  -31.4842  -12.6035   19.1707 H   0  0  0  0  0  0
  -30.4098  -11.4637   19.9142 H   0  0  0  0  0  0
  -29.8034  -11.7891   17.5020 H   0  0  0  0  0  0
  -29.6462  -13.5096   17.7501 H   0  0  0  0  0  0
  -27.8853  -11.3028   18.8635 H   0  0  0  0  0  0
  -27.3873  -12.5862   17.7923 H   0  0  0  0  0  0
  -27.6743  -14.2613   19.5411 H   0  0  0  0  0  0
  -28.7348  -12.0153   21.3111 H   0  0  0  0  0  0
  -28.3736  -13.5917   21.8822 H   0  0  0  0  0  0
  -25.2762   -9.5685   22.4750 H   0  0  0  0  0  0
  -24.0001   -7.4636   22.7472 H   0  0  0  0  0  0
  -21.0837   -8.8770   19.8953 H   0  0  0  0  0  0
  -22.3694  -10.9666   19.6155 H   0  0  0  0  0  0
  -21.2005   -7.6147   23.9717 H   0  0  0  0  0  0
  -21.1482   -6.0522   25.9079 H   0  0  0  0  0  0
  -22.0598   -2.7608   23.2848 H   0  0  0  0  0  0
  -22.4106  -11.9872   22.4793 H   0  0  0  0  0  0
  -21.1114  -13.1245   22.2629 H   0  0  0  0  0  0
  -24.6655  -15.8484   20.5382 H   0  0  0  0  0  0
  -26.2917  -15.6324   20.1327 H   0  0  0  0  0  0
  -26.7208  -32.5406   23.1079 H   0  0  0  0  0  0
  -25.0088  -33.9696   25.0406 H   0  0  0  0  0  0
  -22.7249  -31.3001   21.3961 H   0  0  0  0  0  0
  -23.3756  -35.9613   23.3299 H   0  0  0  0  0  0
  -24.3585  -36.8908   22.2055 H   0  0  0  0  0  0
  -23.7242  -37.6481   23.6666 H   0  0  0  0  0  0
  -26.1137  -31.5349   20.6113 H   0  0  0  0  0  0
  -26.8514  -30.8187   22.0118 H   0  0  0  0  0  0
  -28.1208  -28.9272   21.2119 H   0  0  0  0  0  0
  -25.9518  -25.8909   19.0358 H   0  0  0  0  0  0
  -23.9699  -27.3025   19.0133 H   0  0  0  0  0  0
  -23.7687  -30.5895   19.4016 H   0  0  0  0  0  0
  -22.7659  -29.2449   19.8525 H   0  0  0  0  0  0
  -25.1300  -36.1916   25.0820 H   0  0  0  0  0  0
  -20.9992  -28.3273   24.1387 H   0  0  0  0  0  0
  -20.5673  -26.2307   23.3614 H   0  0  0  0  0  0
  -21.6647  -26.7431   22.1204 H   0  0  0  0  0  0
  -19.6914  -25.6290   21.1244 H   0  0  0  0  0  0
  -19.6689  -27.3188   20.6738 H   0  0  0  0  0  0
  -17.4203  -26.6676   21.4026 H   0  0  0  0  0  0
  -18.0336  -26.0067   22.9018 H   0  0  0  0  0  0
  -19.7945  -30.7276   24.2253 H   0  0  0  0  0  0
  -17.5021  -31.6265   24.5163 H   0  0  0  0  0  0
  -15.5357  -30.2980   23.7658 H   0  0  0  0  0  0
  -15.8680  -28.0811   22.7076 H   0  0  0  0  0  0
  -24.5919  -30.7057   25.7772 H   0  0  0  0  0  0
  -24.8898  -32.2894   26.4841 H   0  0  0  0  0  0
  -25.8048  -30.8931   27.0233 H   0  0  0  0  0  0
  -26.2938  -29.6742   24.1229 H   0  0  0  0  0  0
  -27.4024  -29.7264   25.4736 H   0  0  0  0  0  0
  -27.8822  -30.4268   23.9464 H   0  0  0  0  0  0
  -27.2674  -33.3634   26.2049 H   0  0  0  0  0  0
  -28.3885  -32.6859   25.0331 H   0  0  0  0  0  0
  -28.0712  -31.8457   26.5430 H   0  0  0  0  0  0
  -28.2595  -38.0096   24.7513 H   0  0  0  0  0  0
  -28.1074  -36.2627   24.6290 H   0  0  0  0  0  0
  -27.2296  -37.1445   25.8867 H   0  0  0  0  0  0
  -20.9398  -29.8767   21.6860 H   0  0  0  0  0  0
  -26.0168  -38.2842   24.1409 H   0  0  0  0  0  0
  -29.9991  -18.2826   22.8164 H   0  0  0  0  0  0
  -29.6588  -20.6283   22.2216 H   0  0  0  0  0  0
  -29.6477  -17.1191   18.7048 H   0  0  0  0  0  0
  -28.3453  -25.8921   18.2447 H   0  0  0  0  0  0
  -28.9730  -16.5819   22.8222 H   0  0  0  0  0  0
  -29.0604  -18.7834   17.1613 H   0  0  0  0  0  0
  -28.6046  -20.3310   17.5939 H   0  0  0  0  0  0
  -29.1929  -21.7749   18.6198 H   0  0  0  0  0  0
  -28.6655  -24.2745   17.2784 H   0  0  0  0  0  0
  1 25  1  0  0  0
  1 30  2  0  0  0
  1 78  1  0  0  0
  2  3  1  0  0  0
  2 25  1  0  0  0
  2 86  1  0  0  0
  2 87  1  0  0  0
  3  4  1  0  0  0
  3 88  1  0  0  0
  3 89  1  0  0  0
  4  5  1  0  0  0
  4 90  1  0  0  0
  4 91  1  0  0  0
  5  6  1  0  0  0
  5 26  1  0  0  0
  5 92  1  0  0  0
  6 25  1  0  0  0
  6 93  1  0  0  0
  6 94  1  0  0  0
  7  8  2  0  0  0
  7 26  1  0  0  0
  7 29  1  0  0  0
  8  9  1  0  0  0
  8 22  1  0  0  0
  9 10  1  0  0  0
  9 27  2  0  0  0
 10 11  2  0  0  0
 10 15  1  0  0  0
 11 12  1  0  0  0
 11 95  1  0  0  0
 12 13  2  0  0  0
 12 96  1  0  0  0
 13 14  1  0  0  0
 13 31  1  0  0  0
 14 15  2  0  0  0
 14 97  1  0  0  0
 15 98  1  0  0  0
 16 17  2  0  0  0
 16 21  1  0  0  0
 16 31  1  0  0  0
 17 18  1  0  0  0
 17 99  1  0  0  0
 18 19  2  0  0  0
 18100  1  0  0  0
 19 20  1  0  0  0
 19 24  1  0  0  0
 20 21  2  0  0  0
 20101  1  0  0  0
 21 23  1  0  0  0
 22 28  1  0  0  0
 22 32  2  0  0  0
 26 27  1  0  0  0
 28102  1  0  0  0
 28103  1  0  0  0
 29104  1  0  0  0
 29105  1  0  0  0
 33 34  1  0  0  0
 33 66  1  0  0  0
 33 70  2  0  0  0
 34 36  1  0  0  0
 34 59  1  0  0  0
 34106  1  0  0  0
 35 44  2  0  0  0
 35 45  1  0  0  0
 35 68  1  0  0  0
 36 56  1  0  0  0
 36107  1  0  0  0
 37 39  1  0  0  0
 37 47  1  0  0  0
 37 66  1  0  0  0
 37108  1  0  0  0
 38 43  2  0  0  0
 38 46  1  0  0  0
 38 47  1  0  0  0
 39 64  1  0  0  0
 39 67  2  0  0  0
 40 52  1  0  0  0
 40 53  2  0  0  0
 40 58  1  0  0  0
 41109  1  0  0  0
 41110  1  0  0  0
 41111  1  0  0  0
 41 48  1  0  0  0
 42 43  1  0  0  0
 42 66  1  0  0  0
 42112  1  0  0  0
 42113  1  0  0  0
 43 44  1  0  0  0
 44114  1  0  0  0
 45 46  2  0  0  0
 45115  1  0  0  0
 46116  1  0  0  0
 47117  1  0  0  0
 47118  1  0  0  0
 48 56  1  0  0  0
 48 65  1  0  0  0
 48119  1  0  0  0
 49 50  1  0  0  0
 49 53  1  0  0  0
 49 64  1  0  0  0
 49120  1  0  0  0
 50 51  1  0  0  0
 50121  1  0  0  0
 50122  1  0  0  0
 51 52  1  0  0  0
 51123  1  0  0  0
 51124  1  0  0  0
 52125  1  0  0  0
 52126  1  0  0  0
 53 54  1  0  0  0
 54 55  2  0  0  0
 54127  1  0  0  0
 55 57  1  0  0  0
 55128  1  0  0  0
 56 69  2  0  0  0
 57 58  2  0  0  0
 57129  1  0  0  0
 58130  1  0  0  0
 59 60  1  0  0  0
 59 61  1  0  0  0
 59 62  1  0  0  0
 60131  1  0  0  0
 60132  1  0  0  0
 60133  1  0  0  0
 61134  1  0  0  0
 61135  1  0  0  0
 61136  1  0  0  0
 62137  1  0  0  0
 62138  1  0  0  0
 62139  1  0  0  0
 63 65  1  0  0  0
 63140  1  0  0  0
 63141  1  0  0  0
 63142  1  0  0  0
 64143  1  0  0  0
 65144  1  0  0  0
 68 77  1  0  0  0
 71 72  2  0  0  0
 71 74  1  0  0  0
 71145  1  0  0  0
 72 75  1  0  0  0
 72146  1  0  0  0
 73 74  2  0  0  0
 73 76  1  0  0  0
 73147  1  0  0  0
 74 78  1  0  0  0
 75 76  2  0  0  0
 75 83  1  0  0  0
 76 82  1  0  0  0
 77 79  2  0  0  0
 77148  1  0  0  0
 78 81  2  0  0  0
 79 80  1  0  0  0
 79 85  1  0  0  0
 80 83  1  0  0  0
 80 84  2  0  0  0
 81149  1  0  0  0
 82150  1  0  0  0
 82151  1  0  0  0
 83152  1  0  0  0
 85153  1  0  0  0
M  ISO  4   1 100  68 101  77 101  78 100
M  END
> <chiral flag>
0

> <version>
0

> <s_m_source_file>
/data/baiqing/PycharmProjects/Reinvent-master-3.2/result/LINK_invent/BTK/process_docking_weight1_custom_product_contain_oxygen_bond_distance_aromatic_linkinvent_7_9_3/rearranged_h_0093.sdf

> <i_m_source_file_index>
92

> <r_mmod_Potential_Energy-OPLS-2005>
199.137542724609

> <r_mmod_Stretch_Energy-OPLS-2005>
122.768974304199

> <r_mmod_Bend_Energy-OPLS-2005>
230.791900634766

> <r_mmod_Torsional_Energy-OPLS-2005>
202.260070800781

> <r_mmod_Improper_Torsional_Energy-OPLS-2005>
7.56483936309814

> <r_mmod_Van_der_Waal_Energy-OPLS-2005>
158.306381225586

> <r_mmod_Electrostatic_Energy-OPLS-2005>
-359.921142578125

> <r_mmod_Solvation_Energy-OPLS-2005>
-239.974716186523

> <b_mmod_Minimization_Converged-OPLS-2005>
0

> <r_mmod_RMS_Derivative-OPLS-2005>
0.306850671768188

$$$$
93
                    3D
 Structure written by MMmdl.
150158  0  0  1  0            999 V2000
  -30.6186  -14.6610   20.4918 C   0  0  0  0  0  0
  -30.4392  -12.4036   19.4561 C   0  0  0  0  0  0
  -29.5085  -12.5038   18.2264 C   0  0  0  0  0  0
  -28.0319  -12.3403   18.6395 C   0  0  0  0  0  0
  -27.6525  -13.2176   19.8620 C   0  0  2  0  0  0
  -28.6980  -13.0852   20.9929 C   0  0  0  0  0  0
  -25.2563  -13.8170   20.5689 C   0  0  0  0  0  0
  -24.1831  -13.0439   20.9201 C   0  0  0  0  0  0
  -24.6395  -11.6909   20.8743 C   0  0  0  0  0  0
  -23.9063  -10.4293   21.0407 C   0  0  0  0  0  0
  -24.3616   -9.4209   21.9184 C   0  0  0  0  0  0
  -23.6293   -8.2241   22.0751 C   0  0  0  0  0  0
  -22.4276   -8.0279   21.3542 C   0  0  0  0  0  0
  -21.9911   -9.0253   20.4644 C   0  0  0  0  0  0
  -22.7235  -10.2135   20.3057 C   0  0  0  0  0  0
  -21.6854   -6.0735   22.5279 C   0  0  0  0  0  0
  -21.4010   -6.5639   23.8213 C   0  0  0  0  0  0
  -21.3658   -5.6792   24.9173 C   0  0  0  0  0  0
  -21.6046   -4.3053   24.7223 C   0  0  0  0  0  0
  -21.8818   -3.8146   23.4344 C   0  0  0  0  0  0
  -21.9192   -4.6964   22.3401 C   0  0  0  0  0  0
  -22.7856  -13.5234   21.1862 C   0  0  0  0  0  0
  -22.1663   -4.2152   21.0979 F   0  0  0  0  0  0
  -21.5631   -3.4534   25.7733 F   0  0  0  0  0  0
  -30.0112  -13.4319   20.4274 N   0  0  0  0  0  0
  -26.2987  -12.9352   20.3315 N   0  0  0  0  0  0
  -25.9326  -11.6506   20.5760 N   0  0  0  0  0  0
  -22.0494  -12.8223   22.0411 N   0  0  0  0  0  0
  -25.4281  -15.1888   20.4092 N   0  0  0  0  0  0
  -31.7859  -14.8075   20.1170 O   0  0  0  0  0  0
  -21.6642   -6.8876   21.4240 O   0  0  0  0  0  0
  -22.3542  -14.5538   20.6707 O   0  0  0  0  0  0
  -24.6266  -31.8605   23.2035 C   0  0  0  0  0  0
  -25.9111  -32.4781   23.8366 C   0  0  1  0  0  0
  -27.2226  -27.3129   20.1208 C   0  0  0  0  0  0
  -25.5926  -33.8582   24.2288 N   0  0  0  0  0  0
  -23.4215  -30.4846   21.5461 C   0  0  2  0  0  0
  -24.8687  -28.9406   20.1107 C   0  0  0  0  0  0
  -22.7482  -29.4628   22.4936 C   0  0  0  0  0  0
  -18.0296  -28.1395   22.8495 C   0  0  0  0  0  0
  -24.1486  -36.7283   23.2643 C   0  0  0  0  0  0
  -25.9637  -30.7866   21.3789 C   0  0  0  0  0  0
  -26.0369  -29.4129   20.7236 C   0  0  0  0  0  0
  -27.2169  -28.6092   20.7252 C   0  0  0  0  0  0
  -26.0353  -26.9035   19.4715 C   0  0  0  0  0  0
  -24.8688  -27.6897   19.4763 C   0  0  0  0  0  0
  -23.6373  -29.8216   20.1606 C   0  0  0  0  0  0
  -25.4112  -36.3079   24.0334 C   0  0  1  0  0  0
  -20.5897  -28.3692   23.1284 C   0  0  2  0  0  0
  -20.6782  -26.9414   22.5414 C   0  0  0  0  0  0
  -19.5753  -26.6393   21.5220 C   0  0  0  0  0  0
  -18.1935  -26.7939   22.1633 C   0  0  0  0  0  0
  -19.1549  -28.8861   23.2887 C   0  0  0  0  0  0
  -18.9468  -30.1469   23.8891 C   0  0  0  0  0  0
  -17.6467  -30.6594   24.0571 C   0  0  0  0  0  0
  -25.9051  -34.9451   23.5107 C   0  0  0  0  0  0
  -16.5359  -29.9091   23.6340 C   0  0  0  0  0  0
  -16.7284  -28.6514   23.0352 C   0  0  0  0  0  0
  -26.4500  -31.6591   25.0732 C   0  0  0  0  0  0
  -25.3733  -31.3730   26.1456 C   0  0  0  0  0  0
  -27.0345  -30.3013   24.6182 C   0  0  0  0  0  0
  -27.6070  -32.4320   25.7492 C   0  0  0  0  0  0
  -27.5577  -37.1796   24.8470 C   0  0  0  0  0  0
  -21.4198  -29.3041   22.3670 N   0  0  0  0  0  0
  -26.4289  -37.3774   23.9413 N   0  0  0  0  0  0
  -24.6895  -31.0607   22.0994 N   0  0  0  0  0  0
  -23.4203  -28.8175   23.3022 O   0  0  0  0  0  0
  -28.3232  -26.4376   20.1446 O   0  0  0  0  0  0
  -26.5620  -34.8918   22.4671 O   0  0  0  0  0  0
  -23.5424  -32.1411   23.7350 O   0  0  0  0  0  0
  -31.1056  -19.2780   20.0466 C   0  0  0  0  0  0
  -31.0701  -17.8574   20.1739 C   0  0  0  0  0  0
  -28.8378  -18.0341   21.0308 C   0  0  0  0  0  0
  -30.0210  -20.1363   20.4038 C   0  0  0  0  0  0
  -29.9284  -17.1824   20.6748 C   0  0  0  0  0  0
  -28.8732  -19.4629   20.9059 C   0  0  0  0  0  0
  -30.1901  -21.6759   20.2763 C   0  0  0  0  0  0
  -28.1670  -25.0333   20.4637 C   0  0  0  0  0  0
  -29.3814  -24.0815   20.1646 C   0  0  0  0  0  0
  -29.8088  -15.7206   20.8300 N   0  0  0  0  0  0
  -29.1795  -22.5926   20.3830 N   0  0  0  0  0  0
  -31.3237  -22.0963   20.0263 O   0  0  0  0  0  0
  -27.1396  -24.5441   20.9441 O   0  0  0  0  0  0
  -27.7832  -20.1772   21.2793 F   0  0  0  0  0  0
  -31.4795  -12.5312   19.1514 H   0  0  0  0  0  0
  -30.3808  -11.4110   19.9050 H   0  0  0  0  0  0
  -29.7752  -11.7447   17.4897 H   0  0  0  0  0  0
  -29.6473  -13.4681   17.7351 H   0  0  0  0  0  0
  -27.8725  -11.2881   18.8785 H   0  0  0  0  0  0
  -27.3757  -12.5617   17.7970 H   0  0  0  0  0  0
  -27.6675  -14.2504   19.5139 H   0  0  0  0  0  0
  -28.7141  -12.0665   21.3827 H   0  0  0  0  0  0
  -28.4412  -13.7233   21.8396 H   0  0  0  0  0  0
  -25.2763   -9.5683   22.4755 H   0  0  0  0  0  0
  -24.0008   -7.4628   22.7464 H   0  0  0  0  0  0
  -21.0844   -8.8764   19.8946 H   0  0  0  0  0  0
  -22.3691  -10.9672   19.6163 H   0  0  0  0  0  0
  -21.1999   -7.6146   23.9713 H   0  0  0  0  0  0
  -21.1485   -6.0522   25.9077 H   0  0  0  0  0  0
  -22.0599   -2.7610   23.2839 H   0  0  0  0  0  0
  -22.4117  -11.9890   22.4802 H   0  0  0  0  0  0
  -21.1109  -13.1244   22.2613 H   0  0  0  0  0  0
  -24.6576  -15.8402   20.5121 H   0  0  0  0  0  0
  -26.2645  -15.6217   20.0395 H   0  0  0  0  0  0
  -26.7178  -32.5448   23.1118 H   0  0  0  0  0  0
  -25.0079  -33.9729   25.0434 H   0  0  0  0  0  0
  -22.7165  -31.3067   21.4052 H   0  0  0  0  0  0
  -23.3748  -35.9614   23.3310 H   0  0  0  0  0  0
  -24.3586  -36.8893   22.2057 H   0  0  0  0  0  0
  -23.7231  -37.6486   23.6658 H   0  0  0  0  0  0
  -26.0993  -31.5480   20.6097 H   0  0  0  0  0  0
  -26.8430  -30.8351   22.0094 H   0  0  0  0  0  0
  -28.1114  -28.9664   21.2161 H   0  0  0  0  0  0
  -25.9947  -25.9463   18.9712 H   0  0  0  0  0  0
  -23.9761  -27.3243   18.9873 H   0  0  0  0  0  0
  -23.7594  -30.6006   19.4069 H   0  0  0  0  0  0
  -22.7568  -29.2529   19.8556 H   0  0  0  0  0  0
  -25.1293  -36.1936   25.0828 H   0  0  0  0  0  0
  -21.0003  -28.3262   24.1400 H   0  0  0  0  0  0
  -20.5697  -26.2298   23.3613 H   0  0  0  0  0  0
  -21.6650  -26.7452   22.1195 H   0  0  0  0  0  0
  -19.6909  -25.6305   21.1249 H   0  0  0  0  0  0
  -19.6689  -27.3209   20.6754 H   0  0  0  0  0  0
  -17.4211  -26.6700   21.4031 H   0  0  0  0  0  0
  -18.0326  -26.0084   22.9031 H   0  0  0  0  0  0
  -19.7943  -30.7299   24.2242 H   0  0  0  0  0  0
  -17.5020  -31.6270   24.5180 H   0  0  0  0  0  0
  -15.5358  -30.2989   23.7669 H   0  0  0  0  0  0
  -15.8689  -28.0840   22.7048 H   0  0  0  0  0  0
  -24.5903  -30.7089   25.7781 H   0  0  0  0  0  0
  -24.8932  -32.2899   26.4885 H   0  0  0  0  0  0
  -25.8055  -30.8903   27.0228 H   0  0  0  0  0  0
  -26.2916  -29.6756   24.1217 H   0  0  0  0  0  0
  -27.4065  -29.7279   25.4682 H   0  0  0  0  0  0
  -27.8781  -30.4316   23.9398 H   0  0  0  0  0  0
  -27.2700  -33.3633   26.2059 H   0  0  0  0  0  0
  -28.3879  -32.6852   25.0309 H   0  0  0  0  0  0
  -28.0733  -31.8444   26.5411 H   0  0  0  0  0  0
  -28.2604  -38.0085   24.7510 H   0  0  0  0  0  0
  -28.1067  -36.2618   24.6307 H   0  0  0  0  0  0
  -27.2301  -37.1451   25.8876 H   0  0  0  0  0  0
  -20.9377  -29.8754   21.6872 H   0  0  0  0  0  0
  -26.0170  -38.2851   24.1408 H   0  0  0  0  0  0
  -32.0155  -19.7190   19.6643 H   0  0  0  0  0  0
  -31.9469  -17.2992   19.8781 H   0  0  0  0  0  0
  -27.9317  -17.5909   21.4179 H   0  0  0  0  0  0
  -30.2179  -24.4164   20.7782 H   0  0  0  0  0  0
  -29.6792  -24.2403   19.1278 H   0  0  0  0  0  0
  -28.9057  -15.4116   21.1556 H   0  0  0  0  0  0
  -28.2461  -22.2711   20.6089 H   0  0  0  0  0  0
  1 25  1  0  0  0
  1 30  2  0  0  0
  1 80  1  0  0  0
  2  3  1  0  0  0
  2 25  1  0  0  0
  2 85  1  0  0  0
  2 86  1  0  0  0
  3  4  1  0  0  0
  3 87  1  0  0  0
  3 88  1  0  0  0
  4  5  1  0  0  0
  4 89  1  0  0  0
  4 90  1  0  0  0
  5  6  1  0  0  0
  5 26  1  0  0  0
  5 91  1  0  0  0
  6 25  1  0  0  0
  6 92  1  0  0  0
  6 93  1  0  0  0
  7  8  2  0  0  0
  7 26  1  0  0  0
  7 29  1  0  0  0
  8  9  1  0  0  0
  8 22  1  0  0  0
  9 10  1  0  0  0
  9 27  2  0  0  0
 10 11  2  0  0  0
 10 15  1  0  0  0
 11 12  1  0  0  0
 11 94  1  0  0  0
 12 13  2  0  0  0
 12 95  1  0  0  0
 13 14  1  0  0  0
 13 31  1  0  0  0
 14 15  2  0  0  0
 14 96  1  0  0  0
 15 97  1  0  0  0
 16 17  2  0  0  0
 16 21  1  0  0  0
 16 31  1  0  0  0
 17 18  1  0  0  0
 17 98  1  0  0  0
 18 19  2  0  0  0
 18 99  1  0  0  0
 19 20  1  0  0  0
 19 24  1  0  0  0
 20 21  2  0  0  0
 20100  1  0  0  0
 21 23  1  0  0  0
 22 28  1  0  0  0
 22 32  2  0  0  0
 26 27  1  0  0  0
 28101  1  0  0  0
 28102  1  0  0  0
 29103  1  0  0  0
 29104  1  0  0  0
 33 34  1  0  0  0
 33 66  1  0  0  0
 33 70  2  0  0  0
 34 36  1  0  0  0
 34 59  1  0  0  0
 34105  1  0  0  0
 35 44  2  0  0  0
 35 45  1  0  0  0
 35 68  1  0  0  0
 36 56  1  0  0  0
 36106  1  0  0  0
 37 39  1  0  0  0
 37 47  1  0  0  0
 37 66  1  0  0  0
 37107  1  0  0  0
 38 43  2  0  0  0
 38 46  1  0  0  0
 38 47  1  0  0  0
 39 64  1  0  0  0
 39 67  2  0  0  0
 40 52  1  0  0  0
 40 53  2  0  0  0
 40 58  1  0  0  0
 41108  1  0  0  0
 41109  1  0  0  0
 41110  1  0  0  0
 41 48  1  0  0  0
 42 43  1  0  0  0
 42 66  1  0  0  0
 42111  1  0  0  0
 42112  1  0  0  0
 43 44  1  0  0  0
 44113  1  0  0  0
 45 46  2  0  0  0
 45114  1  0  0  0
 46115  1  0  0  0
 47116  1  0  0  0
 47117  1  0  0  0
 48 56  1  0  0  0
 48 65  1  0  0  0
 48118  1  0  0  0
 49 50  1  0  0  0
 49 53  1  0  0  0
 49 64  1  0  0  0
 49119  1  0  0  0
 50 51  1  0  0  0
 50120  1  0  0  0
 50121  1  0  0  0
 51 52  1  0  0  0
 51122  1  0  0  0
 51123  1  0  0  0
 52124  1  0  0  0
 52125  1  0  0  0
 53 54  1  0  0  0
 54 55  2  0  0  0
 54126  1  0  0  0
 55 57  1  0  0  0
 55127  1  0  0  0
 56 69  2  0  0  0
 57 58  2  0  0  0
 57128  1  0  0  0
 58129  1  0  0  0
 59 60  1  0  0  0
 59 61  1  0  0  0
 59 62  1  0  0  0
 60130  1  0  0  0
 60131  1  0  0  0
 60132  1  0  0  0
 61133  1  0  0  0
 61134  1  0  0  0
 61135  1  0  0  0
 62136  1  0  0  0
 62137  1  0  0  0
 62138  1  0  0  0
 63 65  1  0  0  0
 63139  1  0  0  0
 63140  1  0  0  0
 63141  1  0  0  0
 64142  1  0  0  0
 65143  1  0  0  0
 68 78  1  0  0  0
 71 72  2  0  0  0
 71 74  1  0  0  0
 71144  1  0  0  0
 72 75  1  0  0  0
 72145  1  0  0  0
 73 75  2  0  0  0
 73 76  1  0  0  0
 73146  1  0  0  0
 74 76  2  0  0  0
 74 77  1  0  0  0
 75 80  1  0  0  0
 76 84  1  0  0  0
 77 81  1  0  0  0
 77 82  2  0  0  0
 78 79  1  0  0  0
 78 83  2  0  0  0
 79 81  1  0  0  0
 79147  1  0  0  0
 79148  1  0  0  0
 80149  1  0  0  0
 81150  1  0  0  0
M  ISO  4   1 100  68 101  78 101  80 100
M  END
> <chiral flag>
0

> <version>
0

> <s_m_source_file>
/data/baiqing/PycharmProjects/Reinvent-master-3.2/result/LINK_invent/BTK/process_docking_weight1_custom_product_contain_oxygen_bond_distance_aromatic_linkinvent_7_9_3/rearranged_h_0093.sdf

> <i_m_source_file_index>
93

> <r_mmod_Potential_Energy-OPLS-2005>
-6.80103015899658

> <r_mmod_Stretch_Energy-OPLS-2005>
90.4431762695312

> <r_mmod_Bend_Energy-OPLS-2005>
141.825393676758

> <r_mmod_Torsional_Energy-OPLS-2005>
215.37321472168

> <r_mmod_Improper_Torsional_Energy-OPLS-2005>
4.16952180862427

> <r_mmod_Van_der_Waal_Energy-OPLS-2005>
150.272689819336

> <r_mmod_Electrostatic_Energy-OPLS-2005>
-434.888763427734

> <r_mmod_Solvation_Energy-OPLS-2005>
-228.352493286133

> <b_mmod_Minimization_Converged-OPLS-2005>
0

> <r_mmod_RMS_Derivative-OPLS-2005>
0.83031290769577

$$$$
94
                    3D
 Structure written by MMmdl.
156165  0  0  1  0            999 V2000
  -30.6567  -14.6079   20.5856 C   0  0  0  0  0  0
  -30.4365  -12.3986   19.4520 C   0  0  0  0  0  0
  -29.5078  -12.5366   18.2238 C   0  0  0  0  0  0
  -28.0287  -12.3676   18.6239 C   0  0  0  0  0  0
  -27.6566  -13.2125   19.8699 C   0  0  2  0  0  0
  -28.6923  -13.0058   20.9926 C   0  0  0  0  0  0
  -25.2567  -13.8160   20.5674 C   0  0  0  0  0  0
  -24.1826  -13.0430   20.9166 C   0  0  0  0  0  0
  -24.6389  -11.6898   20.8717 C   0  0  0  0  0  0
  -23.9057  -10.4289   21.0399 C   0  0  0  0  0  0
  -24.3614   -9.4209   21.9180 C   0  0  0  0  0  0
  -23.6293   -8.2245   22.0752 C   0  0  0  0  0  0
  -22.4274   -8.0281   21.3539 C   0  0  0  0  0  0
  -21.9907   -9.0254   20.4639 C   0  0  0  0  0  0
  -22.7233  -10.2132   20.3049 C   0  0  0  0  0  0
  -21.6852   -6.0735   22.5281 C   0  0  0  0  0  0
  -21.4012   -6.5639   23.8213 C   0  0  0  0  0  0
  -21.3658   -5.6791   24.9175 C   0  0  0  0  0  0
  -21.6043   -4.3054   24.7226 C   0  0  0  0  0  0
  -21.8819   -3.8146   23.4347 C   0  0  0  0  0  0
  -21.9193   -4.6961   22.3404 C   0  0  0  0  0  0
  -22.7852  -13.5226   21.1851 C   0  0  0  0  0  0
  -22.1660   -4.2149   21.0981 F   0  0  0  0  0  0
  -21.5632   -3.4538   25.7740 F   0  0  0  0  0  0
  -30.0165  -13.3912   20.4679 N   0  0  0  0  0  0
  -26.2993  -12.9334   20.3310 N   0  0  0  0  0  0
  -25.9314  -11.6485   20.5713 N   0  0  0  0  0  0
  -22.0502  -12.8217   22.0414 N   0  0  0  0  0  0
  -25.4294  -15.1882   20.4115 N   0  0  0  0  0  0
  -31.7382  -14.8137   20.0221 O   0  0  0  0  0  0
  -21.6634   -6.8879   21.4242 O   0  0  0  0  0  0
  -22.3532  -14.5536   20.6713 O   0  0  0  0  0  0
  -24.6249  -31.8606   23.2042 C   0  0  0  0  0  0
  -25.9100  -32.4786   23.8369 C   0  0  1  0  0  0
  -27.2270  -27.3367   20.1197 C   0  0  0  0  0  0
  -25.5919  -33.8588   24.2296 N   0  0  0  0  0  0
  -23.4184  -30.4831   21.5469 C   0  0  2  0  0  0
  -24.8662  -28.9363   20.1148 C   0  0  0  0  0  0
  -22.7467  -29.4630   22.4957 C   0  0  0  0  0  0
  -18.0282  -28.1387   22.8497 C   0  0  0  0  0  0
  -24.1485  -36.7285   23.2644 C   0  0  0  0  0  0
  -25.9578  -30.7962   21.3735 C   0  0  0  0  0  0
  -26.0337  -29.4246   20.7167 C   0  0  0  0  0  0
  -27.2208  -28.6368   20.7064 C   0  0  0  0  0  0
  -26.0415  -26.8939   19.4963 C   0  0  0  0  0  0
  -24.8698  -27.6757   19.4961 C   0  0  0  0  0  0
  -23.6331  -29.8154   20.1632 C   0  0  0  0  0  0
  -25.4112  -36.3087   24.0336 C   0  0  1  0  0  0
  -20.5880  -28.3689   23.1288 C   0  0  2  0  0  0
  -20.6778  -26.9419   22.5411 C   0  0  0  0  0  0
  -19.5749  -26.6390   21.5216 C   0  0  0  0  0  0
  -18.1925  -26.7937   22.1623 C   0  0  0  0  0  0
  -19.1535  -28.8854   23.2887 C   0  0  0  0  0  0
  -18.9459  -30.1456   23.8905 C   0  0  0  0  0  0
  -17.6459  -30.6597   24.0565 C   0  0  0  0  0  0
  -25.9043  -34.9455   23.5112 C   0  0  0  0  0  0
  -16.5349  -29.9096   23.6339 C   0  0  0  0  0  0
  -16.7269  -28.6506   23.0371 C   0  0  0  0  0  0
  -26.4499  -31.6596   25.0734 C   0  0  0  0  0  0
  -25.3741  -31.3698   26.1460 C   0  0  0  0  0  0
  -27.0367  -30.3032   24.6178 C   0  0  0  0  0  0
  -27.6063  -32.4334   25.7492 C   0  0  0  0  0  0
  -27.5580  -37.1789   24.8472 C   0  0  0  0  0  0
  -21.4183  -29.3038   22.3686 N   0  0  0  0  0  0
  -26.4293  -37.3780   23.9416 N   0  0  0  0  0  0
  -24.6858  -31.0623   22.0990 N   0  0  0  0  0  0
  -23.4191  -28.8184   23.3049 O   0  0  0  0  0  0
  -28.3465  -26.5005   20.1250 O   0  0  0  0  0  0
  -26.5615  -34.8920   22.4679 O   0  0  0  0  0  0
  -23.5414  -32.1401   23.7370 O   0  0  0  0  0  0
  -29.7340  -17.5991   19.6253 C   0  0  0  0  0  0
  -29.8610  -18.2763   21.9139 C   0  0  0  0  0  0
  -29.4963  -18.9595   19.2547 C   0  0  0  0  0  0
  -29.6222  -19.6326   21.5482 C   0  0  0  0  0  0
  -29.9074  -17.2007   20.9765 C   0  0  0  0  0  0
  -29.4087  -20.0284   20.2027 C   0  0  0  0  0  0
  -28.7585  -21.9388   18.6461 C   0  0  0  0  0  0
  -30.0199  -15.7415   21.4712 C   0  0  0  0  0  0
  -28.4251  -23.4355   18.6850 C   0  0  0  0  0  0
  -29.0282  -22.5651   20.8304 C   0  0  0  0  0  0
  -28.9585  -23.9234   20.0315 C   0  0  2  0  0  0
  -28.1692  -25.1434   20.6776 C   0  0  0  0  0  0
  -29.6448  -15.4867   22.6573 N   0  0  0  0  0  0
  -29.1097  -21.4390   19.8564 N   0  0  0  0  0  0
  -28.6894  -21.3201   17.5806 O   0  0  0  0  0  0
  -31.4777  -12.5252   19.1510 H   0  0  0  0  0  0
  -30.3763  -11.3895   19.8631 H   0  0  0  0  0  0
  -29.7756  -11.8018   17.4636 H   0  0  0  0  0  0
  -29.6523  -13.5169   17.7663 H   0  0  0  0  0  0
  -27.8592  -11.3104   18.8311 H   0  0  0  0  0  0
  -27.3778  -12.6214   17.7865 H   0  0  0  0  0  0
  -27.6947  -14.2597   19.5700 H   0  0  0  0  0  0
  -28.7085  -11.9579   21.2968 H   0  0  0  0  0  0
  -28.3848  -13.5393   21.8868 H   0  0  0  0  0  0
  -25.2764   -9.5684   22.4748 H   0  0  0  0  0  0
  -24.0000   -7.4635   22.7472 H   0  0  0  0  0  0
  -21.0837   -8.8768   19.8948 H   0  0  0  0  0  0
  -22.3693  -10.9667   19.6153 H   0  0  0  0  0  0
  -21.2002   -7.6147   23.9715 H   0  0  0  0  0  0
  -21.1480   -6.0524   25.9078 H   0  0  0  0  0  0
  -22.0601   -2.7610   23.2849 H   0  0  0  0  0  0
  -22.4118  -11.9870   22.4792 H   0  0  0  0  0  0
  -21.1122  -13.1240   22.2633 H   0  0  0  0  0  0
  -24.6694  -15.8486   20.5334 H   0  0  0  0  0  0
  -26.2940  -15.6300   20.1260 H   0  0  0  0  0  0
  -26.7167  -32.5457   23.1122 H   0  0  0  0  0  0
  -25.0086  -33.9742   25.0453 H   0  0  0  0  0  0
  -22.7108  -31.3023   21.4038 H   0  0  0  0  0  0
  -23.3758  -35.9606   23.3311 H   0  0  0  0  0  0
  -24.3573  -36.8905   22.2060 H   0  0  0  0  0  0
  -23.7219  -37.6477   23.6667 H   0  0  0  0  0  0
  -26.0868  -31.5614   20.6065 H   0  0  0  0  0  0
  -26.8384  -30.8440   22.0028 H   0  0  0  0  0  0
  -28.1207  -29.0074   21.1765 H   0  0  0  0  0  0
  -26.0171  -25.9285   19.0102 H   0  0  0  0  0  0
  -23.9746  -27.2976   19.0214 H   0  0  0  0  0  0
  -23.7502  -30.5907   19.4055 H   0  0  0  0  0  0
  -22.7537  -29.2432   19.8623 H   0  0  0  0  0  0
  -25.1289  -36.1946   25.0828 H   0  0  0  0  0  0
  -20.9961  -28.3272   24.1413 H   0  0  0  0  0  0
  -20.5693  -26.2300   23.3609 H   0  0  0  0  0  0
  -21.6644  -26.7470   22.1187 H   0  0  0  0  0  0
  -19.6912  -25.6301   21.1247 H   0  0  0  0  0  0
  -19.6687  -27.3204   20.6745 H   0  0  0  0  0  0
  -17.4200  -26.6697   21.4023 H   0  0  0  0  0  0
  -18.0313  -26.0073   22.9007 H   0  0  0  0  0  0
  -19.7935  -30.7268   24.2285 H   0  0  0  0  0  0
  -17.5019  -31.6281   24.5158 H   0  0  0  0  0  0
  -15.5349  -30.3002   23.7664 H   0  0  0  0  0  0
  -15.8664  -28.0821   22.7104 H   0  0  0  0  0  0
  -24.5939  -30.7028   25.7774 H   0  0  0  0  0  0
  -24.8905  -32.2846   26.4890 H   0  0  0  0  0  0
  -25.8078  -30.8873   27.0229 H   0  0  0  0  0  0
  -26.2944  -29.6738   24.1257 H   0  0  0  0  0  0
  -27.4149  -29.7323   25.4667 H   0  0  0  0  0  0
  -27.8771  -30.4345   23.9360 H   0  0  0  0  0  0
  -27.2698  -33.3655   26.2041 H   0  0  0  0  0  0
  -28.3878  -32.6855   25.0312 H   0  0  0  0  0  0
  -28.0732  -31.8478   26.5421 H   0  0  0  0  0  0
  -28.2593  -38.0093   24.7535 H   0  0  0  0  0  0
  -28.1078  -36.2618   24.6286 H   0  0  0  0  0  0
  -27.2292  -37.1429   25.8875 H   0  0  0  0  0  0
  -20.9369  -29.8735   21.6868 H   0  0  0  0  0  0
  -26.0175  -38.2854   24.1426 H   0  0  0  0  0  0
  -29.7489  -16.8484   18.8474 H   0  0  0  0  0  0
  -29.9911  -18.0665   22.9663 H   0  0  0  0  0  0
  -29.3629  -19.1450   18.2003 H   0  0  0  0  0  0
  -29.5854  -20.3691   22.3378 H   0  0  0  0  0  0
  -27.3429  -23.5506   18.6213 H   0  0  0  0  0  0
  -28.8752  -23.9697   17.8478 H   0  0  0  0  0  0
  -28.1307  -22.4330   21.4365 H   0  0  0  0  0  0
  -29.8838  -22.5611   21.5070 H   0  0  0  0  0  0
  -29.9886  -24.2499   19.8777 H   0  0  0  0  0  0
  -28.4930  -25.2195   21.7161 H   0  0  0  0  0  0
  -27.1159  -24.8710   20.7463 H   0  0  0  0  0  0
  -29.2741  -16.3164   23.1038 H   0  0  0  0  0  0
  1 25  1  0  0  0
  1 30  2  0  0  0
  1 78  1  0  0  0
  2  3  1  0  0  0
  2 25  1  0  0  0
  2 86  1  0  0  0
  2 87  1  0  0  0
  3  4  1  0  0  0
  3 88  1  0  0  0
  3 89  1  0  0  0
  4  5  1  0  0  0
  4 90  1  0  0  0
  4 91  1  0  0  0
  5  6  1  0  0  0
  5 26  1  0  0  0
  5 92  1  0  0  0
  6 25  1  0  0  0
  6 93  1  0  0  0
  6 94  1  0  0  0
  7  8  2  0  0  0
  7 26  1  0  0  0
  7 29  1  0  0  0
  8  9  1  0  0  0
  8 22  1  0  0  0
  9 10  1  0  0  0
  9 27  2  0  0  0
 10 11  2  0  0  0
 10 15  1  0  0  0
 11 12  1  0  0  0
 11 95  1  0  0  0
 12 13  2  0  0  0
 12 96  1  0  0  0
 13 14  1  0  0  0
 13 31  1  0  0  0
 14 15  2  0  0  0
 14 97  1  0  0  0
 15 98  1  0  0  0
 16 17  2  0  0  0
 16 21  1  0  0  0
 16 31  1  0  0  0
 17 18  1  0  0  0
 17 99  1  0  0  0
 18 19  2  0  0  0
 18100  1  0  0  0
 19 20  1  0  0  0
 19 24  1  0  0  0
 20 21  2  0  0  0
 20101  1  0  0  0
 21 23  1  0  0  0
 22 28  1  0  0  0
 22 32  2  0  0  0
 26 27  1  0  0  0
 28102  1  0  0  0
 28103  1  0  0  0
 29104  1  0  0  0
 29105  1  0  0  0
 33 34  1  0  0  0
 33 66  1  0  0  0
 33 70  2  0  0  0
 34 36  1  0  0  0
 34 59  1  0  0  0
 34106  1  0  0  0
 35 44  2  0  0  0
 35 45  1  0  0  0
 35 68  1  0  0  0
 36 56  1  0  0  0
 36107  1  0  0  0
 37 39  1  0  0  0
 37 47  1  0  0  0
 37 66  1  0  0  0
 37108  1  0  0  0
 38 43  2  0  0  0
 38 46  1  0  0  0
 38 47  1  0  0  0
 39 64  1  0  0  0
 39 67  2  0  0  0
 40 52  1  0  0  0
 40 53  2  0  0  0
 40 58  1  0  0  0
 41109  1  0  0  0
 41110  1  0  0  0
 41111  1  0  0  0
 41 48  1  0  0  0
 42 43  1  0  0  0
 42 66  1  0  0  0
 42112  1  0  0  0
 42113  1  0  0  0
 43 44  1  0  0  0
 44114  1  0  0  0
 45 46  2  0  0  0
 45115  1  0  0  0
 46116  1  0  0  0
 47117  1  0  0  0
 47118  1  0  0  0
 48 56  1  0  0  0
 48 65  1  0  0  0
 48119  1  0  0  0
 49 50  1  0  0  0
 49 53  1  0  0  0
 49 64  1  0  0  0
 49120  1  0  0  0
 50 51  1  0  0  0
 50121  1  0  0  0
 50122  1  0  0  0
 51 52  1  0  0  0
 51123  1  0  0  0
 51124  1  0  0  0
 52125  1  0  0  0
 52126  1  0  0  0
 53 54  1  0  0  0
 54 55  2  0  0  0
 54127  1  0  0  0
 55 57  1  0  0  0
 55128  1  0  0  0
 56 69  2  0  0  0
 57 58  2  0  0  0
 57129  1  0  0  0
 58130  1  0  0  0
 59 60  1  0  0  0
 59 61  1  0  0  0
 59 62  1  0  0  0
 60131  1  0  0  0
 60132  1  0  0  0
 60133  1  0  0  0
 61134  1  0  0  0
 61135  1  0  0  0
 61136  1  0  0  0
 62137  1  0  0  0
 62138  1  0  0  0
 62139  1  0  0  0
 63 65  1  0  0  0
 63140  1  0  0  0
 63141  1  0  0  0
 63142  1  0  0  0
 64143  1  0  0  0
 65144  1  0  0  0
 68 82  1  0  0  0
 71 73  2  0  0  0
 71 75  1  0  0  0
 71145  1  0  0  0
 72 74  1  0  0  0
 72 75  2  0  0  0
 72146  1  0  0  0
 73 76  1  0  0  0
 73147  1  0  0  0
 74 76  2  0  0  0
 74148  1  0  0  0
 75 78  1  0  0  0
 76 84  1  0  0  0
 77 79  1  0  0  0
 77 84  1  0  0  0
 77 85  2  0  0  0
 78 83  2  0  0  0
 79 81  1  0  0  0
 79149  1  0  0  0
 79150  1  0  0  0
 80 81  1  0  0  0
 80 84  1  0  0  0
 80151  1  0  0  0
 80152  1  0  0  0
 81 82  1  0  0  0
 81153  1  0  0  0
 82154  1  0  0  0
 82155  1  0  0  0
 83156  1  0  0  0
M  ISO  4   1 100  68 101  78 100  82 101
M  END
> <chiral flag>
0

> <version>
0

> <s_m_source_file>
/data/baiqing/PycharmProjects/Reinvent-master-3.2/result/LINK_invent/BTK/process_docking_weight1_custom_product_contain_oxygen_bond_distance_aromatic_linkinvent_7_9_3/rearranged_h_0093.sdf

> <i_m_source_file_index>
94

> <r_mmod_Potential_Energy-OPLS-2005>
274.655517578125

> <r_mmod_Stretch_Energy-OPLS-2005>
87.8805465698242

> <r_mmod_Bend_Energy-OPLS-2005>
168.830520629883

> <r_mmod_Torsional_Energy-OPLS-2005>
257.834716796875

> <r_mmod_Improper_Torsional_Energy-OPLS-2005>
2.62485647201538

> <r_mmod_Van_der_Waal_Energy-OPLS-2005>
151.058349609375

> <r_mmod_Electrostatic_Energy-OPLS-2005>
-219.482208251953

> <r_mmod_Solvation_Energy-OPLS-2005>
-211.832214355469

> <b_mmod_Minimization_Converged-OPLS-2005>
0

> <r_mmod_RMS_Derivative-OPLS-2005>
1.00444638729095

$$$$
95
                    3D
 Structure written by MMmdl.
165174  0  0  1  0            999 V2000
  -30.6159  -14.6900   20.6331 C   0  0  0  0  0  0
  -30.4585  -12.4803   19.4328 C   0  0  0  0  0  0
  -29.5038  -12.5426   18.2165 C   0  0  0  0  0  0
  -28.0236  -12.3814   18.6197 C   0  0  0  0  0  0
  -27.6568  -13.2086   19.8767 C   0  0  2  0  0  0
  -28.7059  -12.9543   20.9705 C   0  0  0  0  0  0
  -25.2567  -13.8140   20.5680 C   0  0  0  0  0  0
  -24.1810  -13.0408   20.9156 C   0  0  0  0  0  0
  -24.6375  -11.6872   20.8762 C   0  0  0  0  0  0
  -23.9044  -10.4255   21.0435 C   0  0  0  0  0  0
  -24.3595   -9.4178   21.9212 C   0  0  0  0  0  0
  -23.6257   -8.2224   22.0764 C   0  0  0  0  0  0
  -22.4261   -8.0275   21.3542 C   0  0  0  0  0  0
  -21.9890   -9.0243   20.4657 C   0  0  0  0  0  0
  -22.7213  -10.2120   20.3076 C   0  0  0  0  0  0
  -21.6836   -6.0738   22.5266 C   0  0  0  0  0  0
  -21.4011   -6.5650   23.8195 C   0  0  0  0  0  0
  -21.3638   -5.6800   24.9162 C   0  0  0  0  0  0
  -21.6024   -4.3057   24.7205 C   0  0  0  0  0  0
  -21.8813   -3.8152   23.4331 C   0  0  0  0  0  0
  -21.9186   -4.6967   22.3392 C   0  0  0  0  0  0
  -22.7852  -13.5219   21.1828 C   0  0  0  0  0  0
  -22.1662   -4.2161   21.0967 F   0  0  0  0  0  0
  -21.5616   -3.4534   25.7716 F   0  0  0  0  0  0
  -30.0014  -13.4538   20.4632 N   0  0  0  0  0  0
  -26.3004  -12.9297   20.3413 N   0  0  0  0  0  0
  -25.9308  -11.6455   20.5772 N   0  0  0  0  0  0
  -22.0506  -12.8207   22.0407 N   0  0  0  0  0  0
  -25.4274  -15.1844   20.4027 N   0  0  0  0  0  0
  -31.7332  -14.8639   20.1259 O   0  0  0  0  0  0
  -21.6625   -6.8876   21.4232 O   0  0  0  0  0  0
  -22.3539  -14.5516   20.6679 O   0  0  0  0  0  0
  -24.6276  -31.8586   23.2067 C   0  0  0  0  0  0
  -25.9145  -32.4760   23.8349 C   0  0  1  0  0  0
  -27.2222  -27.3303   20.1040 C   0  0  0  0  0  0
  -25.5986  -33.8581   24.2271 N   0  0  0  0  0  0
  -23.4174  -30.4868   21.5465 C   0  0  2  0  0  0
  -24.8640  -28.9514   20.1063 C   0  0  0  0  0  0
  -22.7486  -29.4609   22.4918 C   0  0  0  0  0  0
  -18.0275  -28.1368   22.8502 C   0  0  0  0  0  0
  -24.1472  -36.7274   23.2650 C   0  0  0  0  0  0
  -25.9590  -30.7939   21.3765 C   0  0  0  0  0  0
  -26.0322  -29.4240   20.7165 C   0  0  0  0  0  0
  -27.2148  -28.6242   20.7112 C   0  0  0  0  0  0
  -26.0296  -26.9192   19.4600 C   0  0  0  0  0  0
  -24.8629  -27.7032   19.4710 C   0  0  0  0  0  0
  -23.6323  -29.8304   20.1578 C   0  0  0  0  0  0
  -25.4121  -36.3048   24.0294 C   0  0  1  0  0  0
  -20.5889  -28.3657   23.1284 C   0  0  2  0  0  0
  -20.6782  -26.9380   22.5409 C   0  0  0  0  0  0
  -19.5755  -26.6384   21.5215 C   0  0  0  0  0  0
  -18.1929  -26.7914   22.1626 C   0  0  0  0  0  0
  -19.1534  -28.8828   23.2892 C   0  0  0  0  0  0
  -18.9473  -30.1442   23.8893 C   0  0  0  0  0  0
  -17.6474  -30.6582   24.0554 C   0  0  0  0  0  0
  -25.9060  -34.9435   23.5051 C   0  0  0  0  0  0
  -16.5356  -29.9082   23.6331 C   0  0  0  0  0  0
  -16.7268  -28.6498   23.0354 C   0  0  0  0  0  0
  -26.4530  -31.6586   25.0733 C   0  0  0  0  0  0
  -25.3815  -31.3821   26.1507 C   0  0  0  0  0  0
  -27.0265  -30.2918   24.6321 C   0  0  0  0  0  0
  -27.6172  -32.4280   25.7421 C   0  0  0  0  0  0
  -27.5566  -37.1790   24.8449 C   0  0  0  0  0  0
  -21.4206  -29.3011   22.3683 N   0  0  0  0  0  0
  -26.4281  -37.3752   23.9389 N   0  0  0  0  0  0
  -24.6854  -31.0604   22.1013 N   0  0  0  0  0  0
  -23.4216  -28.8118   23.2975 O   0  0  0  0  0  0
  -28.3347  -26.4718   20.1546 O   0  0  0  0  0  0
  -26.5608  -34.8888   22.4591 O   0  0  0  0  0  0
  -23.5464  -32.1402   23.7413 O   0  0  0  0  0  0
  -31.1319  -19.3688   20.5731 C   0  0  0  0  0  0
  -31.1488  -17.9450   20.6870 C   0  0  0  0  0  0
  -28.7546  -17.9516   20.7453 C   0  0  0  0  0  0
  -29.9355  -20.1515   20.6207 C   0  0  0  0  0  0
  -29.9568  -17.1846   20.8242 C   0  0  0  0  0  0
  -28.7350  -19.3822   20.6733 C   0  0  0  0  0  0
  -29.1099  -22.6001   20.2033 C   0  0  0  0  0  0
  -29.0853  -23.9453   20.5277 C   0  0  0  0  0  0
  -30.0377  -24.3992   21.5631 C   0  0  0  0  0  0
  -31.2212  -23.4845   21.8642 C   0  0  0  0  0  0
  -30.8228  -21.9950   21.8798 C   0  0  0  0  0  0
  -28.0028  -17.2720   23.9524 C   0  0  0  0  0  0
  -28.0893  -25.0196   19.9531 C   0  0  0  0  0  0
  -29.3632  -16.6182   23.6305 C   0  0  0  0  0  0
  -29.2590  -15.5170   22.5409 C   0  0  0  0  0  0
  -29.9841  -21.5966   20.7373 N   0  0  0  0  0  0
  -29.9329  -15.7577   21.2399 N   0  0  0  0  0  0
  -29.9352  -25.4553   22.1948 O   0  0  0  0  0  0
  -27.5377  -20.0167   20.7421 F   0  0  0  0  0  0
  -31.4768  -12.6769   19.0901 H   0  0  0  0  0  0
  -30.4947  -11.4712   19.8413 H   0  0  0  0  0  0
  -29.7765  -11.7774   17.4869 H   0  0  0  0  0  0
  -29.6332  -13.4963   17.7064 H   0  0  0  0  0  0
  -27.8357  -11.3232   18.8087 H   0  0  0  0  0  0
  -27.3751  -12.6680   17.7900 H   0  0  0  0  0  0
  -27.7013  -14.2607   19.5973 H   0  0  0  0  0  0
  -28.7814  -11.8802   21.1444 H   0  0  0  0  0  0
  -28.3852  -13.3060   21.9388 H   0  0  0  0  0  0
  -25.2757   -9.5625   22.4754 H   0  0  0  0  0  0
  -23.9951   -7.4598   22.7478 H   0  0  0  0  0  0
  -21.0812   -8.8748   19.8953 H   0  0  0  0  0  0
  -22.3680  -10.9658   19.6161 H   0  0  0  0  0  0
  -21.2040   -7.6159   23.9688 H   0  0  0  0  0  0
  -21.1468   -6.0557   25.9058 H   0  0  0  0  0  0
  -22.0622   -2.7620   23.2831 H   0  0  0  0  0  0
  -22.4142  -11.9847   22.4738 H   0  0  0  0  0  0
  -21.1131  -13.1242   22.2615 H   0  0  0  0  0  0
  -24.6481  -15.8305   20.4634 H   0  0  0  0  0  0
  -26.2699  -15.6132   20.0439 H   0  0  0  0  0  0
  -26.7225  -32.5395   23.1114 H   0  0  0  0  0  0
  -25.0274  -33.9742   25.0509 H   0  0  0  0  0  0
  -22.7089  -31.3059   21.4081 H   0  0  0  0  0  0
  -23.3706  -35.9644   23.3397 H   0  0  0  0  0  0
  -24.3515  -36.8832   22.2045 H   0  0  0  0  0  0
  -23.7330  -37.6531   23.6650 H   0  0  0  0  0  0
  -26.0916  -31.5573   20.6056 H   0  0  0  0  0  0
  -26.8387  -30.8382   22.0064 H   0  0  0  0  0  0
  -28.1096  -28.9795   21.2053 H   0  0  0  0  0  0
  -25.9601  -25.9740   18.9425 H   0  0  0  0  0  0
  -23.9706  -27.3429   18.9769 H   0  0  0  0  0  0
  -23.7528  -30.6124   19.4073 H   0  0  0  0  0  0
  -22.7532  -29.2610   19.8505 H   0  0  0  0  0  0
  -25.1357  -36.1828   25.0797 H   0  0  0  0  0  0
  -20.9981  -28.3213   24.1406 H   0  0  0  0  0  0
  -20.5714  -26.2253   23.3590 H   0  0  0  0  0  0
  -21.6647  -26.7438   22.1178 H   0  0  0  0  0  0
  -19.6907  -25.6305   21.1218 H   0  0  0  0  0  0
  -19.6681  -27.3214   20.6759 H   0  0  0  0  0  0
  -17.4208  -26.6656   21.4016 H   0  0  0  0  0  0
  -18.0322  -26.0042   22.9020 H   0  0  0  0  0  0
  -19.7940  -30.7264   24.2256 H   0  0  0  0  0  0
  -17.5020  -31.6256   24.5160 H   0  0  0  0  0  0
  -15.5352  -30.2985   23.7661 H   0  0  0  0  0  0
  -15.8667  -28.0817   22.7067 H   0  0  0  0  0  0
  -24.9000  -32.3034   26.4778 H   0  0  0  0  0  0
  -25.8176  -30.9205   27.0382 H   0  0  0  0  0  0
  -24.6070  -30.6964   25.8060 H   0  0  0  0  0  0
  -26.2708  -29.6637   24.1593 H   0  0  0  0  0  0
  -27.4138  -29.7352   25.4864 H   0  0  0  0  0  0
  -27.8599  -30.3989   23.9386 H   0  0  0  0  0  0
  -27.2975  -33.3859   26.1555 H   0  0  0  0  0  0
  -28.4228  -32.6265   25.0352 H   0  0  0  0  0  0
  -28.0510  -31.8649   26.5685 H   0  0  0  0  0  0
  -28.2589  -38.0084   24.7426 H   0  0  0  0  0  0
  -28.1038  -36.2592   24.6330 H   0  0  0  0  0  0
  -27.2260  -37.1529   25.8850 H   0  0  0  0  0  0
  -20.9356  -29.8760   21.6939 H   0  0  0  0  0  0
  -26.0122  -38.2798   24.1443 H   0  0  0  0  0  0
  -32.0896  -19.8623   20.4857 H   0  0  0  0  0  0
  -32.1089  -17.4515   20.7385 H   0  0  0  0  0  0
  -27.8097  -17.4345   20.8391 H   0  0  0  0  0  0
  -28.4154  -22.2081   19.4703 H   0  0  0  0  0  0
  -31.6545  -23.7682   22.8244 H   0  0  0  0  0  0
  -31.9737  -23.6620   21.0947 H   0  0  0  0  0  0
  -30.2782  -21.7794   22.7999 H   0  0  0  0  0  0
  -31.7451  -21.4197   21.9334 H   0  0  0  0  0  0
  -27.6311  -17.9040   23.1457 H   0  0  0  0  0  0
  -28.0645  -17.8942   24.8455 H   0  0  0  0  0  0
  -27.2355  -16.5196   24.1366 H   0  0  0  0  0  0
  -27.1390  -24.7677   20.4216 H   0  0  0  0  0  0
  -27.9730  -24.8374   18.8828 H   0  0  0  0  0  0
  -29.7171  -16.1592   24.5559 H   0  0  0  0  0  0
  -30.1177  -17.3682   23.3986 H   0  0  0  0  0  0
  -28.1997  -15.3391   22.3481 H   0  0  0  0  0  0
  -29.6733  -14.6125   22.9940 H   0  0  0  0  0  0
  1 25  1  0  0  0
  1 30  2  0  0  0
  1 87  1  0  0  0
  2  3  1  0  0  0
  2 25  1  0  0  0
  2 90  1  0  0  0
  2 91  1  0  0  0
  3  4  1  0  0  0
  3 92  1  0  0  0
  3 93  1  0  0  0
  4  5  1  0  0  0
  4 94  1  0  0  0
  4 95  1  0  0  0
  5  6  1  0  0  0
  5 26  1  0  0  0
  5 96  1  0  0  0
  6 25  1  0  0  0
  6 97  1  0  0  0
  6 98  1  0  0  0
  7  8  2  0  0  0
  7 26  1  0  0  0
  7 29  1  0  0  0
  8  9  1  0  0  0
  8 22  1  0  0  0
  9 10  1  0  0  0
  9 27  2  0  0  0
 10 11  2  0  0  0
 10 15  1  0  0  0
 11 12  1  0  0  0
 11 99  1  0  0  0
 12 13  2  0  0  0
 12100  1  0  0  0
 13 14  1  0  0  0
 13 31  1  0  0  0
 14 15  2  0  0  0
 14101  1  0  0  0
 15102  1  0  0  0
 16 17  2  0  0  0
 16 21  1  0  0  0
 16 31  1  0  0  0
 17 18  1  0  0  0
 17103  1  0  0  0
 18 19  2  0  0  0
 18104  1  0  0  0
 19 20  1  0  0  0
 19 24  1  0  0  0
 20 21  2  0  0  0
 20105  1  0  0  0
 21 23  1  0  0  0
 22 28  1  0  0  0
 22 32  2  0  0  0
 26 27  1  0  0  0
 28106  1  0  0  0
 28107  1  0  0  0
 29108  1  0  0  0
 29109  1  0  0  0
 33 34  1  0  0  0
 33 66  1  0  0  0
 33 70  2  0  0  0
 34 36  1  0  0  0
 34 59  1  0  0  0
 34110  1  0  0  0
 35 44  2  0  0  0
 35 45  1  0  0  0
 35 68  1  0  0  0
 36 56  1  0  0  0
 36111  1  0  0  0
 37 39  1  0  0  0
 37 47  1  0  0  0
 37 66  1  0  0  0
 37112  1  0  0  0
 38 43  2  0  0  0
 38 46  1  0  0  0
 38 47  1  0  0  0
 39 64  1  0  0  0
 39 67  2  0  0  0
 40 52  1  0  0  0
 40 53  2  0  0  0
 40 58  1  0  0  0
 41113  1  0  0  0
 41114  1  0  0  0
 41115  1  0  0  0
 41 48  1  0  0  0
 42 43  1  0  0  0
 42 66  1  0  0  0
 42116  1  0  0  0
 42117  1  0  0  0
 43 44  1  0  0  0
 44118  1  0  0  0
 45 46  2  0  0  0
 45119  1  0  0  0
 46120  1  0  0  0
 47121  1  0  0  0
 47122  1  0  0  0
 48 56  1  0  0  0
 48 65  1  0  0  0
 48123  1  0  0  0
 49 50  1  0  0  0
 49 53  1  0  0  0
 49 64  1  0  0  0
 49124  1  0  0  0
 50 51  1  0  0  0
 50125  1  0  0  0
 50126  1  0  0  0
 51 52  1  0  0  0
 51127  1  0  0  0
 51128  1  0  0  0
 52129  1  0  0  0
 52130  1  0  0  0
 53 54  1  0  0  0
 54 55  2  0  0  0
 54131  1  0  0  0
 55 57  1  0  0  0
 55132  1  0  0  0
 56 69  2  0  0  0
 57 58  2  0  0  0
 57133  1  0  0  0
 58134  1  0  0  0
 59 60  1  0  0  0
 59 61  1  0  0  0
 59 62  1  0  0  0
 60135  1  0  0  0
 60136  1  0  0  0
 60137  1  0  0  0
 61138  1  0  0  0
 61139  1  0  0  0
 61140  1  0  0  0
 62141  1  0  0  0
 62142  1  0  0  0
 62143  1  0  0  0
 63 65  1  0  0  0
 63144  1  0  0  0
 63145  1  0  0  0
 63146  1  0  0  0
 64147  1  0  0  0
 65148  1  0  0  0
 68 83  1  0  0  0
 71 72  2  0  0  0
 71 74  1  0  0  0
 71149  1  0  0  0
 72 75  1  0  0  0
 72150  1  0  0  0
 73 75  2  0  0  0
 73 76  1  0  0  0
 73151  1  0  0  0
 74 76  2  0  0  0
 74 86  1  0  0  0
 75 87  1  0  0  0
 76 89  1  0  0  0
 77 78  2  0  0  0
 77 86  1  0  0  0
 77152  1  0  0  0
 78 79  1  0  0  0
 78 83  1  0  0  0
 79 80  1  0  0  0
 79 88  2  0  0  0
 80 81  1  0  0  0
 80153  1  0  0  0
 80154  1  0  0  0
 81 86  1  0  0  0
 81155  1  0  0  0
 81156  1  0  0  0
 82 84  1  0  0  0
 82157  1  0  0  0
 82158  1  0  0  0
 82159  1  0  0  0
 83160  1  0  0  0
 83161  1  0  0  0
 84 85  1  0  0  0
 84162  1  0  0  0
 84163  1  0  0  0
 85 87  1  0  0  0
 85164  1  0  0  0
 85165  1  0  0  0
M  ISO  4   1 100  68 101  83 101  87 100
M  END
> <chiral flag>
0

> <version>
0

> <s_m_source_file>
/data/baiqing/PycharmProjects/Reinvent-master-3.2/result/LINK_invent/BTK/process_docking_weight1_custom_product_contain_oxygen_bond_distance_aromatic_linkinvent_7_9_3/rearranged_h_0093.sdf

> <i_m_source_file_index>
95

> <r_mmod_Potential_Energy-OPLS-2005>
372.939758300781

> <r_mmod_Stretch_Energy-OPLS-2005>
106.98902130127

> <r_mmod_Bend_Energy-OPLS-2005>
159.647323608398

> <r_mmod_Torsional_Energy-OPLS-2005>
313.109222412109

> <r_mmod_Improper_Torsional_Energy-OPLS-2005>
6.2345871925354

> <r_mmod_Van_der_Waal_Energy-OPLS-2005>
177.020126342773

> <r_mmod_Electrostatic_Energy-OPLS-2005>
-237.055450439453

> <r_mmod_Solvation_Energy-OPLS-2005>
-207.457397460938

> <b_mmod_Minimization_Converged-OPLS-2005>
0

> <r_mmod_RMS_Derivative-OPLS-2005>
5.19648313522339

$$$$
96
                    3D
 Structure written by MMmdl.
158167  0  0  1  0            999 V2000
  -30.6646  -14.6398   20.5892 C   0  0  0  0  0  0
  -30.4334  -12.4176   19.4589 C   0  0  0  0  0  0
  -29.5089  -12.5279   18.2264 C   0  0  0  0  0  0
  -28.0318  -12.3534   18.6287 C   0  0  0  0  0  0
  -27.6515  -13.2183   19.8577 C   0  0  2  0  0  0
  -28.6866  -13.0587   20.9868 C   0  0  0  0  0  0
  -25.2551  -13.8167   20.5655 C   0  0  0  0  0  0
  -24.1826  -13.0432   20.9176 C   0  0  0  0  0  0
  -24.6393  -11.6905   20.8717 C   0  0  0  0  0  0
  -23.9062  -10.4291   21.0396 C   0  0  0  0  0  0
  -24.3616   -9.4212   21.9178 C   0  0  0  0  0  0
  -23.6291   -8.2249   22.0755 C   0  0  0  0  0  0
  -22.4273   -8.0282   21.3545 C   0  0  0  0  0  0
  -21.9902   -9.0253   20.4648 C   0  0  0  0  0  0
  -22.7230  -10.2132   20.3051 C   0  0  0  0  0  0
  -21.6853   -6.0737   22.5282 C   0  0  0  0  0  0
  -21.4017   -6.5642   23.8215 C   0  0  0  0  0  0
  -21.3658   -5.6794   24.9177 C   0  0  0  0  0  0
  -21.6043   -4.3056   24.7227 C   0  0  0  0  0  0
  -21.8820   -3.8148   23.4348 C   0  0  0  0  0  0
  -21.9193   -4.6965   22.3404 C   0  0  0  0  0  0
  -22.7852  -13.5230   21.1849 C   0  0  0  0  0  0
  -22.1658   -4.2152   21.0980 F   0  0  0  0  0  0
  -21.5625   -3.4538   25.7738 F   0  0  0  0  0  0
  -30.0086  -13.4330   20.4514 N   0  0  0  0  0  0
  -26.2971  -12.9351   20.3252 N   0  0  0  0  0  0
  -25.9314  -11.6504   20.5701 N   0  0  0  0  0  0
  -22.0498  -12.8226   22.0412 N   0  0  0  0  0  0
  -25.4259  -15.1887   20.4073 N   0  0  0  0  0  0
  -31.7626  -14.8035   20.0481 O   0  0  0  0  0  0
  -21.6636   -6.8880   21.4244 O   0  0  0  0  0  0
  -22.3535  -14.5536   20.6699 O   0  0  0  0  0  0
  -24.6279  -31.8599   23.2028 C   0  0  0  0  0  0
  -25.9124  -32.4778   23.8356 C   0  0  1  0  0  0
  -27.2219  -27.3006   20.1060 C   0  0  0  0  0  0
  -25.5939  -33.8580   24.2279 N   0  0  0  0  0  0
  -23.4213  -30.4855   21.5468 C   0  0  2  0  0  0
  -24.8652  -28.9408   20.1117 C   0  0  0  0  0  0
  -22.7480  -29.4626   22.4935 C   0  0  0  0  0  0
  -18.0289  -28.1385   22.8489 C   0  0  0  0  0  0
  -24.1487  -36.7292   23.2639 C   0  0  0  0  0  0
  -25.9655  -30.7826   21.3788 C   0  0  0  0  0  0
  -26.0353  -29.4096   20.7189 C   0  0  0  0  0  0
  -27.2114  -28.5997   20.7101 C   0  0  0  0  0  0
  -26.0206  -26.8930   19.4757 C   0  0  0  0  0  0
  -24.8608  -27.6884   19.4845 C   0  0  0  0  0  0
  -23.6359  -29.8241   20.1613 C   0  0  0  0  0  0
  -25.4114  -36.3086   24.0329 C   0  0  1  0  0  0
  -20.5890  -28.3691   23.1282 C   0  0  2  0  0  0
  -20.6777  -26.9415   22.5408 C   0  0  0  0  0  0
  -19.5752  -26.6385   21.5213 C   0  0  0  0  0  0
  -18.1932  -26.7929   22.1626 C   0  0  0  0  0  0
  -19.1542  -28.8854   23.2881 C   0  0  0  0  0  0
  -18.9464  -30.1454   23.8900 C   0  0  0  0  0  0
  -17.6463  -30.6588   24.0563 C   0  0  0  0  0  0
  -25.9053  -34.9454   23.5103 C   0  0  0  0  0  0
  -16.5354  -29.9087   23.6329 C   0  0  0  0  0  0
  -16.7275  -28.6503   23.0354 C   0  0  0  0  0  0
  -26.4497  -31.6593   25.0734 C   0  0  0  0  0  0
  -25.3720  -31.3746   26.1457 C   0  0  0  0  0  0
  -27.0349  -30.3016   24.6212 C   0  0  0  0  0  0
  -27.6045  -32.4342   25.7511 C   0  0  0  0  0  0
  -27.5576  -37.1804   24.8466 C   0  0  0  0  0  0
  -21.4192  -29.3045   22.3673 N   0  0  0  0  0  0
  -26.4292  -37.3778   23.9404 N   0  0  0  0  0  0
  -24.6907  -31.0593   22.0994 N   0  0  0  0  0  0
  -23.4201  -28.8162   23.3013 O   0  0  0  0  0  0
  -28.3605  -26.4707   20.1703 O   0  0  0  0  0  0
  -26.5617  -34.8920   22.4666 O   0  0  0  0  0  0
  -23.5438  -32.1411   23.7344 O   0  0  0  0  0  0
  -28.6827  -19.1975   20.5497 C   0  0  0  0  0  0
  -28.7703  -17.7725   20.6744 C   0  0  0  0  0  0
  -31.0607  -19.3401   20.7961 C   0  0  0  0  0  0
  -29.8243  -20.0422   20.6503 C   0  0  0  0  0  0
  -30.0039  -17.0909   20.8790 C   0  0  0  0  0  0
  -31.1544  -17.9222   20.9218 C   0  0  0  0  0  0
  -30.6185  -22.3726   21.2433 C   0  0  0  0  0  0
  -30.2690  -23.8526   21.0478 C   0  0  0  0  0  0
  -28.6661  -22.3723   20.0478 C   0  0  0  0  0  0
  -28.8114  -23.8580   20.5899 C   0  0  2  0  0  0
  -29.8326  -15.4870   22.7112 C   0  0  0  0  0  0
  -28.3945  -25.0767   19.6445 C   0  0  0  0  0  0
  -29.7418  -21.5270   20.6483 N   0  0  0  0  0  0
  -30.0403  -15.6722   21.2689 N   0  0  0  0  0  0
  -31.6081  -22.0520   21.9078 O   0  0  0  0  0  0
  -32.3697  -17.3770   21.1671 F   0  0  0  0  0  0
  -31.4749  -12.5387   19.1569 H   0  0  0  0  0  0
  -30.3723  -11.4187   19.8941 H   0  0  0  0  0  0
  -29.7833  -11.7811   17.4801 H   0  0  0  0  0  0
  -29.6471  -13.5003   17.7513 H   0  0  0  0  0  0
  -27.8724  -11.2987   18.8555 H   0  0  0  0  0  0
  -27.3792  -12.5856   17.7864 H   0  0  0  0  0  0
  -27.6765  -14.2581   19.5311 H   0  0  0  0  0  0
  -28.7076  -12.0277   21.3432 H   0  0  0  0  0  0
  -28.3726  -13.6482   21.8425 H   0  0  0  0  0  0
  -25.2765   -9.5687   22.4745 H   0  0  0  0  0  0
  -23.9999   -7.4641   22.7475 H   0  0  0  0  0  0
  -21.0830   -8.8770   19.8955 H   0  0  0  0  0  0
  -22.3686  -10.9669   19.6156 H   0  0  0  0  0  0
  -21.2012   -7.6150   23.9719 H   0  0  0  0  0  0
  -21.1476   -6.0524   25.9080 H   0  0  0  0  0  0
  -22.0597   -2.7610   23.2847 H   0  0  0  0  0  0
  -22.4113  -11.9888   22.4804 H   0  0  0  0  0  0
  -21.1119  -13.1260   22.2621 H   0  0  0  0  0  0
  -24.6593  -15.8438   20.5159 H   0  0  0  0  0  0
  -26.2747  -15.6218   20.0685 H   0  0  0  0  0  0
  -26.7186  -32.5434   23.1093 H   0  0  0  0  0  0
  -25.0088  -33.9724   25.0427 H   0  0  0  0  0  0
  -22.7159  -31.3072   21.4057 H   0  0  0  0  0  0
  -23.3751  -35.9624   23.3311 H   0  0  0  0  0  0
  -24.3576  -36.8903   22.2051 H   0  0  0  0  0  0
  -23.7241  -37.6496   23.6656 H   0  0  0  0  0  0
  -26.1029  -31.5467   20.6123 H   0  0  0  0  0  0
  -26.8442  -30.8276   22.0106 H   0  0  0  0  0  0
  -28.1080  -28.9574   21.1969 H   0  0  0  0  0  0
  -25.9117  -25.9510   18.9685 H   0  0  0  0  0  0
  -23.9634  -27.3239   19.0040 H   0  0  0  0  0  0
  -23.7581  -30.6033   19.4080 H   0  0  0  0  0  0
  -22.7544  -29.2579   19.8550 H   0  0  0  0  0  0
  -25.1295  -36.1938   25.0823 H   0  0  0  0  0  0
  -20.9986  -28.3266   24.1401 H   0  0  0  0  0  0
  -20.5682  -26.2302   23.3608 H   0  0  0  0  0  0
  -21.6645  -26.7446   22.1199 H   0  0  0  0  0  0
  -19.6913  -25.6297   21.1242 H   0  0  0  0  0  0
  -19.6685  -27.3196   20.6743 H   0  0  0  0  0  0
  -17.4201  -26.6677   21.4028 H   0  0  0  0  0  0
  -18.0332  -26.0070   22.9022 H   0  0  0  0  0  0
  -19.7937  -30.7270   24.2275 H   0  0  0  0  0  0
  -17.5016  -31.6272   24.5160 H   0  0  0  0  0  0
  -15.5354  -30.2989   23.7653 H   0  0  0  0  0  0
  -15.8675  -28.0820   22.7073 H   0  0  0  0  0  0
  -24.5885  -30.7101   25.7793 H   0  0  0  0  0  0
  -24.8913  -32.2920   26.4865 H   0  0  0  0  0  0
  -25.8035  -30.8935   27.0243 H   0  0  0  0  0  0
  -26.2931  -29.6750   24.1242 H   0  0  0  0  0  0
  -27.4046  -29.7285   25.4725 H   0  0  0  0  0  0
  -27.8802  -30.4295   23.9445 H   0  0  0  0  0  0
  -27.2639  -33.3636   26.2086 H   0  0  0  0  0  0
  -28.3860  -32.6913   25.0351 H   0  0  0  0  0  0
  -28.0715  -31.8475   26.5432 H   0  0  0  0  0  0
  -28.2606  -38.0089   24.7506 H   0  0  0  0  0  0
  -28.1062  -36.2623   24.6311 H   0  0  0  0  0  0
  -27.2294  -37.1476   25.8870 H   0  0  0  0  0  0
  -20.9371  -29.8769   21.6884 H   0  0  0  0  0  0
  -26.0178  -38.2858   24.1396 H   0  0  0  0  0  0
  -27.7034  -19.6390   20.4323 H   0  0  0  0  0  0
  -27.8543  -17.1998   20.6665 H   0  0  0  0  0  0
  -31.9888  -19.8870   20.8559 H   0  0  0  0  0  0
  -30.9287  -24.2681   20.2857 H   0  0  0  0  0  0
  -30.4077  -24.4203   21.9680 H   0  0  0  0  0  0
  -28.7854  -22.3514   18.9633 H   0  0  0  0  0  0
  -27.6764  -21.9744   20.2722 H   0  0  0  0  0  0
  -28.1889  -23.9237   21.4839 H   0  0  0  0  0  0
  -30.4106  -16.2182   23.2783 H   0  0  0  0  0  0
  -30.1354  -14.5018   23.0735 H   0  0  0  0  0  0
  -28.7816  -15.6328   22.9627 H   0  0  0  0  0  0
  -27.4671  -24.7666   19.1811 H   0  0  0  0  0  0
  -29.0973  -25.0993   18.8115 H   0  0  0  0  0  0
  1 25  1  0  0  0
  1 30  2  0  0  0
  1 84  1  0  0  0
  2  3  1  0  0  0
  2 25  1  0  0  0
  2 87  1  0  0  0
  2 88  1  0  0  0
  3  4  1  0  0  0
  3 89  1  0  0  0
  3 90  1  0  0  0
  4  5  1  0  0  0
  4 91  1  0  0  0
  4 92  1  0  0  0
  5  6  1  0  0  0
  5 26  1  0  0  0
  5 93  1  0  0  0
  6 25  1  0  0  0
  6 94  1  0  0  0
  6 95  1  0  0  0
  7  8  2  0  0  0
  7 26  1  0  0  0
  7 29  1  0  0  0
  8  9  1  0  0  0
  8 22  1  0  0  0
  9 10  1  0  0  0
  9 27  2  0  0  0
 10 11  2  0  0  0
 10 15  1  0  0  0
 11 12  1  0  0  0
 11 96  1  0  0  0
 12 13  2  0  0  0
 12 97  1  0  0  0
 13 14  1  0  0  0
 13 31  1  0  0  0
 14 15  2  0  0  0
 14 98  1  0  0  0
 15 99  1  0  0  0
 16 17  2  0  0  0
 16 21  1  0  0  0
 16 31  1  0  0  0
 17 18  1  0  0  0
 17100  1  0  0  0
 18 19  2  0  0  0
 18101  1  0  0  0
 19 20  1  0  0  0
 19 24  1  0  0  0
 20 21  2  0  0  0
 20102  1  0  0  0
 21 23  1  0  0  0
 22 28  1  0  0  0
 22 32  2  0  0  0
 26 27  1  0  0  0
 28103  1  0  0  0
 28104  1  0  0  0
 29105  1  0  0  0
 29106  1  0  0  0
 33 34  1  0  0  0
 33 66  1  0  0  0
 33 70  2  0  0  0
 34 36  1  0  0  0
 34 59  1  0  0  0
 34107  1  0  0  0
 35 44  2  0  0  0
 35 45  1  0  0  0
 35 68  1  0  0  0
 36 56  1  0  0  0
 36108  1  0  0  0
 37 39  1  0  0  0
 37 47  1  0  0  0
 37 66  1  0  0  0
 37109  1  0  0  0
 38 43  2  0  0  0
 38 46  1  0  0  0
 38 47  1  0  0  0
 39 64  1  0  0  0
 39 67  2  0  0  0
 40 52  1  0  0  0
 40 53  2  0  0  0
 40 58  1  0  0  0
 41110  1  0  0  0
 41111  1  0  0  0
 41112  1  0  0  0
 41 48  1  0  0  0
 42 43  1  0  0  0
 42 66  1  0  0  0
 42113  1  0  0  0
 42114  1  0  0  0
 43 44  1  0  0  0
 44115  1  0  0  0
 45 46  2  0  0  0
 45116  1  0  0  0
 46117  1  0  0  0
 47118  1  0  0  0
 47119  1  0  0  0
 48 56  1  0  0  0
 48 65  1  0  0  0
 48120  1  0  0  0
 49 50  1  0  0  0
 49 53  1  0  0  0
 49 64  1  0  0  0
 49121  1  0  0  0
 50 51  1  0  0  0
 50122  1  0  0  0
 50123  1  0  0  0
 51 52  1  0  0  0
 51124  1  0  0  0
 51125  1  0  0  0
 52126  1  0  0  0
 52127  1  0  0  0
 53 54  1  0  0  0
 54 55  2  0  0  0
 54128  1  0  0  0
 55 57  1  0  0  0
 55129  1  0  0  0
 56 69  2  0  0  0
 57 58  2  0  0  0
 57130  1  0  0  0
 58131  1  0  0  0
 59 60  1  0  0  0
 59 61  1  0  0  0
 59 62  1  0  0  0
 60132  1  0  0  0
 60133  1  0  0  0
 60134  1  0  0  0
 61135  1  0  0  0
 61136  1  0  0  0
 61137  1  0  0  0
 62138  1  0  0  0
 62139  1  0  0  0
 62140  1  0  0  0
 63 65  1  0  0  0
 63141  1  0  0  0
 63142  1  0  0  0
 63143  1  0  0  0
 64144  1  0  0  0
 65145  1  0  0  0
 68 82  1  0  0  0
 71 72  2  0  0  0
 71 74  1  0  0  0
 71146  1  0  0  0
 72 75  1  0  0  0
 72147  1  0  0  0
 73 74  2  0  0  0
 73 76  1  0  0  0
 73148  1  0  0  0
 74 83  1  0  0  0
 75 76  2  0  0  0
 75 84  1  0  0  0
 76 86  1  0  0  0
 77 78  1  0  0  0
 77 83  1  0  0  0
 77 85  2  0  0  0
 78 80  1  0  0  0
 78149  1  0  0  0
 78150  1  0  0  0
 79 80  1  0  0  0
 79 83  1  0  0  0
 79151  1  0  0  0
 79152  1  0  0  0
 80 82  1  0  0  0
 80153  1  0  0  0
 81 84  1  0  0  0
 81154  1  0  0  0
 81155  1  0  0  0
 81156  1  0  0  0
 82157  1  0  0  0
 82158  1  0  0  0
M  ISO  4   1 100  68 101  82 101  84 100
M  END
> <chiral flag>
0

> <version>
0

> <s_m_source_file>
/data/baiqing/PycharmProjects/Reinvent-master-3.2/result/LINK_invent/BTK/process_docking_weight1_custom_product_contain_oxygen_bond_distance_aromatic_linkinvent_7_9_3/rearranged_h_0093.sdf

> <i_m_source_file_index>
96

> <r_mmod_Potential_Energy-OPLS-2005>
314.89111328125

> <r_mmod_Stretch_Energy-OPLS-2005>
94.3380737304688

> <r_mmod_Bend_Energy-OPLS-2005>
182.132202148438

> <r_mmod_Torsional_Energy-OPLS-2005>
355.532165527344

> <r_mmod_Improper_Torsional_Energy-OPLS-2005>
5.31992673873901

> <r_mmod_Van_der_Waal_Energy-OPLS-2005>
149.586166381836

> <r_mmod_Electrostatic_Energy-OPLS-2005>
-307.474731445312

> <r_mmod_Solvation_Energy-OPLS-2005>
-213.20622253418

> <b_mmod_Minimization_Converged-OPLS-2005>
0

> <r_mmod_RMS_Derivative-OPLS-2005>
0.646179616451263

$$$$
97
                    3D
 Structure written by MMmdl.
152160  0  0  1  0            999 V2000
  -30.7065  -14.6524   20.4693 C   0  0  0  0  0  0
  -30.4061  -12.4009   19.4638 C   0  0  0  0  0  0
  -29.4938  -12.4931   18.2257 C   0  0  0  0  0  0
  -28.0208  -12.3371   18.6435 C   0  0  0  0  0  0
  -27.6392  -13.2375   19.8498 C   0  0  2  0  0  0
  -28.6878  -13.1768   20.9826 C   0  0  0  0  0  0
  -25.2493  -13.8219   20.5722 C   0  0  0  0  0  0
  -24.1785  -13.0447   20.9205 C   0  0  0  0  0  0
  -24.6393  -11.6931   20.8753 C   0  0  0  0  0  0
  -23.9076  -10.4298   21.0405 C   0  0  0  0  0  0
  -24.3625   -9.4213   21.9184 C   0  0  0  0  0  0
  -23.6299   -8.2248   22.0753 C   0  0  0  0  0  0
  -22.4280   -8.0286   21.3545 C   0  0  0  0  0  0
  -21.9917   -9.0258   20.4646 C   0  0  0  0  0  0
  -22.7248  -10.2136   20.3053 C   0  0  0  0  0  0
  -21.6856   -6.0739   22.5279 C   0  0  0  0  0  0
  -21.4015   -6.5644   23.8211 C   0  0  0  0  0  0
  -21.3661   -5.6795   24.9174 C   0  0  0  0  0  0
  -21.6043   -4.3057   24.7223 C   0  0  0  0  0  0
  -21.8820   -3.8148   23.4345 C   0  0  0  0  0  0
  -21.9194   -4.6965   22.3403 C   0  0  0  0  0  0
  -22.7805  -13.5216   21.1864 C   0  0  0  0  0  0
  -22.1662   -4.2152   21.0981 F   0  0  0  0  0  0
  -21.5629   -3.4539   25.7736 F   0  0  0  0  0  0
  -29.9937  -13.4811   20.3886 N   0  0  0  0  0  0
  -26.2934  -12.9445   20.3323 N   0  0  0  0  0  0
  -25.9329  -11.6577   20.5780 N   0  0  0  0  0  0
  -22.0458  -12.8199   22.0419 N   0  0  0  0  0  0
  -25.4169  -15.1946   20.4185 N   0  0  0  0  0  0
  -31.9007  -14.6235   20.1640 O   0  0  0  0  0  0
  -21.6645   -6.8881   21.4240 O   0  0  0  0  0  0
  -22.3479  -14.5523   20.6718 O   0  0  0  0  0  0
  -24.6258  -31.8601   23.2034 C   0  0  0  0  0  0
  -25.9110  -32.4778   23.8358 C   0  0  1  0  0  0
  -27.2129  -27.3221   20.1247 C   0  0  0  0  0  0
  -25.5931  -33.8579   24.2290 N   0  0  0  0  0  0
  -23.4187  -30.4848   21.5456 C   0  0  2  0  0  0
  -24.8653  -28.9425   20.1084 C   0  0  0  0  0  0
  -22.7469  -29.4630   22.4937 C   0  0  0  0  0  0
  -18.0284  -28.1384   22.8491 C   0  0  0  0  0  0
  -24.1490  -36.7290   23.2636 C   0  0  0  0  0  0
  -25.9595  -30.7937   21.3728 C   0  0  0  0  0  0
  -26.0344  -29.4213   20.7158 C   0  0  0  0  0  0
  -27.2160  -28.6221   20.7150 C   0  0  0  0  0  0
  -26.0314  -26.9016   19.4790 C   0  0  0  0  0  0
  -24.8655  -27.6881   19.4790 C   0  0  0  0  0  0
  -23.6327  -29.8213   20.1598 C   0  0  0  0  0  0
  -25.4109  -36.3081   24.0334 C   0  0  1  0  0  0
  -20.5884  -28.3689   23.1284 C   0  0  2  0  0  0
  -20.6776  -26.9414   22.5409 C   0  0  0  0  0  0
  -19.5752  -26.6387   21.5213 C   0  0  0  0  0  0
  -18.1931  -26.7930   22.1625 C   0  0  0  0  0  0
  -19.1537  -28.8853   23.2884 C   0  0  0  0  0  0
  -18.9459  -30.1457   23.8898 C   0  0  0  0  0  0
  -17.6459  -30.6589   24.0565 C   0  0  0  0  0  0
  -25.9050  -34.9452   23.5110 C   0  0  0  0  0  0
  -16.5350  -29.9087   23.6333 C   0  0  0  0  0  0
  -16.7272  -28.6503   23.0355 C   0  0  0  0  0  0
  -26.4500  -31.6579   25.0719 C   0  0  0  0  0  0
  -25.3744  -31.3710   26.1452 C   0  0  0  0  0  0
  -27.0338  -30.3004   24.6161 C   0  0  0  0  0  0
  -27.6065  -32.4308   25.7488 C   0  0  0  0  0  0
  -27.5585  -37.1789   24.8457 C   0  0  0  0  0  0
  -21.4183  -29.3043   22.3677 N   0  0  0  0  0  0
  -26.4281  -37.3782   23.9425 N   0  0  0  0  0  0
  -24.6868  -31.0622   22.0978 N   0  0  0  0  0  0
  -23.4197  -28.8167   23.3010 O   0  0  0  0  0  0
  -28.2938  -26.4347   20.1707 O   0  0  0  0  0  0
  -26.5611  -34.8920   22.4672 O   0  0  0  0  0  0
  -23.5424  -32.1394   23.7370 O   0  0  0  0  0  0
  -30.4824  -19.5218   19.8879 C   0  0  0  0  0  0
  -30.0159  -20.8679   19.8908 C   0  0  0  0  0  0
  -28.2053  -20.1798   21.3054 C   0  0  0  0  0  0
  -29.8615  -18.4555   20.6082 C   0  0  0  0  0  0
  -28.8699  -21.2464   20.6290 C   0  0  0  0  0  0
  -28.6737  -18.8226   21.3164 C   0  0  0  0  0  0
  -30.6298  -17.1072   20.6988 C   0  0  0  0  0  0
  -28.7684  -23.8437   20.2815 C   0  0  0  0  0  0
  -27.9957  -25.1231   20.8020 C   0  0  0  0  0  0
  -27.9452  -17.9028   22.0788 N   0  0  0  0  0  0
  -28.3669  -22.6203   20.7667 N   0  0  0  0  0  0
  -30.0433  -15.8539   20.6552 N   0  0  0  0  0  0
  -31.8577  -17.2431   20.7875 O   0  0  0  0  0  0
  -29.6901  -23.9734   19.4712 O   0  0  0  0  0  0
  -31.4512  -12.4698   19.1581 H   0  0  0  0  0  0
  -30.3053  -11.4277   19.9472 H   0  0  0  0  0  0
  -29.7603  -11.7235   17.5000 H   0  0  0  0  0  0
  -29.6386  -13.4523   17.7255 H   0  0  0  0  0  0
  -27.8657  -11.2891   18.9016 H   0  0  0  0  0  0
  -27.3633  -12.5411   17.7977 H   0  0  0  0  0  0
  -27.6332  -14.2592   19.4695 H   0  0  0  0  0  0
  -28.7023  -12.1904   21.4488 H   0  0  0  0  0  0
  -28.4428  -13.8885   21.7729 H   0  0  0  0  0  0
  -25.2765   -9.5694   22.4764 H   0  0  0  0  0  0
  -24.0009   -7.4639   22.7473 H   0  0  0  0  0  0
  -21.0847   -8.8780   19.8951 H   0  0  0  0  0  0
  -22.3706  -10.9676   19.6165 H   0  0  0  0  0  0
  -21.2005   -7.6153   23.9716 H   0  0  0  0  0  0
  -21.1483   -6.0524   25.9075 H   0  0  0  0  0  0
  -22.0596   -2.7610   23.2844 H   0  0  0  0  0  0
  -22.4083  -11.9858   22.4796 H   0  0  0  0  0  0
  -21.1075  -13.1216   22.2633 H   0  0  0  0  0  0
  -24.6584  -15.8514   20.5645 H   0  0  0  0  0  0
  -26.2865  -15.6508   20.1731 H   0  0  0  0  0  0
  -26.7179  -32.5459   23.1109 H   0  0  0  0  0  0
  -25.0100  -33.9721   25.0450 H   0  0  0  0  0  0
  -22.7127  -31.3057   21.4042 H   0  0  0  0  0  0
  -23.3761  -35.9610   23.3267 H   0  0  0  0  0  0
  -24.3596  -36.8936   22.2057 H   0  0  0  0  0  0
  -23.7225  -37.6477   23.6671 H   0  0  0  0  0  0
  -26.0878  -31.5572   20.6041 H   0  0  0  0  0  0
  -26.8411  -30.8438   22.0001 H   0  0  0  0  0  0
  -28.1112  -28.9791   21.2049 H   0  0  0  0  0  0
  -25.9989  -25.9393   18.9878 H   0  0  0  0  0  0
  -23.9719  -27.3180   18.9954 H   0  0  0  0  0  0
  -23.7497  -30.5988   19.4041 H   0  0  0  0  0  0
  -22.7531  -29.2497   19.8580 H   0  0  0  0  0  0
  -25.1284  -36.1926   25.0824 H   0  0  0  0  0  0
  -20.9980  -28.3262   24.1403 H   0  0  0  0  0  0
  -20.5684  -26.2297   23.3605 H   0  0  0  0  0  0
  -21.6643  -26.7450   22.1195 H   0  0  0  0  0  0
  -19.6913  -25.6298   21.1238 H   0  0  0  0  0  0
  -19.6688  -27.3200   20.6745 H   0  0  0  0  0  0
  -17.4202  -26.6681   21.4026 H   0  0  0  0  0  0
  -18.0330  -26.0069   22.9017 H   0  0  0  0  0  0
  -19.7934  -30.7274   24.2264 H   0  0  0  0  0  0
  -17.5014  -31.6268   24.5163 H   0  0  0  0  0  0
  -15.5351  -30.2989   23.7658 H   0  0  0  0  0  0
  -15.8672  -28.0822   22.7071 H   0  0  0  0  0  0
  -24.5918  -30.7057   25.7784 H   0  0  0  0  0  0
  -24.8935  -32.2872   26.4890 H   0  0  0  0  0  0
  -25.8077  -30.8882   27.0219 H   0  0  0  0  0  0
  -26.2901  -29.6754   24.1202 H   0  0  0  0  0  0
  -27.4056  -29.7261   25.4656 H   0  0  0  0  0  0
  -27.8765  -30.4288   23.9364 H   0  0  0  0  0  0
  -27.2684  -33.3619   26.2048 H   0  0  0  0  0  0
  -28.3886  -32.6844   25.0319 H   0  0  0  0  0  0
  -28.0719  -31.8439   26.5416 H   0  0  0  0  0  0
  -28.2560  -38.0130   24.7564 H   0  0  0  0  0  0
  -28.1122  -36.2664   24.6195 H   0  0  0  0  0  0
  -27.2318  -37.1330   25.8861 H   0  0  0  0  0  0
  -20.9356  -29.8764   21.6889 H   0  0  0  0  0  0
  -26.0157  -38.2846   24.1464 H   0  0  0  0  0  0
  -31.3917  -19.3146   19.3407 H   0  0  0  0  0  0
  -30.5786  -21.6090   19.3414 H   0  0  0  0  0  0
  -27.3181  -20.4214   21.8736 H   0  0  0  0  0  0
  -28.2334  -25.2264   21.8611 H   0  0  0  0  0  0
  -26.9330  -24.8829   20.7737 H   0  0  0  0  0  0
  -27.2075  -18.2743   22.6698 H   0  0  0  0  0  0
  -28.4442  -17.1572   22.5518 H   0  0  0  0  0  0
  -27.5729  -22.7022   21.3876 H   0  0  0  0  0  0
  -29.0382  -15.8319   20.6977 H   0  0  0  0  0  0
  1 25  1  0  0  0
  1 30  2  0  0  0
  1 82  1  0  0  0
  2  3  1  0  0  0
  2 25  1  0  0  0
  2 85  1  0  0  0
  2 86  1  0  0  0
  3  4  1  0  0  0
  3 87  1  0  0  0
  3 88  1  0  0  0
  4  5  1  0  0  0
  4 89  1  0  0  0
  4 90  1  0  0  0
  5  6  1  0  0  0
  5 26  1  0  0  0
  5 91  1  0  0  0
  6 25  1  0  0  0
  6 92  1  0  0  0
  6 93  1  0  0  0
  7  8  2  0  0  0
  7 26  1  0  0  0
  7 29  1  0  0  0
  8  9  1  0  0  0
  8 22  1  0  0  0
  9 10  1  0  0  0
  9 27  2  0  0  0
 10 11  2  0  0  0
 10 15  1  0  0  0
 11 12  1  0  0  0
 11 94  1  0  0  0
 12 13  2  0  0  0
 12 95  1  0  0  0
 13 14  1  0  0  0
 13 31  1  0  0  0
 14 15  2  0  0  0
 14 96  1  0  0  0
 15 97  1  0  0  0
 16 17  2  0  0  0
 16 21  1  0  0  0
 16 31  1  0  0  0
 17 18  1  0  0  0
 17 98  1  0  0  0
 18 19  2  0  0  0
 18 99  1  0  0  0
 19 20  1  0  0  0
 19 24  1  0  0  0
 20 21  2  0  0  0
 20100  1  0  0  0
 21 23  1  0  0  0
 22 28  1  0  0  0
 22 32  2  0  0  0
 26 27  1  0  0  0
 28101  1  0  0  0
 28102  1  0  0  0
 29103  1  0  0  0
 29104  1  0  0  0
 33 34  1  0  0  0
 33 66  1  0  0  0
 33 70  2  0  0  0
 34 36  1  0  0  0
 34 59  1  0  0  0
 34105  1  0  0  0
 35 44  2  0  0  0
 35 45  1  0  0  0
 35 68  1  0  0  0
 36 56  1  0  0  0
 36106  1  0  0  0
 37 39  1  0  0  0
 37 47  1  0  0  0
 37 66  1  0  0  0
 37107  1  0  0  0
 38 43  2  0  0  0
 38 46  1  0  0  0
 38 47  1  0  0  0
 39 64  1  0  0  0
 39 67  2  0  0  0
 40 52  1  0  0  0
 40 53  2  0  0  0
 40 58  1  0  0  0
 41108  1  0  0  0
 41109  1  0  0  0
 41110  1  0  0  0
 41 48  1  0  0  0
 42 43  1  0  0  0
 42 66  1  0  0  0
 42111  1  0  0  0
 42112  1  0  0  0
 43 44  1  0  0  0
 44113  1  0  0  0
 45 46  2  0  0  0
 45114  1  0  0  0
 46115  1  0  0  0
 47116  1  0  0  0
 47117  1  0  0  0
 48 56  1  0  0  0
 48 65  1  0  0  0
 48118  1  0  0  0
 49 50  1  0  0  0
 49 53  1  0  0  0
 49 64  1  0  0  0
 49119  1  0  0  0
 50 51  1  0  0  0
 50120  1  0  0  0
 50121  1  0  0  0
 51 52  1  0  0  0
 51122  1  0  0  0
 51123  1  0  0  0
 52124  1  0  0  0
 52125  1  0  0  0
 53 54  1  0  0  0
 54 55  2  0  0  0
 54126  1  0  0  0
 55 57  1  0  0  0
 55127  1  0  0  0
 56 69  2  0  0  0
 57 58  2  0  0  0
 57128  1  0  0  0
 58129  1  0  0  0
 59 60  1  0  0  0
 59 61  1  0  0  0
 59 62  1  0  0  0
 60130  1  0  0  0
 60131  1  0  0  0
 60132  1  0  0  0
 61133  1  0  0  0
 61134  1  0  0  0
 61135  1  0  0  0
 62136  1  0  0  0
 62137  1  0  0  0
 62138  1  0  0  0
 63 65  1  0  0  0
 63139  1  0  0  0
 63140  1  0  0  0
 63141  1  0  0  0
 64142  1  0  0  0
 65143  1  0  0  0
 68 79  1  0  0  0
 71 72  2  0  0  0
 71 74  1  0  0  0
 71144  1  0  0  0
 72 75  1  0  0  0
 72145  1  0  0  0
 73 75  2  0  0  0
 73 76  1  0  0  0
 73146  1  0  0  0
 74 76  2  0  0  0
 74 77  1  0  0  0
 75 81  1  0  0  0
 76 80  1  0  0  0
 77 82  1  0  0  0
 77 83  2  0  0  0
 78 79  1  0  0  0
 78 81  1  0  0  0
 78 84  2  0  0  0
 79147  1  0  0  0
 79148  1  0  0  0
 80149  1  0  0  0
 80150  1  0  0  0
 81151  1  0  0  0
 82152  1  0  0  0
M  ISO  4   1 100  68 101  79 101  82 100
M  END
> <chiral flag>
0

> <version>
0

> <s_m_source_file>
/data/baiqing/PycharmProjects/Reinvent-master-3.2/result/LINK_invent/BTK/process_docking_weight1_custom_product_contain_oxygen_bond_distance_aromatic_linkinvent_7_9_3/rearranged_h_0093.sdf

> <i_m_source_file_index>
97

> <r_mmod_Potential_Energy-OPLS-2005>
141.702117919922

> <r_mmod_Stretch_Energy-OPLS-2005>
85.5915908813477

> <r_mmod_Bend_Energy-OPLS-2005>
161.294494628906

> <r_mmod_Torsional_Energy-OPLS-2005>
252.531646728516

> <r_mmod_Improper_Torsional_Energy-OPLS-2005>
9.89860153198242

> <r_mmod_Van_der_Waal_Energy-OPLS-2005>
156.295196533203

> <r_mmod_Electrostatic_Energy-OPLS-2005>
-321.044586181641

> <r_mmod_Solvation_Energy-OPLS-2005>
-263.200653076172

> <b_mmod_Minimization_Converged-OPLS-2005>
0

> <r_mmod_RMS_Derivative-OPLS-2005>
0.502435922622681

$$$$
