0
                    3D
 Structure written by MMmdl.
159168  0  0  1  0            999 V2000
  -30.5998  -14.7108   20.5112 C   0  0  0  0  0  0
  -30.4470  -12.4422   19.4706 C   0  0  0  0  0  0
  -29.5168  -12.5232   18.2383 C   0  0  0  0  0  0
  -28.0411  -12.3456   18.6487 C   0  0  0  0  0  0
  -27.6549  -13.2233   19.8684 C   0  0  2  0  0  0
  -28.6976  -13.1033   21.0029 C   0  0  0  0  0  0
  -25.2555  -13.8164   20.5684 C   0  0  0  0  0  0
  -24.1827  -13.0420   20.9163 C   0  0  0  0  0  0
  -24.6406  -11.6900   20.8728 C   0  0  0  0  0  0
  -23.9077  -10.4279   21.0401 C   0  0  0  0  0  0
  -24.3619   -9.4191   21.9183 C   0  0  0  0  0  0
  -23.6277   -8.2237   22.0766 C   0  0  0  0  0  0
  -22.4264   -8.0286   21.3551 C   0  0  0  0  0  0
  -21.9900   -9.0264   20.4656 C   0  0  0  0  0  0
  -22.7244  -10.2129   20.3058 C   0  0  0  0  0  0
  -21.6850   -6.0729   22.5279 C   0  0  0  0  0  0
  -21.4023   -6.5640   23.8212 C   0  0  0  0  0  0
  -21.3654   -5.6791   24.9173 C   0  0  0  0  0  0
  -21.6040   -4.3055   24.7225 C   0  0  0  0  0  0
  -21.8820   -3.8146   23.4349 C   0  0  0  0  0  0
  -21.9190   -4.6956   22.3401 C   0  0  0  0  0  0
  -22.7855  -13.5222   21.1824 C   0  0  0  0  0  0
  -22.1657   -4.2140   21.0978 F   0  0  0  0  0  0
  -21.5619   -3.4541   25.7734 F   0  0  0  0  0  0
  -30.0087  -13.4686   20.4446 N   0  0  0  0  0  0
  -26.3007  -12.9366   20.3343 N   0  0  0  0  0  0
  -25.9344  -11.6516   20.5764 N   0  0  0  0  0  0
  -22.0493  -12.8231   22.0386 N   0  0  0  0  0  0
  -25.4245  -15.1886   20.4125 N   0  0  0  0  0  0
  -31.7426  -14.8845   20.0769 O   0  0  0  0  0  0
  -21.6643   -6.8878   21.4241 O   0  0  0  0  0  0
  -22.3547  -14.5530   20.6667 O   0  0  0  0  0  0
  -24.6308  -31.8575   23.2010 C   0  0  0  0  0  0
  -25.9136  -32.4772   23.8359 C   0  0  1  0  0  0
  -27.2237  -27.2733   20.1310 C   0  0  0  0  0  0
  -25.5935  -33.8575   24.2292 N   0  0  0  0  0  0
  -23.4285  -30.4814   21.5440 C   0  0  2  0  0  0
  -24.8770  -28.9359   20.1111 C   0  0  0  0  0  0
  -22.7514  -29.4617   22.4908 C   0  0  0  0  0  0
  -18.0300  -28.1402   22.8487 C   0  0  0  0  0  0
  -24.1488  -36.7288   23.2640 C   0  0  0  0  0  0
  -25.9742  -30.7755   21.3817 C   0  0  0  0  0  0
  -26.0489  -29.3995   20.7227 C   0  0  0  0  0  0
  -27.2240  -28.5819   20.7217 C   0  0  0  0  0  0
  -26.0248  -26.8828   19.4847 C   0  0  0  0  0  0
  -24.8701  -27.6837   19.4822 C   0  0  0  0  0  0
  -23.6489  -29.8218   20.1582 C   0  0  0  0  0  0
  -25.4114  -36.3085   24.0336 C   0  0  1  0  0  0
  -20.5903  -28.3716   23.1264 C   0  0  2  0  0  0
  -20.6798  -26.9432   22.5412 C   0  0  0  0  0  0
  -19.5773  -26.6394   21.5221 C   0  0  0  0  0  0
  -18.1948  -26.7941   22.1626 C   0  0  0  0  0  0
  -19.1553  -28.8874   23.2867 C   0  0  0  0  0  0
  -18.9470  -30.1469   23.8895 C   0  0  0  0  0  0
  -17.6472  -30.6597   24.0565 C   0  0  0  0  0  0
  -25.9050  -34.9449   23.5117 C   0  0  0  0  0  0
  -16.5361  -29.9098   23.6334 C   0  0  0  0  0  0
  -16.7284  -28.6515   23.0349 C   0  0  0  0  0  0
  -26.4509  -31.6573   25.0734 C   0  0  0  0  0  0
  -25.3733  -31.3713   26.1454 C   0  0  0  0  0  0
  -27.0369  -30.2994   24.6205 C   0  0  0  0  0  0
  -27.6075  -32.4299   25.7500 C   0  0  0  0  0  0
  -27.5581  -37.1806   24.8467 C   0  0  0  0  0  0
  -21.4218  -29.3056   22.3648 N   0  0  0  0  0  0
  -26.4297  -37.3778   23.9403 N   0  0  0  0  0  0
  -24.6972  -31.0550   22.0987 N   0  0  0  0  0  0
  -23.4208  -28.8151   23.3011 O   0  0  0  0  0  0
  -28.3157  -26.3732   20.2033 O   0  0  0  0  0  0
  -26.5615  -34.8917   22.4682 O   0  0  0  0  0  0
  -23.5455  -32.1397   23.7296 O   0  0  0  0  0  0
  -28.8190  -17.5134   19.5937 C   0  0  0  0  0  0
  -28.5917  -18.9404   19.5304 C   0  0  0  0  0  0
  -29.2925  -19.7376   20.4240 C   0  0  0  0  0  0
  -29.6750  -17.0790   20.5812 C   0  0  0  0  0  0
  -27.5917  -19.4207   18.5777 C   0  0  0  0  0  0
  -29.3993  -23.3346   21.7569 C   0  0  0  0  0  0
  -29.9353  -21.8689   21.7515 C   0  0  0  0  0  0
  -28.6118  -22.2409   19.8156 C   0  0  0  0  0  0
  -29.0600  -23.6892   20.2960 C   0  0  1  0  0  0
  -28.0296  -24.9098   20.0287 C   0  0  0  0  0  0
  -29.3094  -21.1907   20.6187 N   0  0  0  0  0  0
  -27.7320  -19.1582   17.2737 N   0  0  0  0  0  0
  -29.8331  -15.7492   20.9997 N   0  0  0  0  0  0
  -26.4945  -20.0568   19.0041 N   0  3  0  0  0  0
  -30.2525  -18.5703   21.4069 S   0  0  0  0  0  0
  -31.4857  -12.5827   19.1662 H   0  0  0  0  0  0
  -30.4043  -11.4498   19.9219 H   0  0  0  0  0  0
  -29.7936  -11.7626   17.5059 H   0  0  0  0  0  0
  -29.6483  -13.4877   17.7442 H   0  0  0  0  0  0
  -27.8925  -11.2928   18.8930 H   0  0  0  0  0  0
  -27.3851  -12.5595   17.8032 H   0  0  0  0  0  0
  -27.6654  -14.2553   19.5158 H   0  0  0  0  0  0
  -28.7235  -12.0852   21.3946 H   0  0  0  0  0  0
  -28.4261  -13.7378   21.8477 H   0  0  0  0  0  0
  -25.2758   -9.5668   22.4765 H   0  0  0  0  0  0
  -23.9976   -7.4638   22.7502 H   0  0  0  0  0  0
  -21.0820   -8.8792   19.8970 H   0  0  0  0  0  0
  -22.3699  -10.9678   19.6176 H   0  0  0  0  0  0
  -21.2037   -7.6150   23.9709 H   0  0  0  0  0  0
  -21.1469   -6.0527   25.9071 H   0  0  0  0  0  0
  -22.0602   -2.7606   23.2855 H   0  0  0  0  0  0
  -22.4089  -11.9886   22.4788 H   0  0  0  0  0  0
  -21.1131  -13.1305   22.2603 H   0  0  0  0  0  0
  -24.6560  -15.8394   20.5352 H   0  0  0  0  0  0
  -26.2757  -15.6361   20.1014 H   0  0  0  0  0  0
  -26.7205  -32.5430   23.1106 H   0  0  0  0  0  0
  -25.0088  -33.9712   25.0443 H   0  0  0  0  0  0
  -22.7244  -31.3033   21.3997 H   0  0  0  0  0  0
  -23.3757  -35.9613   23.3309 H   0  0  0  0  0  0
  -24.3581  -36.8903   22.2052 H   0  0  0  0  0  0
  -23.7229  -37.6491   23.6655 H   0  0  0  0  0  0
  -26.1109  -31.5407   20.6160 H   0  0  0  0  0  0
  -26.8536  -30.8241   22.0130 H   0  0  0  0  0  0
  -28.1196  -28.9307   21.2164 H   0  0  0  0  0  0
  -25.9378  -25.9321   18.9822 H   0  0  0  0  0  0
  -23.9756  -27.3234   18.9934 H   0  0  0  0  0  0
  -23.7747  -30.6034   19.4080 H   0  0  0  0  0  0
  -22.7680  -29.2587   19.8467 H   0  0  0  0  0  0
  -25.1289  -36.1959   25.0829 H   0  0  0  0  0  0
  -20.9988  -28.3310   24.1383 H   0  0  0  0  0  0
  -20.5723  -26.2326   23.3615 H   0  0  0  0  0  0
  -21.6662  -26.7477   22.1185 H   0  0  0  0  0  0
  -19.6939  -25.6303   21.1252 H   0  0  0  0  0  0
  -19.6709  -27.3203   20.6743 H   0  0  0  0  0  0
  -17.4216  -26.6680   21.4022 H   0  0  0  0  0  0
  -18.0345  -26.0085   22.9023 H   0  0  0  0  0  0
  -19.7942  -30.7285   24.2259 H   0  0  0  0  0  0
  -17.5023  -31.6271   24.5174 H   0  0  0  0  0  0
  -15.5359  -30.2998   23.7659 H   0  0  0  0  0  0
  -15.8680  -28.0832   22.7064 H   0  0  0  0  0  0
  -24.5912  -30.7056   25.7778 H   0  0  0  0  0  0
  -24.8913  -32.2874   26.4865 H   0  0  0  0  0  0
  -25.8048  -30.8898   27.0235 H   0  0  0  0  0  0
  -26.2960  -29.6725   24.1227 H   0  0  0  0  0  0
  -27.4068  -29.7259   25.4711 H   0  0  0  0  0  0
  -27.8825  -30.4275   23.9446 H   0  0  0  0  0  0
  -27.2701  -33.3601   26.2074 H   0  0  0  0  0  0
  -28.3888  -32.6848   25.0331 H   0  0  0  0  0  0
  -28.0739  -31.8421   26.5413 H   0  0  0  0  0  0
  -28.2608  -38.0095   24.7511 H   0  0  0  0  0  0
  -28.1076  -36.2629   24.6309 H   0  0  0  0  0  0
  -27.2298  -37.1469   25.8871 H   0  0  0  0  0  0
  -20.9409  -29.8762   21.6834 H   0  0  0  0  0  0
  -26.0190  -38.2862   24.1401 H   0  0  0  0  0  0
  -28.2627  -16.8515   18.9464 H   0  0  0  0  0  0
  -30.1173  -24.0294   22.1955 H   0  0  0  0  0  0
  -28.4907  -23.3870   22.3596 H   0  0  0  0  0  0
  -29.7145  -21.3687   22.6961 H   0  0  0  0  0  0
  -31.0190  -21.8624   21.6186 H   0  0  0  0  0  0
  -28.7862  -22.1103   18.7469 H   0  0  0  0  0  0
  -27.5396  -22.1563   19.9873 H   0  0  0  0  0  0
  -29.9917  -23.9260   19.7818 H   0  0  0  0  0  0
  -27.1323  -24.6795   20.6055 H   0  0  0  0  0  0
  -27.7504  -24.7970   18.9809 H   0  0  0  0  0  0
  -27.0718  -19.4451   16.5704 H   0  0  0  0  0  0
  -28.5557  -18.6719   16.9548 H   0  0  0  0  0  0
  -29.0077  -15.3807   21.4482 H   0  0  0  0  0  0
  -26.3615  -20.1838   19.9969 H   0  0  0  0  0  0
  -25.7613  -20.3749   18.3910 H   0  0  0  0  0  0
  1 25  1  0  0  0
  1 30  2  0  0  0
  1 83  1  0  0  0
  2  3  1  0  0  0
  2 25  1  0  0  0
  2 86  1  0  0  0
  2 87  1  0  0  0
  3  4  1  0  0  0
  3 88  1  0  0  0
  3 89  1  0  0  0
  4  5  1  0  0  0
  4 90  1  0  0  0
  4 91  1  0  0  0
  5  6  1  0  0  0
  5 26  1  0  0  0
  5 92  1  0  0  0
  6 25  1  0  0  0
  6 93  1  0  0  0
  6 94  1  0  0  0
  7  8  2  0  0  0
  7 26  1  0  0  0
  7 29  1  0  0  0
  8  9  1  0  0  0
  8 22  1  0  0  0
  9 10  1  0  0  0
  9 27  2  0  0  0
 10 11  2  0  0  0
 10 15  1  0  0  0
 11 12  1  0  0  0
 11 95  1  0  0  0
 12 13  2  0  0  0
 12 96  1  0  0  0
 13 14  1  0  0  0
 13 31  1  0  0  0
 14 15  2  0  0  0
 14 97  1  0  0  0
 15 98  1  0  0  0
 16 17  2  0  0  0
 16 21  1  0  0  0
 16 31  1  0  0  0
 17 18  1  0  0  0
 17 99  1  0  0  0
 18 19  2  0  0  0
 18100  1  0  0  0
 19 20  1  0  0  0
 19 24  1  0  0  0
 20 21  2  0  0  0
 20101  1  0  0  0
 21 23  1  0  0  0
 22 28  1  0  0  0
 22 32  2  0  0  0
 26 27  1  0  0  0
 28102  1  0  0  0
 28103  1  0  0  0
 29104  1  0  0  0
 29105  1  0  0  0
 33 34  1  0  0  0
 33 66  1  0  0  0
 33 70  2  0  0  0
 34 36  1  0  0  0
 34 59  1  0  0  0
 34106  1  0  0  0
 35 44  2  0  0  0
 35 45  1  0  0  0
 35 68  1  0  0  0
 36 56  1  0  0  0
 36107  1  0  0  0
 37 39  1  0  0  0
 37 47  1  0  0  0
 37 66  1  0  0  0
 37108  1  0  0  0
 38 43  2  0  0  0
 38 46  1  0  0  0
 38 47  1  0  0  0
 39 64  1  0  0  0
 39 67  2  0  0  0
 40 52  1  0  0  0
 40 53  2  0  0  0
 40 58  1  0  0  0
 41109  1  0  0  0
 41110  1  0  0  0
 41111  1  0  0  0
 41 48  1  0  0  0
 42 43  1  0  0  0
 42 66  1  0  0  0
 42112  1  0  0  0
 42113  1  0  0  0
 43 44  1  0  0  0
 44114  1  0  0  0
 45 46  2  0  0  0
 45115  1  0  0  0
 46116  1  0  0  0
 47117  1  0  0  0
 47118  1  0  0  0
 48 56  1  0  0  0
 48 65  1  0  0  0
 48119  1  0  0  0
 49 50  1  0  0  0
 49 53  1  0  0  0
 49 64  1  0  0  0
 49120  1  0  0  0
 50 51  1  0  0  0
 50121  1  0  0  0
 50122  1  0  0  0
 51 52  1  0  0  0
 51123  1  0  0  0
 51124  1  0  0  0
 52125  1  0  0  0
 52126  1  0  0  0
 53 54  1  0  0  0
 54 55  2  0  0  0
 54127  1  0  0  0
 55 57  1  0  0  0
 55128  1  0  0  0
 56 69  2  0  0  0
 57 58  2  0  0  0
 57129  1  0  0  0
 58130  1  0  0  0
 59 60  1  0  0  0
 59 61  1  0  0  0
 59 62  1  0  0  0
 60131  1  0  0  0
 60132  1  0  0  0
 60133  1  0  0  0
 61134  1  0  0  0
 61135  1  0  0  0
 61136  1  0  0  0
 62137  1  0  0  0
 62138  1  0  0  0
 62139  1  0  0  0
 63 65  1  0  0  0
 63140  1  0  0  0
 63141  1  0  0  0
 63142  1  0  0  0
 64143  1  0  0  0
 65144  1  0  0  0
 68 80  1  0  0  0
 71 72  1  0  0  0
 71 74  2  0  0  0
 71145  1  0  0  0
 72 73  2  0  0  0
 72 75  1  0  0  0
 73 81  1  0  0  0
 73 85  1  0  0  0
 74 83  1  0  0  0
 74 85  1  0  0  0
 75 82  1  0  0  0
 75 84  2  0  0  0
 76 77  1  0  0  0
 76 79  1  0  0  0
 76146  1  0  0  0
 76147  1  0  0  0
 77 81  1  0  0  0
 77148  1  0  0  0
 77149  1  0  0  0
 78 79  1  0  0  0
 78 81  1  0  0  0
 78150  1  0  0  0
 78151  1  0  0  0
 79 80  1  0  0  0
 79152  1  0  0  0
 80153  1  0  0  0
 80154  1  0  0  0
 82155  1  0  0  0
 82156  1  0  0  0
 83157  1  0  0  0
 84158  1  0  0  0
 84159  1  0  0  0
M  CHG  1  84   1
M  ISO  4   1 100  68 101  80 101  83 100
M  END
> <chiral flag>
0

> <version>
0

> <s_m_source_file>
/data/baiqing/PycharmProjects/Reinvent-master-3.2/result/LINK_invent/BTK/process_docking_weight1_custom_product_contain_oxygen_bond_distance_aromatic_linkinvent_7_9_3/rearranged_h_0149.sdf

> <i_m_source_file_index>
1

> <r_mmod_Potential_Energy-OPLS-2005>
69.2423934936523

> <r_mmod_Stretch_Energy-OPLS-2005>
103.555999755859

> <r_mmod_Bend_Energy-OPLS-2005>
210.36279296875

> <r_mmod_Torsional_Energy-OPLS-2005>
306.089233398438

> <r_mmod_Improper_Torsional_Energy-OPLS-2005>
6.43278789520264

> <r_mmod_Van_der_Waal_Energy-OPLS-2005>
114.685333251953

> <r_mmod_Electrostatic_Energy-OPLS-2005>
-213.849594116211

> <r_mmod_Solvation_Energy-OPLS-2005>
-532.530395507812

> <b_mmod_Minimization_Converged-OPLS-2005>
0

> <r_mmod_RMS_Derivative-OPLS-2005>
2.12814950942993

$$$$
1
                    3D
 Structure written by MMmdl.
160169  0  0  1  0            999 V2000
  -30.6036  -14.7690   20.4296 C   0  0  0  0  0  0
  -30.4349  -12.4694   19.4730 C   0  0  0  0  0  0
  -29.5100  -12.5094   18.2352 C   0  0  0  0  0  0
  -28.0377  -12.3303   18.6507 C   0  0  0  0  0  0
  -27.6415  -13.2344   19.8475 C   0  0  2  0  0  0
  -28.6865  -13.1779   20.9830 C   0  0  0  0  0  0
  -25.2509  -13.8197   20.5702 C   0  0  0  0  0  0
  -24.1797  -13.0444   20.9218 C   0  0  0  0  0  0
  -24.6384  -11.6923   20.8736 C   0  0  0  0  0  0
  -23.9049  -10.4304   21.0392 C   0  0  0  0  0  0
  -24.3599   -9.4223   21.9173 C   0  0  0  0  0  0
  -23.6289   -8.2248   22.0739 C   0  0  0  0  0  0
  -22.4267   -8.0283   21.3538 C   0  0  0  0  0  0
  -21.9895   -9.0251   20.4637 C   0  0  0  0  0  0
  -22.7214  -10.2142   20.3049 C   0  0  0  0  0  0
  -21.6854   -6.0733   22.5283 C   0  0  0  0  0  0
  -21.4009   -6.5629   23.8219 C   0  0  0  0  0  0
  -21.3666   -5.6781   24.9181 C   0  0  0  0  0  0
  -21.6051   -4.3046   24.7224 C   0  0  0  0  0  0
  -21.8821   -3.8136   23.4341 C   0  0  0  0  0  0
  -21.9188   -4.6959   22.3400 C   0  0  0  0  0  0
  -22.7819  -13.5233   21.1885 C   0  0  0  0  0  0
  -22.1661   -4.2142   21.0976 F   0  0  0  0  0  0
  -21.5630   -3.4533   25.7735 F   0  0  0  0  0  0
  -29.9869  -13.5344   20.4032 N   0  0  0  0  0  0
  -26.2929  -12.9411   20.3251 N   0  0  0  0  0  0
  -25.9309  -11.6552   20.5713 N   0  0  0  0  0  0
  -22.0441  -12.8237   22.0435 N   0  0  0  0  0  0
  -25.4205  -15.1927   20.4148 N   0  0  0  0  0  0
  -31.8009  -14.8475   20.1397 O   0  0  0  0  0  0
  -21.6633   -6.8876   21.4244 O   0  0  0  0  0  0
  -22.3520  -14.5549   20.6749 O   0  0  0  0  0  0
  -24.6323  -31.8550   23.1966 C   0  0  0  0  0  0
  -25.9148  -32.4749   23.8320 C   0  0  1  0  0  0
  -27.2246  -27.2567   20.1441 C   0  0  0  0  0  0
  -25.5939  -33.8552   24.2255 N   0  0  0  0  0  0
  -23.4307  -30.4759   21.5394 C   0  0  2  0  0  0
  -24.8806  -28.9183   20.1133 C   0  0  0  0  0  0
  -22.7513  -29.4599   22.4899 C   0  0  0  0  0  0
  -18.0298  -28.1379   22.8483 C   0  0  0  0  0  0
  -24.1501  -36.7284   23.2637 C   0  0  0  0  0  0
  -25.9769  -30.7670   21.3772 C   0  0  0  0  0  0
  -26.0520  -29.3881   20.7217 C   0  0  0  0  0  0
  -27.2302  -28.5725   20.7197 C   0  0  0  0  0  0
  -26.0338  -26.8546   19.5035 C   0  0  0  0  0  0
  -24.8773  -27.6603   19.4900 C   0  0  0  0  0  0
  -23.6512  -29.8064   20.1565 C   0  0  0  0  0  0
  -25.4123  -36.3066   24.0330 C   0  0  1  0  0  0
  -20.5902  -28.3697   23.1264 C   0  0  2  0  0  0
  -20.6788  -26.9415   22.5405 C   0  0  0  0  0  0
  -19.5756  -26.6380   21.5215 C   0  0  0  0  0  0
  -18.1940  -26.7922   22.1629 C   0  0  0  0  0  0
  -19.1549  -28.8859   23.2866 C   0  0  0  0  0  0
  -18.9468  -30.1458   23.8883 C   0  0  0  0  0  0
  -17.6466  -30.6583   24.0562 C   0  0  0  0  0  0
  -25.9060  -34.9436   23.5097 C   0  0  0  0  0  0
  -16.5359  -29.9078   23.6327 C   0  0  0  0  0  0
  -16.7284  -28.6496   23.0350 C   0  0  0  0  0  0
  -26.4510  -31.6565   25.0708 C   0  0  0  0  0  0
  -25.3734  -31.3731   26.1434 C   0  0  0  0  0  0
  -27.0348  -30.2972   24.6208 C   0  0  0  0  0  0
  -27.6077  -32.4296   25.7468 C   0  0  0  0  0  0
  -27.5595  -37.1787   24.8455 C   0  0  0  0  0  0
  -21.4221  -29.3042   22.3649 N   0  0  0  0  0  0
  -26.4293  -37.3770   23.9416 N   0  0  0  0  0  0
  -24.6991  -31.0512   22.0937 N   0  0  0  0  0  0
  -23.4218  -28.8152   23.3010 O   0  0  0  0  0  0
  -28.3080  -26.3493   20.1702 O   0  0  0  0  0  0
  -26.5634  -34.8915   22.4663 O   0  0  0  0  0  0
  -23.5468  -32.1374   23.7261 O   0  0  0  0  0  0
  -30.3026  -17.4884   18.6721 C   0  0  0  0  0  0
  -29.9463  -17.2848   20.0000 C   0  0  0  0  0  0
  -29.6779  -19.6649   19.8106 C   0  0  0  0  0  0
  -28.8172  -23.6967   20.0619 C   0  0  0  0  0  0
  -31.5572  -15.9733   15.4145 C   0  0  0  0  0  0
  -30.0343  -15.9128   15.2352 C   0  0  0  0  0  0
  -31.7879  -16.8213   16.6660 C   0  0  0  0  0  0
  -29.4152  -16.3615   16.5666 C   0  0  0  0  0  0
  -30.5785  -16.5069   17.5566 C   0  0  0  0  0  0
  -28.7678  -22.2214   20.7172 C   0  0  0  0  0  0
  -28.0471  -24.9575   20.6992 C   0  0  0  0  0  0
  -29.5323  -18.5505   20.6095 N   0  0  0  0  0  0
  -29.8243  -15.9158   20.5906 N   0  0  0  0  0  0
  -29.4134  -21.0868   19.9429 N   0  0  0  0  0  0
  -29.4605  -23.8380   19.0157 O   0  0  0  0  0  0
  -30.3040  -19.1957   18.2452 S   0  0  0  0  0  0
  -31.4740  -12.5995   19.1639 H   0  0  0  0  0  0
  -30.3878  -11.4933   19.9587 H   0  0  0  0  0  0
  -29.7949  -11.7343   17.5224 H   0  0  0  0  0  0
  -29.6277  -13.4584   17.7122 H   0  0  0  0  0  0
  -27.8991  -11.2823   18.9190 H   0  0  0  0  0  0
  -27.3796  -12.5177   17.8016 H   0  0  0  0  0  0
  -27.6339  -14.2531   19.4591 H   0  0  0  0  0  0
  -28.7259  -12.1816   21.4246 H   0  0  0  0  0  0
  -28.4184  -13.8610   21.7906 H   0  0  0  0  0  0
  -25.2729   -9.5718   22.4757 H   0  0  0  0  0  0
  -24.0007   -7.4636   22.7449 H   0  0  0  0  0  0
  -21.0821   -8.8763   19.8943 H   0  0  0  0  0  0
  -22.3645  -10.9682   19.6167 H   0  0  0  0  0  0
  -21.2003   -7.6139   23.9728 H   0  0  0  0  0  0
  -21.1488   -6.0500   25.9086 H   0  0  0  0  0  0
  -22.0594   -2.7597   23.2834 H   0  0  0  0  0  0
  -22.4018  -11.9891   22.4842 H   0  0  0  0  0  0
  -21.1070  -13.1297   22.2625 H   0  0  0  0  0  0
  -24.6559  -15.8453   20.5480 H   0  0  0  0  0  0
  -26.2602  -15.6366   20.0657 H   0  0  0  0  0  0
  -26.7214  -32.5401   23.1062 H   0  0  0  0  0  0
  -25.0080  -33.9677   25.0395 H   0  0  0  0  0  0
  -22.7269  -31.2974   21.3911 H   0  0  0  0  0  0
  -23.3766  -35.9609   23.3270 H   0  0  0  0  0  0
  -24.3608  -36.8935   22.2059 H   0  0  0  0  0  0
  -23.7249  -37.6476   23.6678 H   0  0  0  0  0  0
  -26.1183  -31.5284   20.6091 H   0  0  0  0  0  0
  -26.8527  -30.8161   22.0121 H   0  0  0  0  0  0
  -28.1284  -28.9315   21.2026 H   0  0  0  0  0  0
  -25.9886  -25.8909   19.0178 H   0  0  0  0  0  0
  -23.9831  -27.2964   19.0035 H   0  0  0  0  0  0
  -23.7776  -30.5821   19.4000 H   0  0  0  0  0  0
  -22.7699  -29.2401   19.8511 H   0  0  0  0  0  0
  -25.1299  -36.1908   25.0819 H   0  0  0  0  0  0
  -20.9999  -28.3282   24.1385 H   0  0  0  0  0  0
  -20.5697  -26.2312   23.3612 H   0  0  0  0  0  0
  -21.6652  -26.7440   22.1199 H   0  0  0  0  0  0
  -19.6921  -25.6293   21.1243 H   0  0  0  0  0  0
  -19.6686  -27.3192   20.6745 H   0  0  0  0  0  0
  -17.4214  -26.6673   21.4030 H   0  0  0  0  0  0
  -18.0333  -26.0065   22.9022 H   0  0  0  0  0  0
  -19.7945  -30.7277   24.2248 H   0  0  0  0  0  0
  -17.5019  -31.6260   24.5165 H   0  0  0  0  0  0
  -15.5357  -30.2969   23.7654 H   0  0  0  0  0  0
  -15.8690  -28.0809   22.7058 H   0  0  0  0  0  0
  -24.5863  -30.7142   25.7754 H   0  0  0  0  0  0
  -24.8978  -32.2909   26.4899 H   0  0  0  0  0  0
  -25.8035  -30.8852   27.0190 H   0  0  0  0  0  0
  -26.2925  -29.6707   24.1253 H   0  0  0  0  0  0
  -27.4035  -29.7256   25.4735 H   0  0  0  0  0  0
  -27.8805  -30.4226   23.9448 H   0  0  0  0  0  0
  -27.2705  -33.3601   26.2046 H   0  0  0  0  0  0
  -28.3879  -32.6847   25.0285 H   0  0  0  0  0  0
  -28.0756  -31.8417   26.5376 H   0  0  0  0  0  0
  -28.2576  -38.0122   24.7550 H   0  0  0  0  0  0
  -28.1128  -36.2653   24.6209 H   0  0  0  0  0  0
  -27.2323  -37.1353   25.8860 H   0  0  0  0  0  0
  -20.9414  -29.8751   21.6832 H   0  0  0  0  0  0
  -26.0170  -38.2840   24.1421 H   0  0  0  0  0  0
  -32.0608  -16.3856   14.5381 H   0  0  0  0  0  0
  -31.9504  -14.9677   15.5726 H   0  0  0  0  0  0
  -29.7138  -14.9059   14.9652 H   0  0  0  0  0  0
  -29.7140  -16.5791   14.4333 H   0  0  0  0  0  0
  -31.8061  -17.8692   16.3671 H   0  0  0  0  0  0
  -32.7381  -16.6069   17.1567 H   0  0  0  0  0  0
  -28.6541  -15.6704   16.9302 H   0  0  0  0  0  0
  -28.9230  -17.3234   16.4150 H   0  0  0  0  0  0
  -30.7627  -15.5139   17.9479 H   0  0  0  0  0  0
  -27.7235  -21.9700   20.8997 H   0  0  0  0  0  0
  -29.2406  -22.2823   21.6981 H   0  0  0  0  0  0
  -28.2916  -24.9726   21.7613 H   0  0  0  0  0  0
  -26.9826  -24.7333   20.6553 H   0  0  0  0  0  0
  -28.9438  -15.7462   21.0503 H   0  0  0  0  0  0
  -29.7854  -21.5377   19.1089 H   0  0  0  0  0  0
  1 25  1  0  0  0
  1 30  2  0  0  0
  1 83  1  0  0  0
  2  3  1  0  0  0
  2 25  1  0  0  0
  2 87  1  0  0  0
  2 88  1  0  0  0
  3  4  1  0  0  0
  3 89  1  0  0  0
  3 90  1  0  0  0
  4  5  1  0  0  0
  4 91  1  0  0  0
  4 92  1  0  0  0
  5  6  1  0  0  0
  5 26  1  0  0  0
  5 93  1  0  0  0
  6 25  1  0  0  0
  6 94  1  0  0  0
  6 95  1  0  0  0
  7  8  2  0  0  0
  7 26  1  0  0  0
  7 29  1  0  0  0
  8  9  1  0  0  0
  8 22  1  0  0  0
  9 10  1  0  0  0
  9 27  2  0  0  0
 10 11  2  0  0  0
 10 15  1  0  0  0
 11 12  1  0  0  0
 11 96  1  0  0  0
 12 13  2  0  0  0
 12 97  1  0  0  0
 13 14  1  0  0  0
 13 31  1  0  0  0
 14 15  2  0  0  0
 14 98  1  0  0  0
 15 99  1  0  0  0
 16 17  2  0  0  0
 16 21  1  0  0  0
 16 31  1  0  0  0
 17 18  1  0  0  0
 17100  1  0  0  0
 18 19  2  0  0  0
 18101  1  0  0  0
 19 20  1  0  0  0
 19 24  1  0  0  0
 20 21  2  0  0  0
 20102  1  0  0  0
 21 23  1  0  0  0
 22 28  1  0  0  0
 22 32  2  0  0  0
 26 27  1  0  0  0
 28103  1  0  0  0
 28104  1  0  0  0
 29105  1  0  0  0
 29106  1  0  0  0
 33 34  1  0  0  0
 33 66  1  0  0  0
 33 70  2  0  0  0
 34 36  1  0  0  0
 34 59  1  0  0  0
 34107  1  0  0  0
 35 44  2  0  0  0
 35 45  1  0  0  0
 35 68  1  0  0  0
 36 56  1  0  0  0
 36108  1  0  0  0
 37 39  1  0  0  0
 37 47  1  0  0  0
 37 66  1  0  0  0
 37109  1  0  0  0
 38 43  2  0  0  0
 38 46  1  0  0  0
 38 47  1  0  0  0
 39 64  1  0  0  0
 39 67  2  0  0  0
 40 52  1  0  0  0
 40 53  2  0  0  0
 40 58  1  0  0  0
 41110  1  0  0  0
 41111  1  0  0  0
 41112  1  0  0  0
 41 48  1  0  0  0
 42 43  1  0  0  0
 42 66  1  0  0  0
 42113  1  0  0  0
 42114  1  0  0  0
 43 44  1  0  0  0
 44115  1  0  0  0
 45 46  2  0  0  0
 45116  1  0  0  0
 46117  1  0  0  0
 47118  1  0  0  0
 47119  1  0  0  0
 48 56  1  0  0  0
 48 65  1  0  0  0
 48120  1  0  0  0
 49 50  1  0  0  0
 49 53  1  0  0  0
 49 64  1  0  0  0
 49121  1  0  0  0
 50 51  1  0  0  0
 50122  1  0  0  0
 50123  1  0  0  0
 51 52  1  0  0  0
 51124  1  0  0  0
 51125  1  0  0  0
 52126  1  0  0  0
 52127  1  0  0  0
 53 54  1  0  0  0
 54 55  2  0  0  0
 54128  1  0  0  0
 55 57  1  0  0  0
 55129  1  0  0  0
 56 69  2  0  0  0
 57 58  2  0  0  0
 57130  1  0  0  0
 58131  1  0  0  0
 59 60  1  0  0  0
 59 61  1  0  0  0
 59 62  1  0  0  0
 60132  1  0  0  0
 60133  1  0  0  0
 60134  1  0  0  0
 61135  1  0  0  0
 61136  1  0  0  0
 61137  1  0  0  0
 62138  1  0  0  0
 62139  1  0  0  0
 62140  1  0  0  0
 63 65  1  0  0  0
 63141  1  0  0  0
 63142  1  0  0  0
 63143  1  0  0  0
 64144  1  0  0  0
 65145  1  0  0  0
 68 81  1  0  0  0
 71 72  2  0  0  0
 71 86  1  0  0  0
 71 79  1  0  0  0
 72 82  1  0  0  0
 72 83  1  0  0  0
 73 82  2  0  0  0
 73 84  1  0  0  0
 73 86  1  0  0  0
 74 80  1  0  0  0
 74 81  1  0  0  0
 74 85  2  0  0  0
 75 76  1  0  0  0
 75 77  1  0  0  0
 75146  1  0  0  0
 75147  1  0  0  0
 76 78  1  0  0  0
 76148  1  0  0  0
 76149  1  0  0  0
 77 79  1  0  0  0
 77150  1  0  0  0
 77151  1  0  0  0
 78 79  1  0  0  0
 78152  1  0  0  0
 78153  1  0  0  0
 79154  1  0  0  0
 80 84  1  0  0  0
 80155  1  0  0  0
 80156  1  0  0  0
 81157  1  0  0  0
 81158  1  0  0  0
 83159  1  0  0  0
 84160  1  0  0  0
M  ISO  4   1 100  68 101  81 101  83 100
M  END
> <chiral flag>
0

> <version>
0

> <s_m_source_file>
/data/baiqing/PycharmProjects/Reinvent-master-3.2/result/LINK_invent/BTK/process_docking_weight1_custom_product_contain_oxygen_bond_distance_aromatic_linkinvent_7_9_3/rearranged_h_0149.sdf

> <i_m_source_file_index>
2

> <r_mmod_Potential_Energy-OPLS-2005>
208.947555541992

> <r_mmod_Stretch_Energy-OPLS-2005>
129.87565612793

> <r_mmod_Bend_Energy-OPLS-2005>
214.543518066406

> <r_mmod_Torsional_Energy-OPLS-2005>
274.463897705078

> <r_mmod_Improper_Torsional_Energy-OPLS-2005>
6.04307413101196

> <r_mmod_Van_der_Waal_Energy-OPLS-2005>
107.371002197266

> <r_mmod_Electrostatic_Energy-OPLS-2005>
-375.717803955078

> <r_mmod_Solvation_Energy-OPLS-2005>
-240.746536254883

> <b_mmod_Minimization_Converged-OPLS-2005>
0

> <r_mmod_RMS_Derivative-OPLS-2005>
1.75298881530762

$$$$
2
                    3D
 Structure written by MMmdl.
157165  0  0  1  0            999 V2000
  -30.6439  -14.5640   20.5160 C   0  0  0  0  0  0
  -30.4276  -12.3486   19.4380 C   0  0  0  0  0  0
  -29.4991  -12.5117   18.2144 C   0  0  0  0  0  0
  -28.0199  -12.3665   18.6228 C   0  0  0  0  0  0
  -27.6564  -13.2136   19.8713 C   0  0  2  0  0  0
  -28.6995  -13.0262   20.9967 C   0  0  0  0  0  0
  -25.2561  -13.8173   20.5677 C   0  0  0  0  0  0
  -24.1823  -13.0441   20.9183 C   0  0  0  0  0  0
  -24.6391  -11.6910   20.8743 C   0  0  0  0  0  0
  -23.9065  -10.4297   21.0414 C   0  0  0  0  0  0
  -24.3620   -9.4211   21.9192 C   0  0  0  0  0  0
  -23.6293   -8.2245   22.0759 C   0  0  0  0  0  0
  -22.4277   -8.0282   21.3545 C   0  0  0  0  0  0
  -21.9915   -9.0255   20.4642 C   0  0  0  0  0  0
  -22.7242  -10.2136   20.3055 C   0  0  0  0  0  0
  -21.6853   -6.0736   22.5279 C   0  0  0  0  0  0
  -21.4013   -6.5641   23.8211 C   0  0  0  0  0  0
  -21.3662   -5.6792   24.9172 C   0  0  0  0  0  0
  -21.6049   -4.3054   24.7220 C   0  0  0  0  0  0
  -21.8820   -3.8144   23.4341 C   0  0  0  0  0  0
  -21.9193   -4.6965   22.3402 C   0  0  0  0  0  0
  -22.7847  -13.5233   21.1844 C   0  0  0  0  0  0
  -22.1663   -4.2152   21.0981 F   0  0  0  0  0  0
  -21.5634   -3.4532   25.7737 F   0  0  0  0  0  0
  -30.0219  -13.3512   20.4407 N   0  0  0  0  0  0
  -26.2998  -12.9353   20.3351 N   0  0  0  0  0  0
  -25.9319  -11.6506   20.5762 N   0  0  0  0  0  0
  -22.0486  -12.8221   22.0394 N   0  0  0  0  0  0
  -25.4257  -15.1894   20.4087 N   0  0  0  0  0  0
  -31.7959  -14.7296   20.1025 O   0  0  0  0  0  0
  -21.6641   -6.8880   21.4244 O   0  0  0  0  0  0
  -22.3538  -14.5540   20.6690 O   0  0  0  0  0  0
  -24.6206  -31.8627   23.2041 C   0  0  0  0  0  0
  -25.9067  -32.4790   23.8364 C   0  0  1  0  0  0
  -27.2414  -27.3758   20.0882 C   0  0  0  0  0  0
  -25.5905  -33.8591   24.2295 N   0  0  0  0  0  0
  -23.4109  -30.4842   21.5472 C   0  0  2  0  0  0
  -24.8559  -28.9419   20.1112 C   0  0  0  0  0  0
  -22.7441  -29.4628   22.4978 C   0  0  0  0  0  0
  -18.0267  -28.1397   22.8510 C   0  0  0  0  0  0
  -24.1490  -36.7292   23.2641 C   0  0  0  0  0  0
  -25.9438  -30.8109   21.3624 C   0  0  0  0  0  0
  -26.0189  -29.4403   20.7083 C   0  0  0  0  0  0
  -27.2063  -28.6637   20.6940 C   0  0  0  0  0  0
  -26.0438  -26.9002   19.5065 C   0  0  0  0  0  0
  -24.8666  -27.6733   19.5083 C   0  0  0  0  0  0
  -23.6204  -29.8149   20.1627 C   0  0  0  0  0  0
  -25.4109  -36.3081   24.0336 C   0  0  1  0  0  0
  -20.5865  -28.3685   23.1326 C   0  0  2  0  0  0
  -20.6753  -26.9419   22.5425 C   0  0  0  0  0  0
  -19.5728  -26.6399   21.5227 C   0  0  0  0  0  0
  -18.1911  -26.7945   22.1641 C   0  0  0  0  0  0
  -19.1523  -28.8857   23.2915 C   0  0  0  0  0  0
  -18.9451  -30.1468   23.8920 C   0  0  0  0  0  0
  -17.6449  -30.6603   24.0575 C   0  0  0  0  0  0
  -25.9049  -34.9455   23.5117 C   0  0  0  0  0  0
  -16.5343  -29.9105   23.6332 C   0  0  0  0  0  0
  -16.7257  -28.6525   23.0354 C   0  0  0  0  0  0
  -26.4474  -31.6581   25.0711 C   0  0  0  0  0  0
  -25.3726  -31.3666   26.1445 C   0  0  0  0  0  0
  -27.0322  -30.3034   24.6091 C   0  0  0  0  0  0
  -27.6048  -32.4295   25.7480 C   0  0  0  0  0  0
  -27.5574  -37.1799   24.8466 C   0  0  0  0  0  0
  -21.4162  -29.3042   22.3730 N   0  0  0  0  0  0
  -26.4283  -37.3777   23.9414 N   0  0  0  0  0  0
  -24.6775  -31.0684   22.0961 N   0  0  0  0  0  0
  -23.4195  -28.8167   23.3032 O   0  0  0  0  0  0
  -28.4302  -26.6432   20.1590 O   0  0  0  0  0  0
  -26.5622  -34.8918   22.4685 O   0  0  0  0  0  0
  -23.5382  -32.1399   23.7405 O   0  0  0  0  0  0
  -30.6336  -19.0421   19.7413 C   0  0  0  0  0  0
  -30.8501  -17.6246   19.8348 C   0  0  0  0  0  0
  -29.5947  -19.5183   20.5084 C   0  0  0  0  0  0
  -29.9733  -16.9522   20.6585 C   0  0  0  0  0  0
  -30.9613  -22.2763   20.1591 C   0  0  0  0  0  0
  -29.6759  -22.1066   20.5169 C   0  0  0  0  0  0
  -28.5486  -25.9587   17.8167 C   0  0  0  0  0  0
  -28.8058  -23.3524   20.8494 C   0  0  0  0  0  0
  -28.1606  -24.1560   19.6574 C   0  0  0  0  0  0
  -28.7990  -25.5649   19.2906 C   0  0  2  0  0  0
  -29.0748  -20.8370   20.6844 N   0  0  0  0  0  0
  -29.8676  -15.6030   20.9338 N   0  0  0  0  0  0
  -30.1932  -25.4204   19.3798 O   0  0  0  0  0  0
  -28.8508  -18.1437   21.3319 S   0  0  0  0  0  0
  -31.4705  -12.4608   19.1358 H   0  0  0  0  0  0
  -30.3432  -11.3435   19.8542 H   0  0  0  0  0  0
  -29.7492  -11.7773   17.4477 H   0  0  0  0  0  0
  -29.6572  -13.4908   17.7591 H   0  0  0  0  0  0
  -27.8323  -11.3115   18.8234 H   0  0  0  0  0  0
  -27.3718  -12.6353   17.7879 H   0  0  0  0  0  0
  -27.6871  -14.2572   19.5588 H   0  0  0  0  0  0
  -28.6930  -11.9958   21.3551 H   0  0  0  0  0  0
  -28.4550  -13.6394   21.8650 H   0  0  0  0  0  0
  -25.2769   -9.5687   22.4761 H   0  0  0  0  0  0
  -24.0004   -7.4639   22.7479 H   0  0  0  0  0  0
  -21.0850   -8.8771   19.8943 H   0  0  0  0  0  0
  -22.3707  -10.9674   19.6157 H   0  0  0  0  0  0
  -21.2003   -7.6153   23.9710 H   0  0  0  0  0  0
  -21.1488   -6.0528   25.9079 H   0  0  0  0  0  0
  -22.0598   -2.7604   23.2840 H   0  0  0  0  0  0
  -22.4094  -11.9878   22.4779 H   0  0  0  0  0  0
  -21.1096  -13.1232   22.2577 H   0  0  0  0  0  0
  -24.6525  -15.8389   20.5072 H   0  0  0  0  0  0
  -26.2735  -15.6320   20.0776 H   0  0  0  0  0  0
  -26.7138  -32.5483   23.1125 H   0  0  0  0  0  0
  -25.0025  -33.9746   25.0417 H   0  0  0  0  0  0
  -22.7019  -31.3024   21.4062 H   0  0  0  0  0  0
  -23.3758  -35.9620   23.3289 H   0  0  0  0  0  0
  -24.3588  -36.8928   22.2061 H   0  0  0  0  0  0
  -23.7244  -37.6489   23.6675 H   0  0  0  0  0  0
  -26.0592  -31.5741   20.5912 H   0  0  0  0  0  0
  -26.8307  -30.8670   21.9816 H   0  0  0  0  0  0
  -28.1030  -29.0470   21.1608 H   0  0  0  0  0  0
  -25.9825  -25.9211   19.0613 H   0  0  0  0  0  0
  -23.9679  -27.2769   19.0552 H   0  0  0  0  0  0
  -23.7317  -30.5899   19.4037 H   0  0  0  0  0  0
  -22.7424  -29.2379   19.8668 H   0  0  0  0  0  0
  -25.1287  -36.1929   25.0829 H   0  0  0  0  0  0
  -20.9964  -28.3243   24.1443 H   0  0  0  0  0  0
  -20.5665  -26.2287   23.3609 H   0  0  0  0  0  0
  -21.6619  -26.7455   22.1212 H   0  0  0  0  0  0
  -19.6886  -25.6317   21.1241 H   0  0  0  0  0  0
  -19.6667  -27.3223   20.6771 H   0  0  0  0  0  0
  -17.4180  -26.6724   21.4037 H   0  0  0  0  0  0
  -18.0296  -26.0080   22.9027 H   0  0  0  0  0  0
  -19.7920  -30.7288   24.2298 H   0  0  0  0  0  0
  -17.5001  -31.6282   24.5184 H   0  0  0  0  0  0
  -15.5350  -30.3019   23.7639 H   0  0  0  0  0  0
  -15.8653  -28.0853   22.7051 H   0  0  0  0  0  0
  -24.5925  -30.6992   25.7759 H   0  0  0  0  0  0
  -24.8882  -32.2802   26.4896 H   0  0  0  0  0  0
  -25.8069  -30.8830   27.0203 H   0  0  0  0  0  0
  -26.2875  -29.6788   24.1145 H   0  0  0  0  0  0
  -27.4108  -29.7271   25.4540 H   0  0  0  0  0  0
  -27.8691  -30.4370   23.9237 H   0  0  0  0  0  0
  -27.2687  -33.3607   26.2054 H   0  0  0  0  0  0
  -28.3863  -32.6829   25.0304 H   0  0  0  0  0  0
  -28.0709  -31.8413   26.5398 H   0  0  0  0  0  0
  -28.2576  -38.0107   24.7525 H   0  0  0  0  0  0
  -28.1087  -36.2642   24.6278 H   0  0  0  0  0  0
  -27.2299  -37.1424   25.8870 H   0  0  0  0  0  0
  -20.9326  -29.8785   21.6968 H   0  0  0  0  0  0
  -26.0165  -38.2850   24.1419 H   0  0  0  0  0  0
  -31.2524  -19.6356   19.0875 H   0  0  0  0  0  0
  -31.6393  -17.1550   19.2652 H   0  0  0  0  0  0
  -31.3907  -23.2616   20.0662 H   0  0  0  0  0  0
  -31.6379  -21.4640   19.9613 H   0  0  0  0  0  0
  -29.0040  -25.2197   17.1556 H   0  0  0  0  0  0
  -28.9977  -26.9295   17.6029 H   0  0  0  0  0  0
  -27.4935  -25.9973   17.5619 H   0  0  0  0  0  0
  -29.3668  -24.0240   21.5006 H   0  0  0  0  0  0
  -27.9863  -23.0075   21.4815 H   0  0  0  0  0  0
  -27.1023  -24.2967   19.8650 H   0  0  0  0  0  0
  -28.1973  -23.5273   18.7663 H   0  0  0  0  0  0
  -28.1352  -20.8446   21.0727 H   0  0  0  0  0  0
  -29.0011  -15.3184   21.3655 H   0  0  0  0  0  0
  -30.3736  -25.0183   20.2200 H   0  0  0  0  0  0
  1 25  1  0  0  0
  1 30  2  0  0  0
  1 82  1  0  0  0
  2  3  1  0  0  0
  2 25  1  0  0  0
  2 85  1  0  0  0
  2 86  1  0  0  0
  3  4  1  0  0  0
  3 87  1  0  0  0
  3 88  1  0  0  0
  4  5  1  0  0  0
  4 89  1  0  0  0
  4 90  1  0  0  0
  5  6  1  0  0  0
  5 26  1  0  0  0
  5 91  1  0  0  0
  6 25  1  0  0  0
  6 92  1  0  0  0
  6 93  1  0  0  0
  7  8  2  0  0  0
  7 26  1  0  0  0
  7 29  1  0  0  0
  8  9  1  0  0  0
  8 22  1  0  0  0
  9 10  1  0  0  0
  9 27  2  0  0  0
 10 11  2  0  0  0
 10 15  1  0  0  0
 11 12  1  0  0  0
 11 94  1  0  0  0
 12 13  2  0  0  0
 12 95  1  0  0  0
 13 14  1  0  0  0
 13 31  1  0  0  0
 14 15  2  0  0  0
 14 96  1  0  0  0
 15 97  1  0  0  0
 16 17  2  0  0  0
 16 21  1  0  0  0
 16 31  1  0  0  0
 17 18  1  0  0  0
 17 98  1  0  0  0
 18 19  2  0  0  0
 18 99  1  0  0  0
 19 20  1  0  0  0
 19 24  1  0  0  0
 20 21  2  0  0  0
 20100  1  0  0  0
 21 23  1  0  0  0
 22 28  1  0  0  0
 22 32  2  0  0  0
 26 27  1  0  0  0
 28101  1  0  0  0
 28102  1  0  0  0
 29103  1  0  0  0
 29104  1  0  0  0
 33 34  1  0  0  0
 33 66  1  0  0  0
 33 70  2  0  0  0
 34 36  1  0  0  0
 34 59  1  0  0  0
 34105  1  0  0  0
 35 44  2  0  0  0
 35 45  1  0  0  0
 35 68  1  0  0  0
 36 56  1  0  0  0
 36106  1  0  0  0
 37 39  1  0  0  0
 37 47  1  0  0  0
 37 66  1  0  0  0
 37107  1  0  0  0
 38 43  2  0  0  0
 38 46  1  0  0  0
 38 47  1  0  0  0
 39 64  1  0  0  0
 39 67  2  0  0  0
 40 52  1  0  0  0
 40 53  2  0  0  0
 40 58  1  0  0  0
 41108  1  0  0  0
 41109  1  0  0  0
 41110  1  0  0  0
 41 48  1  0  0  0
 42 43  1  0  0  0
 42 66  1  0  0  0
 42111  1  0  0  0
 42112  1  0  0  0
 43 44  1  0  0  0
 44113  1  0  0  0
 45 46  2  0  0  0
 45114  1  0  0  0
 46115  1  0  0  0
 47116  1  0  0  0
 47117  1  0  0  0
 48 56  1  0  0  0
 48 65  1  0  0  0
 48118  1  0  0  0
 49 50  1  0  0  0
 49 53  1  0  0  0
 49 64  1  0  0  0
 49119  1  0  0  0
 50 51  1  0  0  0
 50120  1  0  0  0
 50121  1  0  0  0
 51 52  1  0  0  0
 51122  1  0  0  0
 51123  1  0  0  0
 52124  1  0  0  0
 52125  1  0  0  0
 53 54  1  0  0  0
 54 55  2  0  0  0
 54126  1  0  0  0
 55 57  1  0  0  0
 55127  1  0  0  0
 56 69  2  0  0  0
 57 58  2  0  0  0
 57128  1  0  0  0
 58129  1  0  0  0
 59 60  1  0  0  0
 59 61  1  0  0  0
 59 62  1  0  0  0
 60130  1  0  0  0
 60131  1  0  0  0
 60132  1  0  0  0
 61133  1  0  0  0
 61134  1  0  0  0
 61135  1  0  0  0
 62136  1  0  0  0
 62137  1  0  0  0
 62138  1  0  0  0
 63 65  1  0  0  0
 63139  1  0  0  0
 63140  1  0  0  0
 63141  1  0  0  0
 64142  1  0  0  0
 65143  1  0  0  0
 68 80  1  0  0  0
 71 72  1  0  0  0
 71 73  2  0  0  0
 71144  1  0  0  0
 72 74  2  0  0  0
 72145  1  0  0  0
 73 81  1  0  0  0
 73 84  1  0  0  0
 74 82  1  0  0  0
 74 84  1  0  0  0
 75 76  2  0  0  0
 75146  1  0  0  0
 75147  1  0  0  0
 76 78  1  0  0  0
 76 81  1  0  0  0
 77148  1  0  0  0
 77149  1  0  0  0
 77150  1  0  0  0
 77 80  1  0  0  0
 78 79  1  0  0  0
 78151  1  0  0  0
 78152  1  0  0  0
 79 80  1  0  0  0
 79153  1  0  0  0
 79154  1  0  0  0
 80 83  1  0  0  0
 81155  1  0  0  0
 82156  1  0  0  0
 83157  1  0  0  0
M  ISO  4   1 100  68 101  80 101  82 100
M  END
> <chiral flag>
0

> <version>
0

> <s_m_source_file>
/data/baiqing/PycharmProjects/Reinvent-master-3.2/result/LINK_invent/BTK/process_docking_weight1_custom_product_contain_oxygen_bond_distance_aromatic_linkinvent_7_9_3/rearranged_h_0149.sdf

> <i_m_source_file_index>
3

> <r_mmod_Potential_Energy-OPLS-2005>
-64.0886993408203

> <r_mmod_Stretch_Energy-OPLS-2005>
58.6992416381836

> <r_mmod_Bend_Energy-OPLS-2005>
159.69580078125

> <r_mmod_Torsional_Energy-OPLS-2005>
218.454544067383

> <r_mmod_Improper_Torsional_Energy-OPLS-2005>
4.65761566162109

> <r_mmod_Van_der_Waal_Energy-OPLS-2005>
135.915283203125

> <r_mmod_Electrostatic_Energy-OPLS-2005>
-457.01708984375

> <r_mmod_Solvation_Energy-OPLS-2005>
-210.669189453125

> <b_mmod_Minimization_Converged-OPLS-2005>
0

> <r_mmod_RMS_Derivative-OPLS-2005>
1.24948966503143

$$$$
3
                    3D
 Structure written by MMmdl.
150158  0  0  1  0            999 V2000
  -30.6967  -14.6071   20.4795 C   0  0  0  0  0  0
  -30.4240  -12.3718   19.4611 C   0  0  0  0  0  0
  -29.5096  -12.5009   18.2249 C   0  0  0  0  0  0
  -28.0307  -12.3510   18.6305 C   0  0  0  0  0  0
  -27.6544  -13.2210   19.8613 C   0  0  2  0  0  0
  -28.7007  -13.0898   20.9905 C   0  0  0  0  0  0
  -25.2576  -13.8158   20.5723 C   0  0  0  0  0  0
  -24.1858  -13.0400   20.9217 C   0  0  0  0  0  0
  -24.6435  -11.6878   20.8720 C   0  0  0  0  0  0
  -23.9100  -10.4265   21.0387 C   0  0  0  0  0  0
  -24.3640   -9.4170   21.9169 C   0  0  0  0  0  0
  -23.6288   -8.2227   22.0759 C   0  0  0  0  0  0
  -22.4258   -8.0282   21.3561 C   0  0  0  0  0  0
  -21.9913   -9.0254   20.4652 C   0  0  0  0  0  0
  -22.7263  -10.2112   20.3045 C   0  0  0  0  0  0
  -21.6838   -6.0733   22.5287 C   0  0  0  0  0  0
  -21.3995   -6.5640   23.8219 C   0  0  0  0  0  0
  -21.3667   -5.6799   24.9190 C   0  0  0  0  0  0
  -21.6055   -4.3068   24.7247 C   0  0  0  0  0  0
  -21.8809   -3.8145   23.4370 C   0  0  0  0  0  0
  -21.9180   -4.6953   22.3419 C   0  0  0  0  0  0
  -22.7870  -13.5158   21.1891 C   0  0  0  0  0  0
  -22.1645   -4.2139   21.0993 F   0  0  0  0  0  0
  -21.5641   -3.4551   25.7761 F   0  0  0  0  0  0
  -30.0126  -13.4184   20.4193 N   0  0  0  0  0  0
  -26.3011  -12.9353   20.3319 N   0  0  0  0  0  0
  -25.9365  -11.6503   20.5736 N   0  0  0  0  0  0
  -22.0544  -12.8120   22.0450 N   0  0  0  0  0  0
  -25.4310  -15.1878   20.4136 N   0  0  0  0  0  0
  -31.8757  -14.6695   20.1299 O   0  0  0  0  0  0
  -21.6614   -6.8880   21.4251 O   0  0  0  0  0  0
  -22.3537  -14.5467   20.6766 O   0  0  0  0  0  0
  -24.6219  -31.8620   23.2028 C   0  0  0  0  0  0
  -25.9082  -32.4787   23.8351 C   0  0  1  0  0  0
  -27.2264  -27.3547   20.1146 C   0  0  0  0  0  0
  -25.5912  -33.8585   24.2279 N   0  0  0  0  0  0
  -23.4143  -30.4845   21.5452 C   0  0  2  0  0  0
  -24.8626  -28.9427   20.1117 C   0  0  0  0  0  0
  -22.7444  -29.4637   22.4949 C   0  0  0  0  0  0
  -18.0280  -28.1376   22.8489 C   0  0  0  0  0  0
  -24.1493  -36.7309   23.2641 C   0  0  0  0  0  0
  -25.9521  -30.8037   21.3697 C   0  0  0  0  0  0
  -26.0297  -29.4346   20.7114 C   0  0  0  0  0  0
  -27.2186  -28.6518   20.7023 C   0  0  0  0  0  0
  -26.0424  -26.9044   19.4942 C   0  0  0  0  0  0
  -24.8689  -27.6808   19.4948 C   0  0  0  0  0  0
  -23.6268  -29.8157   20.1621 C   0  0  0  0  0  0
  -25.4116  -36.3085   24.0329 C   0  0  1  0  0  0
  -20.5873  -28.3675   23.1293 C   0  0  2  0  0  0
  -20.6771  -26.9408   22.5410 C   0  0  0  0  0  0
  -19.5749  -26.6381   21.5213 C   0  0  0  0  0  0
  -18.1926  -26.7923   22.1624 C   0  0  0  0  0  0
  -19.1529  -28.8847   23.2888 C   0  0  0  0  0  0
  -18.9457  -30.1448   23.8900 C   0  0  0  0  0  0
  -17.6456  -30.6586   24.0562 C   0  0  0  0  0  0
  -25.9046  -34.9457   23.5103 C   0  0  0  0  0  0
  -16.5350  -29.9081   23.6327 C   0  0  0  0  0  0
  -16.7271  -28.6497   23.0361 C   0  0  0  0  0  0
  -26.4497  -31.6591   25.0714 C   0  0  0  0  0  0
  -25.3741  -31.3711   26.1441 C   0  0  0  0  0  0
  -27.0342  -30.3019   24.6150 C   0  0  0  0  0  0
  -27.6042  -32.4334   25.7487 C   0  0  0  0  0  0
  -27.5577  -37.1808   24.8460 C   0  0  0  0  0  0
  -21.4161  -29.3040   22.3693 N   0  0  0  0  0  0
  -26.4297  -37.3774   23.9401 N   0  0  0  0  0  0
  -24.6814  -31.0653   22.0970 N   0  0  0  0  0  0
  -23.4177  -28.8174   23.3021 O   0  0  0  0  0  0
  -28.3339  -26.5093   20.1362 O   0  0  0  0  0  0
  -26.5610  -34.8921   22.4666 O   0  0  0  0  0  0
  -23.5394  -32.1412   23.7373 O   0  0  0  0  0  0
  -27.7882  -18.3648   21.9339 C   0  0  0  0  0  0
  -27.7018  -19.7540   21.6241 C   0  0  0  0  0  0
  -28.9138  -17.8480   21.3411 C   0  0  0  0  0  0
  -28.7997  -20.0350   20.8637 C   0  0  0  0  0  0
  -29.4440  -16.4348   21.5168 C   0  0  0  0  0  0
  -28.7909  -23.9453   20.2015 C   0  0  0  0  0  0
  -28.4677  -22.5572   20.8684 C   0  0  0  0  0  0
  -28.0978  -25.2205   20.8082 C   0  0  0  0  0  0
  -29.1467  -21.3220   20.3636 N   0  0  0  0  0  0
  -29.9983  -15.7788   20.4746 N   0  0  0  0  0  0
  -29.3031  -15.9037   22.6240 O   0  0  0  0  0  0
  -29.5636  -24.0161   19.2392 O   0  0  0  0  0  0
  -29.5555  -18.8836   20.6509 O   0  0  0  0  0  0
  -31.4714  -12.4582   19.1620 H   0  0  0  0  0  0
  -30.3283  -11.3827   19.9108 H   0  0  0  0  0  0
  -29.7730  -11.7508   17.4782 H   0  0  0  0  0  0
  -29.6658  -13.4716   17.7502 H   0  0  0  0  0  0
  -27.8572  -11.2985   18.8550 H   0  0  0  0  0  0
  -27.3844  -12.5921   17.7854 H   0  0  0  0  0  0
  -27.6703  -14.2562   19.5204 H   0  0  0  0  0  0
  -28.7118  -12.0738   21.3870 H   0  0  0  0  0  0
  -28.4451  -13.7282   21.8319 H   0  0  0  0  0  0
  -25.2823   -9.5599   22.4691 H   0  0  0  0  0  0
  -23.9992   -7.4607   22.7469 H   0  0  0  0  0  0
  -21.0848   -8.8789   19.8953 H   0  0  0  0  0  0
  -22.3756  -10.9628   19.6119 H   0  0  0  0  0  0
  -21.1963   -7.6147   23.9708 H   0  0  0  0  0  0
  -21.1503   -6.0546   25.9093 H   0  0  0  0  0  0
  -22.0579   -2.7609   23.2882 H   0  0  0  0  0  0
  -22.4187  -11.9749   22.4772 H   0  0  0  0  0  0
  -21.1171  -13.1127   22.2716 H   0  0  0  0  0  0
  -24.6713  -15.8491   20.5293 H   0  0  0  0  0  0
  -26.2754  -15.6109   20.0535 H   0  0  0  0  0  0
  -26.7143  -32.5472   23.1089 H   0  0  0  0  0  0
  -25.0054  -33.9736   25.0418 H   0  0  0  0  0  0
  -22.7070  -31.3040   21.4007 H   0  0  0  0  0  0
  -23.3745  -35.9651   23.3308 H   0  0  0  0  0  0
  -24.3581  -36.8926   22.2052 H   0  0  0  0  0  0
  -23.7262  -37.6521   23.6666 H   0  0  0  0  0  0
  -26.0821  -31.5704   20.6062 H   0  0  0  0  0  0
  -26.8314  -30.8480   22.0010 H   0  0  0  0  0  0
  -28.1160  -29.0240   21.1766 H   0  0  0  0  0  0
  -26.0222  -25.9347   19.0168 H   0  0  0  0  0  0
  -23.9748  -27.2969   19.0222 H   0  0  0  0  0  0
  -23.7350  -30.5886   19.4011 H   0  0  0  0  0  0
  -22.7507  -29.2360   19.8671 H   0  0  0  0  0  0
  -25.1296  -36.1939   25.0823 H   0  0  0  0  0  0
  -20.9972  -28.3256   24.1411 H   0  0  0  0  0  0
  -20.5671  -26.2294   23.3608 H   0  0  0  0  0  0
  -21.6639  -26.7441   22.1206 H   0  0  0  0  0  0
  -19.6914  -25.6291   21.1248 H   0  0  0  0  0  0
  -19.6691  -27.3186   20.6738 H   0  0  0  0  0  0
  -17.4200  -26.6671   21.4028 H   0  0  0  0  0  0
  -18.0331  -26.0063   22.9015 H   0  0  0  0  0  0
  -19.7940  -30.7261   24.2277 H   0  0  0  0  0  0
  -17.5021  -31.6274   24.5151 H   0  0  0  0  0  0
  -15.5353  -30.2989   23.7661 H   0  0  0  0  0  0
  -15.8667  -28.0816   22.7082 H   0  0  0  0  0  0
  -24.5898  -30.7087   25.7763 H   0  0  0  0  0  0
  -24.8963  -32.2878   26.4910 H   0  0  0  0  0  0
  -25.8077  -30.8849   27.0186 H   0  0  0  0  0  0
  -26.2911  -29.6760   24.1194 H   0  0  0  0  0  0
  -27.4071  -29.7279   25.4645 H   0  0  0  0  0  0
  -27.8769  -30.4312   23.9347 H   0  0  0  0  0  0
  -27.2627  -33.3608   26.2088 H   0  0  0  0  0  0
  -28.3841  -32.6934   25.0319 H   0  0  0  0  0  0
  -28.0728  -31.8455   26.5384 H   0  0  0  0  0  0
  -28.2592  -38.0107   24.7494 H   0  0  0  0  0  0
  -28.1076  -36.2633   24.6301 H   0  0  0  0  0  0
  -27.2293  -37.1471   25.8863 H   0  0  0  0  0  0
  -20.9329  -29.8766   21.6909 H   0  0  0  0  0  0
  -26.0179  -38.2856   24.1384 H   0  0  0  0  0  0
  -27.1052  -17.7942   22.5475 H   0  0  0  0  0  0
  -26.9349  -20.4469   21.9407 H   0  0  0  0  0  0
  -27.3887  -22.4171   20.7893 H   0  0  0  0  0  0
  -28.6836  -22.6563   21.9331 H   0  0  0  0  0  0
  -28.4480  -25.3204   21.8353 H   0  0  0  0  0  0
  -27.0336  -25.0005   20.8764 H   0  0  0  0  0  0
  -29.9801  -21.4791   19.8006 H   0  0  0  0  0  0
  -30.2758  -16.4279   19.7566 H   0  0  0  0  0  0
  1 25  1  0  0  0
  1 30  2  0  0  0
  1 80  1  0  0  0
  2  3  1  0  0  0
  2 25  1  0  0  0
  2 84  1  0  0  0
  2 85  1  0  0  0
  3  4  1  0  0  0
  3 86  1  0  0  0
  3 87  1  0  0  0
  4  5  1  0  0  0
  4 88  1  0  0  0
  4 89  1  0  0  0
  5  6  1  0  0  0
  5 26  1  0  0  0
  5 90  1  0  0  0
  6 25  1  0  0  0
  6 91  1  0  0  0
  6 92  1  0  0  0
  7  8  2  0  0  0
  7 26  1  0  0  0
  7 29  1  0  0  0
  8  9  1  0  0  0
  8 22  1  0  0  0
  9 10  1  0  0  0
  9 27  2  0  0  0
 10 11  2  0  0  0
 10 15  1  0  0  0
 11 12  1  0  0  0
 11 93  1  0  0  0
 12 13  2  0  0  0
 12 94  1  0  0  0
 13 14  1  0  0  0
 13 31  1  0  0  0
 14 15  2  0  0  0
 14 95  1  0  0  0
 15 96  1  0  0  0
 16 17  2  0  0  0
 16 21  1  0  0  0
 16 31  1  0  0  0
 17 18  1  0  0  0
 17 97  1  0  0  0
 18 19  2  0  0  0
 18 98  1  0  0  0
 19 20  1  0  0  0
 19 24  1  0  0  0
 20 21  2  0  0  0
 20 99  1  0  0  0
 21 23  1  0  0  0
 22 28  1  0  0  0
 22 32  2  0  0  0
 26 27  1  0  0  0
 28100  1  0  0  0
 28101  1  0  0  0
 29102  1  0  0  0
 29103  1  0  0  0
 33 34  1  0  0  0
 33 66  1  0  0  0
 33 70  2  0  0  0
 34 36  1  0  0  0
 34 59  1  0  0  0
 34104  1  0  0  0
 35 44  2  0  0  0
 35 45  1  0  0  0
 35 68  1  0  0  0
 36 56  1  0  0  0
 36105  1  0  0  0
 37 39  1  0  0  0
 37 47  1  0  0  0
 37 66  1  0  0  0
 37106  1  0  0  0
 38 43  2  0  0  0
 38 46  1  0  0  0
 38 47  1  0  0  0
 39 64  1  0  0  0
 39 67  2  0  0  0
 40 52  1  0  0  0
 40 53  2  0  0  0
 40 58  1  0  0  0
 41107  1  0  0  0
 41108  1  0  0  0
 41109  1  0  0  0
 41 48  1  0  0  0
 42 43  1  0  0  0
 42 66  1  0  0  0
 42110  1  0  0  0
 42111  1  0  0  0
 43 44  1  0  0  0
 44112  1  0  0  0
 45 46  2  0  0  0
 45113  1  0  0  0
 46114  1  0  0  0
 47115  1  0  0  0
 47116  1  0  0  0
 48 56  1  0  0  0
 48 65  1  0  0  0
 48117  1  0  0  0
 49 50  1  0  0  0
 49 53  1  0  0  0
 49 64  1  0  0  0
 49118  1  0  0  0
 50 51  1  0  0  0
 50119  1  0  0  0
 50120  1  0  0  0
 51 52  1  0  0  0
 51121  1  0  0  0
 51122  1  0  0  0
 52123  1  0  0  0
 52124  1  0  0  0
 53 54  1  0  0  0
 54 55  2  0  0  0
 54125  1  0  0  0
 55 57  1  0  0  0
 55126  1  0  0  0
 56 69  2  0  0  0
 57 58  2  0  0  0
 57127  1  0  0  0
 58128  1  0  0  0
 59 60  1  0  0  0
 59 61  1  0  0  0
 59 62  1  0  0  0
 60129  1  0  0  0
 60130  1  0  0  0
 60131  1  0  0  0
 61132  1  0  0  0
 61133  1  0  0  0
 61134  1  0  0  0
 62135  1  0  0  0
 62136  1  0  0  0
 62137  1  0  0  0
 63 65  1  0  0  0
 63138  1  0  0  0
 63139  1  0  0  0
 63140  1  0  0  0
 64141  1  0  0  0
 65142  1  0  0  0
 68 78  1  0  0  0
 71 72  1  0  0  0
 71 73  2  0  0  0
 71143  1  0  0  0
 72 74  2  0  0  0
 72144  1  0  0  0
 73 75  1  0  0  0
 73 83  1  0  0  0
 74 79  1  0  0  0
 74 83  1  0  0  0
 75 80  1  0  0  0
 75 81  2  0  0  0
 76 77  1  0  0  0
 76 78  1  0  0  0
 76 82  2  0  0  0
 77 79  1  0  0  0
 77145  1  0  0  0
 77146  1  0  0  0
 78147  1  0  0  0
 78148  1  0  0  0
 79149  1  0  0  0
 80150  1  0  0  0
M  ISO  4   1 100  68 101  78 101  80 100
M  END
> <chiral flag>
0

> <version>
0

> <s_m_source_file>
/data/baiqing/PycharmProjects/Reinvent-master-3.2/result/LINK_invent/BTK/process_docking_weight1_custom_product_contain_oxygen_bond_distance_aromatic_linkinvent_7_9_3/rearranged_h_0149.sdf

> <i_m_source_file_index>
4

> <r_mmod_Potential_Energy-OPLS-2005>
-21.9885387420654

> <r_mmod_Stretch_Energy-OPLS-2005>
63.7571907043457

> <r_mmod_Bend_Energy-OPLS-2005>
144.438842773438

> <r_mmod_Torsional_Energy-OPLS-2005>
307.149291992188

> <r_mmod_Improper_Torsional_Energy-OPLS-2005>
16.8937339782715

> <r_mmod_Van_der_Waal_Energy-OPLS-2005>
121.077415466309

> <r_mmod_Electrostatic_Energy-OPLS-2005>
-474.815185546875

> <r_mmod_Solvation_Energy-OPLS-2005>
-240.172210693359

> <b_mmod_Minimization_Converged-OPLS-2005>
0

> <r_mmod_RMS_Derivative-OPLS-2005>
2.17222595214844

$$$$
4
                    3D
 Structure written by MMmdl.
159168  0  0  1  0            999 V2000
  -30.5176  -15.1017   20.3899 C   0  0  0  0  0  0
  -30.4245  -12.7024   19.4896 C   0  0  0  0  0  0
  -29.5128  -12.5423   18.2575 C   0  0  0  0  0  0
  -28.0564  -12.3003   18.6929 C   0  0  0  0  0  0
  -27.6050  -13.2677   19.8158 C   0  0  2  0  0  0
  -28.6545  -13.3967   20.9384 C   0  0  0  0  0  0
  -25.2398  -13.8294   20.5755 C   0  0  0  0  0  0
  -24.1761  -13.0472   20.9278 C   0  0  0  0  0  0
  -24.6394  -11.6956   20.8844 C   0  0  0  0  0  0
  -23.9089  -10.4344   21.0499 C   0  0  0  0  0  0
  -24.3666   -9.4268   21.9272 C   0  0  0  0  0  0
  -23.6365   -8.2280   22.0784 C   0  0  0  0  0  0
  -22.4338   -8.0340   21.3551 C   0  0  0  0  0  0
  -21.9972   -9.0329   20.4648 C   0  0  0  0  0  0
  -22.7273  -10.2226   20.3114 C   0  0  0  0  0  0
  -21.6817   -6.0812   22.5307 C   0  0  0  0  0  0
  -21.3993   -6.5699   23.8245 C   0  0  0  0  0  0
  -21.3661   -5.6845   24.9205 C   0  0  0  0  0  0
  -21.6004   -4.3101   24.7220 C   0  0  0  0  0  0
  -21.8807   -3.8222   23.4328 C   0  0  0  0  0  0
  -21.9180   -4.7054   22.3411 C   0  0  0  0  0  0
  -22.7803  -13.5258   21.1918 C   0  0  0  0  0  0
  -22.1655   -4.2224   21.0991 F   0  0  0  0  0  0
  -21.5624   -3.4597   25.7747 F   0  0  0  0  0  0
  -29.8926  -13.8502   20.2915 N   0  0  0  0  0  0
  -26.2773  -12.9523   20.3291 N   0  0  0  0  0  0
  -25.9312  -11.6625   20.5843 N   0  0  0  0  0  0
  -22.0429  -12.8246   22.0434 N   0  0  0  0  0  0
  -25.4137  -15.2006   20.4115 N   0  0  0  0  0  0
  -31.7531  -15.0643   20.3019 O   0  0  0  0  0  0
  -21.6638   -6.8958   21.4263 O   0  0  0  0  0  0
  -22.3420  -14.5542   20.6789 O   0  0  0  0  0  0
  -24.6510  -31.8346   23.1766 C   0  0  0  0  0  0
  -25.9209  -32.4673   23.8213 C   0  0  1  0  0  0
  -27.2159  -27.0361   20.1465 C   0  0  0  0  0  0
  -25.5943  -33.8486   24.2101 N   0  0  0  0  0  0
  -23.4669  -30.4428   21.5234 C   0  0  2  0  0  0
  -24.9128  -28.8586   20.1006 C   0  0  0  0  0  0
  -22.7631  -29.4468   22.4816 C   0  0  0  0  0  0
  -18.0332  -28.1435   22.8469 C   0  0  0  0  0  0
  -24.1466  -36.7226   23.2628 C   0  0  0  0  0  0
  -26.0283  -30.6728   21.3953 C   0  0  0  0  0  0
  -26.0876  -29.2749   20.7329 C   0  0  0  0  0  0
  -27.2305  -28.3759   20.7396 C   0  0  0  0  0  0
  -26.0175  -26.7476   19.4635 C   0  0  0  0  0  0
  -24.8948  -27.6113   19.4583 C   0  0  0  0  0  0
  -23.6924  -29.7651   20.1449 C   0  0  0  0  0  0
  -25.4125  -36.3005   24.0289 C   0  0  1  0  0  0
  -20.5946  -28.3785   23.1189 C   0  0  2  0  0  0
  -20.6830  -26.9451   22.5389 C   0  0  0  0  0  0
  -19.5789  -26.6367   21.5214 C   0  0  0  0  0  0
  -18.1975  -26.7980   22.1618 C   0  0  0  0  0  0
  -19.1578  -28.8930   23.2830 C   0  0  0  0  0  0
  -18.9483  -30.1509   23.8885 C   0  0  0  0  0  0
  -17.6472  -30.6630   24.0592 C   0  0  0  0  0  0
  -25.9089  -34.9391   23.4992 C   0  0  0  0  0  0
  -16.5391  -29.9124   23.6380 C   0  0  0  0  0  0
  -16.7326  -28.6544   23.0349 C   0  0  0  0  0  0
  -26.4522  -31.6587   25.0697 C   0  0  0  0  0  0
  -25.3665  -31.3803   26.1337 C   0  0  0  0  0  0
  -27.0417  -30.2983   24.6358 C   0  0  0  0  0  0
  -27.6059  -32.4331   25.7488 C   0  0  0  0  0  0
  -27.5581  -37.1768   24.8473 C   0  0  0  0  0  0
  -21.4294  -29.3108   22.3568 N   0  0  0  0  0  0
  -26.4307  -37.3721   23.9379 N   0  0  0  0  0  0
  -24.7382  -31.0099   22.0855 N   0  0  0  0  0  0
  -23.4211  -28.8028   23.3013 O   0  0  0  0  0  0
  -28.2580  -26.0107   20.2674 O   0  0  0  0  0  0
  -26.5726  -34.8895   22.4571 O   0  0  0  0  0  0
  -23.5553  -32.1251   23.6816 O   0  0  0  0  0  0
  -29.3087  -19.3826   22.3220 C   0  0  0  0  0  0
  -29.4108  -19.0268   20.9412 C   0  0  0  0  0  0
  -29.5062  -18.2647   23.0601 C   0  0  0  0  0  0
  -29.7150  -17.5574   20.9760 C   0  0  0  0  0  0
  -27.5529  -21.9211   19.1831 C   0  0  0  0  0  0
  -27.7776  -20.4064   19.5618 C   0  0  0  0  0  0
  -29.4613  -21.7240   20.4036 C   0  0  0  0  0  0
  -28.2424  -22.8671   20.2184 C   0  0  1  0  0  0
  -26.3070  -23.5827   21.5135 C   0  0  0  0  0  0
  -28.3331  -24.5314   19.6590 C   0  0  0  0  0  0
  -29.1481  -20.2162   20.0504 N   0  0  0  0  0  0
  -29.4288  -18.1552   24.4390 N   0  0  0  0  0  0
  -29.8442  -16.3719   20.1507 N   0  0  0  0  0  0
  -29.7759  -17.1969   22.3003 O   0  0  0  0  0  0
  -27.4954  -22.7987   21.4405 O   0  0  0  0  0  0
  -31.4465  -12.8853   19.1596 H   0  0  0  0  0  0
  -30.4523  -11.7908   20.0908 H   0  0  0  0  0  0
  -29.8597  -11.7182   17.6352 H   0  0  0  0  0  0
  -29.5637  -13.4452   17.6533 H   0  0  0  0  0  0
  -27.9860  -11.2704   19.0437 H   0  0  0  0  0  0
  -27.3906  -12.3755   17.8327 H   0  0  0  0  0  0
  -27.5277  -14.2437   19.3371 H   0  0  0  0  0  0
  -28.7964  -12.4531   21.4610 H   0  0  0  0  0  0
  -28.3238  -14.1178   21.6845 H   0  0  0  0  0  0
  -25.2808   -9.5778   22.4832 H   0  0  0  0  0  0
  -24.0063   -7.4670   22.7534 H   0  0  0  0  0  0
  -21.0881   -8.8868   19.8963 H   0  0  0  0  0  0
  -22.3745  -10.9811   19.6231 H   0  0  0  0  0  0
  -21.1957   -7.6190   23.9760 H   0  0  0  0  0  0
  -21.1491   -6.0583   25.9106 H   0  0  0  0  0  0
  -22.0559   -2.7685   23.2826 H   0  0  0  0  0  0
  -22.3987  -11.9862   22.4798 H   0  0  0  0  0  0
  -21.1088  -13.1393   22.2641 H   0  0  0  0  0  0
  -24.6618  -15.8687   20.5385 H   0  0  0  0  0  0
  -26.2800  -15.6387   20.1231 H   0  0  0  0  0  0
  -26.7312  -32.5212   23.0969 H   0  0  0  0  0  0
  -25.0053  -33.9616   25.0234 H   0  0  0  0  0  0
  -22.7743  -31.2719   21.3592 H   0  0  0  0  0  0
  -23.3758  -35.9530   23.3284 H   0  0  0  0  0  0
  -24.3565  -36.8875   22.2057 H   0  0  0  0  0  0
  -23.7239  -37.6406   23.6718 H   0  0  0  0  0  0
  -26.1949  -31.4181   20.6166 H   0  0  0  0  0  0
  -26.8989  -30.7224   22.0414 H   0  0  0  0  0  0
  -28.1187  -28.6822   21.2701 H   0  0  0  0  0  0
  -25.8893  -25.7891   18.9830 H   0  0  0  0  0  0
  -24.0001  -27.2932   18.9444 H   0  0  0  0  0  0
  -23.8404  -30.5390   19.3896 H   0  0  0  0  0  0
  -22.8077  -29.2059   19.8394 H   0  0  0  0  0  0
  -25.1322  -36.1819   25.0810 H   0  0  0  0  0  0
  -20.9986  -28.3418   24.1328 H   0  0  0  0  0  0
  -20.5716  -26.2290   23.3573 H   0  0  0  0  0  0
  -21.6724  -26.7426   22.1251 H   0  0  0  0  0  0
  -19.6883  -25.6266   21.1283 H   0  0  0  0  0  0
  -19.6702  -27.3161   20.6714 H   0  0  0  0  0  0
  -17.4230  -26.6717   21.4049 H   0  0  0  0  0  0
  -18.0426  -26.0182   22.9098 H   0  0  0  0  0  0
  -19.7943  -30.7348   24.2267 H   0  0  0  0  0  0
  -17.5009  -31.6290   24.5231 H   0  0  0  0  0  0
  -15.5365  -30.3005   23.7744 H   0  0  0  0  0  0
  -15.8721  -28.0909   22.7009 H   0  0  0  0  0  0
  -24.5874  -30.7168   25.7602 H   0  0  0  0  0  0
  -24.8827  -32.2983   26.4643 H   0  0  0  0  0  0
  -25.7828  -30.9032   27.0193 H   0  0  0  0  0  0
  -26.3090  -29.6689   24.1338 H   0  0  0  0  0  0
  -27.3972  -29.7304   25.4949 H   0  0  0  0  0  0
  -27.8974  -30.4187   23.9731 H   0  0  0  0  0  0
  -27.2736  -33.3650   26.2004 H   0  0  0  0  0  0
  -28.3915  -32.6825   25.0379 H   0  0  0  0  0  0
  -28.0711  -31.8533   26.5442 H   0  0  0  0  0  0
  -28.2577  -38.0079   24.7502 H   0  0  0  0  0  0
  -28.1078  -36.2601   24.6305 H   0  0  0  0  0  0
  -27.2290  -37.1416   25.8874 H   0  0  0  0  0  0
  -20.9508  -29.8779   21.6716 H   0  0  0  0  0  0
  -26.0134  -38.2753   24.1417 H   0  0  0  0  0  0
  -29.0595  -20.3441   22.7364 H   0  0  0  0  0  0
  -26.4983  -22.1547   19.0326 H   0  0  0  0  0  0
  -28.0149  -22.0920   18.2076 H   0  0  0  0  0  0
  -27.5902  -19.7730   18.6924 H   0  0  0  0  0  0
  -27.0606  -20.1010   20.3265 H   0  0  0  0  0  0
  -29.8934  -21.8216   21.3981 H   0  0  0  0  0  0
  -30.2731  -22.0199   19.7369 H   0  0  0  0  0  0
  -26.5525  -24.6252   21.7211 H   0  0  0  0  0  0
  -25.6802  -23.2214   22.3321 H   0  0  0  0  0  0
  -25.7073  -23.5405   20.6034 H   0  0  0  0  0  0
  -27.6248  -24.5608   18.8356 H   0  0  0  0  0  0
  -29.2853  -24.5483   19.1281 H   0  0  0  0  0  0
  -29.1881  -18.9264   25.0573 H   0  0  0  0  0  0
  -29.5904  -17.2968   24.9573 H   0  0  0  0  0  0
  -29.4893  -16.4583   19.2056 H   0  0  0  0  0  0
  1 25  1  0  0  0
  1 30  2  0  0  0
  1 83  1  0  0  0
  2  3  1  0  0  0
  2 25  1  0  0  0
  2 86  1  0  0  0
  2 87  1  0  0  0
  3  4  1  0  0  0
  3 88  1  0  0  0
  3 89  1  0  0  0
  4  5  1  0  0  0
  4 90  1  0  0  0
  4 91  1  0  0  0
  5  6  1  0  0  0
  5 26  1  0  0  0
  5 92  1  0  0  0
  6 25  1  0  0  0
  6 93  1  0  0  0
  6 94  1  0  0  0
  7  8  2  0  0  0
  7 26  1  0  0  0
  7 29  1  0  0  0
  8  9  1  0  0  0
  8 22  1  0  0  0
  9 10  1  0  0  0
  9 27  2  0  0  0
 10 11  2  0  0  0
 10 15  1  0  0  0
 11 12  1  0  0  0
 11 95  1  0  0  0
 12 13  2  0  0  0
 12 96  1  0  0  0
 13 14  1  0  0  0
 13 31  1  0  0  0
 14 15  2  0  0  0
 14 97  1  0  0  0
 15 98  1  0  0  0
 16 17  2  0  0  0
 16 21  1  0  0  0
 16 31  1  0  0  0
 17 18  1  0  0  0
 17 99  1  0  0  0
 18 19  2  0  0  0
 18100  1  0  0  0
 19 20  1  0  0  0
 19 24  1  0  0  0
 20 21  2  0  0  0
 20101  1  0  0  0
 21 23  1  0  0  0
 22 28  1  0  0  0
 22 32  2  0  0  0
 26 27  1  0  0  0
 28102  1  0  0  0
 28103  1  0  0  0
 29104  1  0  0  0
 29105  1  0  0  0
 33 34  1  0  0  0
 33 66  1  0  0  0
 33 70  2  0  0  0
 34 36  1  0  0  0
 34 59  1  0  0  0
 34106  1  0  0  0
 35 44  2  0  0  0
 35 45  1  0  0  0
 35 68  1  0  0  0
 36 56  1  0  0  0
 36107  1  0  0  0
 37 39  1  0  0  0
 37 47  1  0  0  0
 37 66  1  0  0  0
 37108  1  0  0  0
 38 43  2  0  0  0
 38 46  1  0  0  0
 38 47  1  0  0  0
 39 64  1  0  0  0
 39 67  2  0  0  0
 40 52  1  0  0  0
 40 53  2  0  0  0
 40 58  1  0  0  0
 41109  1  0  0  0
 41110  1  0  0  0
 41111  1  0  0  0
 41 48  1  0  0  0
 42 43  1  0  0  0
 42 66  1  0  0  0
 42112  1  0  0  0
 42113  1  0  0  0
 43 44  1  0  0  0
 44114  1  0  0  0
 45 46  2  0  0  0
 45115  1  0  0  0
 46116  1  0  0  0
 47117  1  0  0  0
 47118  1  0  0  0
 48 56  1  0  0  0
 48 65  1  0  0  0
 48119  1  0  0  0
 49 50  1  0  0  0
 49 53  1  0  0  0
 49 64  1  0  0  0
 49120  1  0  0  0
 50 51  1  0  0  0
 50121  1  0  0  0
 50122  1  0  0  0
 51 52  1  0  0  0
 51123  1  0  0  0
 51124  1  0  0  0
 52125  1  0  0  0
 52126  1  0  0  0
 53 54  1  0  0  0
 54 55  2  0  0  0
 54127  1  0  0  0
 55 57  1  0  0  0
 55128  1  0  0  0
 56 69  2  0  0  0
 57 58  2  0  0  0
 57129  1  0  0  0
 58130  1  0  0  0
 59 60  1  0  0  0
 59 61  1  0  0  0
 59 62  1  0  0  0
 60131  1  0  0  0
 60132  1  0  0  0
 60133  1  0  0  0
 61134  1  0  0  0
 61135  1  0  0  0
 61136  1  0  0  0
 62137  1  0  0  0
 62138  1  0  0  0
 62139  1  0  0  0
 63 65  1  0  0  0
 63140  1  0  0  0
 63141  1  0  0  0
 63142  1  0  0  0
 64143  1  0  0  0
 65144  1  0  0  0
 68 80  1  0  0  0
 71 72  1  0  0  0
 71 73  2  0  0  0
 71145  1  0  0  0
 72 74  2  0  0  0
 72 81  1  0  0  0
 73 82  1  0  0  0
 73 84  1  0  0  0
 74 83  1  0  0  0
 74 84  1  0  0  0
 75 76  1  0  0  0
 75 78  1  0  0  0
 75146  1  0  0  0
 75147  1  0  0  0
 76 81  1  0  0  0
 76148  1  0  0  0
 76149  1  0  0  0
 77 78  1  0  0  0
 77 81  1  0  0  0
 77150  1  0  0  0
 77151  1  0  0  0
 78 80  1  0  0  0
 78 85  1  0  0  0
 79 85  1  0  0  0
 79152  1  0  0  0
 79153  1  0  0  0
 79154  1  0  0  0
 80155  1  0  0  0
 80156  1  0  0  0
 82157  1  0  0  0
 82158  1  0  0  0
 83159  1  0  0  0
M  ISO  4   1 100  68 101  80 101  83 100
M  END
> <chiral flag>
0

> <version>
0

> <s_m_source_file>
/data/baiqing/PycharmProjects/Reinvent-master-3.2/result/LINK_invent/BTK/process_docking_weight1_custom_product_contain_oxygen_bond_distance_aromatic_linkinvent_7_9_3/rearranged_h_0149.sdf

> <i_m_source_file_index>
5

> <r_mmod_Potential_Energy-OPLS-2005>
1031.3212890625

> <r_mmod_Stretch_Energy-OPLS-2005>
369.839904785156

> <r_mmod_Bend_Energy-OPLS-2005>
496.591491699219

> <r_mmod_Torsional_Energy-OPLS-2005>
361.969757080078

> <r_mmod_Improper_Torsional_Energy-OPLS-2005>
19.1669979095459

> <r_mmod_Van_der_Waal_Energy-OPLS-2005>
108.55591583252

> <r_mmod_Electrostatic_Energy-OPLS-2005>
-385.408935546875

> <r_mmod_Solvation_Energy-OPLS-2005>
-252.237274169922

> <b_mmod_Minimization_Converged-OPLS-2005>
0

> <r_mmod_RMS_Derivative-OPLS-2005>
9.81854915618896

$$$$
5
                    3D
 Structure written by MMmdl.
151160  0  0  1  0            999 V2000
  -30.5814  -14.8137   20.4161 C   0  0  0  0  0  0
  -30.4297  -12.4896   19.4855 C   0  0  0  0  0  0
  -29.5124  -12.5140   18.2413 C   0  0  0  0  0  0
  -28.0370  -12.3389   18.6517 C   0  0  0  0  0  0
  -27.6409  -13.2432   19.8510 C   0  0  2  0  0  0
  -28.6824  -13.1972   20.9887 C   0  0  0  0  0  0
  -25.2521  -13.8282   20.5754 C   0  0  0  0  0  0
  -24.1810  -13.0492   20.9230 C   0  0  0  0  0  0
  -24.6425  -11.6975   20.8767 C   0  0  0  0  0  0
  -23.9113  -10.4321   21.0393 C   0  0  0  0  0  0
  -24.3651   -9.4216   21.9160 C   0  0  0  0  0  0
  -23.6311   -8.2269   22.0750 C   0  0  0  0  0  0
  -22.4295   -8.0323   21.3561 C   0  0  0  0  0  0
  -21.9931   -9.0294   20.4665 C   0  0  0  0  0  0
  -22.7277  -10.2158   20.3056 C   0  0  0  0  0  0
  -21.6855   -6.0755   22.5259 C   0  0  0  0  0  0
  -21.4031   -6.5647   23.8199 C   0  0  0  0  0  0
  -21.3647   -5.6798   24.9156 C   0  0  0  0  0  0
  -21.6030   -4.3065   24.7219 C   0  0  0  0  0  0
  -21.8812   -3.8167   23.4337 C   0  0  0  0  0  0
  -21.9193   -4.6983   22.3399 C   0  0  0  0  0  0
  -22.7807  -13.5243   21.1861 C   0  0  0  0  0  0
  -22.1654   -4.2159   21.0980 F   0  0  0  0  0  0
  -21.5615   -3.4549   25.7740 F   0  0  0  0  0  0
  -29.9799  -13.5644   20.4068 N   0  0  0  0  0  0
  -26.2940  -12.9490   20.3290 N   0  0  0  0  0  0
  -25.9365  -11.6619   20.5801 N   0  0  0  0  0  0
  -22.0491  -12.8206   22.0440 N   0  0  0  0  0  0
  -25.4276  -15.2009   20.4286 N   0  0  0  0  0  0
  -31.7595  -14.9066   20.0577 O   0  0  0  0  0  0
  -21.6672   -6.8915   21.4229 O   0  0  0  0  0  0
  -22.3445  -14.5503   20.6682 O   0  0  0  0  0  0
  -24.6352  -31.8491   23.1936 C   0  0  0  0  0  0
  -25.9144  -32.4720   23.8295 C   0  0  1  0  0  0
  -27.2170  -27.1962   20.1187 C   0  0  0  0  0  0
  -25.5895  -33.8529   24.2188 N   0  0  0  0  0  0
  -23.4339  -30.4714   21.5418 C   0  0  2  0  0  0
  -24.8830  -28.9164   20.1066 C   0  0  0  0  0  0
  -22.7500  -29.4573   22.4903 C   0  0  0  0  0  0
  -18.0270  -28.1381   22.8482 C   0  0  0  0  0  0
  -24.1491  -36.7281   23.2643 C   0  0  0  0  0  0
  -25.9888  -30.7346   21.3916 C   0  0  0  0  0  0
  -26.0582  -29.3548   20.7292 C   0  0  0  0  0  0
  -27.2218  -28.5060   20.7320 C   0  0  0  0  0  0
  -26.0258  -26.8699   19.4265 C   0  0  0  0  0  0
  -24.8777  -27.6834   19.4439 C   0  0  0  0  0  0
  -23.6538  -29.8055   20.1590 C   0  0  0  0  0  0
  -25.4118  -36.3050   24.0319 C   0  0  1  0  0  0
  -20.5889  -28.3693   23.1243 C   0  0  2  0  0  0
  -20.6754  -26.9400   22.5394 C   0  0  0  0  0  0
  -19.5739  -26.6373   21.5188 C   0  0  0  0  0  0
  -18.1925  -26.7918   22.1623 C   0  0  0  0  0  0
  -19.1532  -28.8849   23.2857 C   0  0  0  0  0  0
  -18.9457  -30.1450   23.8881 C   0  0  0  0  0  0
  -17.6462  -30.6597   24.0555 C   0  0  0  0  0  0
  -25.9060  -34.9426   23.5066 C   0  0  0  0  0  0
  -16.5349  -29.9099   23.6334 C   0  0  0  0  0  0
  -16.7255  -28.6506   23.0363 C   0  0  0  0  0  0
  -26.4497  -31.6575   25.0717 C   0  0  0  0  0  0
  -25.3698  -31.3754   26.1420 C   0  0  0  0  0  0
  -27.0338  -30.2970   24.6271 C   0  0  0  0  0  0
  -27.6030  -32.4349   25.7471 C   0  0  0  0  0  0
  -27.5581  -37.1768   24.8450 C   0  0  0  0  0  0
  -21.4208  -29.3036   22.3631 N   0  0  0  0  0  0
  -26.4285  -37.3756   23.9410 N   0  0  0  0  0  0
  -24.7055  -31.0375   22.0965 N   0  0  0  0  0  0
  -23.4166  -28.8109   23.3022 O   0  0  0  0  0  0
  -28.2764  -26.2322   20.2113 O   0  0  0  0  0  0
  -26.5680  -34.8924   22.4663 O   0  0  0  0  0  0
  -23.5484  -32.1342   23.7181 O   0  0  0  0  0  0
  -29.8133  -19.0798   18.8147 C   0  0  0  0  0  0
  -30.0022  -17.6537   18.9191 C   0  0  0  0  0  0
  -29.5791  -19.5863   20.0696 C   0  0  0  0  0  0
  -29.8839  -17.2885   20.2409 C   0  0  0  0  0  0
  -29.0197  -23.0959   21.5615 C   0  0  0  0  0  0
  -28.7636  -23.4506   20.2911 C   0  0  0  0  0  0
  -29.4344  -21.6167   21.7289 C   0  0  0  0  0  0
  -28.9878  -22.1342   19.4553 C   0  0  0  0  0  0
  -28.0662  -24.7940   19.7205 C   0  0  0  0  0  0
  -29.3354  -21.0046   20.3950 N   0  0  0  0  0  0
  -29.8186  -15.9512   20.7074 N   0  0  0  0  0  0
  -29.6052  -18.4859   20.9712 O   0  0  0  0  0  0
  -31.4690  -12.6123   19.1803 H   0  0  0  0  0  0
  -30.3849  -11.5195   19.9830 H   0  0  0  0  0  0
  -29.8061  -11.7315   17.5372 H   0  0  0  0  0  0
  -29.6348  -13.4624   17.7156 H   0  0  0  0  0  0
  -27.8903  -11.2910   18.9165 H   0  0  0  0  0  0
  -27.3798  -12.5303   17.8017 H   0  0  0  0  0  0
  -27.6322  -14.2644   19.4680 H   0  0  0  0  0  0
  -28.7250  -12.2059   21.4394 H   0  0  0  0  0  0
  -28.4058  -13.8838   21.7888 H   0  0  0  0  0  0
  -25.2778   -9.5673   22.4738 H   0  0  0  0  0  0
  -24.0002   -7.4637   22.7450 H   0  0  0  0  0  0
  -21.0865   -8.8799   19.8976 H   0  0  0  0  0  0
  -22.3707  -10.9695   19.6184 H   0  0  0  0  0  0
  -21.2037   -7.6149   23.9721 H   0  0  0  0  0  0
  -21.1457   -6.0525   25.9066 H   0  0  0  0  0  0
  -22.0612   -2.7637   23.2828 H   0  0  0  0  0  0
  -22.4158  -11.9864   22.4764 H   0  0  0  0  0  0
  -21.1113  -13.1198   22.2697 H   0  0  0  0  0  0
  -24.6833  -15.8712   20.5931 H   0  0  0  0  0  0
  -26.2991  -15.6417   20.1633 H   0  0  0  0  0  0
  -26.7188  -32.5316   23.1004 H   0  0  0  0  0  0
  -24.9926  -33.9656   25.0250 H   0  0  0  0  0  0
  -22.7340  -31.2966   21.3929 H   0  0  0  0  0  0
  -23.3749  -35.9616   23.3302 H   0  0  0  0  0  0
  -24.3556  -36.8918   22.2051 H   0  0  0  0  0  0
  -23.7253  -37.6482   23.6683 H   0  0  0  0  0  0
  -26.1425  -31.4949   20.6250 H   0  0  0  0  0  0
  -26.8602  -30.7786   22.0338 H   0  0  0  0  0  0
  -28.1123  -28.8332   21.2492 H   0  0  0  0  0  0
  -25.9303  -25.9576   18.8596 H   0  0  0  0  0  0
  -23.9874  -27.3525   18.9276 H   0  0  0  0  0  0
  -23.7722  -30.5820   19.4018 H   0  0  0  0  0  0
  -22.7724  -29.2362   19.8578 H   0  0  0  0  0  0
  -25.1308  -36.1888   25.0815 H   0  0  0  0  0  0
  -20.9970  -28.3271   24.1368 H   0  0  0  0  0  0
  -20.5577  -26.2317   23.3607 H   0  0  0  0  0  0
  -21.6628  -26.7362   22.1233 H   0  0  0  0  0  0
  -19.6908  -25.6277   21.1225 H   0  0  0  0  0  0
  -19.6704  -27.3171   20.6713 H   0  0  0  0  0  0
  -17.4176  -26.6602   21.4057 H   0  0  0  0  0  0
  -18.0394  -26.0062   22.9035 H   0  0  0  0  0  0
  -19.7941  -30.7243   24.2257 H   0  0  0  0  0  0
  -17.5031  -31.6281   24.5159 H   0  0  0  0  0  0
  -15.5355  -30.3000   23.7674 H   0  0  0  0  0  0
  -15.8652  -28.0809   22.7119 H   0  0  0  0  0  0
  -24.5836  -30.7176   25.7702 H   0  0  0  0  0  0
  -24.8950  -32.2950   26.4854 H   0  0  0  0  0  0
  -25.7985  -30.8862   27.0179 H   0  0  0  0  0  0
  -26.2947  -29.6713   24.1263 H   0  0  0  0  0  0
  -27.3930  -29.7258   25.4833 H   0  0  0  0  0  0
  -27.8877  -30.4191   23.9609 H   0  0  0  0  0  0
  -27.2607  -33.3643   26.2041 H   0  0  0  0  0  0
  -28.3831  -32.6925   25.0293 H   0  0  0  0  0  0
  -28.0731  -31.8487   26.5374 H   0  0  0  0  0  0
  -28.2571  -38.0089   24.7523 H   0  0  0  0  0  0
  -28.1110  -36.2614   24.6260 H   0  0  0  0  0  0
  -27.2301  -37.1408   25.8853 H   0  0  0  0  0  0
  -20.9399  -29.8751   21.6829 H   0  0  0  0  0  0
  -26.0165  -38.2825   24.1437 H   0  0  0  0  0  0
  -29.8388  -19.6624   17.9048 H   0  0  0  0  0  0
  -30.1636  -16.9724   18.0962 H   0  0  0  0  0  0
  -28.8713  -23.7419   22.4152 H   0  0  0  0  0  0
  -28.7680  -21.1085   22.4266 H   0  0  0  0  0  0
  -30.4554  -21.5505   22.1144 H   0  0  0  0  0  0
  -29.7843  -22.2914   18.7246 H   0  0  0  0  0  0
  -28.0789  -21.8846   18.9074 H   0  0  0  0  0  0
  -27.0181  -24.5237   19.8254 H   0  0  0  0  0  0
  -28.2653  -24.8095   18.6493 H   0  0  0  0  0  0
  -28.9581  -15.7302   21.1875 H   0  0  0  0  0  0
  1 25  1  0  0  0
  1 30  2  0  0  0
  1 81  1  0  0  0
  2  3  1  0  0  0
  2 25  1  0  0  0
  2 83  1  0  0  0
  2 84  1  0  0  0
  3  4  1  0  0  0
  3 85  1  0  0  0
  3 86  1  0  0  0
  4  5  1  0  0  0
  4 87  1  0  0  0
  4 88  1  0  0  0
  5  6  1  0  0  0
  5 26  1  0  0  0
  5 89  1  0  0  0
  6 25  1  0  0  0
  6 90  1  0  0  0
  6 91  1  0  0  0
  7  8  2  0  0  0
  7 26  1  0  0  0
  7 29  1  0  0  0
  8  9  1  0  0  0
  8 22  1  0  0  0
  9 10  1  0  0  0
  9 27  2  0  0  0
 10 11  2  0  0  0
 10 15  1  0  0  0
 11 12  1  0  0  0
 11 92  1  0  0  0
 12 13  2  0  0  0
 12 93  1  0  0  0
 13 14  1  0  0  0
 13 31  1  0  0  0
 14 15  2  0  0  0
 14 94  1  0  0  0
 15 95  1  0  0  0
 16 17  2  0  0  0
 16 21  1  0  0  0
 16 31  1  0  0  0
 17 18  1  0  0  0
 17 96  1  0  0  0
 18 19  2  0  0  0
 18 97  1  0  0  0
 19 20  1  0  0  0
 19 24  1  0  0  0
 20 21  2  0  0  0
 20 98  1  0  0  0
 21 23  1  0  0  0
 22 28  1  0  0  0
 22 32  2  0  0  0
 26 27  1  0  0  0
 28 99  1  0  0  0
 28100  1  0  0  0
 29101  1  0  0  0
 29102  1  0  0  0
 33 34  1  0  0  0
 33 66  1  0  0  0
 33 70  2  0  0  0
 34 36  1  0  0  0
 34 59  1  0  0  0
 34103  1  0  0  0
 35 44  2  0  0  0
 35 45  1  0  0  0
 35 68  1  0  0  0
 36 56  1  0  0  0
 36104  1  0  0  0
 37 39  1  0  0  0
 37 47  1  0  0  0
 37 66  1  0  0  0
 37105  1  0  0  0
 38 43  2  0  0  0
 38 46  1  0  0  0
 38 47  1  0  0  0
 39 64  1  0  0  0
 39 67  2  0  0  0
 40 52  1  0  0  0
 40 53  2  0  0  0
 40 58  1  0  0  0
 41106  1  0  0  0
 41107  1  0  0  0
 41108  1  0  0  0
 41 48  1  0  0  0
 42 43  1  0  0  0
 42 66  1  0  0  0
 42109  1  0  0  0
 42110  1  0  0  0
 43 44  1  0  0  0
 44111  1  0  0  0
 45 46  2  0  0  0
 45112  1  0  0  0
 46113  1  0  0  0
 47114  1  0  0  0
 47115  1  0  0  0
 48 56  1  0  0  0
 48 65  1  0  0  0
 48116  1  0  0  0
 49 50  1  0  0  0
 49 53  1  0  0  0
 49 64  1  0  0  0
 49117  1  0  0  0
 50 51  1  0  0  0
 50118  1  0  0  0
 50119  1  0  0  0
 51 52  1  0  0  0
 51120  1  0  0  0
 51121  1  0  0  0
 52122  1  0  0  0
 52123  1  0  0  0
 53 54  1  0  0  0
 54 55  2  0  0  0
 54124  1  0  0  0
 55 57  1  0  0  0
 55125  1  0  0  0
 56 69  2  0  0  0
 57 58  2  0  0  0
 57126  1  0  0  0
 58127  1  0  0  0
 59 60  1  0  0  0
 59 61  1  0  0  0
 59 62  1  0  0  0
 60128  1  0  0  0
 60129  1  0  0  0
 60130  1  0  0  0
 61131  1  0  0  0
 61132  1  0  0  0
 61133  1  0  0  0
 62134  1  0  0  0
 62135  1  0  0  0
 62136  1  0  0  0
 63 65  1  0  0  0
 63137  1  0  0  0
 63138  1  0  0  0
 63139  1  0  0  0
 64140  1  0  0  0
 65141  1  0  0  0
 68 79  1  0  0  0
 71 72  1  0  0  0
 71 73  2  0  0  0
 71142  1  0  0  0
 72 74  2  0  0  0
 72143  1  0  0  0
 73 80  1  0  0  0
 73 82  1  0  0  0
 74 81  1  0  0  0
 74 82  1  0  0  0
 75 76  2  0  0  0
 75 77  1  0  0  0
 75144  1  0  0  0
 76 78  1  0  0  0
 76 79  1  0  0  0
 77 80  1  0  0  0
 77145  1  0  0  0
 77146  1  0  0  0
 78 80  1  0  0  0
 78147  1  0  0  0
 78148  1  0  0  0
 79149  1  0  0  0
 79150  1  0  0  0
 81151  1  0  0  0
M  ISO  4   1 100  68 101  79 101  81 100
M  END
> <chiral flag>
0

> <version>
0

> <s_m_source_file>
/data/baiqing/PycharmProjects/Reinvent-master-3.2/result/LINK_invent/BTK/process_docking_weight1_custom_product_contain_oxygen_bond_distance_aromatic_linkinvent_7_9_3/rearranged_h_0149.sdf

> <i_m_source_file_index>
6

> <r_mmod_Potential_Energy-OPLS-2005>
300.742156982422

> <r_mmod_Stretch_Energy-OPLS-2005>
150.244171142578

> <r_mmod_Bend_Energy-OPLS-2005>
272.376342773438

> <r_mmod_Torsional_Energy-OPLS-2005>
230.741256713867

> <r_mmod_Improper_Torsional_Energy-OPLS-2005>
5.15937614440918

> <r_mmod_Van_der_Waal_Energy-OPLS-2005>
117.321640014648

> <r_mmod_Electrostatic_Energy-OPLS-2005>
-361.531036376953

> <r_mmod_Solvation_Energy-OPLS-2005>
-240.264190673828

> <b_mmod_Minimization_Converged-OPLS-2005>
0

> <r_mmod_RMS_Derivative-OPLS-2005>
4.16899299621582

$$$$
6
                    3D
 Structure written by MMmdl.
159167  0  0  1  0            999 V2000
  -30.6722  -14.4837   20.5861 C   0  0  0  0  0  0
  -30.4423  -12.3318   19.3929 C   0  0  0  0  0  0
  -29.4888  -12.5250   18.1936 C   0  0  0  0  0  0
  -28.0130  -12.3730   18.6127 C   0  0  0  0  0  0
  -27.6669  -13.1917   19.8825 C   0  0  2  0  0  0
  -28.7196  -12.9323   20.9856 C   0  0  0  0  0  0
  -25.2627  -13.8132   20.5635 C   0  0  0  0  0  0
  -24.1846  -13.0428   20.9171 C   0  0  0  0  0  0
  -24.6389  -11.6911   20.8742 C   0  0  0  0  0  0
  -23.9052  -10.4288   21.0386 C   0  0  0  0  0  0
  -24.3599   -9.4200   21.9160 C   0  0  0  0  0  0
  -23.6278   -8.2232   22.0734 C   0  0  0  0  0  0
  -22.4268   -8.0271   21.3533 C   0  0  0  0  0  0
  -21.9891   -9.0242   20.4640 C   0  0  0  0  0  0
  -22.7214  -10.2124   20.3041 C   0  0  0  0  0  0
  -21.6864   -6.0727   22.5253 C   0  0  0  0  0  0
  -21.4020   -6.5636   23.8194 C   0  0  0  0  0  0
  -21.3657   -5.6787   24.9164 C   0  0  0  0  0  0
  -21.6033   -4.3048   24.7214 C   0  0  0  0  0  0
  -21.8833   -3.8140   23.4347 C   0  0  0  0  0  0
  -21.9198   -4.6949   22.3397 C   0  0  0  0  0  0
  -22.7880  -13.5251   21.1831 C   0  0  0  0  0  0
  -22.1676   -4.2136   21.0974 F   0  0  0  0  0  0
  -21.5624   -3.4535   25.7734 F   0  0  0  0  0  0
  -30.0466  -13.2808   20.4433 N   0  0  0  0  0  0
  -26.3050  -12.9255   20.3413 N   0  0  0  0  0  0
  -25.9308  -11.6445   20.5776 N   0  0  0  0  0  0
  -22.0545  -12.8222   22.0414 N   0  0  0  0  0  0
  -25.4380  -15.1815   20.3928 N   0  0  0  0  0  0
  -31.7717  -14.7456   20.0928 O   0  0  0  0  0  0
  -21.6645   -6.8859   21.4227 O   0  0  0  0  0  0
  -22.3557  -14.5530   20.6663 O   0  0  0  0  0  0
  -24.6168  -31.8712   23.2130 C   0  0  0  0  0  0
  -25.9028  -32.4817   23.8471 C   0  0  1  0  0  0
  -27.2315  -27.4460   20.0842 C   0  0  0  0  0  0
  -25.5918  -33.8647   24.2432 N   0  0  0  0  0  0
  -23.4035  -30.4960   21.5604 C   0  0  2  0  0  0
  -24.8455  -28.9662   20.1205 C   0  0  0  0  0  0
  -22.7487  -29.4657   22.5059 C   0  0  0  0  0  0
  -18.0330  -28.1316   22.8521 C   0  0  0  0  0  0
  -24.1496  -36.7334   23.2646 C   0  0  0  0  0  0
  -25.9361  -30.8425   21.3622 C   0  0  0  0  0  0
  -26.0095  -29.4795   20.7056 C   0  0  0  0  0  0
  -27.2022  -28.7273   20.6790 C   0  0  0  0  0  0
  -26.0492  -26.9483   19.4894 C   0  0  0  0  0  0
  -24.8628  -27.7017   19.5105 C   0  0  0  0  0  0
  -23.6039  -29.8248   20.1771 C   0  0  0  0  0  0
  -25.4104  -36.3155   24.0352 C   0  0  1  0  0  0
  -20.5927  -28.3670   23.1374 C   0  0  2  0  0  0
  -20.6868  -26.9460   22.5413 C   0  0  0  0  0  0
  -19.5871  -26.6489   21.5135 C   0  0  0  0  0  0
  -18.2083  -26.7833   22.1665 C   0  0  0  0  0  0
  -19.1569  -28.8804   23.2940 C   0  0  0  0  0  0
  -18.9528  -30.1406   23.8938 C   0  0  0  0  0  0
  -17.6526  -30.6527   24.0593 C   0  0  0  0  0  0
  -25.9010  -34.9474   23.5170 C   0  0  0  0  0  0
  -16.5401  -29.9053   23.6329 C   0  0  0  0  0  0
  -16.7298  -28.6437   23.0338 C   0  0  0  0  0  0
  -26.4473  -31.6564   25.0760 C   0  0  0  0  0  0
  -25.3777  -31.3593   26.1514 C   0  0  0  0  0  0
  -27.0292  -30.3030   24.6055 C   0  0  0  0  0  0
  -27.6098  -32.4273   25.7494 C   0  0  0  0  0  0
  -27.5597  -37.1803   24.8473 C   0  0  0  0  0  0
  -21.4196  -29.3103   22.3861 N   0  0  0  0  0  0
  -26.4318  -37.3807   23.9389 N   0  0  0  0  0  0
  -24.6719  -31.0865   22.1001 N   0  0  0  0  0  0
  -23.4263  -28.8189   23.3059 O   0  0  0  0  0  0
  -28.4205  -26.7440   20.1291 O   0  0  0  0  0  0
  -26.5585  -34.8900   22.4751 O   0  0  0  0  0  0
  -23.5337  -32.1451   23.7537 O   0  0  0  0  0  0
  -28.7692  -17.3218   20.2764 C   0  0  0  0  0  0
  -28.5313  -18.7109   20.3145 C   0  0  0  0  0  0
  -30.7767  -17.7267   21.5521 C   0  0  0  0  0  0
  -29.8804  -16.8006   20.9760 C   0  0  0  0  0  0
  -29.3933  -19.5315   21.0539 C   0  0  0  0  0  0
  -28.1764  -22.9381   20.6929 C   0  0  0  0  0  0
  -29.0047  -24.7693   22.3333 C   0  0  0  0  0  0
  -26.6346  -24.6822   21.6177 C   0  0  0  0  0  0
  -29.4088  -22.0510   20.9645 C   0  0  0  0  0  0
  -28.4459  -25.3233   19.9021 C   0  0  0  0  0  0
  -28.0865  -24.4343   21.1339 C   0  0  0  0  0  0
  -30.5348  -19.0648   21.5999 N   0  0  0  0  0  0
  -29.9528  -15.4023   21.2534 N   0  0  0  0  0  0
  -28.9286  -20.7728   21.4955 N   0  0  0  0  0  0
  -27.2157  -22.4170   20.1101 O   0  0  0  0  0  0
  -31.4728  -12.4847   19.0737 H   0  0  0  0  0  0
  -30.3912  -11.3082   19.7698 H   0  0  0  0  0  0
  -29.7269  -11.8131   17.4011 H   0  0  0  0  0  0
  -29.6326  -13.5164   17.7600 H   0  0  0  0  0  0
  -27.8207  -11.3135   18.7885 H   0  0  0  0  0  0
  -27.3583  -12.6638   17.7910 H   0  0  0  0  0  0
  -27.7219  -14.2435   19.6064 H   0  0  0  0  0  0
  -28.7157  -11.8757   21.2584 H   0  0  0  0  0  0
  -28.4763  -13.4584   21.9104 H   0  0  0  0  0  0
  -25.2748   -9.5681   22.4728 H   0  0  0  0  0  0
  -24.0003   -7.4629   22.7429 H   0  0  0  0  0  0
  -21.0832   -8.8758   19.8942 H   0  0  0  0  0  0
  -22.3662  -10.9667   19.6152 H   0  0  0  0  0  0
  -21.2028   -7.6143   23.9703 H   0  0  0  0  0  0
  -21.1457   -6.0513   25.9064 H   0  0  0  0  0  0
  -22.0618   -2.7600   23.2844 H   0  0  0  0  0  0
  -22.4236  -11.9911   22.4790 H   0  0  0  0  0  0
  -21.1155  -13.1206   22.2649 H   0  0  0  0  0  0
  -24.6720  -15.8403   20.4746 H   0  0  0  0  0  0
  -26.2666  -15.5926   19.9842 H   0  0  0  0  0  0
  -26.7136  -32.5468   23.1279 H   0  0  0  0  0  0
  -25.0057  -33.9886   25.0564 H   0  0  0  0  0  0
  -22.6869  -31.3081   21.4254 H   0  0  0  0  0  0
  -23.3739  -35.9681   23.3323 H   0  0  0  0  0  0
  -24.3599  -36.8925   22.2064 H   0  0  0  0  0  0
  -23.7228  -37.6538   23.6624 H   0  0  0  0  0  0
  -26.0461  -31.6125   20.6007 H   0  0  0  0  0  0
  -26.8262  -30.8974   21.9766 H   0  0  0  0  0  0
  -28.1089  -29.1248   21.1172 H   0  0  0  0  0  0
  -26.0134  -25.9766   19.0169 H   0  0  0  0  0  0
  -23.9593  -27.2991   19.0755 H   0  0  0  0  0  0
  -23.7025  -30.5950   19.4142 H   0  0  0  0  0  0
  -22.7262  -29.2449   19.8785 H   0  0  0  0  0  0
  -25.1267  -36.2088   25.0841 H   0  0  0  0  0  0
  -20.9976  -28.3184   24.1511 H   0  0  0  0  0  0
  -20.5772  -26.2266   23.3541 H   0  0  0  0  0  0
  -21.6815  -26.7683   22.1259 H   0  0  0  0  0  0
  -19.7137  -25.6471   21.1014 H   0  0  0  0  0  0
  -19.6825  -27.3413   20.6713 H   0  0  0  0  0  0
  -17.4354  -26.6384   21.4122 H   0  0  0  0  0  0
  -18.0762  -25.9909   22.9043 H   0  0  0  0  0  0
  -19.7985  -30.7250   24.2338 H   0  0  0  0  0  0
  -17.5126  -31.6183   24.5232 H   0  0  0  0  0  0
  -15.5409  -30.3025   23.7559 H   0  0  0  0  0  0
  -15.8749  -28.0721   22.7028 H   0  0  0  0  0  0
  -24.5974  -30.6940   25.7809 H   0  0  0  0  0  0
  -24.8940  -32.2707   26.5052 H   0  0  0  0  0  0
  -25.8181  -30.8684   27.0217 H   0  0  0  0  0  0
  -26.2808  -29.6799   24.1161 H   0  0  0  0  0  0
  -27.4166  -29.7234   25.4456 H   0  0  0  0  0  0
  -27.8591  -30.4374   23.9111 H   0  0  0  0  0  0
  -27.2743  -33.3558   26.2127 H   0  0  0  0  0  0
  -28.3828  -32.6862   25.0248 H   0  0  0  0  0  0
  -28.0822  -31.8348   26.5340 H   0  0  0  0  0  0
  -28.2637  -38.0099   24.7512 H   0  0  0  0  0  0
  -28.1094  -36.2624   24.6317 H   0  0  0  0  0  0
  -27.2309  -37.1448   25.8886 H   0  0  0  0  0  0
  -20.9375  -29.8896   21.7107 H   0  0  0  0  0  0
  -26.0241  -38.2901   24.1374 H   0  0  0  0  0  0
  -28.0565  -16.6708   19.7897 H   0  0  0  0  0  0
  -27.6242  -19.1049   19.8692 H   0  0  0  0  0  0
  -31.6462  -17.3783   22.0900 H   0  0  0  0  0  0
  -28.9545  -24.0120   23.1173 H   0  0  0  0  0  0
  -28.6954  -25.7123   22.7888 H   0  0  0  0  0  0
  -30.0428  -24.8938   22.0357 H   0  0  0  0  0  0
  -26.3921  -24.0310   22.4593 H   0  0  0  0  0  0
  -25.9141  -24.4916   20.8265 H   0  0  0  0  0  0
  -26.4737  -25.7001   21.9711 H   0  0  0  0  0  0
  -30.0884  -22.5175   21.6751 H   0  0  0  0  0  0
  -29.9549  -21.9072   20.0307 H   0  0  0  0  0  0
  -27.8785  -25.0466   19.0155 H   0  0  0  0  0  0
  -29.4748  -25.0941   19.6173 H   0  0  0  0  0  0
  -29.1237  -15.0107   21.6766 H   0  0  0  0  0  0
  -27.9197  -20.8153   21.4058 H   0  0  0  0  0  0
  1 25  1  0  0  0
  1 30  2  0  0  0
  1 83  1  0  0  0
  2  3  1  0  0  0
  2 25  1  0  0  0
  2 86  1  0  0  0
  2 87  1  0  0  0
  3  4  1  0  0  0
  3 88  1  0  0  0
  3 89  1  0  0  0
  4  5  1  0  0  0
  4 90  1  0  0  0
  4 91  1  0  0  0
  5  6  1  0  0  0
  5 26  1  0  0  0
  5 92  1  0  0  0
  6 25  1  0  0  0
  6 93  1  0  0  0
  6 94  1  0  0  0
  7  8  2  0  0  0
  7 26  1  0  0  0
  7 29  1  0  0  0
  8  9  1  0  0  0
  8 22  1  0  0  0
  9 10  1  0  0  0
  9 27  2  0  0  0
 10 11  2  0  0  0
 10 15  1  0  0  0
 11 12  1  0  0  0
 11 95  1  0  0  0
 12 13  2  0  0  0
 12 96  1  0  0  0
 13 14  1  0  0  0
 13 31  1  0  0  0
 14 15  2  0  0  0
 14 97  1  0  0  0
 15 98  1  0  0  0
 16 17  2  0  0  0
 16 21  1  0  0  0
 16 31  1  0  0  0
 17 18  1  0  0  0
 17 99  1  0  0  0
 18 19  2  0  0  0
 18100  1  0  0  0
 19 20  1  0  0  0
 19 24  1  0  0  0
 20 21  2  0  0  0
 20101  1  0  0  0
 21 23  1  0  0  0
 22 28  1  0  0  0
 22 32  2  0  0  0
 26 27  1  0  0  0
 28102  1  0  0  0
 28103  1  0  0  0
 29104  1  0  0  0
 29105  1  0  0  0
 33 34  1  0  0  0
 33 66  1  0  0  0
 33 70  2  0  0  0
 34 36  1  0  0  0
 34 59  1  0  0  0
 34106  1  0  0  0
 35 44  2  0  0  0
 35 45  1  0  0  0
 35 68  1  0  0  0
 36 56  1  0  0  0
 36107  1  0  0  0
 37 39  1  0  0  0
 37 47  1  0  0  0
 37 66  1  0  0  0
 37108  1  0  0  0
 38 43  2  0  0  0
 38 46  1  0  0  0
 38 47  1  0  0  0
 39 64  1  0  0  0
 39 67  2  0  0  0
 40 52  1  0  0  0
 40 53  2  0  0  0
 40 58  1  0  0  0
 41109  1  0  0  0
 41110  1  0  0  0
 41111  1  0  0  0
 41 48  1  0  0  0
 42 43  1  0  0  0
 42 66  1  0  0  0
 42112  1  0  0  0
 42113  1  0  0  0
 43 44  1  0  0  0
 44114  1  0  0  0
 45 46  2  0  0  0
 45115  1  0  0  0
 46116  1  0  0  0
 47117  1  0  0  0
 47118  1  0  0  0
 48 56  1  0  0  0
 48 65  1  0  0  0
 48119  1  0  0  0
 49 50  1  0  0  0
 49 53  1  0  0  0
 49 64  1  0  0  0
 49120  1  0  0  0
 50 51  1  0  0  0
 50121  1  0  0  0
 50122  1  0  0  0
 51 52  1  0  0  0
 51123  1  0  0  0
 51124  1  0  0  0
 52125  1  0  0  0
 52126  1  0  0  0
 53 54  1  0  0  0
 54 55  2  0  0  0
 54127  1  0  0  0
 55 57  1  0  0  0
 55128  1  0  0  0
 56 69  2  0  0  0
 57 58  2  0  0  0
 57129  1  0  0  0
 58130  1  0  0  0
 59 60  1  0  0  0
 59 61  1  0  0  0
 59 62  1  0  0  0
 60131  1  0  0  0
 60132  1  0  0  0
 60133  1  0  0  0
 61134  1  0  0  0
 61135  1  0  0  0
 61136  1  0  0  0
 62137  1  0  0  0
 62138  1  0  0  0
 62139  1  0  0  0
 63 65  1  0  0  0
 63140  1  0  0  0
 63141  1  0  0  0
 63142  1  0  0  0
 64143  1  0  0  0
 65144  1  0  0  0
 68 80  1  0  0  0
 71 72  2  0  0  0
 71 74  1  0  0  0
 71145  1  0  0  0
 72 75  1  0  0  0
 72146  1  0  0  0
 73 74  2  0  0  0
 73 82  1  0  0  0
 73147  1  0  0  0
 74 83  1  0  0  0
 75 82  2  0  0  0
 75 84  1  0  0  0
 76 79  1  0  0  0
 76 81  1  0  0  0
 76 85  2  0  0  0
 77148  1  0  0  0
 77149  1  0  0  0
 77150  1  0  0  0
 77 81  1  0  0  0
 78 81  1  0  0  0
 78151  1  0  0  0
 78152  1  0  0  0
 78153  1  0  0  0
 79 84  1  0  0  0
 79154  1  0  0  0
 79155  1  0  0  0
 80 81  1  0  0  0
 80156  1  0  0  0
 80157  1  0  0  0
 83158  1  0  0  0
 84159  1  0  0  0
M  ISO  4   1 100  68 101  80 101  83 100
M  END
> <chiral flag>
0

> <version>
0

> <s_m_source_file>
/data/baiqing/PycharmProjects/Reinvent-master-3.2/result/LINK_invent/BTK/process_docking_weight1_custom_product_contain_oxygen_bond_distance_aromatic_linkinvent_7_9_3/rearranged_h_0149.sdf

> <i_m_source_file_index>
7

> <r_mmod_Potential_Energy-OPLS-2005>
-249.418579101562

> <r_mmod_Stretch_Energy-OPLS-2005>
39.6674385070801

> <r_mmod_Bend_Energy-OPLS-2005>
128.180541992188

> <r_mmod_Torsional_Energy-OPLS-2005>
288.995788574219

> <r_mmod_Improper_Torsional_Energy-OPLS-2005>
13.7440252304077

> <r_mmod_Van_der_Waal_Energy-OPLS-2005>
156.793090820312

> <r_mmod_Electrostatic_Energy-OPLS-2005>
-651.398742675781

> <r_mmod_Solvation_Energy-OPLS-2005>
-239.262008666992

> <b_mmod_Minimization_Converged-OPLS-2005>
0

> <r_mmod_RMS_Derivative-OPLS-2005>
7.35048294067383

$$$$
7
                    3D
 Structure written by MMmdl.
156164  0  0  1  0            999 V2000
  -30.5788  -14.7407   20.4647 C   0  0  0  0  0  0
  -30.4420  -12.4494   19.4720 C   0  0  0  0  0  0
  -29.5149  -12.5138   18.2366 C   0  0  0  0  0  0
  -28.0397  -12.3350   18.6477 C   0  0  0  0  0  0
  -27.6472  -13.2242   19.8573 C   0  0  2  0  0  0
  -28.6904  -13.1282   20.9926 C   0  0  0  0  0  0
  -25.2536  -13.8179   20.5687 C   0  0  0  0  0  0
  -24.1814  -13.0436   20.9195 C   0  0  0  0  0  0
  -24.6392  -11.6909   20.8739 C   0  0  0  0  0  0
  -23.9062  -10.4291   21.0404 C   0  0  0  0  0  0
  -24.3613   -9.4208   21.9183 C   0  0  0  0  0  0
  -23.6290   -8.2244   22.0755 C   0  0  0  0  0  0
  -22.4274   -8.0280   21.3545 C   0  0  0  0  0  0
  -21.9907   -9.0253   20.4648 C   0  0  0  0  0  0
  -22.7233  -10.2133   20.3054 C   0  0  0  0  0  0
  -21.6854   -6.0732   22.5277 C   0  0  0  0  0  0
  -21.4017   -6.5638   23.8209 C   0  0  0  0  0  0
  -21.3660   -5.6791   24.9173 C   0  0  0  0  0  0
  -21.6044   -4.3054   24.7224 C   0  0  0  0  0  0
  -21.8819   -3.8144   23.4346 C   0  0  0  0  0  0
  -21.9194   -4.6961   22.3401 C   0  0  0  0  0  0
  -22.7836  -13.5229   21.1855 C   0  0  0  0  0  0
  -22.1662   -4.2148   21.0978 F   0  0  0  0  0  0
  -21.5630   -3.4536   25.7736 F   0  0  0  0  0  0
  -29.9955  -13.4935   20.4226 N   0  0  0  0  0  0
  -26.2959  -12.9370   20.3290 N   0  0  0  0  0  0
  -25.9321  -11.6520   20.5743 N   0  0  0  0  0  0
  -22.0477  -12.8225   22.0412 N   0  0  0  0  0  0
  -25.4239  -15.1903   20.4103 N   0  0  0  0  0  0
  -31.7526  -14.8873   20.1066 O   0  0  0  0  0  0
  -21.6640   -6.8876   21.4239 O   0  0  0  0  0  0
  -22.3523  -14.5536   20.6702 O   0  0  0  0  0  0
  -24.6310  -31.8536   23.1957 C   0  0  0  0  0  0
  -25.9137  -32.4742   23.8305 C   0  0  1  0  0  0
  -27.2294  -27.2591   20.1195 C   0  0  0  0  0  0
  -25.5931  -33.8544   24.2234 N   0  0  0  0  0  0
  -23.4268  -30.4747   21.5392 C   0  0  2  0  0  0
  -24.8722  -28.9146   20.1108 C   0  0  0  0  0  0
  -22.7495  -29.4594   22.4910 C   0  0  0  0  0  0
  -18.0289  -28.1391   22.8486 C   0  0  0  0  0  0
  -24.1488  -36.7277   23.2641 C   0  0  0  0  0  0
  -25.9707  -30.7661   21.3725 C   0  0  0  0  0  0
  -26.0416  -29.3871   20.7151 C   0  0  0  0  0  0
  -27.2156  -28.5713   20.7067 C   0  0  0  0  0  0
  -26.0260  -26.8420   19.5095 C   0  0  0  0  0  0
  -24.8691  -27.6501   19.5001 C   0  0  0  0  0  0
  -23.6436  -29.8029   20.1567 C   0  0  0  0  0  0
  -25.4116  -36.3061   24.0323 C   0  0  1  0  0  0
  -20.5893  -28.3698   23.1277 C   0  0  2  0  0  0
  -20.6775  -26.9417   22.5413 C   0  0  0  0  0  0
  -19.5753  -26.6388   21.5214 C   0  0  0  0  0  0
  -18.1932  -26.7934   22.1625 C   0  0  0  0  0  0
  -19.1543  -28.8862   23.2876 C   0  0  0  0  0  0
  -18.9465  -30.1462   23.8894 C   0  0  0  0  0  0
  -17.6464  -30.6592   24.0563 C   0  0  0  0  0  0
  -25.9057  -34.9434   23.5083 C   0  0  0  0  0  0
  -16.5355  -29.9089   23.6332 C   0  0  0  0  0  0
  -16.7276  -28.6507   23.0353 C   0  0  0  0  0  0
  -26.4501  -31.6578   25.0704 C   0  0  0  0  0  0
  -25.3721  -31.3740   26.1426 C   0  0  0  0  0  0
  -27.0351  -30.2995   24.6197 C   0  0  0  0  0  0
  -27.6049  -32.4323   25.7486 C   0  0  0  0  0  0
  -27.5577  -37.1794   24.8463 C   0  0  0  0  0  0
  -21.4203  -29.3043   22.3662 N   0  0  0  0  0  0
  -26.4287  -37.3765   23.9407 N   0  0  0  0  0  0
  -24.6954  -31.0502   22.0924 N   0  0  0  0  0  0
  -23.4199  -28.8137   23.3007 O   0  0  0  0  0  0
  -28.3847  -26.4446   20.2050 O   0  0  0  0  0  0
  -26.5633  -34.8915   22.4656 O   0  0  0  0  0  0
  -23.5464  -32.1355   23.7262 O   0  0  0  0  0  0
  -30.5159  -19.4306   19.9166 C   0  0  0  0  0  0
  -30.7977  -17.9999   19.9646 C   0  0  0  0  0  0
  -29.3207  -19.8391   20.4819 C   0  0  0  0  0  0
  -29.8360  -17.2048   20.5619 C   0  0  0  0  0  0
  -29.0626  -22.2858   20.1989 C   0  0  0  0  0  0
  -28.2210  -24.8870   18.2032 C   0  0  0  0  0  0
  -30.2116  -25.2409   19.6128 C   0  0  0  0  0  0
  -28.3932  -23.7161   20.5605 C   0  0  1  0  0  0
  -28.6799  -25.0587   19.6680 C   0  0  0  0  0  0
  -28.7026  -21.1148   20.6825 N   0  0  0  0  0  0
  -29.7505  -15.8137   20.7612 N   0  0  0  0  0  0
  -26.9445  -23.5023   20.7451 N   0  3  0  0  0  0
  -28.5467  -18.3367   21.0734 S   0  0  0  0  0  0
  -31.4819  -12.5864   19.1695 H   0  0  0  0  0  0
  -30.3938  -11.4645   19.9392 H   0  0  0  0  0  0
  -29.7963  -11.7489   17.5119 H   0  0  0  0  0  0
  -29.6404  -13.4734   17.7321 H   0  0  0  0  0  0
  -27.8940  -11.2842   18.9011 H   0  0  0  0  0  0
  -27.3829  -12.5369   17.8008 H   0  0  0  0  0  0
  -27.6500  -14.2507   19.4901 H   0  0  0  0  0  0
  -28.7239  -12.1179   21.4032 H   0  0  0  0  0  0
  -28.4209  -13.7810   21.8242 H   0  0  0  0  0  0
  -25.2758   -9.5688   22.4755 H   0  0  0  0  0  0
  -24.0001   -7.4638   22.7474 H   0  0  0  0  0  0
  -21.0838   -8.8767   19.8955 H   0  0  0  0  0  0
  -22.3687  -10.9669   19.6162 H   0  0  0  0  0  0
  -21.2009   -7.6146   23.9712 H   0  0  0  0  0  0
  -21.1483   -6.0522   25.9076 H   0  0  0  0  0  0
  -22.0598   -2.7607   23.2844 H   0  0  0  0  0  0
  -22.4089  -11.9888   22.4804 H   0  0  0  0  0  0
  -21.1094  -13.1253   22.2613 H   0  0  0  0  0  0
  -24.6526  -15.8406   20.5153 H   0  0  0  0  0  0
  -26.2656  -15.6302   20.0610 H   0  0  0  0  0  0
  -26.7198  -32.5387   23.1039 H   0  0  0  0  0  0
  -25.0068  -33.9676   25.0374 H   0  0  0  0  0  0
  -22.7232  -31.2964   21.3914 H   0  0  0  0  0  0
  -23.3750  -35.9610   23.3300 H   0  0  0  0  0  0
  -24.3574  -36.8905   22.2054 H   0  0  0  0  0  0
  -23.7244  -37.6478   23.6668 H   0  0  0  0  0  0
  -26.1082  -31.5263   20.6024 H   0  0  0  0  0  0
  -26.8492  -30.8159   22.0045 H   0  0  0  0  0  0
  -28.1139  -28.9339   21.1867 H   0  0  0  0  0  0
  -25.9302  -25.8719   19.0588 H   0  0  0  0  0  0
  -23.9673  -27.2775   19.0339 H   0  0  0  0  0  0
  -23.7691  -30.5759   19.3976 H   0  0  0  0  0  0
  -22.7614  -29.2360   19.8535 H   0  0  0  0  0  0
  -25.1301  -36.1898   25.0815 H   0  0  0  0  0  0
  -20.9985  -28.3277   24.1398 H   0  0  0  0  0  0
  -20.5673  -26.2308   23.3617 H   0  0  0  0  0  0
  -21.6643  -26.7440   22.1211 H   0  0  0  0  0  0
  -19.6911  -25.6296   21.1249 H   0  0  0  0  0  0
  -19.6692  -27.3193   20.6741 H   0  0  0  0  0  0
  -17.4202  -26.6682   21.4026 H   0  0  0  0  0  0
  -18.0330  -26.0081   22.9027 H   0  0  0  0  0  0
  -19.7939  -30.7280   24.2262 H   0  0  0  0  0  0
  -17.5018  -31.6273   24.5164 H   0  0  0  0  0  0
  -15.5355  -30.2990   23.7660 H   0  0  0  0  0  0
  -15.8676  -28.0826   22.7071 H   0  0  0  0  0  0
  -24.5896  -30.7087   25.7757 H   0  0  0  0  0  0
  -24.8914  -32.2918   26.4824 H   0  0  0  0  0  0
  -25.8037  -30.8936   27.0216 H   0  0  0  0  0  0
  -26.2934  -29.6741   24.1212 H   0  0  0  0  0  0
  -27.4021  -29.7262   25.4720 H   0  0  0  0  0  0
  -27.8815  -30.4267   23.9444 H   0  0  0  0  0  0
  -27.2646  -33.3624   26.2051 H   0  0  0  0  0  0
  -28.3870  -32.6884   25.0327 H   0  0  0  0  0  0
  -28.0704  -31.8457   26.5417 H   0  0  0  0  0  0
  -28.2590  -38.0095   24.7514 H   0  0  0  0  0  0
  -28.1079  -36.2627   24.6284 H   0  0  0  0  0  0
  -27.2296  -37.1436   25.8866 H   0  0  0  0  0  0
  -20.9385  -29.8763   21.6869 H   0  0  0  0  0  0
  -26.0162  -38.2835   24.1415 H   0  0  0  0  0  0
  -31.2303  -20.1073   19.4690 H   0  0  0  0  0  0
  -31.7148  -17.6114   19.5441 H   0  0  0  0  0  0
  -29.9001  -22.3569   19.5006 H   0  0  0  0  0  0
  -27.1932  -24.5483   18.1077 H   0  0  0  0  0  0
  -28.8229  -24.1356   17.6916 H   0  0  0  0  0  0
  -28.3272  -25.8168   17.6440 H   0  0  0  0  0  0
  -30.7227  -24.4028   19.1418 H   0  0  0  0  0  0
  -30.6309  -25.3626   20.6119 H   0  0  0  0  0  0
  -30.4826  -26.1284   19.0396 H   0  0  0  0  0  0
  -28.7733  -23.9503   21.5555 H   0  0  0  0  0  0
  -28.8541  -15.5087   21.1096 H   0  0  0  0  0  0
  -26.4941  -23.2698   19.8776 H   0  0  0  0  0  0
  -26.5079  -24.3136   21.1466 H   0  0  0  0  0  0
  -26.8135  -22.7254   21.3711 H   0  0  0  0  0  0
  1 25  1  0  0  0
  1 30  2  0  0  0
  1 81  1  0  0  0
  2  3  1  0  0  0
  2 25  1  0  0  0
  2 84  1  0  0  0
  2 85  1  0  0  0
  3  4  1  0  0  0
  3 86  1  0  0  0
  3 87  1  0  0  0
  4  5  1  0  0  0
  4 88  1  0  0  0
  4 89  1  0  0  0
  5  6  1  0  0  0
  5 26  1  0  0  0
  5 90  1  0  0  0
  6 25  1  0  0  0
  6 91  1  0  0  0
  6 92  1  0  0  0
  7  8  2  0  0  0
  7 26  1  0  0  0
  7 29  1  0  0  0
  8  9  1  0  0  0
  8 22  1  0  0  0
  9 10  1  0  0  0
  9 27  2  0  0  0
 10 11  2  0  0  0
 10 15  1  0  0  0
 11 12  1  0  0  0
 11 93  1  0  0  0
 12 13  2  0  0  0
 12 94  1  0  0  0
 13 14  1  0  0  0
 13 31  1  0  0  0
 14 15  2  0  0  0
 14 95  1  0  0  0
 15 96  1  0  0  0
 16 17  2  0  0  0
 16 21  1  0  0  0
 16 31  1  0  0  0
 17 18  1  0  0  0
 17 97  1  0  0  0
 18 19  2  0  0  0
 18 98  1  0  0  0
 19 20  1  0  0  0
 19 24  1  0  0  0
 20 21  2  0  0  0
 20 99  1  0  0  0
 21 23  1  0  0  0
 22 28  1  0  0  0
 22 32  2  0  0  0
 26 27  1  0  0  0
 28100  1  0  0  0
 28101  1  0  0  0
 29102  1  0  0  0
 29103  1  0  0  0
 33 34  1  0  0  0
 33 66  1  0  0  0
 33 70  2  0  0  0
 34 36  1  0  0  0
 34 59  1  0  0  0
 34104  1  0  0  0
 35 44  2  0  0  0
 35 45  1  0  0  0
 35 68  1  0  0  0
 36 56  1  0  0  0
 36105  1  0  0  0
 37 39  1  0  0  0
 37 47  1  0  0  0
 37 66  1  0  0  0
 37106  1  0  0  0
 38 43  2  0  0  0
 38 46  1  0  0  0
 38 47  1  0  0  0
 39 64  1  0  0  0
 39 67  2  0  0  0
 40 52  1  0  0  0
 40 53  2  0  0  0
 40 58  1  0  0  0
 41107  1  0  0  0
 41108  1  0  0  0
 41109  1  0  0  0
 41 48  1  0  0  0
 42 43  1  0  0  0
 42 66  1  0  0  0
 42110  1  0  0  0
 42111  1  0  0  0
 43 44  1  0  0  0
 44112  1  0  0  0
 45 46  2  0  0  0
 45113  1  0  0  0
 46114  1  0  0  0
 47115  1  0  0  0
 47116  1  0  0  0
 48 56  1  0  0  0
 48 65  1  0  0  0
 48117  1  0  0  0
 49 50  1  0  0  0
 49 53  1  0  0  0
 49 64  1  0  0  0
 49118  1  0  0  0
 50 51  1  0  0  0
 50119  1  0  0  0
 50120  1  0  0  0
 51 52  1  0  0  0
 51121  1  0  0  0
 51122  1  0  0  0
 52123  1  0  0  0
 52124  1  0  0  0
 53 54  1  0  0  0
 54 55  2  0  0  0
 54125  1  0  0  0
 55 57  1  0  0  0
 55126  1  0  0  0
 56 69  2  0  0  0
 57 58  2  0  0  0
 57127  1  0  0  0
 58128  1  0  0  0
 59 60  1  0  0  0
 59 61  1  0  0  0
 59 62  1  0  0  0
 60129  1  0  0  0
 60130  1  0  0  0
 60131  1  0  0  0
 61132  1  0  0  0
 61133  1  0  0  0
 61134  1  0  0  0
 62135  1  0  0  0
 62136  1  0  0  0
 62137  1  0  0  0
 63 65  1  0  0  0
 63138  1  0  0  0
 63139  1  0  0  0
 63140  1  0  0  0
 64141  1  0  0  0
 65142  1  0  0  0
 68 79  1  0  0  0
 71 72  1  0  0  0
 71 73  2  0  0  0
 71143  1  0  0  0
 72 74  2  0  0  0
 72144  1  0  0  0
 73 80  1  0  0  0
 73 83  1  0  0  0
 74 81  1  0  0  0
 74 83  1  0  0  0
 75 78  1  0  0  0
 75 80  2  0  0  0
 75145  1  0  0  0
 76146  1  0  0  0
 76147  1  0  0  0
 76148  1  0  0  0
 76 79  1  0  0  0
 77 79  1  0  0  0
 77149  1  0  0  0
 77150  1  0  0  0
 77151  1  0  0  0
 78 79  1  0  0  0
 78 82  1  0  0  0
 78152  1  0  0  0
 81153  1  0  0  0
 82154  1  0  0  0
 82155  1  0  0  0
 82156  1  0  0  0
M  CHG  1  82   1
M  ISO  4   1 100  68 101  79 101  81 100
M  END
> <chiral flag>
0

> <version>
0

> <s_m_source_file>
/data/baiqing/PycharmProjects/Reinvent-master-3.2/result/LINK_invent/BTK/process_docking_weight1_custom_product_contain_oxygen_bond_distance_aromatic_linkinvent_7_9_3/rearranged_h_0149.sdf

> <i_m_source_file_index>
8

> <r_mmod_Potential_Energy-OPLS-2005>
-106.828453063965

> <r_mmod_Stretch_Energy-OPLS-2005>
122.37393951416

> <r_mmod_Bend_Energy-OPLS-2005>
227.467010498047

> <r_mmod_Torsional_Energy-OPLS-2005>
219.518798828125

> <r_mmod_Improper_Torsional_Energy-OPLS-2005>
3.99178385734558

> <r_mmod_Van_der_Waal_Energy-OPLS-2005>
116.968223571777

> <r_mmod_Electrostatic_Energy-OPLS-2005>
-403.541687011719

> <r_mmod_Solvation_Energy-OPLS-2005>
-473.033477783203

> <b_mmod_Minimization_Converged-OPLS-2005>
0

> <r_mmod_RMS_Derivative-OPLS-2005>
0.551989734172821

$$$$
8
                    3D
 Structure written by MMmdl.
159167  0  0  1  0            999 V2000
  -30.6687  -14.5050   20.5281 C   0  0  0  0  0  0
  -30.4308  -12.3122   19.4313 C   0  0  0  0  0  0
  -29.4999  -12.4922   18.2123 C   0  0  0  0  0  0
  -28.0196  -12.3534   18.6227 C   0  0  0  0  0  0
  -27.6609  -13.2035   19.8707 C   0  0  2  0  0  0
  -28.7026  -12.9972   20.9944 C   0  0  0  0  0  0
  -25.2597  -13.8159   20.5681 C   0  0  0  0  0  0
  -24.1838  -13.0444   20.9178 C   0  0  0  0  0  0
  -24.6381  -11.6906   20.8732 C   0  0  0  0  0  0
  -23.9048  -10.4295   21.0407 C   0  0  0  0  0  0
  -24.3604   -9.4212   21.9183 C   0  0  0  0  0  0
  -23.6286   -8.2243   22.0749 C   0  0  0  0  0  0
  -22.4271   -8.0280   21.3541 C   0  0  0  0  0  0
  -21.9899   -9.0253   20.4645 C   0  0  0  0  0  0
  -22.7221  -10.2136   20.3056 C   0  0  0  0  0  0
  -21.6850   -6.0737   22.5280 C   0  0  0  0  0  0
  -21.4012   -6.5640   23.8215 C   0  0  0  0  0  0
  -21.3660   -5.6792   24.9179 C   0  0  0  0  0  0
  -21.6046   -4.3055   24.7228 C   0  0  0  0  0  0
  -21.8818   -3.8147   23.4348 C   0  0  0  0  0  0
  -21.9192   -4.6964   22.3406 C   0  0  0  0  0  0
  -22.7864  -13.5250   21.1846 C   0  0  0  0  0  0
  -22.1661   -4.2150   21.0982 F   0  0  0  0  0  0
  -21.5631   -3.4538   25.7740 F   0  0  0  0  0  0
  -30.0333  -13.3042   20.4427 N   0  0  0  0  0  0
  -26.3018  -12.9315   20.3347 N   0  0  0  0  0  0
  -25.9306  -11.6481   20.5760 N   0  0  0  0  0  0
  -22.0493  -12.8252   22.0402 N   0  0  0  0  0  0
  -25.4353  -15.1877   20.4100 N   0  0  0  0  0  0
  -31.8232  -14.6803   20.1272 O   0  0  0  0  0  0
  -21.6634   -6.8879   21.4242 O   0  0  0  0  0  0
  -22.3558  -14.5562   20.6704 O   0  0  0  0  0  0
  -24.6172  -31.8677   23.2095 C   0  0  0  0  0  0
  -25.9066  -32.4817   23.8384 C   0  0  1  0  0  0
  -27.2236  -27.4087   20.0956 C   0  0  0  0  0  0
  -25.5923  -33.8615   24.2323 N   0  0  0  0  0  0
  -23.4047  -30.4938   21.5515 C   0  0  2  0  0  0
  -24.8469  -28.9620   20.1121 C   0  0  0  0  0  0
  -22.7428  -29.4660   22.4981 C   0  0  0  0  0  0
  -18.0290  -28.1366   22.8489 C   0  0  0  0  0  0
  -24.1491  -36.7311   23.2636 C   0  0  0  0  0  0
  -25.9371  -30.8264   21.3653 C   0  0  0  0  0  0
  -26.0112  -29.4611   20.7083 C   0  0  0  0  0  0
  -27.2022  -28.6942   20.6932 C   0  0  0  0  0  0
  -26.0357  -26.9385   19.4860 C   0  0  0  0  0  0
  -24.8560  -27.7016   19.4960 C   0  0  0  0  0  0
  -23.6117  -29.8317   20.1642 C   0  0  0  0  0  0
  -25.4111  -36.3107   24.0337 C   0  0  1  0  0  0
  -20.5880  -28.3662   23.1315 C   0  0  2  0  0  0
  -20.6787  -26.9396   22.5414 C   0  0  0  0  0  0
  -19.5769  -26.6380   21.5210 C   0  0  0  0  0  0
  -18.1945  -26.7917   22.1613 C   0  0  0  0  0  0
  -19.1535  -28.8829   23.2902 C   0  0  0  0  0  0
  -18.9452  -30.1436   23.8908 C   0  0  0  0  0  0
  -17.6451  -30.6570   24.0562 C   0  0  0  0  0  0
  -25.9039  -34.9473   23.5124 C   0  0  0  0  0  0
  -16.5345  -29.9066   23.6319 C   0  0  0  0  0  0
  -16.7275  -28.6486   23.0338 C   0  0  0  0  0  0
  -26.4484  -31.6593   25.0714 C   0  0  0  0  0  0
  -25.3748  -31.3704   26.1458 C   0  0  0  0  0  0
  -27.0307  -30.3033   24.6091 C   0  0  0  0  0  0
  -27.6061  -32.4305   25.7479 C   0  0  0  0  0  0
  -27.5586  -37.1807   24.8467 C   0  0  0  0  0  0
  -21.4155  -29.3026   22.3714 N   0  0  0  0  0  0
  -26.4299  -37.3790   23.9410 N   0  0  0  0  0  0
  -24.6717  -31.0768   22.1002 N   0  0  0  0  0  0
  -23.4198  -28.8205   23.3028 O   0  0  0  0  0  0
  -28.3871  -26.6513   20.1298 O   0  0  0  0  0  0
  -26.5590  -34.8922   22.4679 O   0  0  0  0  0  0
  -23.5362  -32.1432   23.7487 O   0  0  0  0  0  0
  -30.2994  -19.0230   19.7353 C   0  0  0  0  0  0
  -30.4392  -17.6010   19.5811 C   0  0  0  0  0  0
  -29.7045  -19.4254   20.9053 C   0  0  0  0  0  0
  -29.9917  -16.8787   20.6838 C   0  0  0  0  0  0
  -30.9036  -17.0484   18.3070 C   0  0  0  0  0  0
  -29.5064  -21.8807   20.7462 C   0  0  0  0  0  0
  -32.0386  -17.8050   17.6256 C   0  0  0  0  0  0
  -28.4864  -24.7720   18.5880 C   0  0  0  0  0  0
  -28.9151  -23.0912   21.5025 C   0  0  0  0  0  0
  -29.2860  -24.5297   21.0111 C   0  0  0  0  0  0
  -28.2764  -25.2092   20.0467 C   0  0  1  0  0  0
  -29.3529  -20.6744   21.3412 N   0  0  0  0  0  0
  -29.8936  -15.5321   20.9452 N   0  0  0  0  0  0
  -30.4428  -16.0482   17.7504 O   0  0  0  0  0  0
  -30.0911  -22.0433   19.6733 O   0  0  0  0  0  0
  -29.3592  -18.0065   21.8738 S   0  0  0  0  0  0
  -31.4739  -12.4208   19.1284 H   0  0  0  0  0  0
  -30.3420  -11.3039   19.8393 H   0  0  0  0  0  0
  -29.7427  -11.7599   17.4410 H   0  0  0  0  0  0
  -29.6647  -13.4724   17.7643 H   0  0  0  0  0  0
  -27.8321  -11.2990   18.8291 H   0  0  0  0  0  0
  -27.3705  -12.6180   17.7873 H   0  0  0  0  0  0
  -27.7016  -14.2478   19.5601 H   0  0  0  0  0  0
  -28.6808  -11.9651   21.3461 H   0  0  0  0  0  0
  -28.4645  -13.6070   21.8671 H   0  0  0  0  0  0
  -25.2750   -9.5697   22.4754 H   0  0  0  0  0  0
  -24.0002   -7.4637   22.7464 H   0  0  0  0  0  0
  -21.0831   -8.8772   19.8950 H   0  0  0  0  0  0
  -22.3678  -10.9676   19.6166 H   0  0  0  0  0  0
  -21.1998   -7.6146   23.9723 H   0  0  0  0  0  0
  -21.1486   -6.0519   25.9085 H   0  0  0  0  0  0
  -22.0595   -2.7608   23.2847 H   0  0  0  0  0  0
  -22.4091  -11.9914   22.4804 H   0  0  0  0  0  0
  -21.1112  -13.1292   22.2602 H   0  0  0  0  0  0
  -24.6717  -15.8468   20.5175 H   0  0  0  0  0  0
  -26.2913  -15.6233   20.0894 H   0  0  0  0  0  0
  -26.7134  -32.5516   23.1142 H   0  0  0  0  0  0
  -25.0098  -33.9772   25.0486 H   0  0  0  0  0  0
  -22.6936  -31.3114   21.4156 H   0  0  0  0  0  0
  -23.3748  -35.9650   23.3307 H   0  0  0  0  0  0
  -24.3589  -36.8912   22.2048 H   0  0  0  0  0  0
  -23.7241  -37.6522   23.6636 H   0  0  0  0  0  0
  -26.0532  -31.5939   20.5986 H   0  0  0  0  0  0
  -26.8238  -30.8751   21.9855 H   0  0  0  0  0  0
  -28.1000  -29.0748   21.1594 H   0  0  0  0  0  0
  -25.9901  -25.9779   18.9965 H   0  0  0  0  0  0
  -23.9621  -27.3135   19.0280 H   0  0  0  0  0  0
  -23.7213  -30.6086   19.4063 H   0  0  0  0  0  0
  -22.7338  -29.2549   19.8677 H   0  0  0  0  0  0
  -25.1287  -36.1974   25.0830 H   0  0  0  0  0  0
  -20.9979  -28.3233   24.1434 H   0  0  0  0  0  0
  -20.5694  -26.2261   23.3595 H   0  0  0  0  0  0
  -21.6660  -26.7445   22.1209 H   0  0  0  0  0  0
  -19.6932  -25.6291   21.1237 H   0  0  0  0  0  0
  -19.6719  -27.3193   20.6745 H   0  0  0  0  0  0
  -17.4222  -26.6673   21.4009 H   0  0  0  0  0  0
  -18.0339  -26.0046   22.8993 H   0  0  0  0  0  0
  -19.7922  -30.7255   24.2285 H   0  0  0  0  0  0
  -17.4995  -31.6250   24.5160 H   0  0  0  0  0  0
  -15.5343  -30.2962   23.7630 H   0  0  0  0  0  0
  -15.8681  -28.0806   22.7033 H   0  0  0  0  0  0
  -24.5929  -30.7043   25.7797 H   0  0  0  0  0  0
  -24.8929  -32.2857   26.4904 H   0  0  0  0  0  0
  -25.8100  -30.8877   27.0217 H   0  0  0  0  0  0
  -26.2843  -29.6796   24.1154 H   0  0  0  0  0  0
  -27.4087  -29.7266   25.4544 H   0  0  0  0  0  0
  -27.8679  -30.4350   23.9230 H   0  0  0  0  0  0
  -27.2690  -33.3599   26.2085 H   0  0  0  0  0  0
  -28.3858  -32.6876   25.0296 H   0  0  0  0  0  0
  -28.0742  -31.8407   26.5370 H   0  0  0  0  0  0
  -28.2608  -38.0100   24.7507 H   0  0  0  0  0  0
  -28.1074  -36.2629   24.6297 H   0  0  0  0  0  0
  -27.2304  -37.1467   25.8871 H   0  0  0  0  0  0
  -20.9317  -29.8731   21.6921 H   0  0  0  0  0  0
  -26.0190  -38.2872   24.1401 H   0  0  0  0  0  0
  -30.5964  -19.6993   18.9463 H   0  0  0  0  0  0
  -31.6430  -18.6322   17.0375 H   0  0  0  0  0  0
  -32.5920  -17.1424   16.9610 H   0  0  0  0  0  0
  -32.7322  -18.2016   18.3668 H   0  0  0  0  0  0
  -28.3128  -23.7026   18.4706 H   0  0  0  0  0  0
  -29.5035  -24.9814   18.2564 H   0  0  0  0  0  0
  -27.8121  -25.2857   17.9044 H   0  0  0  0  0  0
  -29.2591  -23.0013   22.5338 H   0  0  0  0  0  0
  -27.8318  -22.9757   21.5488 H   0  0  0  0  0  0
  -30.2919  -24.5538   20.5900 H   0  0  0  0  0  0
  -29.3421  -25.1552   21.9027 H   0  0  0  0  0  0
  -27.2874  -24.8954   20.3822 H   0  0  0  0  0  0
  -28.8795  -20.7003   22.2349 H   0  0  0  0  0  0
  -29.0571  -15.2449   21.4316 H   0  0  0  0  0  0
  1 25  1  0  0  0
  1 30  2  0  0  0
  1 83  1  0  0  0
  2  3  1  0  0  0
  2 25  1  0  0  0
  2 87  1  0  0  0
  2 88  1  0  0  0
  3  4  1  0  0  0
  3 89  1  0  0  0
  3 90  1  0  0  0
  4  5  1  0  0  0
  4 91  1  0  0  0
  4 92  1  0  0  0
  5  6  1  0  0  0
  5 26  1  0  0  0
  5 93  1  0  0  0
  6 25  1  0  0  0
  6 94  1  0  0  0
  6 95  1  0  0  0
  7  8  2  0  0  0
  7 26  1  0  0  0
  7 29  1  0  0  0
  8  9  1  0  0  0
  8 22  1  0  0  0
  9 10  1  0  0  0
  9 27  2  0  0  0
 10 11  2  0  0  0
 10 15  1  0  0  0
 11 12  1  0  0  0
 11 96  1  0  0  0
 12 13  2  0  0  0
 12 97  1  0  0  0
 13 14  1  0  0  0
 13 31  1  0  0  0
 14 15  2  0  0  0
 14 98  1  0  0  0
 15 99  1  0  0  0
 16 17  2  0  0  0
 16 21  1  0  0  0
 16 31  1  0  0  0
 17 18  1  0  0  0
 17100  1  0  0  0
 18 19  2  0  0  0
 18101  1  0  0  0
 19 20  1  0  0  0
 19 24  1  0  0  0
 20 21  2  0  0  0
 20102  1  0  0  0
 21 23  1  0  0  0
 22 28  1  0  0  0
 22 32  2  0  0  0
 26 27  1  0  0  0
 28103  1  0  0  0
 28104  1  0  0  0
 29105  1  0  0  0
 29106  1  0  0  0
 33 34  1  0  0  0
 33 66  1  0  0  0
 33 70  2  0  0  0
 34 36  1  0  0  0
 34 59  1  0  0  0
 34107  1  0  0  0
 35 44  2  0  0  0
 35 45  1  0  0  0
 35 68  1  0  0  0
 36 56  1  0  0  0
 36108  1  0  0  0
 37 39  1  0  0  0
 37 47  1  0  0  0
 37 66  1  0  0  0
 37109  1  0  0  0
 38 43  2  0  0  0
 38 46  1  0  0  0
 38 47  1  0  0  0
 39 64  1  0  0  0
 39 67  2  0  0  0
 40 52  1  0  0  0
 40 53  2  0  0  0
 40 58  1  0  0  0
 41110  1  0  0  0
 41111  1  0  0  0
 41112  1  0  0  0
 41 48  1  0  0  0
 42 43  1  0  0  0
 42 66  1  0  0  0
 42113  1  0  0  0
 42114  1  0  0  0
 43 44  1  0  0  0
 44115  1  0  0  0
 45 46  2  0  0  0
 45116  1  0  0  0
 46117  1  0  0  0
 47118  1  0  0  0
 47119  1  0  0  0
 48 56  1  0  0  0
 48 65  1  0  0  0
 48120  1  0  0  0
 49 50  1  0  0  0
 49 53  1  0  0  0
 49 64  1  0  0  0
 49121  1  0  0  0
 50 51  1  0  0  0
 50122  1  0  0  0
 50123  1  0  0  0
 51 52  1  0  0  0
 51124  1  0  0  0
 51125  1  0  0  0
 52126  1  0  0  0
 52127  1  0  0  0
 53 54  1  0  0  0
 54 55  2  0  0  0
 54128  1  0  0  0
 55 57  1  0  0  0
 55129  1  0  0  0
 56 69  2  0  0  0
 57 58  2  0  0  0
 57130  1  0  0  0
 58131  1  0  0  0
 59 60  1  0  0  0
 59 61  1  0  0  0
 59 62  1  0  0  0
 60132  1  0  0  0
 60133  1  0  0  0
 60134  1  0  0  0
 61135  1  0  0  0
 61136  1  0  0  0
 61137  1  0  0  0
 62138  1  0  0  0
 62139  1  0  0  0
 62140  1  0  0  0
 63 65  1  0  0  0
 63141  1  0  0  0
 63142  1  0  0  0
 63143  1  0  0  0
 64144  1  0  0  0
 65145  1  0  0  0
 68 81  1  0  0  0
 71 72  1  0  0  0
 71 73  2  0  0  0
 71146  1  0  0  0
 72 74  2  0  0  0
 72 75  1  0  0  0
 73 82  1  0  0  0
 73 86  1  0  0  0
 74 83  1  0  0  0
 74 86  1  0  0  0
 75 77  1  0  0  0
 75 84  2  0  0  0
 76 79  1  0  0  0
 76 82  1  0  0  0
 76 85  2  0  0  0
 77147  1  0  0  0
 77148  1  0  0  0
 77149  1  0  0  0
 78150  1  0  0  0
 78151  1  0  0  0
 78152  1  0  0  0
 78 81  1  0  0  0
 79 80  1  0  0  0
 79153  1  0  0  0
 79154  1  0  0  0
 80 81  1  0  0  0
 80155  1  0  0  0
 80156  1  0  0  0
 81157  1  0  0  0
 82158  1  0  0  0
 83159  1  0  0  0
M  ISO  4   1 100  68 101  81 101  83 100
M  END
> <chiral flag>
0

> <version>
0

> <s_m_source_file>
/data/baiqing/PycharmProjects/Reinvent-master-3.2/result/LINK_invent/BTK/process_docking_weight1_custom_product_contain_oxygen_bond_distance_aromatic_linkinvent_7_9_3/rearranged_h_0149.sdf

> <i_m_source_file_index>
9

> <r_mmod_Potential_Energy-OPLS-2005>
-85.47607421875

> <r_mmod_Stretch_Energy-OPLS-2005>
42.202709197998

> <r_mmod_Bend_Energy-OPLS-2005>
122.693824768066

> <r_mmod_Torsional_Energy-OPLS-2005>
264.373077392578

> <r_mmod_Improper_Torsional_Energy-OPLS-2005>
4.18994951248169

> <r_mmod_Van_der_Waal_Energy-OPLS-2005>
133.922103881836

> <r_mmod_Electrostatic_Energy-OPLS-2005>
-438.4228515625

> <r_mmod_Solvation_Energy-OPLS-2005>
-232.859573364258

> <b_mmod_Minimization_Converged-OPLS-2005>
0

> <r_mmod_RMS_Derivative-OPLS-2005>
0.818196594715118

$$$$
9
                    3D
 Structure written by MMmdl.
173183  0  0  1  0            999 V2000
  -30.6769  -14.4446   20.5565 C   0  0  0  0  0  0
  -30.4342  -12.2918   19.3915 C   0  0  0  0  0  0
  -29.4890  -12.4868   18.1872 C   0  0  0  0  0  0
  -28.0107  -12.3416   18.6107 C   0  0  0  0  0  0
  -27.6559  -13.1846   19.8639 C   0  0  2  0  0  0
  -28.7039  -12.9559   20.9765 C   0  0  0  0  0  0
  -25.2550  -13.8055   20.5565 C   0  0  0  0  0  0
  -24.1818  -13.0383   20.9196 C   0  0  0  0  0  0
  -24.6371  -11.6853   20.8780 C   0  0  0  0  0  0
  -23.9032  -10.4266   21.0451 C   0  0  0  0  0  0
  -24.3587   -9.4181   21.9216 C   0  0  0  0  0  0
  -23.6273   -8.2213   22.0769 C   0  0  0  0  0  0
  -22.4258   -8.0260   21.3554 C   0  0  0  0  0  0
  -21.9894   -9.0239   20.4658 C   0  0  0  0  0  0
  -22.7216  -10.2122   20.3093 C   0  0  0  0  0  0
  -21.6842   -6.0720   22.5277 C   0  0  0  0  0  0
  -21.3989   -6.5627   23.8208 C   0  0  0  0  0  0
  -21.3666   -5.6792   24.9171 C   0  0  0  0  0  0
  -21.6055   -4.3061   24.7228 C   0  0  0  0  0  0
  -21.8823   -3.8141   23.4356 C   0  0  0  0  0  0
  -21.9190   -4.6948   22.3404 C   0  0  0  0  0  0
  -22.7862  -13.5213   21.1868 C   0  0  0  0  0  0
  -22.1668   -4.2144   21.0988 F   0  0  0  0  0  0
  -21.5646   -3.4544   25.7743 F   0  0  0  0  0  0
  -30.0308  -13.2614   20.4110 N   0  0  0  0  0  0
  -26.2988  -12.9200   20.3303 N   0  0  0  0  0  0
  -25.9284  -11.6396   20.5781 N   0  0  0  0  0  0
  -22.0489  -12.8231   22.0441 N   0  0  0  0  0  0
  -25.4158  -15.1720   20.3656 N   0  0  0  0  0  0
  -31.8606  -14.6338   20.2590 O   0  0  0  0  0  0
  -21.6633   -6.8854   21.4236 O   0  0  0  0  0  0
  -22.3568  -14.5530   20.6718 O   0  0  0  0  0  0
  -24.6084  -31.8725   23.2118 C   0  0  0  0  0  0
  -25.9011  -32.4833   23.8420 C   0  0  1  0  0  0
  -27.2447  -27.4998   20.0835 C   0  0  0  0  0  0
  -25.5917  -33.8630   24.2395 N   0  0  0  0  0  0
  -23.3924  -30.4961   21.5495 C   0  0  2  0  0  0
  -24.8398  -28.9642   20.1167 C   0  0  0  0  0  0
  -22.7336  -29.4686   22.4963 C   0  0  0  0  0  0
  -18.0222  -28.1379   22.8492 C   0  0  0  0  0  0
  -24.1457  -36.7339   23.2631 C   0  0  0  0  0  0
  -25.9140  -30.8607   21.3489 C   0  0  0  0  0  0
  -25.9958  -29.4991   20.6988 C   0  0  0  0  0  0
  -27.2040  -28.7773   20.6697 C   0  0  0  0  0  0
  -26.0781  -26.9601   19.5050 C   0  0  0  0  0  0
  -24.8746  -27.6909   19.5159 C   0  0  0  0  0  0
  -23.5964  -29.8226   20.1648 C   0  0  0  0  0  0
  -25.4084  -36.3109   24.0339 C   0  0  1  0  0  0
  -20.5812  -28.3689   23.1303 C   0  0  2  0  0  0
  -20.6759  -26.9417   22.5436 C   0  0  0  0  0  0
  -19.5713  -26.6334   21.5267 C   0  0  0  0  0  0
  -18.1886  -26.7898   22.1685 C   0  0  0  0  0  0
  -19.1467  -28.8852   23.2892 C   0  0  0  0  0  0
  -18.9394  -30.1463   23.8889 C   0  0  0  0  0  0
  -17.6389  -30.6573   24.0613 C   0  0  0  0  0  0
  -25.9017  -34.9461   23.5157 C   0  0  0  0  0  0
  -16.5291  -29.9074   23.6389 C   0  0  0  0  0  0
  -16.7201  -28.6517   23.0343 C   0  0  0  0  0  0
  -26.4446  -31.6562   25.0713 C   0  0  0  0  0  0
  -25.3735  -31.3725   26.1492 C   0  0  0  0  0  0
  -27.0199  -30.2974   24.6065 C   0  0  0  0  0  0
  -27.6072  -32.4226   25.7462 C   0  0  0  0  0  0
  -27.5574  -37.1823   24.8458 C   0  0  0  0  0  0
  -21.4068  -29.3042   22.3686 N   0  0  0  0  0  0
  -26.4275  -37.3788   23.9412 N   0  0  0  0  0  0
  -24.6567  -31.0890   22.0972 N   0  0  0  0  0  0
  -23.4131  -28.8235   23.2992 O   0  0  0  0  0  0
  -28.4164  -26.7896   20.0925 O   0  0  0  0  0  0
  -26.5554  -34.8891   22.4699 O   0  0  0  0  0  0
  -23.5291  -32.1441   23.7568 O   0  0  0  0  0  0
  -26.6123  -22.6885   24.1071 C   0  0  0  0  0  0
  -28.1065  -16.7802   21.7004 C   0  0  0  0  0  0
  -24.4060  -22.7048   24.3688 C   0  0  0  0  0  0
  -25.4700  -21.8503   24.2333 C   0  0  0  0  0  0
  -29.3914  -16.1917   21.7206 C   0  0  0  0  0  0
  -27.9180  -17.2540   22.9660 C   0  0  0  0  0  0
  -26.1407  -23.9693   24.1040 C   0  0  0  0  0  0
  -28.1378  -25.1859   23.4957 C   0  0  0  0  0  0
  -26.4906  -19.6911   25.0877 C   0  0  0  0  0  0
  -25.6991  -19.9043   22.6922 C   0  0  0  0  0  0
  -26.5074  -18.1636   24.8958 C   0  0  0  0  0  0
  -25.7290  -18.3751   22.5813 C   0  0  0  0  0  0
  -25.4534  -20.3478   24.1485 C   0  0  0  0  0  0
  -29.5784  -17.4398   24.9599 C   0  0  0  0  0  0
  -28.5158  -26.2930   22.5210 C   0  0  0  0  0  0
  -28.4458  -25.7544   21.0703 C   0  0  0  0  0  0
  -30.0223  -16.3577   22.8679 N   0  0  0  0  0  0
  -29.1300  -17.0406   23.6380 N   0  0  0  0  0  0
  -26.7446  -17.8427   23.4899 N   0  0  0  0  0  0
  -29.8256  -15.4749   20.5894 N   0  0  0  0  0  0
  -26.8282  -25.0907   23.7815 N   0  0  0  0  0  0
  -29.0165  -24.4727   23.9880 O   0  0  0  0  0  0
  -24.7954  -24.0077   24.2728 O   0  0  0  0  0  0
  -31.4726  -12.4255   19.0819 H   0  0  0  0  0  0
  -30.3575  -11.2774   19.7861 H   0  0  0  0  0  0
  -29.7254  -11.7582   17.4105 H   0  0  0  0  0  0
  -29.6508  -13.4704   17.7402 H   0  0  0  0  0  0
  -27.8312  -11.2855   18.8167 H   0  0  0  0  0  0
  -27.3519  -12.6001   17.7809 H   0  0  0  0  0  0
  -27.6920  -14.2289   19.5579 H   0  0  0  0  0  0
  -28.6763  -11.9203   21.3211 H   0  0  0  0  0  0
  -28.4793  -13.5642   21.8534 H   0  0  0  0  0  0
  -25.2724   -9.5668   22.4792 H   0  0  0  0  0  0
  -23.9988   -7.4607   22.7486 H   0  0  0  0  0  0
  -21.0833   -8.8761   19.8961 H   0  0  0  0  0  0
  -22.3677  -10.9671   19.6220 H   0  0  0  0  0  0
  -21.1958   -7.6136   23.9702 H   0  0  0  0  0  0
  -21.1490   -6.0527   25.9080 H   0  0  0  0  0  0
  -22.0595   -2.7607   23.2856 H   0  0  0  0  0  0
  -22.4065  -11.9868   22.4815 H   0  0  0  0  0  0
  -21.1138  -13.1319   22.2661 H   0  0  0  0  0  0
  -24.6203  -15.7989   20.3982 H   0  0  0  0  0  0
  -26.2121  -15.5695   19.8891 H   0  0  0  0  0  0
  -26.7129  -32.5512   23.1241 H   0  0  0  0  0  0
  -25.0134  -33.9823   25.0584 H   0  0  0  0  0  0
  -22.6783  -31.3100   21.4106 H   0  0  0  0  0  0
  -23.3667  -35.9720   23.3284 H   0  0  0  0  0  0
  -24.3581  -36.8934   22.2045 H   0  0  0  0  0  0
  -23.7261  -37.6578   23.6635 H   0  0  0  0  0  0
  -26.0132  -31.6273   20.5784 H   0  0  0  0  0  0
  -26.8096  -30.9195   21.9550 H   0  0  0  0  0  0
  -28.0989  -29.1928   21.1130 H   0  0  0  0  0  0
  -26.1042  -25.9827   19.0450 H   0  0  0  0  0  0
  -23.9880  -27.2729   19.0592 H   0  0  0  0  0  0
  -23.6901  -30.5940   19.3990 H   0  0  0  0  0  0
  -22.7227  -29.2324   19.8860 H   0  0  0  0  0  0
  -25.1260  -36.1992   25.0842 H   0  0  0  0  0  0
  -20.9948  -28.3284   24.1403 H   0  0  0  0  0  0
  -20.5733  -26.2288   23.3625 H   0  0  0  0  0  0
  -21.6632  -26.7468   22.1215 H   0  0  0  0  0  0
  -19.6880  -25.6203   21.1392 H   0  0  0  0  0  0
  -19.6626  -27.3069   20.6733 H   0  0  0  0  0  0
  -17.4151  -26.6586   21.4094 H   0  0  0  0  0  0
  -18.0310  -26.0090   22.9142 H   0  0  0  0  0  0
  -19.7854  -30.7335   24.2189 H   0  0  0  0  0  0
  -17.4930  -31.6233   24.5243 H   0  0  0  0  0  0
  -15.5299  -30.2961   23.7786 H   0  0  0  0  0  0
  -15.8588  -28.0865   22.7042 H   0  0  0  0  0  0
  -24.5799  -30.7221   25.7796 H   0  0  0  0  0  0
  -24.9082  -32.2932   26.5044 H   0  0  0  0  0  0
  -25.8084  -30.8745   27.0165 H   0  0  0  0  0  0
  -26.2694  -29.6763   24.1145 H   0  0  0  0  0  0
  -27.3946  -29.7181   25.4513 H   0  0  0  0  0  0
  -27.8552  -30.4251   23.9182 H   0  0  0  0  0  0
  -27.2781  -33.3595   26.1969 H   0  0  0  0  0  0
  -28.3924  -32.6660   25.0303 H   0  0  0  0  0  0
  -28.0666  -31.8324   26.5398 H   0  0  0  0  0  0
  -28.2595  -38.0110   24.7449 H   0  0  0  0  0  0
  -28.1057  -36.2631   24.6323 H   0  0  0  0  0  0
  -27.2274  -37.1501   25.8854 H   0  0  0  0  0  0
  -20.9199  -29.8644   21.6834 H   0  0  0  0  0  0
  -26.0143  -38.2859   24.1412 H   0  0  0  0  0  0
  -27.6361  -22.3735   23.9543 H   0  0  0  0  0  0
  -27.4068  -16.7912   20.8824 H   0  0  0  0  0  0
  -23.3390  -22.5560   24.4741 H   0  0  0  0  0  0
  -27.4881  -20.0883   24.8937 H   0  0  0  0  0  0
  -26.2608  -19.9361   26.1251 H   0  0  0  0  0  0
  -24.9284  -20.3162   22.0393 H   0  0  0  0  0  0
  -26.6469  -20.3069   22.3292 H   0  0  0  0  0  0
  -25.5249  -17.7707   25.1663 H   0  0  0  0  0  0
  -27.1955  -17.6792   25.5797 H   0  0  0  0  0  0
  -25.8952  -18.0907   21.5439 H   0  0  0  0  0  0
  -24.7533  -17.9658   22.8507 H   0  0  0  0  0  0
  -24.4586  -20.0124   24.4487 H   0  0  0  0  0  0
  -29.2857  -18.4709   25.1584 H   0  0  0  0  0  0
  -30.6653  -17.3834   25.0242 H   0  0  0  0  0  0
  -29.1583  -16.7780   25.7163 H   0  0  0  0  0  0
  -29.5141  -26.6681   22.7435 H   0  0  0  0  0  0
  -27.8305  -27.1252   22.6832 H   0  0  0  0  0  0
  -27.5803  -25.1004   20.9348 H   0  0  0  0  0  0
  -29.3229  -25.1364   20.8711 H   0  0  0  0  0  0
  -29.0749  -15.3332   19.9342 H   0  0  0  0  0  0
  -26.2548  -25.8715   23.4970 H   0  0  0  0  0  0
  1 25  1  0  0  0
  1 30  2  0  0  0
  1 90  1  0  0  0
  2  3  1  0  0  0
  2 25  1  0  0  0
  2 94  1  0  0  0
  2 95  1  0  0  0
  3  4  1  0  0  0
  3 96  1  0  0  0
  3 97  1  0  0  0
  4  5  1  0  0  0
  4 98  1  0  0  0
  4 99  1  0  0  0
  5  6  1  0  0  0
  5 26  1  0  0  0
  5100  1  0  0  0
  6 25  1  0  0  0
  6101  1  0  0  0
  6102  1  0  0  0
  7  8  2  0  0  0
  7 26  1  0  0  0
  7 29  1  0  0  0
  8  9  1  0  0  0
  8 22  1  0  0  0
  9 10  1  0  0  0
  9 27  2  0  0  0
 10 11  2  0  0  0
 10 15  1  0  0  0
 11 12  1  0  0  0
 11103  1  0  0  0
 12 13  2  0  0  0
 12104  1  0  0  0
 13 14  1  0  0  0
 13 31  1  0  0  0
 14 15  2  0  0  0
 14105  1  0  0  0
 15106  1  0  0  0
 16 17  2  0  0  0
 16 21  1  0  0  0
 16 31  1  0  0  0
 17 18  1  0  0  0
 17107  1  0  0  0
 18 19  2  0  0  0
 18108  1  0  0  0
 19 20  1  0  0  0
 19 24  1  0  0  0
 20 21  2  0  0  0
 20109  1  0  0  0
 21 23  1  0  0  0
 22 28  1  0  0  0
 22 32  2  0  0  0
 26 27  1  0  0  0
 28110  1  0  0  0
 28111  1  0  0  0
 29112  1  0  0  0
 29113  1  0  0  0
 33 34  1  0  0  0
 33 66  1  0  0  0
 33 70  2  0  0  0
 34 36  1  0  0  0
 34 59  1  0  0  0
 34114  1  0  0  0
 35 44  2  0  0  0
 35 45  1  0  0  0
 35 68  1  0  0  0
 36 56  1  0  0  0
 36115  1  0  0  0
 37 39  1  0  0  0
 37 47  1  0  0  0
 37 66  1  0  0  0
 37116  1  0  0  0
 38 43  2  0  0  0
 38 46  1  0  0  0
 38 47  1  0  0  0
 39 64  1  0  0  0
 39 67  2  0  0  0
 40 52  1  0  0  0
 40 53  2  0  0  0
 40 58  1  0  0  0
 41117  1  0  0  0
 41118  1  0  0  0
 41119  1  0  0  0
 41 48  1  0  0  0
 42 43  1  0  0  0
 42 66  1  0  0  0
 42120  1  0  0  0
 42121  1  0  0  0
 43 44  1  0  0  0
 44122  1  0  0  0
 45 46  2  0  0  0
 45123  1  0  0  0
 46124  1  0  0  0
 47125  1  0  0  0
 47126  1  0  0  0
 48 56  1  0  0  0
 48 65  1  0  0  0
 48127  1  0  0  0
 49 50  1  0  0  0
 49 53  1  0  0  0
 49 64  1  0  0  0
 49128  1  0  0  0
 50 51  1  0  0  0
 50129  1  0  0  0
 50130  1  0  0  0
 51 52  1  0  0  0
 51131  1  0  0  0
 51132  1  0  0  0
 52133  1  0  0  0
 52134  1  0  0  0
 53 54  1  0  0  0
 54 55  2  0  0  0
 54135  1  0  0  0
 55 57  1  0  0  0
 55136  1  0  0  0
 56 69  2  0  0  0
 57 58  2  0  0  0
 57137  1  0  0  0
 58138  1  0  0  0
 59 60  1  0  0  0
 59 61  1  0  0  0
 59 62  1  0  0  0
 60139  1  0  0  0
 60140  1  0  0  0
 60141  1  0  0  0
 61142  1  0  0  0
 61143  1  0  0  0
 61144  1  0  0  0
 62145  1  0  0  0
 62146  1  0  0  0
 62147  1  0  0  0
 63 65  1  0  0  0
 63148  1  0  0  0
 63149  1  0  0  0
 63150  1  0  0  0
 64151  1  0  0  0
 65152  1  0  0  0
 68 86  1  0  0  0
 71 74  1  0  0  0
 71 77  2  0  0  0
 71153  1  0  0  0
 72 75  1  0  0  0
 72 76  2  0  0  0
 72154  1  0  0  0
 73 74  2  0  0  0
 73 93  1  0  0  0
 73155  1  0  0  0
 74 83  1  0  0  0
 75 87  2  0  0  0
 75 90  1  0  0  0
 76 88  1  0  0  0
 76 89  1  0  0  0
 77 91  1  0  0  0
 77 93  1  0  0  0
 78 85  1  0  0  0
 78 91  1  0  0  0
 78 92  2  0  0  0
 79 81  1  0  0  0
 79 83  1  0  0  0
 79156  1  0  0  0
 79157  1  0  0  0
 80 82  1  0  0  0
 80 83  1  0  0  0
 80158  1  0  0  0
 80159  1  0  0  0
 81 89  1  0  0  0
 81160  1  0  0  0
 81161  1  0  0  0
 82 89  1  0  0  0
 82162  1  0  0  0
 82163  1  0  0  0
 83164  1  0  0  0
 84 88  1  0  0  0
 84165  1  0  0  0
 84166  1  0  0  0
 84167  1  0  0  0
 85 86  1  0  0  0
 85168  1  0  0  0
 85169  1  0  0  0
 86170  1  0  0  0
 86171  1  0  0  0
 87 88  1  0  0  0
 90172  1  0  0  0
 91173  1  0  0  0
M  ISO  4   1 100  68 101  86 101  90 100
M  END
> <chiral flag>
0

> <version>
0

> <s_m_source_file>
/data/baiqing/PycharmProjects/Reinvent-master-3.2/result/LINK_invent/BTK/process_docking_weight1_custom_product_contain_oxygen_bond_distance_aromatic_linkinvent_7_9_3/rearranged_h_0149.sdf

> <i_m_source_file_index>
10

> <r_mmod_Potential_Energy-OPLS-2005>
-51.446361541748

> <r_mmod_Stretch_Energy-OPLS-2005>
32.9765319824219

> <r_mmod_Bend_Energy-OPLS-2005>
131.768020629883

> <r_mmod_Torsional_Energy-OPLS-2005>
338.907165527344

> <r_mmod_Improper_Torsional_Energy-OPLS-2005>
20.2789440155029

> <r_mmod_Van_der_Waal_Energy-OPLS-2005>
132.835494995117

> <r_mmod_Electrostatic_Energy-OPLS-2005>
-468.325714111328

> <r_mmod_Solvation_Energy-OPLS-2005>
-255.947906494141

> <b_mmod_Minimization_Converged-OPLS-2005>
0

> <r_mmod_RMS_Derivative-OPLS-2005>
3.42462682723999

$$$$
10
                    3D
 Structure written by MMmdl.
160169  0  0  1  0            999 V2000
  -30.6816  -14.5393   20.5902 C   0  0  0  0  0  0
  -30.4357  -12.3513   19.4593 C   0  0  0  0  0  0
  -29.5131  -12.5004   18.2312 C   0  0  0  0  0  0
  -28.0365  -12.3381   18.6401 C   0  0  0  0  0  0
  -27.6574  -13.2157   19.8617 C   0  0  2  0  0  0
  -28.6880  -13.0458   21.0033 C   0  0  0  0  0  0
  -25.2522  -13.8188   20.5625 C   0  0  0  0  0  0
  -24.1769  -13.0465   20.9168 C   0  0  0  0  0  0
  -24.6332  -11.6926   20.8694 C   0  0  0  0  0  0
  -23.9006  -10.4305   21.0372 C   0  0  0  0  0  0
  -24.3553   -9.4234   21.9146 C   0  0  0  0  0  0
  -23.6248   -8.2254   22.0737 C   0  0  0  0  0  0
  -22.4221   -8.0275   21.3569 C   0  0  0  0  0  0
  -21.9829   -9.0237   20.4670 C   0  0  0  0  0  0
  -22.7159  -10.2110   20.3050 C   0  0  0  0  0  0
  -21.6856   -6.0708   22.5277 C   0  0  0  0  0  0
  -21.4015   -6.5603   23.8204 C   0  0  0  0  0  0
  -21.3670   -5.6758   24.9178 C   0  0  0  0  0  0
  -21.6041   -4.3024   24.7221 C   0  0  0  0  0  0
  -21.8818   -3.8115   23.4347 C   0  0  0  0  0  0
  -21.9191   -4.6938   22.3404 C   0  0  0  0  0  0
  -22.7788  -13.5272   21.1846 C   0  0  0  0  0  0
  -22.1652   -4.2133   21.0994 F   0  0  0  0  0  0
  -21.5642   -3.4501   25.7726 F   0  0  0  0  0  0
  -30.0292  -13.3477   20.4706 N   0  0  0  0  0  0
  -26.2960  -12.9365   20.3236 N   0  0  0  0  0  0
  -25.9233  -11.6532   20.5638 N   0  0  0  0  0  0
  -22.0412  -12.8312   22.0440 N   0  0  0  0  0  0
  -25.4216  -15.1887   20.3981 N   0  0  0  0  0  0
  -31.7619  -14.7529   20.0284 O   0  0  0  0  0  0
  -21.6644   -6.8833   21.4235 O   0  0  0  0  0  0
  -22.3486  -14.5592   20.6718 O   0  0  0  0  0  0
  -24.6250  -31.8678   23.2124 C   0  0  0  0  0  0
  -25.9117  -32.4840   23.8393 C   0  0  1  0  0  0
  -27.1780  -27.3622   20.0947 C   0  0  0  0  0  0
  -25.5966  -33.8622   24.2327 N   0  0  0  0  0  0
  -23.4083  -30.5046   21.5555 C   0  0  2  0  0  0
  -24.8403  -28.9827   20.1006 C   0  0  0  0  0  0
  -22.7448  -29.4691   22.4967 C   0  0  0  0  0  0
  -18.0287  -28.1369   22.8486 C   0  0  0  0  0  0
  -24.1493  -36.7325   23.2633 C   0  0  0  0  0  0
  -25.9459  -30.8179   21.3678 C   0  0  0  0  0  0
  -26.0132  -29.4514   20.7054 C   0  0  0  0  0  0
  -27.1889  -28.6510   20.6972 C   0  0  0  0  0  0
  -25.9880  -26.9529   19.4461 C   0  0  0  0  0  0
  -24.8287  -27.7385   19.4595 C   0  0  0  0  0  0
  -23.6120  -29.8606   20.1617 C   0  0  0  0  0  0
  -25.4105  -36.3119   24.0344 C   0  0  1  0  0  0
  -20.5888  -28.3678   23.1312 C   0  0  2  0  0  0
  -20.6775  -26.9409   22.5436 C   0  0  0  0  0  0
  -19.5762  -26.6375   21.5217 C   0  0  0  0  0  0
  -18.1931  -26.7934   22.1604 C   0  0  0  0  0  0
  -19.1540  -28.8834   23.2906 C   0  0  0  0  0  0
  -18.9469  -30.1426   23.8932 C   0  0  0  0  0  0
  -17.6475  -30.6586   24.0558 C   0  0  0  0  0  0
  -25.9028  -34.9497   23.5122 C   0  0  0  0  0  0
  -16.5356  -29.9086   23.6317 C   0  0  0  0  0  0
  -16.7276  -28.6493   23.0349 C   0  0  0  0  0  0
  -26.4508  -31.6626   25.0728 C   0  0  0  0  0  0
  -25.3777  -31.3813   26.1501 C   0  0  0  0  0  0
  -27.0263  -30.3047   24.6117 C   0  0  0  0  0  0
  -27.6109  -32.4323   25.7453 C   0  0  0  0  0  0
  -27.5586  -37.1805   24.8457 C   0  0  0  0  0  0
  -21.4171  -29.3058   22.3706 N   0  0  0  0  0  0
  -26.4294  -37.3798   23.9418 N   0  0  0  0  0  0
  -24.6792  -31.0764   22.1025 N   0  0  0  0  0  0
  -23.4216  -28.8186   23.2976 O   0  0  0  0  0  0
  -28.2707  -26.4948   20.1627 O   0  0  0  0  0  0
  -26.5567  -34.8949   22.4661 O   0  0  0  0  0  0
  -23.5457  -32.1415   23.7547 O   0  0  0  0  0  0
  -29.5374  -17.8763   22.0919 C   0  0  0  0  0  0
  -30.3796  -17.6265   20.0313 C   0  0  0  0  0  0
  -30.0478  -16.9216   21.1555 C   0  0  0  0  0  0
  -29.5048  -19.1060   21.4579 C   0  0  0  0  0  0
  -28.9397  -20.4272   21.8147 C   0  0  0  0  0  0
  -29.5219  -23.1111   19.3451 C   0  0  0  0  0  0
  -30.0876  -21.8756   20.0609 C   0  0  0  0  0  0
  -28.9879  -23.9981   20.4796 C   0  0  2  0  0  0
  -28.4559  -22.9219   21.4842 C   0  0  2  0  0  0
  -28.5663  -23.4077   22.9470 C   0  0  0  0  0  0
  -27.9406  -25.0720   20.0239 C   0  0  0  0  0  0
  -29.1846  -21.6411   21.1998 N   0  0  0  0  0  0
  -30.0766  -15.4898   21.3470 N   0  0  0  0  0  0
  -28.0695  -20.4147   22.8401 N   0  3  0  0  0  0
  -30.0378  -18.9456   20.2020 O   0  0  0  0  0  0
  -31.4800  -12.4558   19.1609 H   0  0  0  0  0  0
  -30.3481  -11.3489   19.8810 H   0  0  0  0  0  0
  -29.7702  -11.7559   17.4753 H   0  0  0  0  0  0
  -29.6710  -13.4753   17.7665 H   0  0  0  0  0  0
  -27.8653  -11.2853   18.8758 H   0  0  0  0  0  0
  -27.3921  -12.5597   17.7909 H   0  0  0  0  0  0
  -27.6963  -14.2526   19.5247 H   0  0  0  0  0  0
  -28.6663  -12.0243   21.3810 H   0  0  0  0  0  0
  -28.4160  -13.6705   21.8527 H   0  0  0  0  0  0
  -25.2664   -9.5719   22.4736 H   0  0  0  0  0  0
  -23.9988   -7.4623   22.7404 H   0  0  0  0  0  0
  -21.0780   -8.8741   19.8956 H   0  0  0  0  0  0
  -22.3607  -10.9627   19.6175 H   0  0  0  0  0  0
  -21.2010   -7.6089   23.9707 H   0  0  0  0  0  0
  -21.1492   -6.0478   25.9074 H   0  0  0  0  0  0
  -22.0592   -2.7584   23.2861 H   0  0  0  0  0  0
  -22.3967  -12.0022   22.4976 H   0  0  0  0  0  0
  -21.1024  -13.1375   22.2631 H   0  0  0  0  0  0
  -24.6511  -15.8423   20.4839 H   0  0  0  0  0  0
  -26.2642  -15.6163   20.0386 H   0  0  0  0  0  0
  -26.7187  -32.5515   23.1139 H   0  0  0  0  0  0
  -25.0172  -33.9758   25.0530 H   0  0  0  0  0  0
  -22.6990  -31.3269   21.4331 H   0  0  0  0  0  0
  -23.3747  -35.9669   23.3317 H   0  0  0  0  0  0
  -24.3613  -36.8903   22.2044 H   0  0  0  0  0  0
  -23.7260  -37.6553   23.6618 H   0  0  0  0  0  0
  -26.0612  -31.5865   20.6034 H   0  0  0  0  0  0
  -26.8349  -30.8707   21.9826 H   0  0  0  0  0  0
  -28.0864  -29.0029   21.1847 H   0  0  0  0  0  0
  -25.9028  -26.0122   18.9248 H   0  0  0  0  0  0
  -23.9332  -27.3792   18.9705 H   0  0  0  0  0  0
  -23.7284  -30.6463   19.4146 H   0  0  0  0  0  0
  -22.7256  -29.3023   19.8568 H   0  0  0  0  0  0
  -25.1282  -36.1978   25.0842 H   0  0  0  0  0  0
  -20.9984  -28.3264   24.1432 H   0  0  0  0  0  0
  -20.5671  -26.2300   23.3632 H   0  0  0  0  0  0
  -21.6656  -26.7449   22.1251 H   0  0  0  0  0  0
  -19.6923  -25.6284   21.1254 H   0  0  0  0  0  0
  -19.6698  -27.3180   20.6742 H   0  0  0  0  0  0
  -17.4219  -26.6734   21.3968 H   0  0  0  0  0  0
  -18.0277  -26.0053   22.8969 H   0  0  0  0  0  0
  -19.7934  -30.7216   24.2353 H   0  0  0  0  0  0
  -17.5029  -31.6266   24.5127 H   0  0  0  0  0  0
  -15.5369  -30.2989   23.7605 H   0  0  0  0  0  0
  -15.8681  -28.0798   22.7080 H   0  0  0  0  0  0
  -24.5927  -30.7160   25.7891 H   0  0  0  0  0  0
  -24.9005  -32.3013   26.4897 H   0  0  0  0  0  0
  -25.8157  -30.9036   27.0276 H   0  0  0  0  0  0
  -26.2755  -29.6855   24.1200 H   0  0  0  0  0  0
  -27.4012  -29.7269   25.4570 H   0  0  0  0  0  0
  -27.8631  -30.4306   23.9242 H   0  0  0  0  0  0
  -27.2743  -33.3587   26.2114 H   0  0  0  0  0  0
  -28.3856  -32.6948   25.0235 H   0  0  0  0  0  0
  -28.0855  -31.8404   26.5286 H   0  0  0  0  0  0
  -28.2657  -38.0048   24.7468 H   0  0  0  0  0  0
  -28.1021  -36.2597   24.6294 H   0  0  0  0  0  0
  -27.2338  -37.1502   25.8870 H   0  0  0  0  0  0
  -20.9323  -29.8803   21.6957 H   0  0  0  0  0  0
  -26.0192  -38.2893   24.1411 H   0  0  0  0  0  0
  -29.1693  -17.6798   23.0895 H   0  0  0  0  0  0
  -30.7763  -17.3638   19.0574 H   0  0  0  0  0  0
  -28.7233  -22.7968   18.6703 H   0  0  0  0  0  0
  -30.2790  -23.6208   18.7500 H   0  0  0  0  0  0
  -31.0919  -22.0661   20.4389 H   0  0  0  0  0  0
  -30.1353  -21.0461   19.3635 H   0  0  0  0  0  0
  -29.8333  -24.5220   20.9250 H   0  0  0  0  0  0
  -27.4048  -22.7085   21.2713 H   0  0  0  0  0  0
  -29.2673  -22.8182   23.5392 H   0  0  0  0  0  0
  -27.5959  -23.3768   23.4418 H   0  0  0  0  0  0
  -28.9135  -24.4417   22.9973 H   0  0  0  0  0  0
  -27.0206  -24.8664   20.5779 H   0  0  0  0  0  0
  -27.7011  -24.8749   18.9762 H   0  0  0  0  0  0
  -29.3792  -15.1287   21.9805 H   0  0  0  0  0  0
  -27.8762  -19.5585   23.3402 H   0  0  0  0  0  0
  -27.6321  -21.2569   23.1797 H   0  0  0  0  0  0
  1 25  1  0  0  0
  1 30  2  0  0  0
  1 83  1  0  0  0
  2  3  1  0  0  0
  2 25  1  0  0  0
  2 86  1  0  0  0
  2 87  1  0  0  0
  3  4  1  0  0  0
  3 88  1  0  0  0
  3 89  1  0  0  0
  4  5  1  0  0  0
  4 90  1  0  0  0
  4 91  1  0  0  0
  5  6  1  0  0  0
  5 26  1  0  0  0
  5 92  1  0  0  0
  6 25  1  0  0  0
  6 93  1  0  0  0
  6 94  1  0  0  0
  7  8  2  0  0  0
  7 26  1  0  0  0
  7 29  1  0  0  0
  8  9  1  0  0  0
  8 22  1  0  0  0
  9 10  1  0  0  0
  9 27  2  0  0  0
 10 11  2  0  0  0
 10 15  1  0  0  0
 11 12  1  0  0  0
 11 95  1  0  0  0
 12 13  2  0  0  0
 12 96  1  0  0  0
 13 14  1  0  0  0
 13 31  1  0  0  0
 14 15  2  0  0  0
 14 97  1  0  0  0
 15 98  1  0  0  0
 16 17  2  0  0  0
 16 21  1  0  0  0
 16 31  1  0  0  0
 17 18  1  0  0  0
 17 99  1  0  0  0
 18 19  2  0  0  0
 18100  1  0  0  0
 19 20  1  0  0  0
 19 24  1  0  0  0
 20 21  2  0  0  0
 20101  1  0  0  0
 21 23  1  0  0  0
 22 28  1  0  0  0
 22 32  2  0  0  0
 26 27  1  0  0  0
 28102  1  0  0  0
 28103  1  0  0  0
 29104  1  0  0  0
 29105  1  0  0  0
 33 34  1  0  0  0
 33 66  1  0  0  0
 33 70  2  0  0  0
 34 36  1  0  0  0
 34 59  1  0  0  0
 34106  1  0  0  0
 35 44  2  0  0  0
 35 45  1  0  0  0
 35 68  1  0  0  0
 36 56  1  0  0  0
 36107  1  0  0  0
 37 39  1  0  0  0
 37 47  1  0  0  0
 37 66  1  0  0  0
 37108  1  0  0  0
 38 43  2  0  0  0
 38 46  1  0  0  0
 38 47  1  0  0  0
 39 64  1  0  0  0
 39 67  2  0  0  0
 40 52  1  0  0  0
 40 53  2  0  0  0
 40 58  1  0  0  0
 41109  1  0  0  0
 41110  1  0  0  0
 41111  1  0  0  0
 41 48  1  0  0  0
 42 43  1  0  0  0
 42 66  1  0  0  0
 42112  1  0  0  0
 42113  1  0  0  0
 43 44  1  0  0  0
 44114  1  0  0  0
 45 46  2  0  0  0
 45115  1  0  0  0
 46116  1  0  0  0
 47117  1  0  0  0
 47118  1  0  0  0
 48 56  1  0  0  0
 48 65  1  0  0  0
 48119  1  0  0  0
 49 50  1  0  0  0
 49 53  1  0  0  0
 49 64  1  0  0  0
 49120  1  0  0  0
 50 51  1  0  0  0
 50121  1  0  0  0
 50122  1  0  0  0
 51 52  1  0  0  0
 51123  1  0  0  0
 51124  1  0  0  0
 52125  1  0  0  0
 52126  1  0  0  0
 53 54  1  0  0  0
 54 55  2  0  0  0
 54127  1  0  0  0
 55 57  1  0  0  0
 55128  1  0  0  0
 56 69  2  0  0  0
 57 58  2  0  0  0
 57129  1  0  0  0
 58130  1  0  0  0
 59 60  1  0  0  0
 59 61  1  0  0  0
 59 62  1  0  0  0
 60131  1  0  0  0
 60132  1  0  0  0
 60133  1  0  0  0
 61134  1  0  0  0
 61135  1  0  0  0
 61136  1  0  0  0
 62137  1  0  0  0
 62138  1  0  0  0
 62139  1  0  0  0
 63 65  1  0  0  0
 63140  1  0  0  0
 63141  1  0  0  0
 63142  1  0  0  0
 64143  1  0  0  0
 65144  1  0  0  0
 68 81  1  0  0  0
 71 73  1  0  0  0
 71 74  2  0  0  0
 71145  1  0  0  0
 72 73  2  0  0  0
 72 85  1  0  0  0
 72146  1  0  0  0
 73 83  1  0  0  0
 74 75  1  0  0  0
 74 85  1  0  0  0
 75 82  1  0  0  0
 75 84  2  0  0  0
 76 77  1  0  0  0
 76 78  1  0  0  0
 76147  1  0  0  0
 76148  1  0  0  0
 77 82  1  0  0  0
 77149  1  0  0  0
 77150  1  0  0  0
 78 79  1  0  0  0
 78 81  1  0  0  0
 78151  1  0  0  0
 79 80  1  0  0  0
 79 82  1  0  0  0
 79152  1  0  0  0
 80153  1  0  0  0
 80154  1  0  0  0
 80155  1  0  0  0
 81156  1  0  0  0
 81157  1  0  0  0
 83158  1  0  0  0
 84159  1  0  0  0
 84160  1  0  0  0
M  CHG  1  84   1
M  ISO  4   1 100  68 101  81 101  83 100
M  END
> <chiral flag>
0

> <version>
0

> <s_m_source_file>
/data/baiqing/PycharmProjects/Reinvent-master-3.2/result/LINK_invent/BTK/process_docking_weight1_custom_product_contain_oxygen_bond_distance_aromatic_linkinvent_7_9_3/rearranged_h_0149.sdf

> <i_m_source_file_index>
11

> <r_mmod_Potential_Energy-OPLS-2005>
25.8794059753418

> <r_mmod_Stretch_Energy-OPLS-2005>
55.2688484191895

> <r_mmod_Bend_Energy-OPLS-2005>
156.800384521484

> <r_mmod_Torsional_Energy-OPLS-2005>
306.581237792969

> <r_mmod_Improper_Torsional_Energy-OPLS-2005>
4.02615928649902

> <r_mmod_Van_der_Waal_Energy-OPLS-2005>
146.290771484375

> <r_mmod_Electrostatic_Energy-OPLS-2005>
-229.599807739258

> <r_mmod_Solvation_Energy-OPLS-2005>
-447.916870117188

> <b_mmod_Minimization_Converged-OPLS-2005>
0

> <r_mmod_RMS_Derivative-OPLS-2005>
5.55165529251099

$$$$
11
                    3D
 Structure written by MMmdl.
153162  0  0  1  0            999 V2000
  -30.5502  -14.9816   20.4717 C   0  0  0  0  0  0
  -30.4379  -12.6147   19.5234 C   0  0  0  0  0  0
  -29.5292  -12.5443   18.2714 C   0  0  0  0  0  0
  -28.0640  -12.3149   18.6810 C   0  0  0  0  0  0
  -27.6295  -13.2486   19.8378 C   0  0  2  0  0  0
  -28.6602  -13.2812   20.9837 C   0  0  0  0  0  0
  -25.2467  -13.8220   20.5711 C   0  0  0  0  0  0
  -24.1772  -13.0446   20.9217 C   0  0  0  0  0  0
  -24.6379  -11.6926   20.8727 C   0  0  0  0  0  0
  -23.9065  -10.4293   21.0387 C   0  0  0  0  0  0
  -24.3614   -9.4212   21.9169 C   0  0  0  0  0  0
  -23.6286   -8.2250   22.0754 C   0  0  0  0  0  0
  -22.4268   -8.0284   21.3546 C   0  0  0  0  0  0
  -21.9899   -9.0257   20.4648 C   0  0  0  0  0  0
  -22.7232  -10.2133   20.3045 C   0  0  0  0  0  0
  -21.6856   -6.0727   22.5281 C   0  0  0  0  0  0
  -21.4020   -6.5632   23.8215 C   0  0  0  0  0  0
  -21.3659   -5.6784   24.9175 C   0  0  0  0  0  0
  -21.6046   -4.3048   24.7226 C   0  0  0  0  0  0
  -21.8817   -3.8140   23.4346 C   0  0  0  0  0  0
  -21.9191   -4.6954   22.3403 C   0  0  0  0  0  0
  -22.7795  -13.5220   21.1877 C   0  0  0  0  0  0
  -22.1660   -4.2141   21.0978 F   0  0  0  0  0  0
  -21.5630   -3.4530   25.7739 F   0  0  0  0  0  0
  -29.9444  -13.7168   20.4106 N   0  0  0  0  0  0
  -26.2869  -12.9445   20.3197 N   0  0  0  0  0  0
  -25.9307  -11.6575   20.5686 N   0  0  0  0  0  0
  -22.0439  -12.8222   22.0440 N   0  0  0  0  0  0
  -25.4188  -15.1950   20.4202 N   0  0  0  0  0  0
  -31.7063  -15.0477   20.0336 O   0  0  0  0  0  0
  -21.6642   -6.8872   21.4243 O   0  0  0  0  0  0
  -22.3481  -14.5524   20.6719 O   0  0  0  0  0  0
  -24.6458  -31.8404   23.1845 C   0  0  0  0  0  0
  -25.9218  -32.4674   23.8246 C   0  0  1  0  0  0
  -27.2165  -27.0992   20.1593 C   0  0  0  0  0  0
  -25.5955  -33.8483   24.2162 N   0  0  0  0  0  0
  -23.4516  -30.4579   21.5304 C   0  0  2  0  0  0
  -24.9034  -28.8786   20.1072 C   0  0  0  0  0  0
  -22.7579  -29.4528   22.4850 C   0  0  0  0  0  0
  -18.0304  -28.1397   22.8474 C   0  0  0  0  0  0
  -24.1489  -36.7248   23.2640 C   0  0  0  0  0  0
  -26.0091  -30.7031   21.3879 C   0  0  0  0  0  0
  -26.0802  -29.3097   20.7319 C   0  0  0  0  0  0
  -27.2355  -28.4353   20.7435 C   0  0  0  0  0  0
  -26.0193  -26.7862   19.4780 C   0  0  0  0  0  0
  -24.8888  -27.6331   19.4623 C   0  0  0  0  0  0
  -23.6799  -29.7829   20.1512 C   0  0  0  0  0  0
  -25.4123  -36.3023   24.0311 C   0  0  1  0  0  0
  -20.5918  -28.3726   23.1228 C   0  0  2  0  0  0
  -20.6790  -26.9425   22.5397 C   0  0  0  0  0  0
  -19.5766  -26.6374   21.5203 C   0  0  0  0  0  0
  -18.1943  -26.7929   22.1617 C   0  0  0  0  0  0
  -19.1562  -28.8880   23.2845 C   0  0  0  0  0  0
  -18.9476  -30.1474   23.8877 C   0  0  0  0  0  0
  -17.6471  -30.6597   24.0557 C   0  0  0  0  0  0
  -25.9077  -34.9401   23.5047 C   0  0  0  0  0  0
  -16.5362  -29.9085   23.6334 C   0  0  0  0  0  0
  -16.7285  -28.6500   23.0359 C   0  0  0  0  0  0
  -26.4532  -31.6554   25.0696 C   0  0  0  0  0  0
  -25.3713  -31.3753   26.1389 C   0  0  0  0  0  0
  -27.0391  -30.2944   24.6288 C   0  0  0  0  0  0
  -27.6054  -32.4326   25.7490 C   0  0  0  0  0  0
  -27.5573  -37.1778   24.8468 C   0  0  0  0  0  0
  -21.4267  -29.3043   22.3597 N   0  0  0  0  0  0
  -26.4281  -37.3740   23.9412 N   0  0  0  0  0  0
  -24.7219  -31.0226   22.0898 N   0  0  0  0  0  0
  -23.4213  -28.8087   23.3018 O   0  0  0  0  0  0
  -28.2494  -26.0853   20.2680 O   0  0  0  0  0  0
  -26.5669  -34.8910   22.4632 O   0  0  0  0  0  0
  -23.5571  -32.1305   23.7044 O   0  0  0  0  0  0
  -27.9565  -20.5407   22.0393 C   0  0  0  0  0  0
  -28.3804  -18.4485   22.1450 C   0  0  0  0  0  0
  -29.0737  -18.8865   21.0372 C   0  0  0  0  0  0
  -28.8065  -23.2948   20.6477 C   0  0  0  0  0  0
  -28.3477  -17.0430   22.6730 C   0  0  0  0  0  0
  -29.9058  -17.6834   20.2909 C   0  0  0  0  0  0
  -29.6323  -16.2794   22.3082 C   0  0  0  0  0  0
  -28.9492  -21.7040   20.1083 C   0  0  0  0  0  0
  -28.0245  -24.5689   19.9016 C   0  0  0  0  0  0
  -27.6944  -19.4712   22.7715 N   0  0  0  0  0  0
  -28.7577  -20.3799   20.9689 N   0  0  0  0  0  0
  -29.8454  -16.1801   20.8522 N   0  0  0  0  0  0
  -29.3413  -23.5463   21.7318 O   0  0  0  0  0  0
  -31.4761  -12.7609   19.2211 H   0  0  0  0  0  0
  -30.4262  -11.6644   20.0588 H   0  0  0  0  0  0
  -29.8610  -11.7469   17.6052 H   0  0  0  0  0  0
  -29.6122  -13.4738   17.7052 H   0  0  0  0  0  0
  -27.9693  -11.2745   18.9953 H   0  0  0  0  0  0
  -27.4022  -12.4351   17.8222 H   0  0  0  0  0  0
  -27.5939  -14.2501   19.4072 H   0  0  0  0  0  0
  -28.7519  -12.3045   21.4618 H   0  0  0  0  0  0
  -28.3072  -13.9632   21.7542 H   0  0  0  0  0  0
  -25.2752   -9.5702   22.4734 H   0  0  0  0  0  0
  -24.0001   -7.4647   22.7475 H   0  0  0  0  0  0
  -21.0830   -8.8773   19.8952 H   0  0  0  0  0  0
  -22.3684  -10.9669   19.6151 H   0  0  0  0  0  0
  -21.2023   -7.6138   23.9718 H   0  0  0  0  0  0
  -21.1478   -6.0512   25.9078 H   0  0  0  0  0  0
  -22.0593   -2.7603   23.2853 H   0  0  0  0  0  0
  -22.4061  -11.9890   22.4836 H   0  0  0  0  0  0
  -21.1058  -13.1255   22.2648 H   0  0  0  0  0  0
  -24.6572  -15.8527   20.5434 H   0  0  0  0  0  0
  -26.2763  -15.6349   20.1120 H   0  0  0  0  0  0
  -26.7280  -32.5274   23.0974 H   0  0  0  0  0  0
  -25.0075  -33.9580   25.0289 H   0  0  0  0  0  0
  -22.7561  -31.2846   21.3716 H   0  0  0  0  0  0
  -23.3755  -35.9576   23.3291 H   0  0  0  0  0  0
  -24.3570  -36.8892   22.2056 H   0  0  0  0  0  0
  -23.7239  -37.6438   23.6687 H   0  0  0  0  0  0
  -26.1652  -31.4531   20.6111 H   0  0  0  0  0  0
  -26.8789  -30.7602   22.0302 H   0  0  0  0  0  0
  -28.1284  -28.7561   21.2622 H   0  0  0  0  0  0
  -25.9173  -25.8390   18.9715 H   0  0  0  0  0  0
  -23.9931  -27.2996   18.9552 H   0  0  0  0  0  0
  -23.8179  -30.5544   19.3933 H   0  0  0  0  0  0
  -22.7943  -29.2249   19.8407 H   0  0  0  0  0  0
  -25.1311  -36.1846   25.0800 H   0  0  0  0  0  0
  -21.0012  -28.3314   24.1352 H   0  0  0  0  0  0
  -20.5663  -26.2338   23.3619 H   0  0  0  0  0  0
  -21.6656  -26.7416   22.1208 H   0  0  0  0  0  0
  -19.6924  -25.6276   21.1254 H   0  0  0  0  0  0
  -19.6702  -27.3163   20.6718 H   0  0  0  0  0  0
  -17.4206  -26.6670   21.4025 H   0  0  0  0  0  0
  -18.0356  -26.0075   22.9023 H   0  0  0  0  0  0
  -19.7954  -30.7292   24.2236 H   0  0  0  0  0  0
  -17.5027  -31.6273   24.5168 H   0  0  0  0  0  0
  -15.5361  -30.2983   23.7669 H   0  0  0  0  0  0
  -15.8687  -28.0808   22.7098 H   0  0  0  0  0  0
  -24.5908  -30.7078   25.7717 H   0  0  0  0  0  0
  -24.8879  -32.2932   26.4743 H   0  0  0  0  0  0
  -25.7994  -30.8982   27.0213 H   0  0  0  0  0  0
  -26.3004  -29.6669   24.1278 H   0  0  0  0  0  0
  -27.3980  -29.7245   25.4869 H   0  0  0  0  0  0
  -27.8933  -30.4169   23.9623 H   0  0  0  0  0  0
  -27.2640  -33.3651   26.2002 H   0  0  0  0  0  0
  -28.3905  -32.6843   25.0347 H   0  0  0  0  0  0
  -28.0681  -31.8492   26.5462 H   0  0  0  0  0  0
  -28.2584  -38.0080   24.7506 H   0  0  0  0  0  0
  -28.1073  -36.2606   24.6306 H   0  0  0  0  0  0
  -27.2288  -37.1442   25.8870 H   0  0  0  0  0  0
  -20.9490  -29.8757   21.6772 H   0  0  0  0  0  0
  -26.0148  -38.2806   24.1419 H   0  0  0  0  0  0
  -27.5134  -21.4926   22.2966 H   0  0  0  0  0  0
  -27.4805  -16.5115   22.2799 H   0  0  0  0  0  0
  -28.2341  -17.0466   23.7577 H   0  0  0  0  0  0
  -30.9598  -17.9644   20.2618 H   0  0  0  0  0  0
  -29.5955  -17.6432   19.2466 H   0  0  0  0  0  0
  -30.4880  -16.8026   22.7385 H   0  0  0  0  0  0
  -29.6249  -15.3085   22.8042 H   0  0  0  0  0  0
  -28.2597  -21.6199   19.2697 H   0  0  0  0  0  0
  -29.9400  -21.6340   19.6610 H   0  0  0  0  0  0
  -26.9680  -24.3537   20.0571 H   0  0  0  0  0  0
  -28.1895  -24.4645   18.8297 H   0  0  0  0  0  0
  1 25  1  0  0  0
  1 30  2  0  0  0
  1 82  1  0  0  0
  2  3  1  0  0  0
  2 25  1  0  0  0
  2 84  1  0  0  0
  2 85  1  0  0  0
  3  4  1  0  0  0
  3 86  1  0  0  0
  3 87  1  0  0  0
  4  5  1  0  0  0
  4 88  1  0  0  0
  4 89  1  0  0  0
  5  6  1  0  0  0
  5 26  1  0  0  0
  5 90  1  0  0  0
  6 25  1  0  0  0
  6 91  1  0  0  0
  6 92  1  0  0  0
  7  8  2  0  0  0
  7 26  1  0  0  0
  7 29  1  0  0  0
  8  9  1  0  0  0
  8 22  1  0  0  0
  9 10  1  0  0  0
  9 27  2  0  0  0
 10 11  2  0  0  0
 10 15  1  0  0  0
 11 12  1  0  0  0
 11 93  1  0  0  0
 12 13  2  0  0  0
 12 94  1  0  0  0
 13 14  1  0  0  0
 13 31  1  0  0  0
 14 15  2  0  0  0
 14 95  1  0  0  0
 15 96  1  0  0  0
 16 17  2  0  0  0
 16 21  1  0  0  0
 16 31  1  0  0  0
 17 18  1  0  0  0
 17 97  1  0  0  0
 18 19  2  0  0  0
 18 98  1  0  0  0
 19 20  1  0  0  0
 19 24  1  0  0  0
 20 21  2  0  0  0
 20 99  1  0  0  0
 21 23  1  0  0  0
 22 28  1  0  0  0
 22 32  2  0  0  0
 26 27  1  0  0  0
 28100  1  0  0  0
 28101  1  0  0  0
 29102  1  0  0  0
 29103  1  0  0  0
 33 34  1  0  0  0
 33 66  1  0  0  0
 33 70  2  0  0  0
 34 36  1  0  0  0
 34 59  1  0  0  0
 34104  1  0  0  0
 35 44  2  0  0  0
 35 45  1  0  0  0
 35 68  1  0  0  0
 36 56  1  0  0  0
 36105  1  0  0  0
 37 39  1  0  0  0
 37 47  1  0  0  0
 37 66  1  0  0  0
 37106  1  0  0  0
 38 43  2  0  0  0
 38 46  1  0  0  0
 38 47  1  0  0  0
 39 64  1  0  0  0
 39 67  2  0  0  0
 40 52  1  0  0  0
 40 53  2  0  0  0
 40 58  1  0  0  0
 41107  1  0  0  0
 41108  1  0  0  0
 41109  1  0  0  0
 41 48  1  0  0  0
 42 43  1  0  0  0
 42 66  1  0  0  0
 42110  1  0  0  0
 42111  1  0  0  0
 43 44  1  0  0  0
 44112  1  0  0  0
 45 46  2  0  0  0
 45113  1  0  0  0
 46114  1  0  0  0
 47115  1  0  0  0
 47116  1  0  0  0
 48 56  1  0  0  0
 48 65  1  0  0  0
 48117  1  0  0  0
 49 50  1  0  0  0
 49 53  1  0  0  0
 49 64  1  0  0  0
 49118  1  0  0  0
 50 51  1  0  0  0
 50119  1  0  0  0
 50120  1  0  0  0
 51 52  1  0  0  0
 51121  1  0  0  0
 51122  1  0  0  0
 52123  1  0  0  0
 52124  1  0  0  0
 53 54  1  0  0  0
 54 55  2  0  0  0
 54125  1  0  0  0
 55 57  1  0  0  0
 55126  1  0  0  0
 56 69  2  0  0  0
 57 58  2  0  0  0
 57127  1  0  0  0
 58128  1  0  0  0
 59 60  1  0  0  0
 59 61  1  0  0  0
 59 62  1  0  0  0
 60129  1  0  0  0
 60130  1  0  0  0
 60131  1  0  0  0
 61132  1  0  0  0
 61133  1  0  0  0
 61134  1  0  0  0
 62135  1  0  0  0
 62136  1  0  0  0
 62137  1  0  0  0
 63 65  1  0  0  0
 63138  1  0  0  0
 63139  1  0  0  0
 63140  1  0  0  0
 64141  1  0  0  0
 65142  1  0  0  0
 68 79  1  0  0  0
 71 80  2  0  0  0
 71 81  1  0  0  0
 71143  1  0  0  0
 72 73  2  0  0  0
 72 75  1  0  0  0
 72 80  1  0  0  0
 73 76  1  0  0  0
 73 81  1  0  0  0
 74 78  1  0  0  0
 74 79  1  0  0  0
 74 83  2  0  0  0
 75 77  1  0  0  0
 75144  1  0  0  0
 75145  1  0  0  0
 76 82  1  0  0  0
 76146  1  0  0  0
 76147  1  0  0  0
 77 82  1  0  0  0
 77148  1  0  0  0
 77149  1  0  0  0
 78 81  1  0  0  0
 78150  1  0  0  0
 78151  1  0  0  0
 79152  1  0  0  0
 79153  1  0  0  0
M  ISO  4   1 100  68 101  79 101  82 100
M  END
> <chiral flag>
0

> <version>
0

> <s_m_source_file>
/data/baiqing/PycharmProjects/Reinvent-master-3.2/result/LINK_invent/BTK/process_docking_weight1_custom_product_contain_oxygen_bond_distance_aromatic_linkinvent_7_9_3/rearranged_h_0149.sdf

> <i_m_source_file_index>
12

> <r_mmod_Potential_Energy-OPLS-2005>
739.612182617188

> <r_mmod_Stretch_Energy-OPLS-2005>
328.967346191406

> <r_mmod_Bend_Energy-OPLS-2005>
328.530975341797

> <r_mmod_Torsional_Energy-OPLS-2005>
287.476013183594

> <r_mmod_Improper_Torsional_Energy-OPLS-2005>
6.71323728561401

> <r_mmod_Van_der_Waal_Energy-OPLS-2005>
116.879852294922

> <r_mmod_Electrostatic_Energy-OPLS-2005>
-300.968383789062

> <r_mmod_Solvation_Energy-OPLS-2005>
-249.005279541016

> <b_mmod_Minimization_Converged-OPLS-2005>
0

> <r_mmod_RMS_Derivative-OPLS-2005>
1.51635956764221

$$$$
12
                    3D
 Structure written by MMmdl.
161170  0  0  1  0            999 V2000
  -30.6650  -14.4642   20.6108 C   0  0  0  0  0  0
  -30.4438  -12.3200   19.3986 C   0  0  0  0  0  0
  -29.5013  -12.5177   18.1927 C   0  0  0  0  0  0
  -28.0194  -12.3751   18.6021 C   0  0  0  0  0  0
  -27.6665  -13.1918   19.8731 C   0  0  2  0  0  0
  -28.7111  -12.9180   20.9779 C   0  0  0  0  0  0
  -25.2623  -13.8106   20.5635 C   0  0  0  0  0  0
  -24.1854  -13.0419   20.9144 C   0  0  0  0  0  0
  -24.6357  -11.6873   20.8676 C   0  0  0  0  0  0
  -23.9007  -10.4287   21.0359 C   0  0  0  0  0  0
  -24.3557   -9.4222   21.9144 C   0  0  0  0  0  0
  -23.6244   -8.2266   22.0750 C   0  0  0  0  0  0
  -22.4240   -8.0280   21.3534 C   0  0  0  0  0  0
  -21.9843   -9.0254   20.4647 C   0  0  0  0  0  0
  -22.7171  -10.2131   20.3035 C   0  0  0  0  0  0
  -21.6856   -6.0718   22.5273 C   0  0  0  0  0  0
  -21.4035   -6.5612   23.8208 C   0  0  0  0  0  0
  -21.3669   -5.6766   24.9158 C   0  0  0  0  0  0
  -21.6065   -4.3041   24.7220 C   0  0  0  0  0  0
  -21.8820   -3.8124   23.4344 C   0  0  0  0  0  0
  -21.9194   -4.6941   22.3393 C   0  0  0  0  0  0
  -22.7882  -13.5257   21.1785 C   0  0  0  0  0  0
  -22.1659   -4.2120   21.0977 F   0  0  0  0  0  0
  -21.5611   -3.4528   25.7734 F   0  0  0  0  0  0
  -30.0389  -13.2700   20.4401 N   0  0  0  0  0  0
  -26.3036  -12.9240   20.3323 N   0  0  0  0  0  0
  -25.9283  -11.6410   20.5710 N   0  0  0  0  0  0
  -22.0479  -12.8316   22.0351 N   0  0  0  0  0  0
  -25.4360  -15.1810   20.4037 N   0  0  0  0  0  0
  -31.7927  -14.7112   20.1695 O   0  0  0  0  0  0
  -21.6637   -6.8864   21.4235 O   0  0  0  0  0  0
  -22.3628  -14.5575   20.6625 O   0  0  0  0  0  0
  -24.6096  -31.8743   23.2134 C   0  0  0  0  0  0
  -25.9019  -32.4842   23.8419 C   0  0  1  0  0  0
  -27.2442  -27.4970   20.0692 C   0  0  0  0  0  0
  -25.5878  -33.8646   24.2339 N   0  0  0  0  0  0
  -23.3972  -30.4969   21.5510 C   0  0  2  0  0  0
  -24.8473  -28.9661   20.1148 C   0  0  0  0  0  0
  -22.7379  -29.4703   22.5009 C   0  0  0  0  0  0
  -18.0256  -28.1306   22.8549 C   0  0  0  0  0  0
  -24.1491  -36.7304   23.2638 C   0  0  0  0  0  0
  -25.9161  -30.8604   21.3567 C   0  0  0  0  0  0
  -25.9989  -29.4947   20.7082 C   0  0  0  0  0  0
  -27.2028  -28.7598   20.6934 C   0  0  0  0  0  0
  -26.0840  -26.9741   19.4660 C   0  0  0  0  0  0
  -24.8794  -27.7035   19.4959 C   0  0  0  0  0  0
  -23.6006  -29.8218   20.1682 C   0  0  0  0  0  0
  -25.4113  -36.3104   24.0330 C   0  0  1  0  0  0
  -20.5853  -28.3670   23.1267 C   0  0  2  0  0  0
  -20.6793  -26.9457   22.5313 C   0  0  0  0  0  0
  -19.5636  -26.6244   21.5317 C   0  0  0  0  0  0
  -18.1903  -26.7748   22.1886 C   0  0  0  0  0  0
  -19.1499  -28.8810   23.2876 C   0  0  0  0  0  0
  -18.9401  -30.1445   23.8807 C   0  0  0  0  0  0
  -17.6410  -30.6596   24.0444 C   0  0  0  0  0  0
  -25.9007  -34.9477   23.5136 C   0  0  0  0  0  0
  -16.5312  -29.9061   23.6281 C   0  0  0  0  0  0
  -16.7235  -28.6433   23.0386 C   0  0  0  0  0  0
  -26.4470  -31.6600   25.0727 C   0  0  0  0  0  0
  -25.3738  -31.3704   26.1463 C   0  0  0  0  0  0
  -27.0256  -30.3048   24.6055 C   0  0  0  0  0  0
  -27.6053  -32.4323   25.7471 C   0  0  0  0  0  0
  -27.5587  -37.1810   24.8472 C   0  0  0  0  0  0
  -21.4109  -29.3084   22.3719 N   0  0  0  0  0  0
  -26.4310  -37.3785   23.9407 N   0  0  0  0  0  0
  -24.6582  -31.0902   22.0993 N   0  0  0  0  0  0
  -23.4120  -28.8216   23.3048 O   0  0  0  0  0  0
  -28.4163  -26.7935   20.0138 O   0  0  0  0  0  0
  -26.5591  -34.8927   22.4701 O   0  0  0  0  0  0
  -23.5309  -32.1430   23.7570 O   0  0  0  0  0  0
  -30.8278  -18.5200   22.9695 C   0  0  0  0  0  0
  -30.9191  -17.1976   22.4892 C   0  0  0  0  0  0
  -29.2657  -17.7287   20.7682 C   0  0  0  0  0  0
  -29.1441  -19.0585   21.2430 C   0  0  0  0  0  0
  -29.9035  -19.4195   22.3926 C   0  0  0  0  0  0
  -30.0922  -16.7836   21.4219 C   0  0  0  0  0  0
  -28.3421  -20.1942   20.8823 C   0  0  0  0  0  0
  -28.4971  -21.1402   21.8662 C   0  0  0  0  0  0
  -28.4154  -24.5836   20.9994 C   0  0  0  0  0  0
  -29.9167  -21.3876   23.9737 C   0  0  0  0  0  0
  -27.6455  -22.3668   22.0889 C   0  0  0  0  0  0
  -28.3624  -23.7230   22.2579 C   0  0  0  0  0  0
  -28.6935  -26.0745   21.2125 C   0  0  0  0  0  0
  -29.4736  -20.6914   22.7713 N   0  0  0  0  0  0
  -27.4668  -20.2137   19.7752 N   0  0  0  0  0  0
  -29.8710  -15.4025   21.1659 N   0  0  0  0  0  0
  -28.2446  -24.1097   19.8690 O   0  0  0  0  0  0
  -31.4823  -12.4596   19.0964 H   0  0  0  0  0  0
  -30.3830  -11.3027   19.7839 H   0  0  0  0  0  0
  -29.7367  -11.7988   17.4105 H   0  0  0  0  0  0
  -29.6671  -13.5071   17.7554 H   0  0  0  0  0  0
  -27.8125  -11.3186   18.7723 H   0  0  0  0  0  0
  -27.3741  -12.6729   17.7762 H   0  0  0  0  0  0
  -27.7212  -14.2448   19.5958 H   0  0  0  0  0  0
  -28.6971  -11.8608   21.2446 H   0  0  0  0  0  0
  -28.4671  -13.4430   21.9025 H   0  0  0  0  0  0
  -25.2680   -9.5725   22.4735 H   0  0  0  0  0  0
  -23.9959   -7.4680   22.7476 H   0  0  0  0  0  0
  -21.0779   -8.8786   19.8945 H   0  0  0  0  0  0
  -22.3610  -10.9679   19.6182 H   0  0  0  0  0  0
  -21.2056   -7.6116   23.9709 H   0  0  0  0  0  0
  -21.1474   -6.0479   25.9061 H   0  0  0  0  0  0
  -22.0579   -2.7578   23.2851 H   0  0  0  0  0  0
  -22.4036  -12.0025   22.4859 H   0  0  0  0  0  0
  -21.1129  -13.1453   22.2510 H   0  0  0  0  0  0
  -24.6669  -15.8327   20.5206 H   0  0  0  0  0  0
  -26.2839  -15.6189   20.0691 H   0  0  0  0  0  0
  -26.7124  -32.5616   23.1224 H   0  0  0  0  0  0
  -25.0054  -33.9764   25.0512 H   0  0  0  0  0  0
  -22.6860  -31.3143   21.4127 H   0  0  0  0  0  0
  -23.3732  -35.9653   23.3321 H   0  0  0  0  0  0
  -24.3597  -36.8906   22.2049 H   0  0  0  0  0  0
  -23.7264  -37.6534   23.6635 H   0  0  0  0  0  0
  -26.0218  -31.6345   20.5927 H   0  0  0  0  0  0
  -26.8035  -30.9149   21.9756 H   0  0  0  0  0  0
  -28.1010  -29.1652   21.1391 H   0  0  0  0  0  0
  -26.1171  -26.0102   18.9747 H   0  0  0  0  0  0
  -23.9918  -27.3024   19.0294 H   0  0  0  0  0  0
  -23.6926  -30.5859   19.3966 H   0  0  0  0  0  0
  -22.7287  -29.2290   19.8872 H   0  0  0  0  0  0
  -25.1299  -36.1983   25.0824 H   0  0  0  0  0  0
  -20.9882  -28.3160   24.1413 H   0  0  0  0  0  0
  -21.6594  -26.7640   22.0885 H   0  0  0  0  0  0
  -20.6032  -26.2308   23.3512 H   0  0  0  0  0  0
  -19.6841  -25.6084   21.1510 H   0  0  0  0  0  0
  -19.6365  -27.2942   20.6728 H   0  0  0  0  0  0
  -17.4071  -26.6241   21.4433 H   0  0  0  0  0  0
  -18.0574  -26.0054   22.9543 H   0  0  0  0  0  0
  -19.7900  -30.7260   24.2125 H   0  0  0  0  0  0
  -17.4955  -31.6303   24.4973 H   0  0  0  0  0  0
  -15.5287  -30.2952   23.7532 H   0  0  0  0  0  0
  -15.8647  -28.0682   22.7180 H   0  0  0  0  0  0
  -24.5910  -30.7066   25.7801 H   0  0  0  0  0  0
  -24.8907  -32.2839   26.4939 H   0  0  0  0  0  0
  -25.8052  -30.8869   27.0232 H   0  0  0  0  0  0
  -26.2759  -29.6858   24.1111 H   0  0  0  0  0  0
  -27.4038  -29.7260   25.4497 H   0  0  0  0  0  0
  -27.8598  -30.4370   23.9156 H   0  0  0  0  0  0
  -27.2672  -33.3629   26.2063 H   0  0  0  0  0  0
  -28.3803  -32.6903   25.0233 H   0  0  0  0  0  0
  -28.0778  -31.8462   26.5368 H   0  0  0  0  0  0
  -28.2606  -38.0102   24.7479 H   0  0  0  0  0  0
  -28.1059  -36.2622   24.6319 H   0  0  0  0  0  0
  -27.2283  -37.1492   25.8872 H   0  0  0  0  0  0
  -20.9270  -29.8929   21.7031 H   0  0  0  0  0  0
  -26.0185  -38.2868   24.1421 H   0  0  0  0  0  0
  -31.4036  -18.8204   23.8335 H   0  0  0  0  0  0
  -31.5485  -16.4867   23.0120 H   0  0  0  0  0  0
  -28.6271  -17.4290   19.9497 H   0  0  0  0  0  0
  -30.1747  -20.6704   24.7541 H   0  0  0  0  0  0
  -29.1269  -22.0249   24.3736 H   0  0  0  0  0  0
  -30.7908  -22.0003   23.7525 H   0  0  0  0  0  0
  -27.0476  -22.1906   22.9843 H   0  0  0  0  0  0
  -26.8991  -22.4395   21.2961 H   0  0  0  0  0  0
  -27.7976  -24.2991   22.9904 H   0  0  0  0  0  0
  -29.3613  -23.6218   22.6762 H   0  0  0  0  0  0
  -28.0915  -26.4437   22.0446 H   0  0  0  0  0  0
  -29.7374  -26.2142   21.4930 H   0  0  0  0  0  0
  -27.0180  -21.0742   19.4729 H   0  0  0  0  0  0
  -27.4718  -19.4814   19.0712 H   0  0  0  0  0  0
  -28.9358  -15.0758   21.3666 H   0  0  0  0  0  0
  1 25  1  0  0  0
  1 30  2  0  0  0
  1 86  1  0  0  0
  2  3  1  0  0  0
  2 25  1  0  0  0
  2 88  1  0  0  0
  2 89  1  0  0  0
  3  4  1  0  0  0
  3 90  1  0  0  0
  3 91  1  0  0  0
  4  5  1  0  0  0
  4 92  1  0  0  0
  4 93  1  0  0  0
  5  6  1  0  0  0
  5 26  1  0  0  0
  5 94  1  0  0  0
  6 25  1  0  0  0
  6 95  1  0  0  0
  6 96  1  0  0  0
  7  8  2  0  0  0
  7 26  1  0  0  0
  7 29  1  0  0  0
  8  9  1  0  0  0
  8 22  1  0  0  0
  9 10  1  0  0  0
  9 27  2  0  0  0
 10 11  2  0  0  0
 10 15  1  0  0  0
 11 12  1  0  0  0
 11 97  1  0  0  0
 12 13  2  0  0  0
 12 98  1  0  0  0
 13 14  1  0  0  0
 13 31  1  0  0  0
 14 15  2  0  0  0
 14 99  1  0  0  0
 15100  1  0  0  0
 16 17  2  0  0  0
 16 21  1  0  0  0
 16 31  1  0  0  0
 17 18  1  0  0  0
 17101  1  0  0  0
 18 19  2  0  0  0
 18102  1  0  0  0
 19 20  1  0  0  0
 19 24  1  0  0  0
 20 21  2  0  0  0
 20103  1  0  0  0
 21 23  1  0  0  0
 22 28  1  0  0  0
 22 32  2  0  0  0
 26 27  1  0  0  0
 28104  1  0  0  0
 28105  1  0  0  0
 29106  1  0  0  0
 29107  1  0  0  0
 33 34  1  0  0  0
 33 66  1  0  0  0
 33 70  2  0  0  0
 34 36  1  0  0  0
 34 59  1  0  0  0
 34108  1  0  0  0
 35 44  2  0  0  0
 35 45  1  0  0  0
 35 68  1  0  0  0
 36 56  1  0  0  0
 36109  1  0  0  0
 37 39  1  0  0  0
 37 47  1  0  0  0
 37 66  1  0  0  0
 37110  1  0  0  0
 38 43  2  0  0  0
 38 46  1  0  0  0
 38 47  1  0  0  0
 39 64  1  0  0  0
 39 67  2  0  0  0
 40 52  1  0  0  0
 40 53  2  0  0  0
 40 58  1  0  0  0
 41111  1  0  0  0
 41112  1  0  0  0
 41113  1  0  0  0
 41 48  1  0  0  0
 42 43  1  0  0  0
 42 66  1  0  0  0
 42114  1  0  0  0
 42115  1  0  0  0
 43 44  1  0  0  0
 44116  1  0  0  0
 45 46  2  0  0  0
 45117  1  0  0  0
 46118  1  0  0  0
 47119  1  0  0  0
 47120  1  0  0  0
 48 56  1  0  0  0
 48 65  1  0  0  0
 48121  1  0  0  0
 49 50  1  0  0  0
 49 53  1  0  0  0
 49 64  1  0  0  0
 49122  1  0  0  0
 50 51  1  0  0  0
 50123  1  0  0  0
 50124  1  0  0  0
 51 52  1  0  0  0
 51125  1  0  0  0
 51126  1  0  0  0
 52127  1  0  0  0
 52128  1  0  0  0
 53 54  1  0  0  0
 54 55  2  0  0  0
 54129  1  0  0  0
 55 57  1  0  0  0
 55130  1  0  0  0
 56 69  2  0  0  0
 57 58  2  0  0  0
 57131  1  0  0  0
 58132  1  0  0  0
 59 60  1  0  0  0
 59 61  1  0  0  0
 59 62  1  0  0  0
 60133  1  0  0  0
 60134  1  0  0  0
 60135  1  0  0  0
 61136  1  0  0  0
 61137  1  0  0  0
 61138  1  0  0  0
 62139  1  0  0  0
 62140  1  0  0  0
 62141  1  0  0  0
 63 65  1  0  0  0
 63142  1  0  0  0
 63143  1  0  0  0
 63144  1  0  0  0
 64145  1  0  0  0
 65146  1  0  0  0
 68 83  1  0  0  0
 71 72  2  0  0  0
 71 75  1  0  0  0
 71147  1  0  0  0
 72 76  1  0  0  0
 72148  1  0  0  0
 73 74  1  0  0  0
 73 76  2  0  0  0
 73149  1  0  0  0
 74 75  2  0  0  0
 74 77  1  0  0  0
 75 84  1  0  0  0
 76 86  1  0  0  0
 77 78  2  0  0  0
 77 85  1  0  0  0
 78 81  1  0  0  0
 78 84  1  0  0  0
 79 82  1  0  0  0
 79 83  1  0  0  0
 79 87  2  0  0  0
 80 84  1  0  0  0
 80150  1  0  0  0
 80151  1  0  0  0
 80152  1  0  0  0
 81 82  1  0  0  0
 81153  1  0  0  0
 81154  1  0  0  0
 82155  1  0  0  0
 82156  1  0  0  0
 83157  1  0  0  0
 83158  1  0  0  0
 85159  1  0  0  0
 85160  1  0  0  0
 86161  1  0  0  0
M  ISO  4   1 100  68 101  83 101  86 100
M  END
> <chiral flag>
0

> <version>
0

> <s_m_source_file>
/data/baiqing/PycharmProjects/Reinvent-master-3.2/result/LINK_invent/BTK/process_docking_weight1_custom_product_contain_oxygen_bond_distance_aromatic_linkinvent_7_9_3/rearranged_h_0149.sdf

> <i_m_source_file_index>
13

> <r_mmod_Potential_Energy-OPLS-2005>
0.141931265592575

> <r_mmod_Stretch_Energy-OPLS-2005>
33.6426200866699

> <r_mmod_Bend_Energy-OPLS-2005>
106.185241699219

> <r_mmod_Torsional_Energy-OPLS-2005>
283.377166748047

> <r_mmod_Improper_Torsional_Energy-OPLS-2005>
8.14777183532715

> <r_mmod_Van_der_Waal_Energy-OPLS-2005>
142.225692749023

> <r_mmod_Electrostatic_Energy-OPLS-2005>
-343.736419677734

> <r_mmod_Solvation_Energy-OPLS-2005>
-241.196899414062

> <b_mmod_Minimization_Converged-OPLS-2005>
0

> <r_mmod_RMS_Derivative-OPLS-2005>
5.94396734237671

$$$$
13
                    3D
 Structure written by MMmdl.
153162  0  0  1  0            999 V2000
  -30.6860  -14.7939   20.5109 C   0  0  0  0  0  0
  -30.4779  -12.5038   19.5499 C   0  0  0  0  0  0
  -29.5550  -12.5816   18.3146 C   0  0  0  0  0  0
  -28.0865  -12.3774   18.7296 C   0  0  0  0  0  0
  -27.6762  -13.2679   19.9335 C   0  0  2  0  0  0
  -28.7326  -13.1800   21.0681 C   0  0  0  0  0  0
  -25.2505  -13.8353   20.5784 C   0  0  0  0  0  0
  -24.1749  -13.0541   20.9309 C   0  0  0  0  0  0
  -24.6391  -11.7074   20.8824 C   0  0  0  0  0  0
  -23.9040  -10.4374   21.0401 C   0  0  0  0  0  0
  -24.3594   -9.4288   21.9162 C   0  0  0  0  0  0
  -23.6280   -8.2310   22.0711 C   0  0  0  0  0  0
  -22.4263   -8.0311   21.3502 C   0  0  0  0  0  0
  -21.9922   -9.0303   20.4602 C   0  0  0  0  0  0
  -22.7240  -10.2205   20.3042 C   0  0  0  0  0  0
  -21.6878   -6.0741   22.5235 C   0  0  0  0  0  0
  -21.4026   -6.5624   23.8173 C   0  0  0  0  0  0
  -21.3649   -5.6769   24.9130 C   0  0  0  0  0  0
  -21.6051   -4.3042   24.7192 C   0  0  0  0  0  0
  -21.8820   -3.8143   23.4312 C   0  0  0  0  0  0
  -21.9192   -4.6959   22.3365 C   0  0  0  0  0  0
  -22.7747  -13.5290   21.1878 C   0  0  0  0  0  0
  -22.1672   -4.2141   21.0961 F   0  0  0  0  0  0
  -21.5604   -3.4517   25.7710 F   0  0  0  0  0  0
  -30.0424  -13.5640   20.4934 N   0  0  0  0  0  0
  -26.3088  -12.9616   20.3752 N   0  0  0  0  0  0
  -25.9399  -11.6707   20.6059 N   0  0  0  0  0  0
  -22.0333  -12.8292   22.0446 N   0  0  0  0  0  0
  -25.4149  -15.2050   20.3915 N   0  0  0  0  0  0
  -31.8398  -14.8764   20.0778 O   0  0  0  0  0  0
  -21.6649   -6.8910   21.4210 O   0  0  0  0  0  0
  -22.3394  -14.5513   20.6631 O   0  0  0  0  0  0
  -24.6508  -31.8440   23.1841 C   0  0  0  0  0  0
  -25.9230  -32.4711   23.8354 C   0  0  1  0  0  0
  -27.2220  -27.1667   20.0977 C   0  0  0  0  0  0
  -25.5996  -33.8527   24.2271 N   0  0  0  0  0  0
  -23.4566  -30.4559   21.5312 C   0  0  2  0  0  0
  -24.8949  -28.8768   20.1053 C   0  0  0  0  0  0
  -22.7646  -29.4545   22.4914 C   0  0  0  0  0  0
  -18.0366  -28.1271   22.8414 C   0  0  0  0  0  0
  -24.1460  -36.7257   23.2646 C   0  0  0  0  0  0
  -26.0177  -30.7060   21.3903 C   0  0  0  0  0  0
  -26.0677  -29.3288   20.7135 C   0  0  0  0  0  0
  -27.2351  -28.4807   20.6894 C   0  0  0  0  0  0
  -26.0132  -26.7850   19.4776 C   0  0  0  0  0  0
  -24.8730  -27.6195   19.4755 C   0  0  0  0  0  0
  -23.6722  -29.7766   20.1541 C   0  0  0  0  0  0
  -25.4120  -36.3118   24.0320 C   0  0  1  0  0  0
  -20.5994  -28.3605   23.1064 C   0  0  2  0  0  0
  -20.6843  -26.9407   22.5074 C   0  0  0  0  0  0
  -19.5772  -26.6433   21.4887 C   0  0  0  0  0  0
  -18.2029  -26.7789   22.1528 C   0  0  0  0  0  0
  -19.1635  -28.8784   23.2716 C   0  0  0  0  0  0
  -18.9552  -30.1419   23.8704 C   0  0  0  0  0  0
  -17.6543  -30.6450   24.0570 C   0  0  0  0  0  0
  -25.9071  -34.9442   23.5132 C   0  0  0  0  0  0
  -16.5429  -29.8941   23.6431 C   0  0  0  0  0  0
  -16.7378  -28.6396   23.0385 C   0  0  0  0  0  0
  -26.4481  -31.6604   25.0821 C   0  0  0  0  0  0
  -25.3664  -31.3664   26.1501 C   0  0  0  0  0  0
  -27.0357  -30.3018   24.6406 C   0  0  0  0  0  0
  -27.6076  -32.4375   25.7520 C   0  0  0  0  0  0
  -27.5605  -37.1789   24.8514 C   0  0  0  0  0  0
  -21.4384  -29.2867   22.3405 N   0  0  0  0  0  0
  -26.4334  -37.3787   23.9423 N   0  0  0  0  0  0
  -24.7278  -31.0287   22.0871 N   0  0  0  0  0  0
  -23.4207  -28.8297   23.3280 O   0  0  0  0  0  0
  -28.3183  -26.2576   20.1924 O   0  0  0  0  0  0
  -26.5667  -34.8940   22.4713 O   0  0  0  0  0  0
  -23.5603  -32.1406   23.6970 O   0  0  0  0  0  0
  -31.3894  -18.0171   20.1798 C   0  0  0  0  0  0
  -30.2694  -17.3190   20.6246 C   0  0  0  0  0  0
  -29.8432  -19.5801   20.5399 C   0  0  0  0  0  0
  -27.5411  -23.3136   21.4498 C   0  0  0  0  0  0
  -28.3650  -23.4752   20.3991 C   0  0  0  0  0  0
  -27.3842  -21.9763   22.1531 C   0  0  0  0  0  0
  -29.1938  -22.1680   19.9525 C   0  0  0  0  0  0
  -27.6714  -20.7600   21.2312 C   0  0  0  0  0  0
  -28.4212  -24.8682   19.5669 C   0  0  0  0  0  0
  -31.1104  -19.4098   20.1395 N   0  0  0  0  0  0
  -29.0084  -20.7880   20.6100 N   0  0  0  0  0  0
  -29.9776  -15.9499   20.8353 N   0  0  0  0  0  0
  -29.2980  -18.3341   20.8527 O   0  0  0  0  0  0
  -31.5196  -12.6295   19.2523 H   0  0  0  0  0  0
  -30.4398  -11.5279   20.0338 H   0  0  0  0  0  0
  -29.8594  -11.8442   17.5758 H   0  0  0  0  0  0
  -29.6657  -13.5622   17.8428 H   0  0  0  0  0  0
  -27.9904  -11.3317   19.0281 H   0  0  0  0  0  0
  -27.4068  -12.5399   17.8913 H   0  0  0  0  0  0
  -27.6762  -14.3084   19.5932 H   0  0  0  0  0  0
  -28.7718  -12.1547   21.4462 H   0  0  0  0  0  0
  -28.4720  -13.7991   21.9299 H   0  0  0  0  0  0
  -25.2720   -9.5761   22.4773 H   0  0  0  0  0  0
  -23.9957   -7.4726   22.7472 H   0  0  0  0  0  0
  -21.0822   -8.8826   19.8946 H   0  0  0  0  0  0
  -22.3651  -10.9736   19.6154 H   0  0  0  0  0  0
  -21.2032   -7.6134   23.9679 H   0  0  0  0  0  0
  -21.1459   -6.0497   25.9032 H   0  0  0  0  0  0
  -22.0614   -2.7600   23.2808 H   0  0  0  0  0  0
  -22.3810  -11.9947   22.4880 H   0  0  0  0  0  0
  -21.0962  -13.1372   22.2571 H   0  0  0  0  0  0
  -24.6390  -15.8621   20.3776 H   0  0  0  0  0  0
  -26.2393  -15.5763   19.9356 H   0  0  0  0  0  0
  -26.7310  -32.5261   23.1118 H   0  0  0  0  0  0
  -25.0134  -33.9560   25.0417 H   0  0  0  0  0  0
  -22.7544  -31.2761   21.3757 H   0  0  0  0  0  0
  -23.3787  -35.9541   23.3388 H   0  0  0  0  0  0
  -24.3547  -36.8800   22.2065 H   0  0  0  0  0  0
  -23.7114  -37.6423   23.6599 H   0  0  0  0  0  0
  -26.2292  -31.4422   20.6178 H   0  0  0  0  0  0
  -26.8861  -30.7258   22.0400 H   0  0  0  0  0  0
  -28.1609  -28.7905   21.1483 H   0  0  0  0  0  0
  -25.9167  -25.8150   19.0153 H   0  0  0  0  0  0
  -23.9643  -27.2689   19.0036 H   0  0  0  0  0  0
  -23.7822  -30.5498   19.3913 H   0  0  0  0  0  0
  -22.8007  -29.1908   19.8634 H   0  0  0  0  0  0
  -25.1278  -36.2018   25.0800 H   0  0  0  0  0  0
  -21.0094  -28.3054   24.1187 H   0  0  0  0  0  0
  -20.5821  -26.2152   23.3162 H   0  0  0  0  0  0
  -21.6791  -26.7623   22.0925 H   0  0  0  0  0  0
  -19.6997  -25.6408   21.0662 H   0  0  0  0  0  0
  -19.6500  -27.3390   20.6521 H   0  0  0  0  0  0
  -17.4205  -26.6424   21.4066 H   0  0  0  0  0  0
  -18.0785  -25.9910   22.8935 H   0  0  0  0  0  0
  -19.7986  -30.7393   24.1910 H   0  0  0  0  0  0
  -17.5195  -31.6133   24.5204 H   0  0  0  0  0  0
  -15.5450  -30.2837   23.7933 H   0  0  0  0  0  0
  -15.8826  -28.0633   22.7031 H   0  0  0  0  0  0
  -24.5872  -30.7025   25.7718 H   0  0  0  0  0  0
  -24.8814  -32.2762   26.5063 H   0  0  0  0  0  0
  -25.7954  -30.8705   27.0245 H   0  0  0  0  0  0
  -26.2968  -29.6750   24.1397 H   0  0  0  0  0  0
  -27.3972  -29.7278   25.4975 H   0  0  0  0  0  0
  -27.8914  -30.4303   23.9767 H   0  0  0  0  0  0
  -27.2747  -33.3717   26.2089 H   0  0  0  0  0  0
  -28.3802  -32.6920   25.0227 H   0  0  0  0  0  0
  -28.0901  -31.8562   26.5397 H   0  0  0  0  0  0
  -28.2685  -38.0023   24.7558 H   0  0  0  0  0  0
  -28.1021  -36.2577   24.6371 H   0  0  0  0  0  0
  -27.2334  -37.1510   25.8912 H   0  0  0  0  0  0
  -20.9896  -29.7778   21.5762 H   0  0  0  0  0  0
  -26.0272  -38.2896   24.1335 H   0  0  0  0  0  0
  -32.3633  -17.6255   19.8823 H   0  0  0  0  0  0
  -26.9483  -24.1362   21.8112 H   0  0  0  0  0  0
  -26.3789  -21.8961   22.5685 H   0  0  0  0  0  0
  -28.0804  -21.9708   22.9948 H   0  0  0  0  0  0
  -30.2527  -22.4178   20.0625 H   0  0  0  0  0  0
  -29.0045  -22.0427   18.8864 H   0  0  0  0  0  0
  -26.9254  -20.6737   20.4360 H   0  0  0  0  0  0
  -27.5559  -19.8456   21.8229 H   0  0  0  0  0  0
  -29.4251  -24.8589   19.1422 H   0  0  0  0  0  0
  -27.7907  -24.7709   18.6832 H   0  0  0  0  0  0
  -29.0578  -15.7753   21.2075 H   0  0  0  0  0  0
  1 25  1  0  0  0
  1 30  2  0  0  0
  1 82  1  0  0  0
  2  3  1  0  0  0
  2 25  1  0  0  0
  2 84  1  0  0  0
  2 85  1  0  0  0
  3  4  1  0  0  0
  3 86  1  0  0  0
  3 87  1  0  0  0
  4  5  1  0  0  0
  4 88  1  0  0  0
  4 89  1  0  0  0
  5  6  1  0  0  0
  5 26  1  0  0  0
  5 90  1  0  0  0
  6 25  1  0  0  0
  6 91  1  0  0  0
  6 92  1  0  0  0
  7  8  2  0  0  0
  7 26  1  0  0  0
  7 29  1  0  0  0
  8  9  1  0  0  0
  8 22  1  0  0  0
  9 10  1  0  0  0
  9 27  2  0  0  0
 10 11  2  0  0  0
 10 15  1  0  0  0
 11 12  1  0  0  0
 11 93  1  0  0  0
 12 13  2  0  0  0
 12 94  1  0  0  0
 13 14  1  0  0  0
 13 31  1  0  0  0
 14 15  2  0  0  0
 14 95  1  0  0  0
 15 96  1  0  0  0
 16 17  2  0  0  0
 16 21  1  0  0  0
 16 31  1  0  0  0
 17 18  1  0  0  0
 17 97  1  0  0  0
 18 19  2  0  0  0
 18 98  1  0  0  0
 19 20  1  0  0  0
 19 24  1  0  0  0
 20 21  2  0  0  0
 20 99  1  0  0  0
 21 23  1  0  0  0
 22 28  1  0  0  0
 22 32  2  0  0  0
 26 27  1  0  0  0
 28100  1  0  0  0
 28101  1  0  0  0
 29102  1  0  0  0
 29103  1  0  0  0
 33 34  1  0  0  0
 33 66  1  0  0  0
 33 70  2  0  0  0
 34 36  1  0  0  0
 34 59  1  0  0  0
 34104  1  0  0  0
 35 44  2  0  0  0
 35 45  1  0  0  0
 35 68  1  0  0  0
 36 56  1  0  0  0
 36105  1  0  0  0
 37 39  1  0  0  0
 37 47  1  0  0  0
 37 66  1  0  0  0
 37106  1  0  0  0
 38 43  2  0  0  0
 38 46  1  0  0  0
 38 47  1  0  0  0
 39 64  1  0  0  0
 39 67  2  0  0  0
 40 52  1  0  0  0
 40 53  2  0  0  0
 40 58  1  0  0  0
 41107  1  0  0  0
 41108  1  0  0  0
 41109  1  0  0  0
 41 48  1  0  0  0
 42 43  1  0  0  0
 42 66  1  0  0  0
 42110  1  0  0  0
 42111  1  0  0  0
 43 44  1  0  0  0
 44112  1  0  0  0
 45 46  2  0  0  0
 45113  1  0  0  0
 46114  1  0  0  0
 47115  1  0  0  0
 47116  1  0  0  0
 48 56  1  0  0  0
 48 65  1  0  0  0
 48117  1  0  0  0
 49 50  1  0  0  0
 49 53  1  0  0  0
 49 64  1  0  0  0
 49118  1  0  0  0
 50 51  1  0  0  0
 50119  1  0  0  0
 50120  1  0  0  0
 51 52  1  0  0  0
 51121  1  0  0  0
 51122  1  0  0  0
 52123  1  0  0  0
 52124  1  0  0  0
 53 54  1  0  0  0
 54 55  2  0  0  0
 54125  1  0  0  0
 55 57  1  0  0  0
 55126  1  0  0  0
 56 69  2  0  0  0
 57 58  2  0  0  0
 57127  1  0  0  0
 58128  1  0  0  0
 59 60  1  0  0  0
 59 61  1  0  0  0
 59 62  1  0  0  0
 60129  1  0  0  0
 60130  1  0  0  0
 60131  1  0  0  0
 61132  1  0  0  0
 61133  1  0  0  0
 61134  1  0  0  0
 62135  1  0  0  0
 62136  1  0  0  0
 62137  1  0  0  0
 63 65  1  0  0  0
 63138  1  0  0  0
 63139  1  0  0  0
 63140  1  0  0  0
 64141  1  0  0  0
 65142  1  0  0  0
 68 79  1  0  0  0
 71 72  2  0  0  0
 71 80  1  0  0  0
 71143  1  0  0  0
 72 82  1  0  0  0
 72 83  1  0  0  0
 73 80  2  0  0  0
 73 81  1  0  0  0
 73 83  1  0  0  0
 74 75  2  0  0  0
 74 76  1  0  0  0
 74144  1  0  0  0
 75 77  1  0  0  0
 75 79  1  0  0  0
 76 78  1  0  0  0
 76145  1  0  0  0
 76146  1  0  0  0
 77 81  1  0  0  0
 77147  1  0  0  0
 77148  1  0  0  0
 78 81  1  0  0  0
 78149  1  0  0  0
 78150  1  0  0  0
 79151  1  0  0  0
 79152  1  0  0  0
 82153  1  0  0  0
M  ISO  4   1 100  68 101  79 101  82 100
M  END
> <chiral flag>
0

> <version>
0

> <s_m_source_file>
/data/baiqing/PycharmProjects/Reinvent-master-3.2/result/LINK_invent/BTK/process_docking_weight1_custom_product_contain_oxygen_bond_distance_aromatic_linkinvent_7_9_3/rearranged_h_0149.sdf

> <i_m_source_file_index>
14

> <r_mmod_Potential_Energy-OPLS-2005>
202.590179443359

> <r_mmod_Stretch_Energy-OPLS-2005>
161.896194458008

> <r_mmod_Bend_Energy-OPLS-2005>
211.318420410156

> <r_mmod_Torsional_Energy-OPLS-2005>
199.444839477539

> <r_mmod_Improper_Torsional_Energy-OPLS-2005>
5.97067880630493

> <r_mmod_Van_der_Waal_Energy-OPLS-2005>
118.911567687988

> <r_mmod_Electrostatic_Energy-OPLS-2005>
-392.524963378906

> <r_mmod_Solvation_Energy-OPLS-2005>
-233.552627563477

> <b_mmod_Minimization_Converged-OPLS-2005>
0

> <r_mmod_RMS_Derivative-OPLS-2005>
13.5918760299683

$$$$
14
                    3D
 Structure written by MMmdl.
152160  0  0  1  0            999 V2000
  -30.6624  -14.5418   20.5386 C   0  0  0  0  0  0
  -30.4293  -12.3366   19.4531 C   0  0  0  0  0  0
  -29.5070  -12.5086   18.2258 C   0  0  0  0  0  0
  -28.0276  -12.3584   18.6313 C   0  0  0  0  0  0
  -27.6611  -13.2099   19.8767 C   0  0  2  0  0  0
  -28.7002  -13.0212   21.0067 C   0  0  0  0  0  0
  -25.2594  -13.8164   20.5693 C   0  0  0  0  0  0
  -24.1846  -13.0443   20.9172 C   0  0  0  0  0  0
  -24.6404  -11.6910   20.8731 C   0  0  0  0  0  0
  -23.9055  -10.4304   21.0405 C   0  0  0  0  0  0
  -24.3612   -9.4221   21.9188 C   0  0  0  0  0  0
  -23.6294   -8.2254   22.0758 C   0  0  0  0  0  0
  -22.4281   -8.0287   21.3543 C   0  0  0  0  0  0
  -21.9912   -9.0255   20.4637 C   0  0  0  0  0  0
  -22.7230  -10.2144   20.3041 C   0  0  0  0  0  0
  -21.6854   -6.0736   22.5284 C   0  0  0  0  0  0
  -21.4009   -6.5635   23.8216 C   0  0  0  0  0  0
  -21.3662   -5.6788   24.9182 C   0  0  0  0  0  0
  -21.6043   -4.3048   24.7228 C   0  0  0  0  0  0
  -21.8816   -3.8145   23.4347 C   0  0  0  0  0  0
  -21.9190   -4.6964   22.3407 C   0  0  0  0  0  0
  -22.7869  -13.5255   21.1828 C   0  0  0  0  0  0
  -22.1658   -4.2146   21.0985 F   0  0  0  0  0  0
  -21.5642   -3.4530   25.7737 F   0  0  0  0  0  0
  -30.0301  -13.3349   20.4613 N   0  0  0  0  0  0
  -26.3024  -12.9334   20.3371 N   0  0  0  0  0  0
  -25.9332  -11.6494   20.5769 N   0  0  0  0  0  0
  -22.0492  -12.8259   22.0382 N   0  0  0  0  0  0
  -25.4321  -15.1878   20.4110 N   0  0  0  0  0  0
  -31.7835  -14.7307   20.0551 O   0  0  0  0  0  0
  -21.6640   -6.8889   21.4251 O   0  0  0  0  0  0
  -22.3570  -14.5573   20.6682 O   0  0  0  0  0  0
  -24.6198  -31.8640   23.2060 C   0  0  0  0  0  0
  -25.9077  -32.4804   23.8363 C   0  0  1  0  0  0
  -27.2337  -27.3800   20.1051 C   0  0  0  0  0  0
  -25.5921  -33.8597   24.2309 N   0  0  0  0  0  0
  -23.4093  -30.4870   21.5459 C   0  0  2  0  0  0
  -24.8549  -28.9420   20.1148 C   0  0  0  0  0  0
  -22.7436  -29.4651   22.4969 C   0  0  0  0  0  0
  -18.0281  -28.1386   22.8502 C   0  0  0  0  0  0
  -24.1488  -36.7305   23.2627 C   0  0  0  0  0  0
  -25.9417  -30.8155   21.3629 C   0  0  0  0  0  0
  -26.0181  -29.4444   20.7117 C   0  0  0  0  0  0
  -27.2056  -28.6714   20.6993 C   0  0  0  0  0  0
  -26.0454  -26.9012   19.5071 C   0  0  0  0  0  0
  -24.8679  -27.6737   19.5079 C   0  0  0  0  0  0
  -23.6198  -29.8146   20.1620 C   0  0  0  0  0  0
  -25.4111  -36.3096   24.0331 C   0  0  1  0  0  0
  -20.5876  -28.3688   23.1307 C   0  0  2  0  0  0
  -20.6766  -26.9415   22.5418 C   0  0  0  0  0  0
  -19.5739  -26.6399   21.5215 C   0  0  0  0  0  0
  -18.1923  -26.7936   22.1630 C   0  0  0  0  0  0
  -19.1531  -28.8855   23.2905 C   0  0  0  0  0  0
  -18.9446  -30.1452   23.8935 C   0  0  0  0  0  0
  -17.6446  -30.6592   24.0575 C   0  0  0  0  0  0
  -25.9039  -34.9465   23.5119 C   0  0  0  0  0  0
  -16.5338  -29.9093   23.6330 C   0  0  0  0  0  0
  -16.7264  -28.6501   23.0369 C   0  0  0  0  0  0
  -26.4480  -31.6581   25.0709 C   0  0  0  0  0  0
  -25.3724  -31.3711   26.1441 C   0  0  0  0  0  0
  -27.0298  -30.3009   24.6113 C   0  0  0  0  0  0
  -27.6049  -32.4284   25.7492 C   0  0  0  0  0  0
  -27.5582  -37.1806   24.8454 C   0  0  0  0  0  0
  -21.4162  -29.3046   22.3710 N   0  0  0  0  0  0
  -26.4300  -37.3780   23.9400 N   0  0  0  0  0  0
  -24.6762  -31.0709   22.0962 N   0  0  0  0  0  0
  -23.4186  -28.8204   23.3038 O   0  0  0  0  0  0
  -28.4108  -26.6409   20.1524 O   0  0  0  0  0  0
  -26.5588  -34.8931   22.4679 O   0  0  0  0  0  0
  -23.5388  -32.1404   23.7445 O   0  0  0  0  0  0
  -29.2478  -18.7611   19.0126 C   0  0  0  0  0  0
  -29.4440  -19.1496   20.3126 C   0  0  0  0  0  0
  -29.7603  -18.0342   21.1738 C   0  0  0  0  0  0
  -29.7975  -16.8051   20.5333 C   0  0  0  0  0  0
  -28.2152  -24.1636   20.6353 C   0  0  0  0  0  0
  -28.9252  -21.6417   20.1839 C   0  0  0  0  0  0
  -29.2515  -23.0149   20.8454 C   0  0  0  0  0  0
  -28.5155  -25.2929   19.6049 C   0  0  0  0  0  0
  -30.0015  -18.2180   22.5393 N   0  0  0  0  0  0
  -29.4184  -20.5177   20.7788 N   0  0  0  0  0  0
  -29.9575  -15.5603   21.0861 N   0  0  0  0  0  0
  -27.1839  -24.2032   21.3157 O   0  0  0  0  0  0
  -28.2575  -21.6057   19.1457 O   0  0  0  0  0  0
  -29.4608  -17.0348   18.8245 S   0  0  0  0  0  0
  -31.4776  -12.4358   19.1636 H   0  0  0  0  0  0
  -30.3324  -11.3319   19.8663 H   0  0  0  0  0  0
  -29.7626  -11.7760   17.4585 H   0  0  0  0  0  0
  -29.6702  -13.4897   17.7776 H   0  0  0  0  0  0
  -27.8521  -11.3023   18.8430 H   0  0  0  0  0  0
  -27.3773  -12.6134   17.7935 H   0  0  0  0  0  0
  -27.6959  -14.2539   19.5642 H   0  0  0  0  0  0
  -28.6893  -11.9930   21.3692 H   0  0  0  0  0  0
  -28.4507  -13.6370   21.8718 H   0  0  0  0  0  0
  -25.2752   -9.5695   22.4775 H   0  0  0  0  0  0
  -23.9993   -7.4652   22.7483 H   0  0  0  0  0  0
  -21.0839   -8.8748   19.8956 H   0  0  0  0  0  0
  -22.3670  -10.9675   19.6144 H   0  0  0  0  0  0
  -21.1995   -7.6144   23.9713 H   0  0  0  0  0  0
  -21.1493   -6.0526   25.9087 H   0  0  0  0  0  0
  -22.0597   -2.7605   23.2832 H   0  0  0  0  0  0
  -22.4069  -11.9898   22.4753 H   0  0  0  0  0  0
  -21.1115  -13.1310   22.2570 H   0  0  0  0  0  0
  -24.6683  -15.8455   20.5242 H   0  0  0  0  0  0
  -26.2888  -15.6281   20.1015 H   0  0  0  0  0  0
  -26.7136  -32.5517   23.1113 H   0  0  0  0  0  0
  -25.0063  -33.9705   25.0451 H   0  0  0  0  0  0
  -22.6984  -31.3036   21.4018 H   0  0  0  0  0  0
  -23.3748  -35.9634   23.3294 H   0  0  0  0  0  0
  -24.3569  -36.8936   22.2038 H   0  0  0  0  0  0
  -23.7242  -37.6515   23.6643 H   0  0  0  0  0  0
  -26.0512  -31.5760   20.5894 H   0  0  0  0  0  0
  -26.8287  -30.8764   21.9816 H   0  0  0  0  0  0
  -28.1062  -29.0543   21.1610 H   0  0  0  0  0  0
  -25.9930  -25.9244   19.0528 H   0  0  0  0  0  0
  -23.9722  -27.2775   19.0485 H   0  0  0  0  0  0
  -23.7260  -30.5828   19.3944 H   0  0  0  0  0  0
  -22.7437  -29.2309   19.8720 H   0  0  0  0  0  0
  -25.1298  -36.1969   25.0828 H   0  0  0  0  0  0
  -20.9957  -28.3264   24.1430 H   0  0  0  0  0  0
  -20.5672  -26.2295   23.3619 H   0  0  0  0  0  0
  -21.6630  -26.7454   22.1204 H   0  0  0  0  0  0
  -19.6879  -25.6314   21.1236 H   0  0  0  0  0  0
  -19.6692  -27.3217   20.6754 H   0  0  0  0  0  0
  -17.4202  -26.6723   21.4019 H   0  0  0  0  0  0
  -18.0301  -26.0059   22.9005 H   0  0  0  0  0  0
  -19.7915  -30.7259   24.2324 H   0  0  0  0  0  0
  -17.4993  -31.6265   24.5172 H   0  0  0  0  0  0
  -15.5332  -30.3005   23.7611 H   0  0  0  0  0  0
  -15.8671  -28.0810   22.7089 H   0  0  0  0  0  0
  -24.5894  -30.7074   25.7766 H   0  0  0  0  0  0
  -24.8917  -32.2882   26.4856 H   0  0  0  0  0  0
  -25.8035  -30.8890   27.0227 H   0  0  0  0  0  0
  -26.2850  -29.6778   24.1146 H   0  0  0  0  0  0
  -27.4021  -29.7249   25.4595 H   0  0  0  0  0  0
  -27.8705  -30.4307   23.9294 H   0  0  0  0  0  0
  -27.2661  -33.3567   26.2102 H   0  0  0  0  0  0
  -28.3844  -32.6871   25.0316 H   0  0  0  0  0  0
  -28.0715  -31.8383   26.5396 H   0  0  0  0  0  0
  -28.2591  -38.0108   24.7508 H   0  0  0  0  0  0
  -28.1104  -36.2650   24.6288 H   0  0  0  0  0  0
  -27.2301  -37.1437   25.8855 H   0  0  0  0  0  0
  -20.9339  -29.8767   21.6923 H   0  0  0  0  0  0
  -26.0207  -38.2868   24.1412 H   0  0  0  0  0  0
  -29.0139  -19.3703   18.1500 H   0  0  0  0  0  0
  -29.3741  -22.8731   21.9190 H   0  0  0  0  0  0
  -30.2232  -23.3443   20.4768 H   0  0  0  0  0  0
  -29.5420  -25.1637   19.2638 H   0  0  0  0  0  0
  -27.8978  -25.1668   18.7179 H   0  0  0  0  0  0
  -29.4871  -18.9617   22.9962 H   0  0  0  0  0  0
  -30.0247  -17.3738   23.0998 H   0  0  0  0  0  0
  -29.8738  -20.6553   21.6703 H   0  0  0  0  0  0
  -29.1986  -15.2740   21.6856 H   0  0  0  0  0  0
  1 25  1  0  0  0
  1 30  2  0  0  0
  1 81  1  0  0  0
  2  3  1  0  0  0
  2 25  1  0  0  0
  2 85  1  0  0  0
  2 86  1  0  0  0
  3  4  1  0  0  0
  3 87  1  0  0  0
  3 88  1  0  0  0
  4  5  1  0  0  0
  4 89  1  0  0  0
  4 90  1  0  0  0
  5  6  1  0  0  0
  5 26  1  0  0  0
  5 91  1  0  0  0
  6 25  1  0  0  0
  6 92  1  0  0  0
  6 93  1  0  0  0
  7  8  2  0  0  0
  7 26  1  0  0  0
  7 29  1  0  0  0
  8  9  1  0  0  0
  8 22  1  0  0  0
  9 10  1  0  0  0
  9 27  2  0  0  0
 10 11  2  0  0  0
 10 15  1  0  0  0
 11 12  1  0  0  0
 11 94  1  0  0  0
 12 13  2  0  0  0
 12 95  1  0  0  0
 13 14  1  0  0  0
 13 31  1  0  0  0
 14 15  2  0  0  0
 14 96  1  0  0  0
 15 97  1  0  0  0
 16 17  2  0  0  0
 16 21  1  0  0  0
 16 31  1  0  0  0
 17 18  1  0  0  0
 17 98  1  0  0  0
 18 19  2  0  0  0
 18 99  1  0  0  0
 19 20  1  0  0  0
 19 24  1  0  0  0
 20 21  2  0  0  0
 20100  1  0  0  0
 21 23  1  0  0  0
 22 28  1  0  0  0
 22 32  2  0  0  0
 26 27  1  0  0  0
 28101  1  0  0  0
 28102  1  0  0  0
 29103  1  0  0  0
 29104  1  0  0  0
 33 34  1  0  0  0
 33 66  1  0  0  0
 33 70  2  0  0  0
 34 36  1  0  0  0
 34 59  1  0  0  0
 34105  1  0  0  0
 35 44  2  0  0  0
 35 45  1  0  0  0
 35 68  1  0  0  0
 36 56  1  0  0  0
 36106  1  0  0  0
 37 39  1  0  0  0
 37 47  1  0  0  0
 37 66  1  0  0  0
 37107  1  0  0  0
 38 43  2  0  0  0
 38 46  1  0  0  0
 38 47  1  0  0  0
 39 64  1  0  0  0
 39 67  2  0  0  0
 40 52  1  0  0  0
 40 53  2  0  0  0
 40 58  1  0  0  0
 41108  1  0  0  0
 41109  1  0  0  0
 41110  1  0  0  0
 41 48  1  0  0  0
 42 43  1  0  0  0
 42 66  1  0  0  0
 42111  1  0  0  0
 42112  1  0  0  0
 43 44  1  0  0  0
 44113  1  0  0  0
 45 46  2  0  0  0
 45114  1  0  0  0
 46115  1  0  0  0
 47116  1  0  0  0
 47117  1  0  0  0
 48 56  1  0  0  0
 48 65  1  0  0  0
 48118  1  0  0  0
 49 50  1  0  0  0
 49 53  1  0  0  0
 49 64  1  0  0  0
 49119  1  0  0  0
 50 51  1  0  0  0
 50120  1  0  0  0
 50121  1  0  0  0
 51 52  1  0  0  0
 51122  1  0  0  0
 51123  1  0  0  0
 52124  1  0  0  0
 52125  1  0  0  0
 53 54  1  0  0  0
 54 55  2  0  0  0
 54126  1  0  0  0
 55 57  1  0  0  0
 55127  1  0  0  0
 56 69  2  0  0  0
 57 58  2  0  0  0
 57128  1  0  0  0
 58129  1  0  0  0
 59 60  1  0  0  0
 59 61  1  0  0  0
 59 62  1  0  0  0
 60130  1  0  0  0
 60131  1  0  0  0
 60132  1  0  0  0
 61133  1  0  0  0
 61134  1  0  0  0
 61135  1  0  0  0
 62136  1  0  0  0
 62137  1  0  0  0
 62138  1  0  0  0
 63 65  1  0  0  0
 63139  1  0  0  0
 63140  1  0  0  0
 63141  1  0  0  0
 64142  1  0  0  0
 65143  1  0  0  0
 68 78  1  0  0  0
 71 72  2  0  0  0
 71 84  1  0  0  0
 71144  1  0  0  0
 72 73  1  0  0  0
 72 80  1  0  0  0
 73 74  2  0  0  0
 73 79  1  0  0  0
 74 81  1  0  0  0
 74 84  1  0  0  0
 75 77  1  0  0  0
 75 78  1  0  0  0
 75 82  2  0  0  0
 76 77  1  0  0  0
 76 80  1  0  0  0
 76 83  2  0  0  0
 77145  1  0  0  0
 77146  1  0  0  0
 78147  1  0  0  0
 78148  1  0  0  0
 79149  1  0  0  0
 79150  1  0  0  0
 80151  1  0  0  0
 81152  1  0  0  0
M  ISO  4   1 100  68 101  78 101  81 100
M  END
> <chiral flag>
0

> <version>
0

> <s_m_source_file>
/data/baiqing/PycharmProjects/Reinvent-master-3.2/result/LINK_invent/BTK/process_docking_weight1_custom_product_contain_oxygen_bond_distance_aromatic_linkinvent_7_9_3/rearranged_h_0149.sdf

> <i_m_source_file_index>
15

> <r_mmod_Potential_Energy-OPLS-2005>
-258.779418945312

> <r_mmod_Stretch_Energy-OPLS-2005>
49.6058120727539

> <r_mmod_Bend_Energy-OPLS-2005>
125.027130126953

> <r_mmod_Torsional_Energy-OPLS-2005>
252.285308837891

> <r_mmod_Improper_Torsional_Energy-OPLS-2005>
9.36263561248779

> <r_mmod_Van_der_Waal_Energy-OPLS-2005>
124.33748626709

> <r_mmod_Electrostatic_Energy-OPLS-2005>
-577.281799316406

> <r_mmod_Solvation_Energy-OPLS-2005>
-264.995941162109

> <b_mmod_Minimization_Converged-OPLS-2005>
0

> <r_mmod_RMS_Derivative-OPLS-2005>
2.40082240104675

$$$$
15
                    3D
 Structure written by MMmdl.
162171  0  0  1  0            999 V2000
  -30.6094  -14.7801   20.4271 C   0  0  0  0  0  0
  -30.4244  -12.4767   19.4729 C   0  0  0  0  0  0
  -29.5103  -12.5185   18.2277 C   0  0  0  0  0  0
  -28.0297  -12.3556   18.6314 C   0  0  0  0  0  0
  -27.6359  -13.2434   19.8413 C   0  0  2  0  0  0
  -28.6819  -13.1962   20.9775 C   0  0  0  0  0  0
  -25.2496  -13.8203   20.5670 C   0  0  0  0  0  0
  -24.1817  -13.0447   20.9198 C   0  0  0  0  0  0
  -24.6420  -11.6926   20.8719 C   0  0  0  0  0  0
  -23.9081  -10.4275   21.0379 C   0  0  0  0  0  0
  -24.3621   -9.4198   21.9170 C   0  0  0  0  0  0
  -23.6294   -8.2241   22.0749 C   0  0  0  0  0  0
  -22.4288   -8.0243   21.3523 C   0  0  0  0  0  0
  -21.9897   -9.0228   20.4652 C   0  0  0  0  0  0
  -22.7233  -10.2114   20.3051 C   0  0  0  0  0  0
  -21.6869   -6.0696   22.5256 C   0  0  0  0  0  0
  -21.4042   -6.5611   23.8183 C   0  0  0  0  0  0
  -21.3657   -5.6776   24.9135 C   0  0  0  0  0  0
  -21.6046   -4.3029   24.7219 C   0  0  0  0  0  0
  -21.8830   -3.8118   23.4334 C   0  0  0  0  0  0
  -21.9206   -4.6924   22.3386 C   0  0  0  0  0  0
  -22.7825  -13.5202   21.1810 C   0  0  0  0  0  0
  -22.1680   -4.2100   21.0973 F   0  0  0  0  0  0
  -21.5606   -3.4531   25.7734 F   0  0  0  0  0  0
  -29.9757  -13.5554   20.3857 N   0  0  0  0  0  0
  -26.2911  -12.9441   20.3222 N   0  0  0  0  0  0
  -25.9354  -11.6565   20.5745 N   0  0  0  0  0  0
  -22.0517  -12.8213   22.0399 N   0  0  0  0  0  0
  -25.4112  -15.1941   20.4061 N   0  0  0  0  0  0
  -31.8116  -14.8209   20.1567 O   0  0  0  0  0  0
  -21.6656   -6.8837   21.4209 O   0  0  0  0  0  0
  -22.3507  -14.5476   20.6592 O   0  0  0  0  0  0
  -24.6274  -31.8567   23.2004 C   0  0  0  0  0  0
  -25.9134  -32.4747   23.8313 C   0  0  1  0  0  0
  -27.2345  -27.2882   20.0934 C   0  0  0  0  0  0
  -25.5954  -33.8556   24.2211 N   0  0  0  0  0  0
  -23.4212  -30.4747   21.5466 C   0  0  2  0  0  0
  -24.8660  -28.9114   20.1238 C   0  0  0  0  0  0
  -22.7471  -29.4624   22.4996 C   0  0  0  0  0  0
  -18.0287  -28.1426   22.8471 C   0  0  0  0  0  0
  -24.1501  -36.7263   23.2623 C   0  0  0  0  0  0
  -25.9672  -30.7659   21.3838 C   0  0  0  0  0  0
  -26.0402  -29.3943   20.7152 C   0  0  0  0  0  0
  -27.2229  -28.5926   20.6887 C   0  0  0  0  0  0
  -26.0344  -26.8614   19.4853 C   0  0  0  0  0  0
  -24.8651  -27.6496   19.5057 C   0  0  0  0  0  0
  -23.6381  -29.7945   20.1699 C   0  0  0  0  0  0
  -25.4142  -36.3034   24.0281 C   0  0  1  0  0  0
  -20.5867  -28.3741   23.1278 C   0  0  2  0  0  0
  -20.6805  -26.9485   22.5373 C   0  0  0  0  0  0
  -19.5798  -26.6430   21.5181 C   0  0  0  0  0  0
  -18.1963  -26.7969   22.1595 C   0  0  0  0  0  0
  -19.1530  -28.8908   23.2861 C   0  0  0  0  0  0
  -18.9451  -30.1496   23.8900 C   0  0  0  0  0  0
  -17.6453  -30.6627   24.0574 C   0  0  0  0  0  0
  -25.9081  -34.9423   23.5034 C   0  0  0  0  0  0
  -16.5352  -29.9112   23.6349 C   0  0  0  0  0  0
  -16.7265  -28.6524   23.0360 C   0  0  0  0  0  0
  -26.4487  -31.6599   25.0723 C   0  0  0  0  0  0
  -25.3693  -31.3814   26.1430 C   0  0  0  0  0  0
  -27.0314  -30.2981   24.6276 C   0  0  0  0  0  0
  -27.6011  -32.4382   25.7503 C   0  0  0  0  0  0
  -27.5583  -37.1799   24.8460 C   0  0  0  0  0  0
  -21.4190  -29.3075   22.3691 N   0  0  0  0  0  0
  -26.4314  -37.3748   23.9375 N   0  0  0  0  0  0
  -24.6906  -31.0516   22.0987 N   0  0  0  0  0  0
  -23.4161  -28.8173   23.3107 O   0  0  0  0  0  0
  -28.3760  -26.4638   20.1432 O   0  0  0  0  0  0
  -26.5625  -34.8888   22.4580 O   0  0  0  0  0  0
  -23.5436  -32.1387   23.7328 O   0  0  0  0  0  0
  -30.7651  -20.0927   19.3361 C   0  0  0  0  0  0
  -29.3074  -18.5357   20.5266 C   0  0  0  0  0  0
  -31.3140  -17.6984   19.4505 C   0  0  0  0  0  0
  -29.5895  -19.9058   20.0913 C   0  0  0  0  0  0
  -31.6100  -19.0158   19.0265 C   0  0  0  0  0  0
  -30.1575  -17.3814   20.2123 C   0  0  0  0  0  0
  -28.6762  -21.1377   20.2397 C   0  0  0  0  0  0
  -30.0986  -23.7394   22.1105 C   0  0  0  0  0  0
  -28.6036  -24.1245   22.0240 C   0  0  0  0  0  0
  -30.3812  -22.8394   20.8972 C   0  0  0  0  0  0
  -28.1917  -23.7628   20.5956 C   0  0  2  0  0  0
  -28.4586  -25.0504   19.6407 C   0  0  0  0  0  0
  -29.0408  -22.4816   20.4084 N   0  0  0  0  0  0
  -32.7579  -19.2635   18.2690 N   0  0  0  0  0  0
  -29.8583  -15.9505   20.5778 N   0  0  0  0  0  0
  -27.3717  -20.8955   20.1643 N   0  3  0  0  0  0
  -31.4654  -12.5993   19.1705 H   0  0  0  0  0  0
  -30.3663  -11.5054   19.9674 H   0  0  0  0  0  0
  -29.7957  -11.7439   17.5127 H   0  0  0  0  0  0
  -29.6458  -13.4690   17.7063 H   0  0  0  0  0  0
  -27.8605  -11.3044   18.8711 H   0  0  0  0  0  0
  -27.3873  -12.5741   17.7769 H   0  0  0  0  0  0
  -27.6210  -14.2634   19.4576 H   0  0  0  0  0  0
  -28.7341  -12.2071   21.4382 H   0  0  0  0  0  0
  -28.4193  -13.8925   21.7773 H   0  0  0  0  0  0
  -25.2770   -9.5681   22.4745 H   0  0  0  0  0  0
  -23.9994   -7.4641   22.7499 H   0  0  0  0  0  0
  -21.0812   -8.8748   19.9000 H   0  0  0  0  0  0
  -22.3670  -10.9629   19.6169 H   0  0  0  0  0  0
  -21.2080   -7.6133   23.9656 H   0  0  0  0  0  0
  -21.1463   -6.0520   25.9037 H   0  0  0  0  0  0
  -22.0629   -2.7574   23.2859 H   0  0  0  0  0  0
  -22.4155  -11.9929   22.4845 H   0  0  0  0  0  0
  -21.1107  -13.1215   22.2571 H   0  0  0  0  0  0
  -24.6324  -15.8351   20.5050 H   0  0  0  0  0  0
  -26.2436  -15.6352   20.0361 H   0  0  0  0  0  0
  -26.7198  -32.5352   23.1041 H   0  0  0  0  0  0
  -25.0173  -33.9723   25.0394 H   0  0  0  0  0  0
  -22.7209  -31.2995   21.3983 H   0  0  0  0  0  0
  -23.3755  -35.9612   23.3309 H   0  0  0  0  0  0
  -24.3552  -36.8875   22.2033 H   0  0  0  0  0  0
  -23.7303  -37.6475   23.6660 H   0  0  0  0  0  0
  -26.1197  -31.5349   20.6272 H   0  0  0  0  0  0
  -26.8411  -30.8000   22.0228 H   0  0  0  0  0  0
  -28.1284  -28.9634   21.1508 H   0  0  0  0  0  0
  -25.9703  -25.9033   18.9961 H   0  0  0  0  0  0
  -23.9591  -27.2672   19.0574 H   0  0  0  0  0  0
  -23.7766  -30.5656   19.4143 H   0  0  0  0  0  0
  -22.7541  -29.2332   19.8597 H   0  0  0  0  0  0
  -25.1351  -36.1847   25.0785 H   0  0  0  0  0  0
  -20.9940  -28.3336   24.1411 H   0  0  0  0  0  0
  -20.5782  -26.2355   23.3560 H   0  0  0  0  0  0
  -21.6659  -26.7605   22.1124 H   0  0  0  0  0  0
  -19.6980  -25.6329   21.1234 H   0  0  0  0  0  0
  -19.6716  -27.3215   20.6692 H   0  0  0  0  0  0
  -17.4219  -26.6675   21.4011 H   0  0  0  0  0  0
  -18.0429  -26.0111   22.9011 H   0  0  0  0  0  0
  -19.7911  -30.7307   24.2273 H   0  0  0  0  0  0
  -17.5005  -31.6296   24.5188 H   0  0  0  0  0  0
  -15.5351  -30.3020   23.7698 H   0  0  0  0  0  0
  -15.8648  -28.0846   22.7108 H   0  0  0  0  0  0
  -24.5842  -30.7188   25.7781 H   0  0  0  0  0  0
  -24.8897  -32.3018   26.4799 H   0  0  0  0  0  0
  -25.7966  -30.9022   27.0254 H   0  0  0  0  0  0
  -26.2907  -29.6759   24.1241 H   0  0  0  0  0  0
  -27.3870  -29.7241   25.4858 H   0  0  0  0  0  0
  -27.8862  -30.4199   23.9611 H   0  0  0  0  0  0
  -27.2575  -33.3707   26.2008 H   0  0  0  0  0  0
  -28.3848  -32.6934   25.0356 H   0  0  0  0  0  0
  -28.0648  -31.8568   26.5483 H   0  0  0  0  0  0
  -28.2600  -38.0093   24.7471 H   0  0  0  0  0  0
  -28.1072  -36.2612   24.6348 H   0  0  0  0  0  0
  -27.2257  -37.1516   25.8850 H   0  0  0  0  0  0
  -20.9444  -29.8689   21.6756 H   0  0  0  0  0  0
  -26.0154  -38.2805   24.1377 H   0  0  0  0  0  0
  -31.0139  -21.0757   18.9628 H   0  0  0  0  0  0
  -28.3980  -18.3717   21.0876 H   0  0  0  0  0  0
  -31.9947  -16.9248   19.1376 H   0  0  0  0  0  0
  -30.3131  -23.2060   23.0390 H   0  0  0  0  0  0
  -30.7291  -24.6278   22.0804 H   0  0  0  0  0  0
  -28.4271  -25.1705   22.2776 H   0  0  0  0  0  0
  -28.0141  -23.5335   22.7227 H   0  0  0  0  0  0
  -31.0016  -21.9884   21.1812 H   0  0  0  0  0  0
  -30.9165  -23.3916   20.1245 H   0  0  0  0  0  0
  -27.1241  -23.5440   20.5693 H   0  0  0  0  0  0
  -27.8563  -24.9489   18.7385 H   0  0  0  0  0  0
  -29.4771  -24.9681   19.2599 H   0  0  0  0  0  0
  -33.2210  -18.4670   17.8406 H   0  0  0  0  0  0
  -32.7683  -20.0867   17.6755 H   0  0  0  0  0  0
  -28.9147  -15.7893   20.8979 H   0  0  0  0  0  0
  -27.0673  -19.9433   20.0493 H   0  0  0  0  0  0
  -26.6703  -21.6110   20.2402 H   0  0  0  0  0  0
  1 25  1  0  0  0
  1 30  2  0  0  0
  1 85  1  0  0  0
  2  3  1  0  0  0
  2 25  1  0  0  0
  2 87  1  0  0  0
  2 88  1  0  0  0
  3  4  1  0  0  0
  3 89  1  0  0  0
  3 90  1  0  0  0
  4  5  1  0  0  0
  4 91  1  0  0  0
  4 92  1  0  0  0
  5  6  1  0  0  0
  5 26  1  0  0  0
  5 93  1  0  0  0
  6 25  1  0  0  0
  6 94  1  0  0  0
  6 95  1  0  0  0
  7  8  2  0  0  0
  7 26  1  0  0  0
  7 29  1  0  0  0
  8  9  1  0  0  0
  8 22  1  0  0  0
  9 10  1  0  0  0
  9 27  2  0  0  0
 10 11  2  0  0  0
 10 15  1  0  0  0
 11 12  1  0  0  0
 11 96  1  0  0  0
 12 13  2  0  0  0
 12 97  1  0  0  0
 13 14  1  0  0  0
 13 31  1  0  0  0
 14 15  2  0  0  0
 14 98  1  0  0  0
 15 99  1  0  0  0
 16 17  2  0  0  0
 16 21  1  0  0  0
 16 31  1  0  0  0
 17 18  1  0  0  0
 17100  1  0  0  0
 18 19  2  0  0  0
 18101  1  0  0  0
 19 20  1  0  0  0
 19 24  1  0  0  0
 20 21  2  0  0  0
 20102  1  0  0  0
 21 23  1  0  0  0
 22 28  1  0  0  0
 22 32  2  0  0  0
 26 27  1  0  0  0
 28103  1  0  0  0
 28104  1  0  0  0
 29105  1  0  0  0
 29106  1  0  0  0
 33 34  1  0  0  0
 33 66  1  0  0  0
 33 70  2  0  0  0
 34 36  1  0  0  0
 34 59  1  0  0  0
 34107  1  0  0  0
 35 44  2  0  0  0
 35 45  1  0  0  0
 35 68  1  0  0  0
 36 56  1  0  0  0
 36108  1  0  0  0
 37 39  1  0  0  0
 37 47  1  0  0  0
 37 66  1  0  0  0
 37109  1  0  0  0
 38 43  2  0  0  0
 38 46  1  0  0  0
 38 47  1  0  0  0
 39 64  1  0  0  0
 39 67  2  0  0  0
 40 52  1  0  0  0
 40 53  2  0  0  0
 40 58  1  0  0  0
 41110  1  0  0  0
 41111  1  0  0  0
 41112  1  0  0  0
 41 48  1  0  0  0
 42 43  1  0  0  0
 42 66  1  0  0  0
 42113  1  0  0  0
 42114  1  0  0  0
 43 44  1  0  0  0
 44115  1  0  0  0
 45 46  2  0  0  0
 45116  1  0  0  0
 46117  1  0  0  0
 47118  1  0  0  0
 47119  1  0  0  0
 48 56  1  0  0  0
 48 65  1  0  0  0
 48120  1  0  0  0
 49 50  1  0  0  0
 49 53  1  0  0  0
 49 64  1  0  0  0
 49121  1  0  0  0
 50 51  1  0  0  0
 50122  1  0  0  0
 50123  1  0  0  0
 51 52  1  0  0  0
 51124  1  0  0  0
 51125  1  0  0  0
 52126  1  0  0  0
 52127  1  0  0  0
 53 54  1  0  0  0
 54 55  2  0  0  0
 54128  1  0  0  0
 55 57  1  0  0  0
 55129  1  0  0  0
 56 69  2  0  0  0
 57 58  2  0  0  0
 57130  1  0  0  0
 58131  1  0  0  0
 59 60  1  0  0  0
 59 61  1  0  0  0
 59 62  1  0  0  0
 60132  1  0  0  0
 60133  1  0  0  0
 60134  1  0  0  0
 61135  1  0  0  0
 61136  1  0  0  0
 61137  1  0  0  0
 62138  1  0  0  0
 62139  1  0  0  0
 62140  1  0  0  0
 63 65  1  0  0  0
 63141  1  0  0  0
 63142  1  0  0  0
 63143  1  0  0  0
 64144  1  0  0  0
 65145  1  0  0  0
 68 82  1  0  0  0
 71 74  2  0  0  0
 71 75  1  0  0  0
 71146  1  0  0  0
 72 74  1  0  0  0
 72 76  2  0  0  0
 72147  1  0  0  0
 73 75  2  0  0  0
 73 76  1  0  0  0
 73148  1  0  0  0
 74 77  1  0  0  0
 75 84  1  0  0  0
 76 85  1  0  0  0
 77 83  1  0  0  0
 77 86  2  0  0  0
 78 79  1  0  0  0
 78 80  1  0  0  0
 78149  1  0  0  0
 78150  1  0  0  0
 79 81  1  0  0  0
 79151  1  0  0  0
 79152  1  0  0  0
 80 83  1  0  0  0
 80153  1  0  0  0
 80154  1  0  0  0
 81 82  1  0  0  0
 81 83  1  0  0  0
 81155  1  0  0  0
 82156  1  0  0  0
 82157  1  0  0  0
 84158  1  0  0  0
 84159  1  0  0  0
 85160  1  0  0  0
 86161  1  0  0  0
 86162  1  0  0  0
M  CHG  1  86   1
M  ISO  4   1 100  68 101  82 101  85 100
M  END
> <chiral flag>
0

> <version>
0

> <s_m_source_file>
/data/baiqing/PycharmProjects/Reinvent-master-3.2/result/LINK_invent/BTK/process_docking_weight1_custom_product_contain_oxygen_bond_distance_aromatic_linkinvent_7_9_3/rearranged_h_0149.sdf

> <i_m_source_file_index>
16

> <r_mmod_Potential_Energy-OPLS-2005>
94.3344345092773

> <r_mmod_Stretch_Energy-OPLS-2005>
136.25178527832

> <r_mmod_Bend_Energy-OPLS-2005>
229.474822998047

> <r_mmod_Torsional_Energy-OPLS-2005>
295.032409667969

> <r_mmod_Improper_Torsional_Energy-OPLS-2005>
9.65689086914062

> <r_mmod_Van_der_Waal_Energy-OPLS-2005>
144.053482055664

> <r_mmod_Electrostatic_Energy-OPLS-2005>
-389.770385742188

> <r_mmod_Solvation_Energy-OPLS-2005>
-414.670227050781

> <b_mmod_Minimization_Converged-OPLS-2005>
0

> <r_mmod_RMS_Derivative-OPLS-2005>
5.64206075668335

$$$$
16
                    3D
 Structure written by MMmdl.
152160  0  0  1  0            999 V2000
  -30.6390  -14.7218   20.4392 C   0  0  0  0  0  0
  -30.4219  -12.4313   19.4880 C   0  0  0  0  0  0
  -29.5116  -12.5022   18.2421 C   0  0  0  0  0  0
  -28.0347  -12.3352   18.6466 C   0  0  0  0  0  0
  -27.6403  -13.2364   19.8474 C   0  0  2  0  0  0
  -28.6803  -13.1729   20.9855 C   0  0  0  0  0  0
  -25.2503  -13.8213   20.5695 C   0  0  0  0  0  0
  -24.1796  -13.0451   20.9202 C   0  0  0  0  0  0
  -24.6392  -11.6929   20.8735 C   0  0  0  0  0  0
  -23.9072  -10.4300   21.0400 C   0  0  0  0  0  0
  -24.3621   -9.4215   21.9181 C   0  0  0  0  0  0
  -23.6296   -8.2248   22.0752 C   0  0  0  0  0  0
  -22.4276   -8.0285   21.3546 C   0  0  0  0  0  0
  -21.9910   -9.0259   20.4649 C   0  0  0  0  0  0
  -22.7239  -10.2138   20.3055 C   0  0  0  0  0  0
  -21.6857   -6.0736   22.5278 C   0  0  0  0  0  0
  -21.4018   -6.5640   23.8213 C   0  0  0  0  0  0
  -21.3661   -5.6792   24.9175 C   0  0  0  0  0  0
  -21.6043   -4.3053   24.7224 C   0  0  0  0  0  0
  -21.8819   -3.8147   23.4346 C   0  0  0  0  0  0
  -21.9194   -4.6964   22.3402 C   0  0  0  0  0  0
  -22.7818  -13.5227   21.1868 C   0  0  0  0  0  0
  -22.1661   -4.2152   21.0979 F   0  0  0  0  0  0
  -21.5629   -3.4537   25.7737 F   0  0  0  0  0  0
  -29.9908  -13.5051   20.4158 N   0  0  0  0  0  0
  -26.2928  -12.9429   20.3258 N   0  0  0  0  0  0
  -25.9321  -11.6566   20.5727 N   0  0  0  0  0  0
  -22.0465  -12.8218   22.0425 N   0  0  0  0  0  0
  -25.4207  -15.1937   20.4142 N   0  0  0  0  0  0
  -31.8343  -14.7474   20.1313 O   0  0  0  0  0  0
  -21.6642   -6.8878   21.4241 O   0  0  0  0  0  0
  -22.3500  -14.5533   20.6719 O   0  0  0  0  0  0
  -24.6297  -31.8567   23.2000 C   0  0  0  0  0  0
  -25.9128  -32.4765   23.8340 C   0  0  1  0  0  0
  -27.2129  -27.2771   20.1323 C   0  0  0  0  0  0
  -25.5923  -33.8567   24.2261 N   0  0  0  0  0  0
  -23.4256  -30.4801   21.5435 C   0  0  2  0  0  0
  -24.8727  -28.9307   20.1104 C   0  0  0  0  0  0
  -22.7495  -29.4610   22.4923 C   0  0  0  0  0  0
  -18.0290  -28.1388   22.8486 C   0  0  0  0  0  0
  -24.1489  -36.7295   23.2638 C   0  0  0  0  0  0
  -25.9704  -30.7753   21.3776 C   0  0  0  0  0  0
  -26.0441  -29.3990   20.7206 C   0  0  0  0  0  0
  -27.2208  -28.5847   20.7201 C   0  0  0  0  0  0
  -26.0267  -26.8801   19.4795 C   0  0  0  0  0  0
  -24.8682  -27.6789   19.4778 C   0  0  0  0  0  0
  -23.6427  -29.8154   20.1591 C   0  0  0  0  0  0
  -25.4114  -36.3078   24.0325 C   0  0  1  0  0  0
  -20.5893  -28.3697   23.1276 C   0  0  2  0  0  0
  -20.6780  -26.9416   22.5411 C   0  0  0  0  0  0
  -19.5754  -26.6386   21.5215 C   0  0  0  0  0  0
  -18.1934  -26.7930   22.1627 C   0  0  0  0  0  0
  -19.1542  -28.8859   23.2877 C   0  0  0  0  0  0
  -18.9463  -30.1460   23.8897 C   0  0  0  0  0  0
  -17.6462  -30.6590   24.0564 C   0  0  0  0  0  0
  -25.9053  -34.9447   23.5098 C   0  0  0  0  0  0
  -16.5354  -29.9088   23.6329 C   0  0  0  0  0  0
  -16.7276  -28.6505   23.0352 C   0  0  0  0  0  0
  -26.4494  -31.6584   25.0724 C   0  0  0  0  0  0
  -25.3712  -31.3741   26.1442 C   0  0  0  0  0  0
  -27.0330  -30.2995   24.6205 C   0  0  0  0  0  0
  -27.6052  -32.4319   25.7494 C   0  0  0  0  0  0
  -27.5582  -37.1800   24.8460 C   0  0  0  0  0  0
  -21.4204  -29.3045   22.3665 N   0  0  0  0  0  0
  -26.4290  -37.3776   23.9407 N   0  0  0  0  0  0
  -24.6943  -31.0545   22.0971 N   0  0  0  0  0  0
  -23.4201  -28.8146   23.3015 O   0  0  0  0  0  0
  -28.2897  -26.3673   20.1724 O   0  0  0  0  0  0
  -26.5634  -34.8920   22.4672 O   0  0  0  0  0  0
  -23.5451  -32.1383   23.7305 O   0  0  0  0  0  0
  -30.3873  -20.9997   19.5511 C   0  0  0  0  0  0
  -30.8175  -19.6222   19.4754 C   0  0  0  0  0  0
  -30.0648  -18.7042   20.1875 C   0  0  0  0  0  0
  -29.2616  -21.2457   20.3083 C   0  0  0  0  0  0
  -30.3795  -17.2359   20.2436 C   0  0  0  0  0  0
  -29.8579  -16.0071   20.6273 C   0  0  0  0  0  0
  -28.9214  -23.7773   20.2022 C   0  0  0  0  0  0
  -28.0686  -25.1017   22.2318 C   0  0  0  0  0  0
  -27.9985  -24.9881   20.6998 C   0  0  1  0  0  0
  -31.9473  -19.3089   18.7034 N   0  0  0  0  0  0
  -28.6204  -22.4696   20.5663 N   0  0  0  0  0  0
  -29.8922  -24.0411   19.4877 O   0  0  0  0  0  0
  -28.7292  -19.6332   20.9320 S   0  0  0  0  0  0
  -31.4679  -12.5231   19.1911 H   0  0  0  0  0  0
  -30.3381  -11.4565   19.9708 H   0  0  0  0  0  0
  -29.7920  -11.7306   17.5239 H   0  0  0  0  0  0
  -29.6506  -13.4589   17.7360 H   0  0  0  0  0  0
  -27.8843  -11.2869   18.9068 H   0  0  0  0  0  0
  -27.3832  -12.5326   17.7947 H   0  0  0  0  0  0
  -27.6367  -14.2583   19.4679 H   0  0  0  0  0  0
  -28.7036  -12.1782   21.4329 H   0  0  0  0  0  0
  -28.4175  -13.8592   21.7913 H   0  0  0  0  0  0
  -25.2766   -9.5694   22.4756 H   0  0  0  0  0  0
  -24.0009   -7.4638   22.7468 H   0  0  0  0  0  0
  -21.0842   -8.8776   19.8951 H   0  0  0  0  0  0
  -22.3694  -10.9676   19.6164 H   0  0  0  0  0  0
  -21.2009   -7.6147   23.9716 H   0  0  0  0  0  0
  -21.1483   -6.0522   25.9078 H   0  0  0  0  0  0
  -22.0596   -2.7609   23.2847 H   0  0  0  0  0  0
  -22.4084  -11.9887   22.4824 H   0  0  0  0  0  0
  -21.1082  -13.1240   22.2622 H   0  0  0  0  0  0
  -24.6576  -15.8511   20.5332 H   0  0  0  0  0  0
  -26.2769  -15.6339   20.1007 H   0  0  0  0  0  0
  -26.7196  -32.5420   23.1084 H   0  0  0  0  0  0
  -25.0040  -33.9703   25.0385 H   0  0  0  0  0  0
  -22.7215  -31.3022   21.3990 H   0  0  0  0  0  0
  -23.3752  -35.9626   23.3292 H   0  0  0  0  0  0
  -24.3585  -36.8928   22.2055 H   0  0  0  0  0  0
  -23.7242  -37.6493   23.6669 H   0  0  0  0  0  0
  -26.1057  -31.5360   20.6075 H   0  0  0  0  0  0
  -26.8492  -30.8253   22.0087 H   0  0  0  0  0  0
  -28.1171  -28.9346   21.2128 H   0  0  0  0  0  0
  -25.9795  -25.9269   18.9731 H   0  0  0  0  0  0
  -23.9744  -27.3189   18.9873 H   0  0  0  0  0  0
  -23.7656  -30.5919   19.4033 H   0  0  0  0  0  0
  -22.7613  -29.2476   19.8555 H   0  0  0  0  0  0
  -25.1295  -36.1926   25.0817 H   0  0  0  0  0  0
  -20.9986  -28.3276   24.1397 H   0  0  0  0  0  0
  -20.5685  -26.2306   23.3614 H   0  0  0  0  0  0
  -21.6648  -26.7446   22.1201 H   0  0  0  0  0  0
  -19.6916  -25.6296   21.1249 H   0  0  0  0  0  0
  -19.6688  -27.3196   20.6744 H   0  0  0  0  0  0
  -17.4202  -26.6675   21.4033 H   0  0  0  0  0  0
  -18.0336  -26.0074   22.9026 H   0  0  0  0  0  0
  -19.7938  -30.7277   24.2268 H   0  0  0  0  0  0
  -17.5017  -31.6271   24.5164 H   0  0  0  0  0  0
  -15.5355  -30.2991   23.7653 H   0  0  0  0  0  0
  -15.8677  -28.0825   22.7068 H   0  0  0  0  0  0
  -24.5877  -30.7103   25.7767 H   0  0  0  0  0  0
  -24.8914  -32.2915   26.4862 H   0  0  0  0  0  0
  -25.8017  -30.8913   27.0223 H   0  0  0  0  0  0
  -26.2910  -29.6752   24.1211 H   0  0  0  0  0  0
  -27.3987  -29.7250   25.4728 H   0  0  0  0  0  0
  -27.8802  -30.4262   23.9460 H   0  0  0  0  0  0
  -27.2662  -33.3620   26.2065 H   0  0  0  0  0  0
  -28.3861  -32.6874   25.0320 H   0  0  0  0  0  0
  -28.0717  -31.8446   26.5412 H   0  0  0  0  0  0
  -28.2590  -38.0107   24.7519 H   0  0  0  0  0  0
  -28.1087  -36.2640   24.6263 H   0  0  0  0  0  0
  -27.2305  -37.1425   25.8864 H   0  0  0  0  0  0
  -20.9386  -29.8766   21.6871 H   0  0  0  0  0  0
  -26.0171  -38.2849   24.1412 H   0  0  0  0  0  0
  -30.9338  -21.7739   19.0322 H   0  0  0  0  0  0
  -31.3739  -17.1063   19.8436 H   0  0  0  0  0  0
  -28.8680  -15.9727   21.0557 H   0  0  0  0  0  0
  -27.8829  -24.1442   22.7194 H   0  0  0  0  0  0
  -27.3237  -25.8035   22.6069 H   0  0  0  0  0  0
  -29.0494  -25.4538   22.5524 H   0  0  0  0  0  0
  -26.9855  -24.6832   20.4415 H   0  0  0  0  0  0
  -32.2427  -19.9861   18.0073 H   0  0  0  0  0  0
  -32.0348  -18.3540   18.3722 H   0  0  0  0  0  0
  -27.7922  -22.3954   21.1427 H   0  0  0  0  0  0
  1 25  1  0  0  0
  1 30  2  0  0  0
  1 76  1  0  0  0
  2  3  1  0  0  0
  2 25  1  0  0  0
  2 84  1  0  0  0
  2 85  1  0  0  0
  3  4  1  0  0  0
  3 86  1  0  0  0
  3 87  1  0  0  0
  4  5  1  0  0  0
  4 88  1  0  0  0
  4 89  1  0  0  0
  5  6  1  0  0  0
  5 26  1  0  0  0
  5 90  1  0  0  0
  6 25  1  0  0  0
  6 91  1  0  0  0
  6 92  1  0  0  0
  7  8  2  0  0  0
  7 26  1  0  0  0
  7 29  1  0  0  0
  8  9  1  0  0  0
  8 22  1  0  0  0
  9 10  1  0  0  0
  9 27  2  0  0  0
 10 11  2  0  0  0
 10 15  1  0  0  0
 11 12  1  0  0  0
 11 93  1  0  0  0
 12 13  2  0  0  0
 12 94  1  0  0  0
 13 14  1  0  0  0
 13 31  1  0  0  0
 14 15  2  0  0  0
 14 95  1  0  0  0
 15 96  1  0  0  0
 16 17  2  0  0  0
 16 21  1  0  0  0
 16 31  1  0  0  0
 17 18  1  0  0  0
 17 97  1  0  0  0
 18 19  2  0  0  0
 18 98  1  0  0  0
 19 20  1  0  0  0
 19 24  1  0  0  0
 20 21  2  0  0  0
 20 99  1  0  0  0
 21 23  1  0  0  0
 22 28  1  0  0  0
 22 32  2  0  0  0
 26 27  1  0  0  0
 28100  1  0  0  0
 28101  1  0  0  0
 29102  1  0  0  0
 29103  1  0  0  0
 33 34  1  0  0  0
 33 66  1  0  0  0
 33 70  2  0  0  0
 34 36  1  0  0  0
 34 59  1  0  0  0
 34104  1  0  0  0
 35 44  2  0  0  0
 35 45  1  0  0  0
 35 68  1  0  0  0
 36 56  1  0  0  0
 36105  1  0  0  0
 37 39  1  0  0  0
 37 47  1  0  0  0
 37 66  1  0  0  0
 37106  1  0  0  0
 38 43  2  0  0  0
 38 46  1  0  0  0
 38 47  1  0  0  0
 39 64  1  0  0  0
 39 67  2  0  0  0
 40 52  1  0  0  0
 40 53  2  0  0  0
 40 58  1  0  0  0
 41107  1  0  0  0
 41108  1  0  0  0
 41109  1  0  0  0
 41 48  1  0  0  0
 42 43  1  0  0  0
 42 66  1  0  0  0
 42110  1  0  0  0
 42111  1  0  0  0
 43 44  1  0  0  0
 44112  1  0  0  0
 45 46  2  0  0  0
 45113  1  0  0  0
 46114  1  0  0  0
 47115  1  0  0  0
 47116  1  0  0  0
 48 56  1  0  0  0
 48 65  1  0  0  0
 48117  1  0  0  0
 49 50  1  0  0  0
 49 53  1  0  0  0
 49 64  1  0  0  0
 49118  1  0  0  0
 50 51  1  0  0  0
 50119  1  0  0  0
 50120  1  0  0  0
 51 52  1  0  0  0
 51121  1  0  0  0
 51122  1  0  0  0
 52123  1  0  0  0
 52124  1  0  0  0
 53 54  1  0  0  0
 54 55  2  0  0  0
 54125  1  0  0  0
 55 57  1  0  0  0
 55126  1  0  0  0
 56 69  2  0  0  0
 57 58  2  0  0  0
 57127  1  0  0  0
 58128  1  0  0  0
 59 60  1  0  0  0
 59 61  1  0  0  0
 59 62  1  0  0  0
 60129  1  0  0  0
 60130  1  0  0  0
 60131  1  0  0  0
 61132  1  0  0  0
 61133  1  0  0  0
 61134  1  0  0  0
 62135  1  0  0  0
 62136  1  0  0  0
 62137  1  0  0  0
 63 65  1  0  0  0
 63138  1  0  0  0
 63139  1  0  0  0
 63140  1  0  0  0
 64141  1  0  0  0
 65142  1  0  0  0
 68 79  1  0  0  0
 71 72  1  0  0  0
 71 74  2  0  0  0
 71143  1  0  0  0
 72 73  2  0  0  0
 72 80  1  0  0  0
 73 75  1  0  0  0
 73 83  1  0  0  0
 74 81  1  0  0  0
 74 83  1  0  0  0
 75 76  2  0  0  0
 75144  1  0  0  0
 76145  1  0  0  0
 77 79  1  0  0  0
 77 81  1  0  0  0
 77 82  2  0  0  0
 78146  1  0  0  0
 78147  1  0  0  0
 78148  1  0  0  0
 78 79  1  0  0  0
 79149  1  0  0  0
 80150  1  0  0  0
 80151  1  0  0  0
 81152  1  0  0  0
M  ISO  4   1 100  68 101  76 100  79 101
M  END
> <chiral flag>
0

> <version>
0

> <s_m_source_file>
/data/baiqing/PycharmProjects/Reinvent-master-3.2/result/LINK_invent/BTK/process_docking_weight1_custom_product_contain_oxygen_bond_distance_aromatic_linkinvent_7_9_3/rearranged_h_0149.sdf

> <i_m_source_file_index>
17

> <r_mmod_Potential_Energy-OPLS-2005>
142.47314453125

> <r_mmod_Stretch_Energy-OPLS-2005>
107.970909118652

> <r_mmod_Bend_Energy-OPLS-2005>
176.48274230957

> <r_mmod_Torsional_Energy-OPLS-2005>
216.100173950195

> <r_mmod_Improper_Torsional_Energy-OPLS-2005>
7.89603090286255

> <r_mmod_Van_der_Waal_Energy-OPLS-2005>
128.796875

> <r_mmod_Electrostatic_Energy-OPLS-2005>
-339.787811279297

> <r_mmod_Solvation_Energy-OPLS-2005>
-233.326049804688

> <b_mmod_Minimization_Converged-OPLS-2005>
0

> <r_mmod_RMS_Derivative-OPLS-2005>
0.52820235490799

$$$$
17
                    3D
 Structure written by MMmdl.
156165  0  0  1  0            999 V2000
  -30.5522  -14.7315   20.4702 C   0  0  0  0  0  0
  -30.4327  -12.4395   19.4707 C   0  0  0  0  0  0
  -29.5182  -12.5189   18.2298 C   0  0  0  0  0  0
  -28.0351  -12.3517   18.6248 C   0  0  0  0  0  0
  -27.6384  -13.2211   19.8489 C   0  0  2  0  0  0
  -28.6788  -13.1271   20.9829 C   0  0  0  0  0  0
  -25.2514  -13.8167   20.5668 C   0  0  0  0  0  0
  -24.1808  -13.0424   20.9179 C   0  0  0  0  0  0
  -24.6394  -11.6895   20.8724 C   0  0  0  0  0  0
  -23.9055  -10.4287   21.0386 C   0  0  0  0  0  0
  -24.3620   -9.4216   21.9162 C   0  0  0  0  0  0
  -23.6312   -8.2250   22.0736 C   0  0  0  0  0  0
  -22.4291   -8.0280   21.3537 C   0  0  0  0  0  0
  -21.9909   -9.0246   20.4634 C   0  0  0  0  0  0
  -22.7231  -10.2138   20.3046 C   0  0  0  0  0  0
  -21.6877   -6.0745   22.5268 C   0  0  0  0  0  0
  -21.4040   -6.5648   23.8207 C   0  0  0  0  0  0
  -21.3676   -5.6784   24.9160 C   0  0  0  0  0  0
  -21.6046   -4.3061   24.7205 C   0  0  0  0  0  0
  -21.8821   -3.8152   23.4325 C   0  0  0  0  0  0
  -21.9207   -4.6969   22.3390 C   0  0  0  0  0  0
  -22.7842  -13.5222   21.1839 C   0  0  0  0  0  0
  -22.1665   -4.2167   21.0964 F   0  0  0  0  0  0
  -21.5633   -3.4532   25.7715 F   0  0  0  0  0  0
  -29.9718  -13.4906   20.3989 N   0  0  0  0  0  0
  -26.2919  -12.9341   20.3232 N   0  0  0  0  0  0
  -25.9319  -11.6490   20.5697 N   0  0  0  0  0  0
  -22.0467  -12.8245   22.0405 N   0  0  0  0  0  0
  -25.4182  -15.1902   20.4104 N   0  0  0  0  0  0
  -31.7557  -14.8809   20.2385 O   0  0  0  0  0  0
  -21.6668   -6.8880   21.4228 O   0  0  0  0  0  0
  -22.3544  -14.5514   20.6660 O   0  0  0  0  0  0
  -24.6302  -31.8558   23.1962 C   0  0  0  0  0  0
  -25.9126  -32.4755   23.8337 C   0  0  1  0  0  0
  -27.2206  -27.2740   20.1460 C   0  0  0  0  0  0
  -25.5904  -33.8557   24.2268 N   0  0  0  0  0  0
  -23.4282  -30.4775   21.5397 C   0  0  2  0  0  0
  -24.8768  -28.9248   20.1096 C   0  0  0  0  0  0
  -22.7509  -29.4609   22.4903 C   0  0  0  0  0  0
  -18.0293  -28.1397   22.8490 C   0  0  0  0  0  0
  -24.1474  -36.7305   23.2638 C   0  0  0  0  0  0
  -25.9715  -30.7772   21.3705 C   0  0  0  0  0  0
  -26.0475  -29.3989   20.7174 C   0  0  0  0  0  0
  -27.2270  -28.5888   20.7161 C   0  0  0  0  0  0
  -26.0294  -26.8560   19.5185 C   0  0  0  0  0  0
  -24.8729  -27.6609   19.4956 C   0  0  0  0  0  0
  -23.6474  -29.8114   20.1550 C   0  0  0  0  0  0
  -25.4091  -36.3070   24.0330 C   0  0  1  0  0  0
  -20.5904  -28.3716   23.1270 C   0  0  2  0  0  0
  -20.6788  -26.9426   22.5427 C   0  0  0  0  0  0
  -19.5749  -26.6384   21.5239 C   0  0  0  0  0  0
  -18.1930  -26.7939   22.1639 C   0  0  0  0  0  0
  -19.1545  -28.8869   23.2883 C   0  0  0  0  0  0
  -18.9462  -30.1475   23.8897 C   0  0  0  0  0  0
  -17.6460  -30.6591   24.0566 C   0  0  0  0  0  0
  -25.9045  -34.9439   23.5108 C   0  0  0  0  0  0
  -16.5355  -29.9099   23.6314 C   0  0  0  0  0  0
  -16.7282  -28.6519   23.0336 C   0  0  0  0  0  0
  -26.4461  -31.6553   25.0731 C   0  0  0  0  0  0
  -25.3671  -31.3731   26.1451 C   0  0  0  0  0  0
  -27.0286  -30.2949   24.6221 C   0  0  0  0  0  0
  -27.5998  -32.4293   25.7535 C   0  0  0  0  0  0
  -27.5573  -37.1796   24.8443 C   0  0  0  0  0  0
  -21.4224  -29.3060   22.3661 N   0  0  0  0  0  0
  -26.4257  -37.3776   23.9427 N   0  0  0  0  0  0
  -24.6970  -31.0532   22.0938 N   0  0  0  0  0  0
  -23.4202  -28.8143   23.3011 O   0  0  0  0  0  0
  -28.3182  -26.3889   20.1593 O   0  0  0  0  0  0
  -26.5648  -34.8906   22.4702 O   0  0  0  0  0  0
  -23.5452  -32.1415   23.7235 O   0  0  0  0  0  0
  -29.4591  -18.4192   20.2502 C   0  0  0  0  0  0
  -30.1045  -19.7030   22.1821 C   0  0  0  0  0  0
  -30.3573  -17.3881   22.2401 C   0  0  0  0  0  0
  -29.5926  -19.7276   20.8693 C   0  0  0  0  0  0
  -29.8688  -17.2046   20.9345 C   0  0  0  0  0  0
  -28.1372  -21.3629   19.2777 C   0  0  0  0  0  0
  -28.0007  -22.9082   19.0287 C   0  0  0  0  0  0
  -29.1983  -22.4707   21.0640 C   0  0  0  0  0  0
  -29.3578  -21.1561   20.1880 C   0  0  1  0  0  0
  -28.8154  -23.6801   20.1060 C   0  0  2  0  0  0
  -28.1226  -25.0123   20.7234 C   0  0  0  0  0  0
  -30.4619  -18.5872   22.8488 N   0  0  0  0  0  0
  -29.6892  -15.8150   20.4667 N   0  0  0  0  0  0
  -31.4795  -12.5686   19.1918 H   0  0  0  0  0  0
  -30.3603  -11.4575   19.9399 H   0  0  0  0  0  0
  -29.8048  -11.7575   17.5036 H   0  0  0  0  0  0
  -29.6668  -13.4827   17.7397 H   0  0  0  0  0  0
  -27.8693  -11.2961   18.8433 H   0  0  0  0  0  0
  -27.3949  -12.5920   17.7741 H   0  0  0  0  0  0
  -27.6315  -14.2491   19.4904 H   0  0  0  0  0  0
  -28.7155  -12.1194   21.4014 H   0  0  0  0  0  0
  -28.4137  -13.7947   21.8044 H   0  0  0  0  0  0
  -25.2747   -9.5741   22.4734 H   0  0  0  0  0  0
  -24.0048   -7.4651   22.7467 H   0  0  0  0  0  0
  -21.0842   -8.8746   19.8944 H   0  0  0  0  0  0
  -22.3643  -10.9675   19.6181 H   0  0  0  0  0  0
  -21.2024   -7.6152   23.9726 H   0  0  0  0  0  0
  -21.1509   -6.0503   25.9065 H   0  0  0  0  0  0
  -22.0584   -2.7618   23.2808 H   0  0  0  0  0  0
  -22.4072  -11.9944   22.4883 H   0  0  0  0  0  0
  -21.1074  -13.1287   22.2548 H   0  0  0  0  0  0
  -24.6432  -15.8339   20.5264 H   0  0  0  0  0  0
  -26.2595  -15.6511   20.0931 H   0  0  0  0  0  0
  -26.7216  -32.5391   23.1101 H   0  0  0  0  0  0
  -24.9911  -33.9679   25.0312 H   0  0  0  0  0  0
  -22.7245  -31.2985   21.3910 H   0  0  0  0  0  0
  -23.3728  -35.9640   23.3242 H   0  0  0  0  0  0
  -24.3601  -36.8993   22.2069 H   0  0  0  0  0  0
  -23.7199  -37.6479   23.6708 H   0  0  0  0  0  0
  -26.1019  -31.5343   20.5950 H   0  0  0  0  0  0
  -26.8528  -30.8304   21.9991 H   0  0  0  0  0  0
  -28.1252  -28.9548   21.1932 H   0  0  0  0  0  0
  -25.9854  -25.8795   19.0570 H   0  0  0  0  0  0
  -23.9768  -27.2946   19.0137 H   0  0  0  0  0  0
  -23.7758  -30.5902   19.4023 H   0  0  0  0  0  0
  -22.7652  -29.2490   19.8431 H   0  0  0  0  0  0
  -25.1245  -36.1933   25.0816 H   0  0  0  0  0  0
  -20.9998  -28.3302   24.1386 H   0  0  0  0  0  0
  -20.5722  -26.2323   23.3648 H   0  0  0  0  0  0
  -21.6647  -26.7461   22.1183 H   0  0  0  0  0  0
  -19.6918  -25.6297   21.1256 H   0  0  0  0  0  0
  -19.6678  -27.3206   20.6780 H   0  0  0  0  0  0
  -17.4217  -26.6715   21.4026 H   0  0  0  0  0  0
  -18.0299  -26.0090   22.9030 H   0  0  0  0  0  0
  -19.7940  -30.7302   24.2259 H   0  0  0  0  0  0
  -17.5007  -31.6263   24.5179 H   0  0  0  0  0  0
  -15.5355  -30.2998   23.7622 H   0  0  0  0  0  0
  -15.8686  -28.0836   22.7022 H   0  0  0  0  0  0
  -24.5822  -30.7107   25.7775 H   0  0  0  0  0  0
  -24.8894  -32.2919   26.4857 H   0  0  0  0  0  0
  -25.7954  -30.8907   27.0240 H   0  0  0  0  0  0
  -26.2884  -29.6744   24.1157 H   0  0  0  0  0  0
  -27.3834  -29.7152   25.4746 H   0  0  0  0  0  0
  -27.8803  -30.4172   23.9537 H   0  0  0  0  0  0
  -27.2546  -33.3536   26.2165 H   0  0  0  0  0  0
  -28.3779  -32.6945   25.0375 H   0  0  0  0  0  0
  -28.0707  -31.8419   26.5423 H   0  0  0  0  0  0
  -28.2508  -38.0167   24.7540 H   0  0  0  0  0  0
  -28.1134  -36.2691   24.6156 H   0  0  0  0  0  0
  -27.2336  -37.1312   25.8855 H   0  0  0  0  0  0
  -20.9438  -29.8782   21.6840 H   0  0  0  0  0  0
  -26.0128  -38.2834   24.1480 H   0  0  0  0  0  0
  -29.0600  -18.3512   19.2473 H   0  0  0  0  0  0
  -30.2628  -20.6203   22.7273 H   0  0  0  0  0  0
  -30.6275  -16.5387   22.8504 H   0  0  0  0  0  0
  -28.2087  -20.7928   18.3499 H   0  0  0  0  0  0
  -27.2412  -21.0180   19.7997 H   0  0  0  0  0  0
  -26.9508  -23.2054   19.0380 H   0  0  0  0  0  0
  -28.3821  -23.1601   18.0376 H   0  0  0  0  0  0
  -30.0926  -22.6929   21.6478 H   0  0  0  0  0  0
  -28.3890  -22.3207   21.7827 H   0  0  0  0  0  0
  -30.2426  -21.3072   19.5656 H   0  0  0  0  0  0
  -29.7536  -24.0002   19.6502 H   0  0  0  0  0  0
  -28.4983  -25.0975   21.7439 H   0  0  0  0  0  0
  -27.0627  -24.8043   20.8661 H   0  0  0  0  0  0
  -28.7276  -15.5498   20.3214 H   0  0  0  0  0  0
  1 25  1  0  0  0
  1 30  2  0  0  0
  1 83  1  0  0  0
  2  3  1  0  0  0
  2 25  1  0  0  0
  2 84  1  0  0  0
  2 85  1  0  0  0
  3  4  1  0  0  0
  3 86  1  0  0  0
  3 87  1  0  0  0
  4  5  1  0  0  0
  4 88  1  0  0  0
  4 89  1  0  0  0
  5  6  1  0  0  0
  5 26  1  0  0  0
  5 90  1  0  0  0
  6 25  1  0  0  0
  6 91  1  0  0  0
  6 92  1  0  0  0
  7  8  2  0  0  0
  7 26  1  0  0  0
  7 29  1  0  0  0
  8  9  1  0  0  0
  8 22  1  0  0  0
  9 10  1  0  0  0
  9 27  2  0  0  0
 10 11  2  0  0  0
 10 15  1  0  0  0
 11 12  1  0  0  0
 11 93  1  0  0  0
 12 13  2  0  0  0
 12 94  1  0  0  0
 13 14  1  0  0  0
 13 31  1  0  0  0
 14 15  2  0  0  0
 14 95  1  0  0  0
 15 96  1  0  0  0
 16 17  2  0  0  0
 16 21  1  0  0  0
 16 31  1  0  0  0
 17 18  1  0  0  0
 17 97  1  0  0  0
 18 19  2  0  0  0
 18 98  1  0  0  0
 19 20  1  0  0  0
 19 24  1  0  0  0
 20 21  2  0  0  0
 20 99  1  0  0  0
 21 23  1  0  0  0
 22 28  1  0  0  0
 22 32  2  0  0  0
 26 27  1  0  0  0
 28100  1  0  0  0
 28101  1  0  0  0
 29102  1  0  0  0
 29103  1  0  0  0
 33 34  1  0  0  0
 33 66  1  0  0  0
 33 70  2  0  0  0
 34 36  1  0  0  0
 34 59  1  0  0  0
 34104  1  0  0  0
 35 44  2  0  0  0
 35 45  1  0  0  0
 35 68  1  0  0  0
 36 56  1  0  0  0
 36105  1  0  0  0
 37 39  1  0  0  0
 37 47  1  0  0  0
 37 66  1  0  0  0
 37106  1  0  0  0
 38 43  2  0  0  0
 38 46  1  0  0  0
 38 47  1  0  0  0
 39 64  1  0  0  0
 39 67  2  0  0  0
 40 52  1  0  0  0
 40 53  2  0  0  0
 40 58  1  0  0  0
 41107  1  0  0  0
 41108  1  0  0  0
 41109  1  0  0  0
 41 48  1  0  0  0
 42 43  1  0  0  0
 42 66  1  0  0  0
 42110  1  0  0  0
 42111  1  0  0  0
 43 44  1  0  0  0
 44112  1  0  0  0
 45 46  2  0  0  0
 45113  1  0  0  0
 46114  1  0  0  0
 47115  1  0  0  0
 47116  1  0  0  0
 48 56  1  0  0  0
 48 65  1  0  0  0
 48117  1  0  0  0
 49 50  1  0  0  0
 49 53  1  0  0  0
 49 64  1  0  0  0
 49118  1  0  0  0
 50 51  1  0  0  0
 50119  1  0  0  0
 50120  1  0  0  0
 51 52  1  0  0  0
 51121  1  0  0  0
 51122  1  0  0  0
 52123  1  0  0  0
 52124  1  0  0  0
 53 54  1  0  0  0
 54 55  2  0  0  0
 54125  1  0  0  0
 55 57  1  0  0  0
 55126  1  0  0  0
 56 69  2  0  0  0
 57 58  2  0  0  0
 57127  1  0  0  0
 58128  1  0  0  0
 59 60  1  0  0  0
 59 61  1  0  0  0
 59 62  1  0  0  0
 60129  1  0  0  0
 60130  1  0  0  0
 60131  1  0  0  0
 61132  1  0  0  0
 61133  1  0  0  0
 61134  1  0  0  0
 62135  1  0  0  0
 62136  1  0  0  0
 62137  1  0  0  0
 63 65  1  0  0  0
 63138  1  0  0  0
 63139  1  0  0  0
 63140  1  0  0  0
 64141  1  0  0  0
 65142  1  0  0  0
 68 81  1  0  0  0
 71 74  2  0  0  0
 71 75  1  0  0  0
 71143  1  0  0  0
 72 74  1  0  0  0
 72 82  2  0  0  0
 72144  1  0  0  0
 73 75  2  0  0  0
 73 82  1  0  0  0
 73145  1  0  0  0
 74 79  1  0  0  0
 75 83  1  0  0  0
 76 77  1  0  0  0
 76 79  1  0  0  0
 76146  1  0  0  0
 76147  1  0  0  0
 77 80  1  0  0  0
 77148  1  0  0  0
 77149  1  0  0  0
 78 79  1  0  0  0
 78 80  1  0  0  0
 78150  1  0  0  0
 78151  1  0  0  0
 79152  1  0  0  0
 80 81  1  0  0  0
 80153  1  0  0  0
 81154  1  0  0  0
 81155  1  0  0  0
 83156  1  0  0  0
M  ISO  4   1 100  68 101  81 101  83 100
M  END
> <chiral flag>
0

> <version>
0

> <s_m_source_file>
/data/baiqing/PycharmProjects/Reinvent-master-3.2/result/LINK_invent/BTK/process_docking_weight1_custom_product_contain_oxygen_bond_distance_aromatic_linkinvent_7_9_3/rearranged_h_0149.sdf

> <i_m_source_file_index>
18

> <r_mmod_Potential_Energy-OPLS-2005>
90.7016754150391

> <r_mmod_Stretch_Energy-OPLS-2005>
107.055198669434

> <r_mmod_Bend_Energy-OPLS-2005>
190.272521972656

> <r_mmod_Torsional_Energy-OPLS-2005>
307.987365722656

> <r_mmod_Improper_Torsional_Energy-OPLS-2005>
10.1523494720459

> <r_mmod_Van_der_Waal_Energy-OPLS-2005>
132.227157592773

> <r_mmod_Electrostatic_Energy-OPLS-2005>
-520.171875

> <r_mmod_Solvation_Energy-OPLS-2005>
-219.356231689453

> <b_mmod_Minimization_Converged-OPLS-2005>
0

> <r_mmod_RMS_Derivative-OPLS-2005>
3.92882657051086

$$$$
18
                    3D
 Structure written by MMmdl.
152160  0  0  1  0            999 V2000
  -30.6157  -14.5583   20.5770 C   0  0  0  0  0  0
  -30.4496  -12.3626   19.4246 C   0  0  0  0  0  0
  -29.5051  -12.5219   18.2112 C   0  0  0  0  0  0
  -28.0271  -12.3598   18.6235 C   0  0  0  0  0  0
  -27.6642  -13.1976   19.8772 C   0  0  2  0  0  0
  -28.7057  -12.9610   20.9937 C   0  0  0  0  0  0
  -25.2610  -13.8129   20.5667 C   0  0  0  0  0  0
  -24.1849  -13.0426   20.9170 C   0  0  0  0  0  0
  -24.6383  -11.6888   20.8722 C   0  0  0  0  0  0
  -23.9040  -10.4287   21.0397 C   0  0  0  0  0  0
  -24.3597   -9.4209   21.9179 C   0  0  0  0  0  0
  -23.6282   -8.2241   22.0751 C   0  0  0  0  0  0
  -22.4269   -8.0273   21.3538 C   0  0  0  0  0  0
  -21.9894   -9.0243   20.4643 C   0  0  0  0  0  0
  -22.7213  -10.2127   20.3051 C   0  0  0  0  0  0
  -21.6850   -6.0728   22.5276 C   0  0  0  0  0  0
  -21.4010   -6.5632   23.8208 C   0  0  0  0  0  0
  -21.3664   -5.6787   24.9172 C   0  0  0  0  0  0
  -21.6042   -4.3050   24.7222 C   0  0  0  0  0  0
  -21.8822   -3.8142   23.4346 C   0  0  0  0  0  0
  -21.9196   -4.6957   22.3401 C   0  0  0  0  0  0
  -22.7873  -13.5239   21.1843 C   0  0  0  0  0  0
  -22.1664   -4.2143   21.0978 F   0  0  0  0  0  0
  -21.5632   -3.4537   25.7736 F   0  0  0  0  0  0
  -30.0328  -13.3269   20.4569 N   0  0  0  0  0  0
  -26.3031  -12.9273   20.3354 N   0  0  0  0  0  0
  -25.9307  -11.6444   20.5748 N   0  0  0  0  0  0
  -22.0508  -12.8233   22.0398 N   0  0  0  0  0  0
  -25.4354  -15.1839   20.4068 N   0  0  0  0  0  0
  -31.7160  -14.8297   20.0831 O   0  0  0  0  0  0
  -21.6636   -6.8870   21.4238 O   0  0  0  0  0  0
  -22.3567  -14.5559   20.6713 O   0  0  0  0  0  0
  -24.6179  -31.8647   23.2040 C   0  0  0  0  0  0
  -25.9046  -32.4815   23.8358 C   0  0  1  0  0  0
  -27.2406  -27.3881   20.1106 C   0  0  0  0  0  0
  -25.5892  -33.8613   24.2296 N   0  0  0  0  0  0
  -23.4101  -30.4840   21.5459 C   0  0  2  0  0  0
  -24.8599  -28.9367   20.1226 C   0  0  0  0  0  0
  -22.7427  -29.4638   22.4973 C   0  0  0  0  0  0
  -18.0283  -28.1389   22.8505 C   0  0  0  0  0  0
  -24.1483  -36.7303   23.2634 C   0  0  0  0  0  0
  -25.9428  -30.8170   21.3618 C   0  0  0  0  0  0
  -26.0230  -29.4442   20.7157 C   0  0  0  0  0  0
  -27.2191  -28.6808   20.6989 C   0  0  0  0  0  0
  -26.0573  -26.9024   19.5176 C   0  0  0  0  0  0
  -24.8735  -27.6666   19.5199 C   0  0  0  0  0  0
  -23.6233  -29.8090   20.1647 C   0  0  0  0  0  0
  -25.4108  -36.3107   24.0332 C   0  0  1  0  0  0
  -20.5875  -28.3678   23.1318 C   0  0  2  0  0  0
  -20.6762  -26.9411   22.5427 C   0  0  0  0  0  0
  -19.5741  -26.6403   21.5220 C   0  0  0  0  0  0
  -18.1923  -26.7935   22.1639 C   0  0  0  0  0  0
  -19.1530  -28.8850   23.2910 C   0  0  0  0  0  0
  -18.9463  -30.1460   23.8920 C   0  0  0  0  0  0
  -17.6460  -30.6594   24.0582 C   0  0  0  0  0  0
  -25.9043  -34.9473   23.5118 C   0  0  0  0  0  0
  -16.5353  -29.9100   23.6334 C   0  0  0  0  0  0
  -16.7271  -28.6513   23.0362 C   0  0  0  0  0  0
  -26.4455  -31.6597   25.0698 C   0  0  0  0  0  0
  -25.3710  -31.3719   26.1441 C   0  0  0  0  0  0
  -27.0279  -30.3030   24.6086 C   0  0  0  0  0  0
  -27.6038  -32.4305   25.7467 C   0  0  0  0  0  0
  -27.5583  -37.1804   24.8463 C   0  0  0  0  0  0
  -21.4147  -29.3031   22.3707 N   0  0  0  0  0  0
  -26.4289  -37.3799   23.9416 N   0  0  0  0  0  0
  -24.6758  -31.0710   22.0960 N   0  0  0  0  0  0
  -23.4178  -28.8198   23.3045 O   0  0  0  0  0  0
  -28.3951  -26.6231   20.0570 O   0  0  0  0  0  0
  -26.5626  -34.8926   22.4694 O   0  0  0  0  0  0
  -23.5362  -32.1409   23.7407 O   0  0  0  0  0  0
  -30.2814  -17.8954   20.6191 C   0  0  0  0  0  0
  -28.4531  -19.0163   21.5878 C   0  0  0  0  0  0
  -29.6163  -19.1630   20.8854 C   0  0  0  0  0  0
  -29.6155  -16.8002   21.1642 C   0  0  0  0  0  0
  -30.1309  -20.5309   20.5734 C   0  0  0  0  0  0
  -28.5812  -24.0830   19.9629 C   0  0  0  0  0  0
  -29.6906  -23.0611   20.3521 C   0  0  0  0  0  0
  -28.4038  -25.3802   20.8163 C   0  0  0  0  0  0
  -29.8486  -15.4484   21.2513 N   0  0  0  0  0  0
  -29.3081  -21.6088   20.3884 N   0  0  0  0  0  0
  -31.4571  -20.7128   20.5503 N   0  3  0  0  0  0
  -27.8334  -23.8511   19.0070 O   0  0  0  0  0  0
  -28.1423  -17.3455   21.9440 S   0  0  0  0  0  0
  -31.4862  -12.5151   19.1196 H   0  0  0  0  0  0
  -30.4004  -11.3467   19.8189 H   0  0  0  0  0  0
  -29.7586  -11.7940   17.4397 H   0  0  0  0  0  0
  -29.6501  -13.5050   17.7604 H   0  0  0  0  0  0
  -27.8538  -11.3025   18.8271 H   0  0  0  0  0  0
  -27.3706  -12.6196   17.7917 H   0  0  0  0  0  0
  -27.7107  -14.2471   19.5851 H   0  0  0  0  0  0
  -28.7060  -11.9110   21.2898 H   0  0  0  0  0  0
  -28.4372  -13.5039   21.9004 H   0  0  0  0  0  0
  -25.2744   -9.5690   22.4752 H   0  0  0  0  0  0
  -23.9997   -7.4630   22.7464 H   0  0  0  0  0  0
  -21.0829   -8.8756   19.8943 H   0  0  0  0  0  0
  -22.3670  -10.9663   19.6158 H   0  0  0  0  0  0
  -21.2000   -7.6140   23.9708 H   0  0  0  0  0  0
  -21.1481   -6.0517   25.9073 H   0  0  0  0  0  0
  -22.0600   -2.7606   23.2845 H   0  0  0  0  0  0
  -22.4107  -11.9876   22.4770 H   0  0  0  0  0  0
  -21.1129  -13.1266   22.2611 H   0  0  0  0  0  0
  -24.6717  -15.8424   20.5144 H   0  0  0  0  0  0
  -26.2934  -15.6199   20.0940 H   0  0  0  0  0  0
  -26.7120  -32.5523   23.1123 H   0  0  0  0  0  0
  -25.0008  -33.9763   25.0421 H   0  0  0  0  0  0
  -22.7005  -31.3013   21.3994 H   0  0  0  0  0  0
  -23.3750  -35.9634   23.3310 H   0  0  0  0  0  0
  -24.3571  -36.8920   22.2049 H   0  0  0  0  0  0
  -23.7222  -37.6502   23.6642 H   0  0  0  0  0  0
  -26.0540  -31.5770   20.5868 H   0  0  0  0  0  0
  -26.8303  -30.8809   21.9793 H   0  0  0  0  0  0
  -28.1204  -29.0761   21.1469 H   0  0  0  0  0  0
  -26.0530  -25.9314   19.0427 H   0  0  0  0  0  0
  -23.9788  -27.2702   19.0593 H   0  0  0  0  0  0
  -23.7355  -30.5783   19.4000 H   0  0  0  0  0  0
  -22.7465  -29.2286   19.8694 H   0  0  0  0  0  0
  -25.1282  -36.1967   25.0824 H   0  0  0  0  0  0
  -20.9985  -28.3247   24.1428 H   0  0  0  0  0  0
  -20.5691  -26.2270   23.3613 H   0  0  0  0  0  0
  -21.6635  -26.7461   22.1212 H   0  0  0  0  0  0
  -19.6901  -25.6321   21.1235 H   0  0  0  0  0  0
  -19.6684  -27.3228   20.6761 H   0  0  0  0  0  0
  -17.4202  -26.6710   21.4038 H   0  0  0  0  0  0
  -18.0323  -26.0067   22.9022 H   0  0  0  0  0  0
  -19.7934  -30.7273   24.2295 H   0  0  0  0  0  0
  -17.5016  -31.6274   24.5184 H   0  0  0  0  0  0
  -15.5359  -30.3021   23.7616 H   0  0  0  0  0  0
  -15.8673  -28.0834   22.7074 H   0  0  0  0  0  0
  -24.5888  -30.7060   25.7774 H   0  0  0  0  0  0
  -24.8893  -32.2888   26.4858 H   0  0  0  0  0  0
  -25.8064  -30.8910   27.0211 H   0  0  0  0  0  0
  -26.2820  -29.6816   24.1115 H   0  0  0  0  0  0
  -27.4003  -29.7245   25.4550 H   0  0  0  0  0  0
  -27.8678  -30.4336   23.9259 H   0  0  0  0  0  0
  -27.2667  -33.3608   26.2051 H   0  0  0  0  0  0
  -28.3850  -32.6869   25.0298 H   0  0  0  0  0  0
  -28.0689  -31.8412   26.5381 H   0  0  0  0  0  0
  -28.2603  -38.0098   24.7536 H   0  0  0  0  0  0
  -28.1082  -36.2640   24.6268 H   0  0  0  0  0  0
  -27.2306  -37.1435   25.8865 H   0  0  0  0  0  0
  -20.9308  -29.8726   21.6909 H   0  0  0  0  0  0
  -26.0181  -38.2877   24.1434 H   0  0  0  0  0  0
  -31.2198  -17.8396   20.0860 H   0  0  0  0  0  0
  -27.7782  -19.7792   21.9524 H   0  0  0  0  0  0
  -30.0942  -23.3374   21.3256 H   0  0  0  0  0  0
  -30.4997  -23.1898   19.6344 H   0  0  0  0  0  0
  -29.2120  -25.4337   21.5454 H   0  0  0  0  0  0
  -27.4812  -25.2845   21.3905 H   0  0  0  0  0  0
  -29.1035  -14.9635   21.7290 H   0  0  0  0  0  0
  -28.3177  -21.4286   20.3072 H   0  0  0  0  0  0
  -32.0690  -19.9377   20.7533 H   0  0  0  0  0  0
  -31.8885  -21.5943   20.3292 H   0  0  0  0  0  0
  1 25  1  0  0  0
  1 30  2  0  0  0
  1 79  1  0  0  0
  2  3  1  0  0  0
  2 25  1  0  0  0
  2 84  1  0  0  0
  2 85  1  0  0  0
  3  4  1  0  0  0
  3 86  1  0  0  0
  3 87  1  0  0  0
  4  5  1  0  0  0
  4 88  1  0  0  0
  4 89  1  0  0  0
  5  6  1  0  0  0
  5 26  1  0  0  0
  5 90  1  0  0  0
  6 25  1  0  0  0
  6 91  1  0  0  0
  6 92  1  0  0  0
  7  8  2  0  0  0
  7 26  1  0  0  0
  7 29  1  0  0  0
  8  9  1  0  0  0
  8 22  1  0  0  0
  9 10  1  0  0  0
  9 27  2  0  0  0
 10 11  2  0  0  0
 10 15  1  0  0  0
 11 12  1  0  0  0
 11 93  1  0  0  0
 12 13  2  0  0  0
 12 94  1  0  0  0
 13 14  1  0  0  0
 13 31  1  0  0  0
 14 15  2  0  0  0
 14 95  1  0  0  0
 15 96  1  0  0  0
 16 17  2  0  0  0
 16 21  1  0  0  0
 16 31  1  0  0  0
 17 18  1  0  0  0
 17 97  1  0  0  0
 18 19  2  0  0  0
 18 98  1  0  0  0
 19 20  1  0  0  0
 19 24  1  0  0  0
 20 21  2  0  0  0
 20 99  1  0  0  0
 21 23  1  0  0  0
 22 28  1  0  0  0
 22 32  2  0  0  0
 26 27  1  0  0  0
 28100  1  0  0  0
 28101  1  0  0  0
 29102  1  0  0  0
 29103  1  0  0  0
 33 34  1  0  0  0
 33 66  1  0  0  0
 33 70  2  0  0  0
 34 36  1  0  0  0
 34 59  1  0  0  0
 34104  1  0  0  0
 35 44  2  0  0  0
 35 45  1  0  0  0
 35 68  1  0  0  0
 36 56  1  0  0  0
 36105  1  0  0  0
 37 39  1  0  0  0
 37 47  1  0  0  0
 37 66  1  0  0  0
 37106  1  0  0  0
 38 43  2  0  0  0
 38 46  1  0  0  0
 38 47  1  0  0  0
 39 64  1  0  0  0
 39 67  2  0  0  0
 40 52  1  0  0  0
 40 53  2  0  0  0
 40 58  1  0  0  0
 41107  1  0  0  0
 41108  1  0  0  0
 41109  1  0  0  0
 41 48  1  0  0  0
 42 43  1  0  0  0
 42 66  1  0  0  0
 42110  1  0  0  0
 42111  1  0  0  0
 43 44  1  0  0  0
 44112  1  0  0  0
 45 46  2  0  0  0
 45113  1  0  0  0
 46114  1  0  0  0
 47115  1  0  0  0
 47116  1  0  0  0
 48 56  1  0  0  0
 48 65  1  0  0  0
 48117  1  0  0  0
 49 50  1  0  0  0
 49 53  1  0  0  0
 49 64  1  0  0  0
 49118  1  0  0  0
 50 51  1  0  0  0
 50119  1  0  0  0
 50120  1  0  0  0
 51 52  1  0  0  0
 51121  1  0  0  0
 51122  1  0  0  0
 52123  1  0  0  0
 52124  1  0  0  0
 53 54  1  0  0  0
 54 55  2  0  0  0
 54125  1  0  0  0
 55 57  1  0  0  0
 55126  1  0  0  0
 56 69  2  0  0  0
 57 58  2  0  0  0
 57127  1  0  0  0
 58128  1  0  0  0
 59 60  1  0  0  0
 59 61  1  0  0  0
 59 62  1  0  0  0
 60129  1  0  0  0
 60130  1  0  0  0
 60131  1  0  0  0
 61132  1  0  0  0
 61133  1  0  0  0
 61134  1  0  0  0
 62135  1  0  0  0
 62136  1  0  0  0
 62137  1  0  0  0
 63 65  1  0  0  0
 63138  1  0  0  0
 63139  1  0  0  0
 63140  1  0  0  0
 64141  1  0  0  0
 65142  1  0  0  0
 68 78  1  0  0  0
 71 73  1  0  0  0
 71 74  2  0  0  0
 71143  1  0  0  0
 72 73  2  0  0  0
 72 83  1  0  0  0
 72144  1  0  0  0
 73 75  1  0  0  0
 74 79  1  0  0  0
 74 83  1  0  0  0
 75 80  1  0  0  0
 75 81  2  0  0  0
 76 77  1  0  0  0
 76 78  1  0  0  0
 76 82  2  0  0  0
 77 80  1  0  0  0
 77145  1  0  0  0
 77146  1  0  0  0
 78147  1  0  0  0
 78148  1  0  0  0
 79149  1  0  0  0
 80150  1  0  0  0
 81151  1  0  0  0
 81152  1  0  0  0
M  CHG  1  81   1
M  ISO  4   1 100  68 101  78 101  79 100
M  END
> <chiral flag>
0

> <version>
0

> <s_m_source_file>
/data/baiqing/PycharmProjects/Reinvent-master-3.2/result/LINK_invent/BTK/process_docking_weight1_custom_product_contain_oxygen_bond_distance_aromatic_linkinvent_7_9_3/rearranged_h_0149.sdf

> <i_m_source_file_index>
19

> <r_mmod_Potential_Energy-OPLS-2005>
-291.136260986328

> <r_mmod_Stretch_Energy-OPLS-2005>
51.5027503967285

> <r_mmod_Bend_Energy-OPLS-2005>
134.99739074707

> <r_mmod_Torsional_Energy-OPLS-2005>
244.48860168457

> <r_mmod_Improper_Torsional_Energy-OPLS-2005>
4.2953143119812

> <r_mmod_Van_der_Waal_Energy-OPLS-2005>
118.368179321289

> <r_mmod_Electrostatic_Energy-OPLS-2005>
-375.157348632812

> <r_mmod_Solvation_Energy-OPLS-2005>
-493.919860839844

> <b_mmod_Minimization_Converged-OPLS-2005>
0

> <r_mmod_RMS_Derivative-OPLS-2005>
1.57655847072601

$$$$
19
                    3D
 Structure written by MMmdl.
166174  0  0  1  0            999 V2000
  -30.7475  -14.3949   20.6545 C   0  0  0  0  0  0
  -30.4184  -12.2961   19.3958 C   0  0  0  0  0  0
  -29.4835  -12.5166   18.1915 C   0  0  0  0  0  0
  -28.0071  -12.3750   18.6100 C   0  0  0  0  0  0
  -27.6636  -13.2014   19.8772 C   0  0  2  0  0  0
  -28.7040  -12.9500   20.9908 C   0  0  0  0  0  0
  -25.2599  -13.8154   20.5674 C   0  0  0  0  0  0
  -24.1842  -13.0437   20.9171 C   0  0  0  0  0  0
  -24.6389  -11.6901   20.8726 C   0  0  0  0  0  0
  -23.9052  -10.4290   21.0401 C   0  0  0  0  0  0
  -24.3608   -9.4205   21.9182 C   0  0  0  0  0  0
  -23.6286   -8.2242   22.0753 C   0  0  0  0  0  0
  -22.4270   -8.0278   21.3543 C   0  0  0  0  0  0
  -21.9902   -9.0250   20.4644 C   0  0  0  0  0  0
  -22.7226  -10.2132   20.3052 C   0  0  0  0  0  0
  -21.6854   -6.0733   22.5279 C   0  0  0  0  0  0
  -21.4013   -6.5638   23.8211 C   0  0  0  0  0  0
  -21.3658   -5.6792   24.9175 C   0  0  0  0  0  0
  -21.6046   -4.3054   24.7227 C   0  0  0  0  0  0
  -21.8820   -3.8144   23.4347 C   0  0  0  0  0  0
  -21.9192   -4.6961   22.3401 C   0  0  0  0  0  0
  -22.7866  -13.5238   21.1835 C   0  0  0  0  0  0
  -22.1662   -4.2145   21.0979 F   0  0  0  0  0  0
  -21.5630   -3.4539   25.7739 F   0  0  0  0  0  0
  -30.0398  -13.2539   20.4450 N   0  0  0  0  0  0
  -26.3031  -12.9314   20.3372 N   0  0  0  0  0  0
  -25.9313  -11.6479   20.5758 N   0  0  0  0  0  0
  -22.0508  -12.8232   22.0396 N   0  0  0  0  0  0
  -25.4335  -15.1872   20.4088 N   0  0  0  0  0  0
  -31.8202  -14.6339   20.0914 O   0  0  0  0  0  0
  -21.6637   -6.8875   21.4237 O   0  0  0  0  0  0
  -22.3556  -14.5549   20.6691 O   0  0  0  0  0  0
  -24.6128  -31.8702   23.2110 C   0  0  0  0  0  0
  -25.9038  -32.4832   23.8392 C   0  0  1  0  0  0
  -27.2384  -27.4478   20.0854 C   0  0  0  0  0  0
  -25.5891  -33.8627   24.2331 N   0  0  0  0  0  0
  -23.3983  -30.4932   21.5532 C   0  0  2  0  0  0
  -24.8418  -28.9577   20.1178 C   0  0  0  0  0  0
  -22.7397  -29.4671   22.5024 C   0  0  0  0  0  0
  -18.0267  -28.1375   22.8498 C   0  0  0  0  0  0
  -24.1488  -36.7321   23.2636 C   0  0  0  0  0  0
  -25.9254  -30.8374   21.3620 C   0  0  0  0  0  0
  -26.0004  -29.4719   20.7106 C   0  0  0  0  0  0
  -27.1968  -28.7233   20.6917 C   0  0  0  0  0  0
  -26.0538  -26.9392   19.4997 C   0  0  0  0  0  0
  -24.8623  -27.6890   19.5140 C   0  0  0  0  0  0
  -23.6033  -29.8227   20.1688 C   0  0  0  0  0  0
  -25.4107  -36.3116   24.0334 C   0  0  1  0  0  0
  -20.5851  -28.3664   23.1340 C   0  0  2  0  0  0
  -20.6769  -26.9409   22.5425 C   0  0  0  0  0  0
  -19.5745  -26.6390   21.5223 C   0  0  0  0  0  0
  -18.1918  -26.7925   22.1627 C   0  0  0  0  0  0
  -19.1512  -28.8834   23.2918 C   0  0  0  0  0  0
  -18.9444  -30.1438   23.8929 C   0  0  0  0  0  0
  -17.6452  -30.6594   24.0561 C   0  0  0  0  0  0
  -25.9029  -34.9480   23.5132 C   0  0  0  0  0  0
  -16.5340  -29.9097   23.6320 C   0  0  0  0  0  0
  -16.7255  -28.6505   23.0351 C   0  0  0  0  0  0
  -26.4460  -31.6608   25.0720 C   0  0  0  0  0  0
  -25.3716  -31.3716   26.1463 C   0  0  0  0  0  0
  -27.0293  -30.3054   24.6092 C   0  0  0  0  0  0
  -27.6040  -32.4327   25.7477 C   0  0  0  0  0  0
  -27.5581  -37.1814   24.8461 C   0  0  0  0  0  0
  -21.4126  -29.3037   22.3757 N   0  0  0  0  0  0
  -26.4301  -37.3792   23.9395 N   0  0  0  0  0  0
  -24.6636  -31.0816   22.1003 N   0  0  0  0  0  0
  -23.4182  -28.8219   23.3059 O   0  0  0  0  0  0
  -28.4493  -26.7833   20.0867 O   0  0  0  0  0  0
  -26.5606  -34.8933   22.4702 O   0  0  0  0  0  0
  -23.5325  -32.1458   23.7515 O   0  0  0  0  0  0
  -32.0607  -16.5804   22.3883 C   0  0  0  0  0  0
  -31.7107  -18.8848   23.1201 C   0  0  0  0  0  0
  -29.8667  -17.6207   22.1428 C   0  0  0  0  0  0
  -32.5596  -17.7699   22.9584 C   0  0  0  0  0  0
  -30.7102  -16.4964   21.9776 C   0  0  0  0  0  0
  -30.3653  -18.8179   22.7087 C   0  0  0  0  0  0
  -33.9502  -17.8428   23.3951 C   0  0  0  0  0  0
  -29.3377  -22.1428   21.8019 C   0  0  0  0  0  0
  -27.1893  -24.5326   21.7399 C   0  0  0  0  0  0
  -28.9345  -23.0332   20.6187 C   0  0  0  0  0  0
  -29.1421  -20.6248   21.6646 C   0  0  0  0  0  0
  -28.5487  -25.3973   19.7432 C   0  0  0  0  0  0
  -28.5375  -24.4872   20.9933 C   0  0  1  0  0  0
  -34.9255  -17.3453   22.6393 N   0  0  0  0  0  0
  -30.1603  -15.2845   21.4717 N   0  0  0  0  0  0
  -29.5419  -19.9365   22.8919 N   0  0  0  0  0  0
  -34.2628  -18.4053   24.5606 N   0  3  0  0  0  0
  -29.8342  -22.6153   22.8318 O   0  0  0  0  0  0
  -31.4606  -12.4000   19.0880 H   0  0  0  0  0  0
  -30.3224  -11.2772   19.7730 H   0  0  0  0  0  0
  -29.7158  -11.8036   17.3994 H   0  0  0  0  0  0
  -29.6525  -13.5086   17.7693 H   0  0  0  0  0  0
  -27.8143  -11.3173   18.7940 H   0  0  0  0  0  0
  -27.3534  -12.6627   17.7858 H   0  0  0  0  0  0
  -27.7183  -14.2540   19.5981 H   0  0  0  0  0  0
  -28.6750  -11.9056   21.3043 H   0  0  0  0  0  0
  -28.4561  -13.5206   21.8862 H   0  0  0  0  0  0
  -25.2758   -9.5688   22.4751 H   0  0  0  0  0  0
  -23.9999   -7.4638   22.7475 H   0  0  0  0  0  0
  -21.0834   -8.8767   19.8951 H   0  0  0  0  0  0
  -22.3684  -10.9671   19.6160 H   0  0  0  0  0  0
  -21.2006   -7.6148   23.9712 H   0  0  0  0  0  0
  -21.1480   -6.0524   25.9078 H   0  0  0  0  0  0
  -22.0601   -2.7606   23.2849 H   0  0  0  0  0  0
  -22.4122  -11.9886   22.4771 H   0  0  0  0  0  0
  -21.1128  -13.1258   22.2605 H   0  0  0  0  0  0
  -24.6664  -15.8430   20.5102 H   0  0  0  0  0  0
  -26.2874  -15.6247   20.0856 H   0  0  0  0  0  0
  -26.7115  -32.5549   23.1160 H   0  0  0  0  0  0
  -25.0004  -33.9776   25.0452 H   0  0  0  0  0  0
  -22.6851  -31.3087   21.4155 H   0  0  0  0  0  0
  -23.3745  -35.9660   23.3306 H   0  0  0  0  0  0
  -24.3577  -36.8929   22.2049 H   0  0  0  0  0  0
  -23.7251  -37.6528   23.6656 H   0  0  0  0  0  0
  -26.0365  -31.6044   20.5942 H   0  0  0  0  0  0
  -26.8144  -30.8908   21.9788 H   0  0  0  0  0  0
  -28.0936  -29.1206   21.1470 H   0  0  0  0  0  0
  -26.0132  -25.9739   19.0217 H   0  0  0  0  0  0
  -23.9698  -27.2831   19.0583 H   0  0  0  0  0  0
  -23.7073  -30.5961   19.4071 H   0  0  0  0  0  0
  -22.7277  -29.2397   19.8781 H   0  0  0  0  0  0
  -25.1290  -36.1983   25.0828 H   0  0  0  0  0  0
  -20.9932  -28.3238   24.1467 H   0  0  0  0  0  0
  -20.5698  -26.2267   23.3604 H   0  0  0  0  0  0
  -21.6639  -26.7488   22.1196 H   0  0  0  0  0  0
  -19.6909  -25.6306   21.1234 H   0  0  0  0  0  0
  -19.6679  -27.3223   20.6768 H   0  0  0  0  0  0
  -17.4191  -26.6674   21.4029 H   0  0  0  0  0  0
  -18.0304  -26.0069   22.9022 H   0  0  0  0  0  0
  -19.7922  -30.7230   24.2327 H   0  0  0  0  0  0
  -17.5014  -31.6275   24.5163 H   0  0  0  0  0  0
  -15.5342  -30.3009   23.7633 H   0  0  0  0  0  0
  -15.8646  -28.0832   22.7060 H   0  0  0  0  0  0
  -24.5874  -30.7089   25.7787 H   0  0  0  0  0  0
  -24.8917  -32.2873   26.4937 H   0  0  0  0  0  0
  -25.8044  -30.8853   27.0215 H   0  0  0  0  0  0
  -26.2845  -29.6814   24.1140 H   0  0  0  0  0  0
  -27.4062  -29.7289   25.4550 H   0  0  0  0  0  0
  -27.8678  -30.4367   23.9242 H   0  0  0  0  0  0
  -27.2672  -33.3627   26.2074 H   0  0  0  0  0  0
  -28.3838  -32.6894   25.0292 H   0  0  0  0  0  0
  -28.0731  -31.8443   26.5371 H   0  0  0  0  0  0
  -28.2611  -38.0101   24.7511 H   0  0  0  0  0  0
  -28.1069  -36.2637   24.6300 H   0  0  0  0  0  0
  -27.2294  -37.1475   25.8863 H   0  0  0  0  0  0
  -20.9290  -29.8745   21.6965 H   0  0  0  0  0  0
  -26.0196  -38.2876   24.1384 H   0  0  0  0  0  0
  -32.7160  -15.7250   22.2963 H   0  0  0  0  0  0
  -32.1004  -19.7960   23.5535 H   0  0  0  0  0  0
  -28.8289  -17.5629   21.8474 H   0  0  0  0  0  0
  -27.2075  -23.9174   22.6401 H   0  0  0  0  0  0
  -26.3723  -24.1779   21.1106 H   0  0  0  0  0  0
  -26.9484  -25.5461   22.0600 H   0  0  0  0  0  0
  -28.1241  -22.5511   20.0725 H   0  0  0  0  0  0
  -29.7895  -23.0528   19.9421 H   0  0  0  0  0  0
  -29.7184  -20.2752   20.8066 H   0  0  0  0  0  0
  -28.0918  -20.4197   21.4545 H   0  0  0  0  0  0
  -27.8451  -25.0604   18.9860 H   0  0  0  0  0  0
  -29.5224  -25.2942   19.2641 H   0  0  0  0  0  0
  -29.2999  -24.8818   21.6676 H   0  0  0  0  0  0
  -34.6982  -16.9633   21.7328 H   0  0  0  0  0  0
  -35.8957  -17.3667   22.9114 H   0  0  0  0  0  0
  -29.2133  -15.0653   21.7407 H   0  0  0  0  0  0
  -29.9377  -20.6421   23.5134 H   0  0  0  0  0  0
  -33.5205  -18.7274   25.1647 H   0  0  0  0  0  0
  -35.2120  -18.4804   24.8915 H   0  0  0  0  0  0
  1 25  1  0  0  0
  1 30  2  0  0  0
  1 85  1  0  0  0
  2  3  1  0  0  0
  2 25  1  0  0  0
  2 89  1  0  0  0
  2 90  1  0  0  0
  3  4  1  0  0  0
  3 91  1  0  0  0
  3 92  1  0  0  0
  4  5  1  0  0  0
  4 93  1  0  0  0
  4 94  1  0  0  0
  5  6  1  0  0  0
  5 26  1  0  0  0
  5 95  1  0  0  0
  6 25  1  0  0  0
  6 96  1  0  0  0
  6 97  1  0  0  0
  7  8  2  0  0  0
  7 26  1  0  0  0
  7 29  1  0  0  0
  8  9  1  0  0  0
  8 22  1  0  0  0
  9 10  1  0  0  0
  9 27  2  0  0  0
 10 11  2  0  0  0
 10 15  1  0  0  0
 11 12  1  0  0  0
 11 98  1  0  0  0
 12 13  2  0  0  0
 12 99  1  0  0  0
 13 14  1  0  0  0
 13 31  1  0  0  0
 14 15  2  0  0  0
 14100  1  0  0  0
 15101  1  0  0  0
 16 17  2  0  0  0
 16 21  1  0  0  0
 16 31  1  0  0  0
 17 18  1  0  0  0
 17102  1  0  0  0
 18 19  2  0  0  0
 18103  1  0  0  0
 19 20  1  0  0  0
 19 24  1  0  0  0
 20 21  2  0  0  0
 20104  1  0  0  0
 21 23  1  0  0  0
 22 28  1  0  0  0
 22 32  2  0  0  0
 26 27  1  0  0  0
 28105  1  0  0  0
 28106  1  0  0  0
 29107  1  0  0  0
 29108  1  0  0  0
 33 34  1  0  0  0
 33 66  1  0  0  0
 33 70  2  0  0  0
 34 36  1  0  0  0
 34 59  1  0  0  0
 34109  1  0  0  0
 35 44  2  0  0  0
 35 45  1  0  0  0
 35 68  1  0  0  0
 36 56  1  0  0  0
 36110  1  0  0  0
 37 39  1  0  0  0
 37 47  1  0  0  0
 37 66  1  0  0  0
 37111  1  0  0  0
 38 43  2  0  0  0
 38 46  1  0  0  0
 38 47  1  0  0  0
 39 64  1  0  0  0
 39 67  2  0  0  0
 40 52  1  0  0  0
 40 53  2  0  0  0
 40 58  1  0  0  0
 41112  1  0  0  0
 41113  1  0  0  0
 41114  1  0  0  0
 41 48  1  0  0  0
 42 43  1  0  0  0
 42 66  1  0  0  0
 42115  1  0  0  0
 42116  1  0  0  0
 43 44  1  0  0  0
 44117  1  0  0  0
 45 46  2  0  0  0
 45118  1  0  0  0
 46119  1  0  0  0
 47120  1  0  0  0
 47121  1  0  0  0
 48 56  1  0  0  0
 48 65  1  0  0  0
 48122  1  0  0  0
 49 50  1  0  0  0
 49 53  1  0  0  0
 49 64  1  0  0  0
 49123  1  0  0  0
 50 51  1  0  0  0
 50124  1  0  0  0
 50125  1  0  0  0
 51 52  1  0  0  0
 51126  1  0  0  0
 51127  1  0  0  0
 52128  1  0  0  0
 52129  1  0  0  0
 53 54  1  0  0  0
 54 55  2  0  0  0
 54130  1  0  0  0
 55 57  1  0  0  0
 55131  1  0  0  0
 56 69  2  0  0  0
 57 58  2  0  0  0
 57132  1  0  0  0
 58133  1  0  0  0
 59 60  1  0  0  0
 59 61  1  0  0  0
 59 62  1  0  0  0
 60134  1  0  0  0
 60135  1  0  0  0
 60136  1  0  0  0
 61137  1  0  0  0
 61138  1  0  0  0
 61139  1  0  0  0
 62140  1  0  0  0
 62141  1  0  0  0
 62142  1  0  0  0
 63 65  1  0  0  0
 63143  1  0  0  0
 63144  1  0  0  0
 63145  1  0  0  0
 64146  1  0  0  0
 65147  1  0  0  0
 68 82  1  0  0  0
 71 74  2  0  0  0
 71 75  1  0  0  0
 71148  1  0  0  0
 72 74  1  0  0  0
 72 76  2  0  0  0
 72149  1  0  0  0
 73 75  2  0  0  0
 73 76  1  0  0  0
 73150  1  0  0  0
 74 77  1  0  0  0
 75 85  1  0  0  0
 76 86  1  0  0  0
 77 84  1  0  0  0
 77 87  2  0  0  0
 78 80  1  0  0  0
 78 81  1  0  0  0
 78 88  2  0  0  0
 79151  1  0  0  0
 79152  1  0  0  0
 79153  1  0  0  0
 79 83  1  0  0  0
 80 83  1  0  0  0
 80154  1  0  0  0
 80155  1  0  0  0
 81 86  1  0  0  0
 81156  1  0  0  0
 81157  1  0  0  0
 82 83  1  0  0  0
 82158  1  0  0  0
 82159  1  0  0  0
 83160  1  0  0  0
 84161  1  0  0  0
 84162  1  0  0  0
 85163  1  0  0  0
 86164  1  0  0  0
 87165  1  0  0  0
 87166  1  0  0  0
M  CHG  1  87   1
M  ISO  4   1 100  68 101  82 101  85 100
M  END
> <chiral flag>
0

> <version>
0

> <s_m_source_file>
/data/baiqing/PycharmProjects/Reinvent-master-3.2/result/LINK_invent/BTK/process_docking_weight1_custom_product_contain_oxygen_bond_distance_aromatic_linkinvent_7_9_3/rearranged_h_0149.sdf

> <i_m_source_file_index>
20

> <r_mmod_Potential_Energy-OPLS-2005>
-373.288818359375

> <r_mmod_Stretch_Energy-OPLS-2005>
35.3778381347656

> <r_mmod_Bend_Energy-OPLS-2005>
107.654853820801

> <r_mmod_Torsional_Energy-OPLS-2005>
214.193145751953

> <r_mmod_Improper_Torsional_Energy-OPLS-2005>
7.99018716812134

> <r_mmod_Van_der_Waal_Energy-OPLS-2005>
161.547225952148

> <r_mmod_Electrostatic_Energy-OPLS-2005>
-457.503387451172

> <r_mmod_Solvation_Energy-OPLS-2005>
-451.328247070312

> <b_mmod_Minimization_Converged-OPLS-2005>
0

> <r_mmod_RMS_Derivative-OPLS-2005>
1.12018954753876

$$$$
20
                    3D
 Structure written by MMmdl.
163171  0  0  1  0            999 V2000
  -30.2996  -15.3834   20.6203 C   0  0  0  0  0  0
  -30.4254  -12.9251   19.6255 C   0  0  0  0  0  0
  -29.5588  -12.6578   18.3586 C   0  0  0  0  0  0
  -28.1015  -12.3429   18.7346 C   0  0  0  0  0  0
  -27.6002  -13.2887   19.8505 C   0  0  2  0  0  0
  -28.5872  -13.4434   21.0231 C   0  0  0  0  0  0
  -25.2267  -13.8263   20.5727 C   0  0  0  0  0  0
  -24.1654  -13.0424   20.9237 C   0  0  0  0  0  0
  -24.6333  -11.6932   20.8726 C   0  0  0  0  0  0
  -23.9058  -10.4287   21.0389 C   0  0  0  0  0  0
  -24.3620   -9.4212   21.9170 C   0  0  0  0  0  0
  -23.6301   -8.2242   22.0743 C   0  0  0  0  0  0
  -22.4281   -8.0270   21.3539 C   0  0  0  0  0  0
  -21.9904   -9.0240   20.4644 C   0  0  0  0  0  0
  -22.7225  -10.2121   20.3048 C   0  0  0  0  0  0
  -21.6857   -6.0729   22.5280 C   0  0  0  0  0  0
  -21.4018   -6.5637   23.8212 C   0  0  0  0  0  0
  -21.3659   -5.6790   24.9174 C   0  0  0  0  0  0
  -21.6045   -4.3054   24.7224 C   0  0  0  0  0  0
  -21.8821   -3.8143   23.4345 C   0  0  0  0  0  0
  -21.9198   -4.6958   22.3402 C   0  0  0  0  0  0
  -22.7690  -13.5168   21.1922 C   0  0  0  0  0  0
  -22.1664   -4.2143   21.0980 F   0  0  0  0  0  0
  -21.5626   -3.4540   25.7738 F   0  0  0  0  0  0
  -29.8130  -14.0345   20.4783 N   0  0  0  0  0  0
  -26.2674  -12.9545   20.3183 N   0  0  0  0  0  0
  -25.9258  -11.6641   20.5663 N   0  0  0  0  0  0
  -22.0382  -12.8143   22.0489 N   0  0  0  0  0  0
  -25.3927  -15.2003   20.4227 N   0  0  0  0  0  0
  -31.5077  -15.4059   20.3125 O   0  0  0  0  0  0
  -21.6646   -6.8867   21.4238 O   0  0  0  0  0  0
  -22.3371  -14.5478   20.6779 O   0  0  0  0  0  0
  -24.7701  -31.6260   23.3757 C   0  0  0  0  0  0
  -25.9821  -32.4127   23.9251 C   0  0  1  0  0  0
  -27.4357  -27.3465   19.4254 C   0  0  0  0  0  0
  -25.6023  -33.8119   24.2404 N   0  0  0  0  0  0
  -23.5174  -29.8807   21.9386 C   0  0  2  0  0  0
  -25.1856  -28.7011   19.5318 C   0  0  0  0  0  0
  -22.5033  -29.4464   22.8827 C   0  0  0  0  0  0
  -17.9426  -28.1278   22.8417 C   0  0  0  0  0  0
  -24.1524  -36.6964   23.2584 C   0  0  0  0  0  0
  -26.5538  -30.2352   21.8247 C   0  0  0  0  0  0
  -26.5936  -29.2816   20.2186 C   0  0  0  0  0  0
  -27.7269  -28.5845   19.9904 C   0  0  0  0  0  0
  -26.4204  -27.0835   18.4918 C   0  0  0  0  0  0
  -25.2124  -27.7715   18.5397 C   0  0  0  0  0  0
  -23.5927  -28.8750   20.3709 C   0  0  0  0  0  0
  -25.4145  -36.2737   24.0279 C   0  0  1  0  0  0
  -20.4546  -28.2863   23.1608 C   0  0  2  0  0  0
  -20.5604  -26.8787   22.5414 C   0  0  0  0  0  0
  -19.4763  -26.6154   21.5069 C   0  0  0  0  0  0
  -18.0990  -26.7815   22.1526 C   0  0  0  0  0  0
  -19.0640  -28.8544   23.2926 C   0  0  0  0  0  0
  -18.8966  -30.1207   23.8931 C   0  0  0  0  0  0
  -17.6092  -30.6588   24.0557 C   0  0  0  0  0  0
  -25.9090  -34.9016   23.5151 C   0  0  0  0  0  0
  -16.4884  -29.9257   23.6262 C   0  0  0  0  0  0
  -16.6553  -28.6635   23.0256 C   0  0  0  0  0  0
  -26.5102  -31.6749   25.2049 C   0  0  0  0  0  0
  -25.4047  -31.4019   26.2525 C   0  0  0  0  0  0
  -27.1590  -30.3116   24.8893 C   0  0  0  0  0  0
  -27.6320  -32.5102   25.8507 C   0  0  0  0  0  0
  -27.5544  -37.1635   24.8491 C   0  0  0  0  0  0
  -21.2964  -29.1929   22.4245 N   0  0  0  0  0  0
  -26.4295  -37.3480   23.9351 N   0  0  0  0  0  0
  -24.9849  -30.4734   22.6422 N   0  0  0  0  0  0
  -22.8694  -29.2049   24.0153 O   0  0  0  0  0  0
  -27.1836  -26.4624   20.3639 O   0  0  0  0  0  0
  -26.5750  -34.8478   22.4786 O   0  0  0  0  0  0
  -23.6431  -32.0700   23.6599 O   0  0  0  0  0  0
  -28.2373  -21.0281   21.8306 C   0  0  0  0  0  0
  -29.6326  -22.9572   21.5093 C   0  0  0  0  0  0
  -29.3077  -19.9511   21.3723 C   0  0  0  0  0  0
  -28.3397  -22.6121   21.9244 C   0  0  0  0  0  0
  -30.4024  -20.7659   20.9371 C   0  0  0  0  0  0
  -29.7165  -18.2201   21.1344 C   0  0  0  0  0  0
  -29.4034  -16.7616   20.9531 C   0  0  0  0  0  0
  -27.6353  -25.3963   22.6785 C   0  0  0  0  0  0
  -24.5188  -27.4294   22.9303 C   0  0  0  0  0  0
  -24.8952  -30.8253   20.3448 C   0  0  0  0  0  0
  -26.8555  -27.1180   22.6353 C   0  0  0  0  0  0
  -25.7771  -26.6647   21.0026 C   0  0  0  0  0  0
  -25.4127  -28.1195   21.8356 C   0  0  0  0  0  0
  -30.5660  -22.1035   21.0311 N   0  0  0  0  0  0
  -31.4937  -20.2230   20.2761 N   0  0  0  0  0  0
  -27.3965  -23.9596   22.2393 N   0  0  0  0  0  0
  -28.7236  -25.4754   23.2512 O   0  0  0  0  0  0
  -31.4376  -13.1808   19.3129 H   0  0  0  0  0  0
  -30.5336  -12.0114   20.2133 H   0  0  0  0  0  0
  -29.9825  -11.8454   17.7665 H   0  0  0  0  0  0
  -29.5823  -13.5449   17.7247 H   0  0  0  0  0  0
  -28.0518  -11.3078   19.0736 H   0  0  0  0  0  0
  -27.4568  -12.4115   17.8564 H   0  0  0  0  0  0
  -27.5252  -14.2675   19.3740 H   0  0  0  0  0  0
  -28.7741  -12.4873   21.5154 H   0  0  0  0  0  0
  -28.1728  -14.1052   21.7860 H   0  0  0  0  0  0
  -25.2760   -9.5700   22.4752 H   0  0  0  0  0  0
  -24.0016   -7.4632   22.7461 H   0  0  0  0  0  0
  -21.0832   -8.8754   19.8956 H   0  0  0  0  0  0
  -22.3665  -10.9662   19.6167 H   0  0  0  0  0  0
  -21.2012   -7.6147   23.9711 H   0  0  0  0  0  0
  -21.1480   -6.0523   25.9075 H   0  0  0  0  0  0
  -22.0601   -2.7605   23.2851 H   0  0  0  0  0  0
  -22.4036  -11.9800   22.4847 H   0  0  0  0  0  0
  -21.1002  -13.1146   22.2745 H   0  0  0  0  0  0
  -24.6242  -15.8517   20.5402 H   0  0  0  0  0  0
  -26.2353  -15.6422   20.0778 H   0  0  0  0  0  0
  -26.7916  -32.4562   23.2034 H   0  0  0  0  0  0
  -25.0131  -33.9381   25.0501 H   0  0  0  0  0  0
  -22.9590  -30.7837   21.6630 H   0  0  0  0  0  0
  -23.3803  -35.9274   23.3211 H   0  0  0  0  0  0
  -24.3636  -36.8584   22.2017 H   0  0  0  0  0  0
  -23.7244  -37.6140   23.6617 H   0  0  0  0  0  0
  -27.0293  -31.1899   21.5999 H   0  0  0  0  0  0
  -27.2813  -29.7623   22.4635 H   0  0  0  0  0  0
  -28.5716  -28.7190   20.6496 H   0  0  0  0  0  0
  -26.4071  -26.1241   17.9930 H   0  0  0  0  0  0
  -24.3207  -27.3911   18.0621 H   0  0  0  0  0  0
  -22.8635  -29.2501   19.6510 H   0  0  0  0  0  0
  -23.1818  -27.8808   20.5501 H   0  0  0  0  0  0
  -25.1299  -36.1643   25.0778 H   0  0  0  0  0  0
  -20.7717  -28.1755   24.2008 H   0  0  0  0  0  0
  -20.4422  -26.1435   23.3377 H   0  0  0  0  0  0
  -21.5359  -26.6782   22.1077 H   0  0  0  0  0  0
  -19.5764  -25.6108   21.0957 H   0  0  0  0  0  0
  -19.5826  -27.3107   20.6723 H   0  0  0  0  0  0
  -17.3228  -26.6681   21.3948 H   0  0  0  0  0  0
  -17.9276  -25.9969   22.8923 H   0  0  0  0  0  0
  -19.7579  -30.6774   24.2378 H   0  0  0  0  0  0
  -17.4791  -31.6271   24.5197 H   0  0  0  0  0  0
  -15.4954  -30.3339   23.7521 H   0  0  0  0  0  0
  -15.7855  -28.1120   22.6927 H   0  0  0  0  0  0
  -24.6790  -30.6564   25.9206 H   0  0  0  0  0  0
  -24.8538  -32.3083   26.5052 H   0  0  0  0  0  0
  -25.8297  -31.0186   27.1815 H   0  0  0  0  0  0
  -26.4665  -29.5778   24.4876 H   0  0  0  0  0  0
  -27.5318  -29.8527   25.8061 H   0  0  0  0  0  0
  -28.0404  -30.4186   24.2584 H   0  0  0  0  0  0
  -27.2644  -33.4576   26.2457 H   0  0  0  0  0  0
  -28.4239  -32.7381   25.1354 H   0  0  0  0  0  0
  -28.0948  -31.9873   26.6889 H   0  0  0  0  0  0
  -28.2579  -37.9921   24.7514 H   0  0  0  0  0  0
  -28.1061  -36.2452   24.6422 H   0  0  0  0  0  0
  -27.2246  -37.1349   25.8892 H   0  0  0  0  0  0
  -21.0459  -29.4276   21.4745 H   0  0  0  0  0  0
  -26.0136  -38.2557   24.1208 H   0  0  0  0  0  0
  -27.2916  -20.6107   22.1417 H   0  0  0  0  0  0
  -29.9255  -23.9948   21.4679 H   0  0  0  0  0  0
  -30.7929  -18.1615   21.1318 H   0  0  0  0  0  0
  -28.3455  -16.5516   20.9991 H   0  0  0  0  0  0
  -24.6565  -27.9115   23.8928 H   0  0  0  0  0  0
  -24.7766  -26.4163   23.2424 H   0  0  0  0  0  0
  -23.5044  -27.2182   22.6318 H   0  0  0  0  0  0
  -25.5273  -31.1203   19.4898 H   0  0  0  0  0  0
  -24.9701  -31.8140   20.8159 H   0  0  0  0  0  0
  -23.9638  -31.0275   19.7968 H   0  0  0  0  0  0
  -27.7519  -27.6877   22.4125 H   0  0  0  0  0  0
  -26.8019  -27.3346   23.7044 H   0  0  0  0  0  0
  -24.9459  -26.3781   20.3664 H   0  0  0  0  0  0
  -25.5178  -25.7340   21.5098 H   0  0  0  0  0  0
  -32.0980  -20.8662   19.7826 H   0  0  0  0  0  0
  -31.3148  -19.3683   19.7628 H   0  0  0  0  0  0
  -26.4249  -23.8065   22.0053 H   0  0  0  0  0  0
  1 25  1  0  0  0
  1 30  2  0  0  0
  1 77  1  0  0  0
  2  3  1  0  0  0
  2 25  1  0  0  0
  2 88  1  0  0  0
  2 89  1  0  0  0
  3  4  1  0  0  0
  3 90  1  0  0  0
  3 91  1  0  0  0
  4  5  1  0  0  0
  4 92  1  0  0  0
  4 93  1  0  0  0
  5  6  1  0  0  0
  5 26  1  0  0  0
  5 94  1  0  0  0
  6 25  1  0  0  0
  6 95  1  0  0  0
  6 96  1  0  0  0
  7  8  2  0  0  0
  7 26  1  0  0  0
  7 29  1  0  0  0
  8  9  1  0  0  0
  8 22  1  0  0  0
  9 10  1  0  0  0
  9 27  2  0  0  0
 10 11  2  0  0  0
 10 15  1  0  0  0
 11 12  1  0  0  0
 11 97  1  0  0  0
 12 13  2  0  0  0
 12 98  1  0  0  0
 13 14  1  0  0  0
 13 31  1  0  0  0
 14 15  2  0  0  0
 14 99  1  0  0  0
 15100  1  0  0  0
 16 17  2  0  0  0
 16 21  1  0  0  0
 16 31  1  0  0  0
 17 18  1  0  0  0
 17101  1  0  0  0
 18 19  2  0  0  0
 18102  1  0  0  0
 19 20  1  0  0  0
 19 24  1  0  0  0
 20 21  2  0  0  0
 20103  1  0  0  0
 21 23  1  0  0  0
 22 28  1  0  0  0
 22 32  2  0  0  0
 26 27  1  0  0  0
 28104  1  0  0  0
 28105  1  0  0  0
 29106  1  0  0  0
 29107  1  0  0  0
 33 34  1  0  0  0
 33 66  1  0  0  0
 33 70  2  0  0  0
 34 36  1  0  0  0
 34 59  1  0  0  0
 34108  1  0  0  0
 35 44  2  0  0  0
 35 45  1  0  0  0
 35 68  1  0  0  0
 36 56  1  0  0  0
 36109  1  0  0  0
 37 39  1  0  0  0
 37 47  1  0  0  0
 37 66  1  0  0  0
 37110  1  0  0  0
 38 43  2  0  0  0
 38 46  1  0  0  0
 38 47  1  0  0  0
 39 64  1  0  0  0
 39 67  2  0  0  0
 40 52  1  0  0  0
 40 53  2  0  0  0
 40 58  1  0  0  0
 41111  1  0  0  0
 41112  1  0  0  0
 41113  1  0  0  0
 41 48  1  0  0  0
 42 43  1  0  0  0
 42 66  1  0  0  0
 42114  1  0  0  0
 42115  1  0  0  0
 43 44  1  0  0  0
 44116  1  0  0  0
 45 46  2  0  0  0
 45117  1  0  0  0
 46118  1  0  0  0
 47119  1  0  0  0
 47120  1  0  0  0
 48 56  1  0  0  0
 48 65  1  0  0  0
 48121  1  0  0  0
 49 50  1  0  0  0
 49 53  1  0  0  0
 49 64  1  0  0  0
 49122  1  0  0  0
 50 51  1  0  0  0
 50123  1  0  0  0
 50124  1  0  0  0
 51 52  1  0  0  0
 51125  1  0  0  0
 51126  1  0  0  0
 52127  1  0  0  0
 52128  1  0  0  0
 53 54  1  0  0  0
 54 55  2  0  0  0
 54129  1  0  0  0
 55 57  1  0  0  0
 55130  1  0  0  0
 56 69  2  0  0  0
 57 58  2  0  0  0
 57131  1  0  0  0
 58132  1  0  0  0
 59 60  1  0  0  0
 59 61  1  0  0  0
 59 62  1  0  0  0
 60133  1  0  0  0
 60134  1  0  0  0
 60135  1  0  0  0
 61136  1  0  0  0
 61137  1  0  0  0
 61138  1  0  0  0
 62139  1  0  0  0
 62140  1  0  0  0
 62141  1  0  0  0
 63 65  1  0  0  0
 63142  1  0  0  0
 63143  1  0  0  0
 63144  1  0  0  0
 64145  1  0  0  0
 65146  1  0  0  0
 68 82  1  0  0  0
 71 73  2  0  0  0
 71 74  1  0  0  0
 71147  1  0  0  0
 72 74  2  0  0  0
 72 84  1  0  0  0
 72148  1  0  0  0
 73 75  1  0  0  0
 73 76  1  0  0  0
 74 86  1  0  0  0
 75 84  2  0  0  0
 75 85  1  0  0  0
 76 77  2  0  0  0
 76149  1  0  0  0
 77150  1  0  0  0
 78 81  1  0  0  0
 78 86  1  0  0  0
 78 87  2  0  0  0
 79151  1  0  0  0
 79152  1  0  0  0
 79153  1  0  0  0
 79 83  1  0  0  0
 80 83  1  0  0  0
 80154  1  0  0  0
 80155  1  0  0  0
 80156  1  0  0  0
 81 83  1  0  0  0
 81157  1  0  0  0
 81158  1  0  0  0
 82 83  1  0  0  0
 82159  1  0  0  0
 82160  1  0  0  0
 85161  1  0  0  0
 85162  1  0  0  0
 86163  1  0  0  0
M  ISO  4   1 100  68 101  77 100  82 101
M  END
> <chiral flag>
0

> <version>
0

> <s_m_source_file>
/data/baiqing/PycharmProjects/Reinvent-master-3.2/result/LINK_invent/BTK/process_docking_weight1_custom_product_contain_oxygen_bond_distance_aromatic_linkinvent_7_9_3/rearranged_h_0149.sdf

> <i_m_source_file_index>
21

> <r_mmod_Potential_Energy-OPLS-2005>
9167.3955078125

> <r_mmod_Stretch_Energy-OPLS-2005>
4844.6552734375

> <r_mmod_Bend_Energy-OPLS-2005>
1176.41967773438

> <r_mmod_Torsional_Energy-OPLS-2005>
471.826507568359

> <r_mmod_Improper_Torsional_Energy-OPLS-2005>
44.526538848877

> <r_mmod_Van_der_Waal_Energy-OPLS-2005>
1980.3046875

> <r_mmod_Electrostatic_Energy-OPLS-2005>
-604.651733398438

> <r_mmod_Solvation_Energy-OPLS-2005>
-241.144546508789

> <b_mmod_Minimization_Converged-OPLS-2005>
0

> <r_mmod_RMS_Derivative-OPLS-2005>
3.66558384895325

$$$$
21
                    3D
 Structure written by MMmdl.
155163  0  0  1  0            999 V2000
  -30.6479  -14.5155   20.5095 C   0  0  0  0  0  0
  -30.4328  -12.3135   19.4120 C   0  0  0  0  0  0
  -29.5014  -12.4870   18.1905 C   0  0  0  0  0  0
  -28.0144  -12.3906   18.5909 C   0  0  0  0  0  0
  -27.6630  -13.2035   19.8685 C   0  0  2  0  0  0
  -28.7091  -12.9733   20.9813 C   0  0  0  0  0  0
  -25.2568  -13.8061   20.5576 C   0  0  0  0  0  0
  -24.1839  -13.0391   20.9154 C   0  0  0  0  0  0
  -24.6398  -11.6848   20.8755 C   0  0  0  0  0  0
  -23.9022  -10.4308   21.0483 C   0  0  0  0  0  0
  -24.3559   -9.4227   21.9277 C   0  0  0  0  0  0
  -23.6272   -8.2225   22.0770 C   0  0  0  0  0  0
  -22.4259   -8.0274   21.3533 C   0  0  0  0  0  0
  -21.9897   -9.0268   20.4636 C   0  0  0  0  0  0
  -22.7183  -10.2179   20.3109 C   0  0  0  0  0  0
  -21.6834   -6.0732   22.5300 C   0  0  0  0  0  0
  -21.4001   -6.5608   23.8247 C   0  0  0  0  0  0
  -21.3686   -5.6735   24.9202 C   0  0  0  0  0  0
  -21.6146   -4.3020   24.7243 C   0  0  0  0  0  0
  -21.8836   -3.8100   23.4366 C   0  0  0  0  0  0
  -21.9146   -4.6936   22.3410 C   0  0  0  0  0  0
  -22.7909  -13.5269   21.1825 C   0  0  0  0  0  0
  -22.1595   -4.2078   21.0996 F   0  0  0  0  0  0
  -21.5686   -3.4516   25.7776 F   0  0  0  0  0  0
  -30.0325  -13.3013   20.4303 N   0  0  0  0  0  0
  -26.3036  -12.9243   20.3276 N   0  0  0  0  0  0
  -25.9331  -11.6417   20.5771 N   0  0  0  0  0  0
  -22.0439  -12.8391   22.0399 N   0  0  0  0  0  0
  -25.4209  -15.1778   20.3893 N   0  0  0  0  0  0
  -31.8266  -14.6806   20.1903 O   0  0  0  0  0  0
  -21.6642   -6.8894   21.4247 O   0  0  0  0  0  0
  -22.3667  -14.5562   20.6580 O   0  0  0  0  0  0
  -24.6207  -31.8691   23.2054 C   0  0  0  0  0  0
  -25.9099  -32.4808   23.8336 C   0  0  1  0  0  0
  -27.2351  -27.3869   20.0938 C   0  0  0  0  0  0
  -25.5939  -33.8592   24.2253 N   0  0  0  0  0  0
  -23.4107  -30.4931   21.5501 C   0  0  2  0  0  0
  -24.8577  -28.9715   20.1049 C   0  0  0  0  0  0
  -22.7458  -29.4676   22.5005 C   0  0  0  0  0  0
  -18.0281  -28.1456   22.8500 C   0  0  0  0  0  0
  -24.1496  -36.7293   23.2634 C   0  0  0  0  0  0
  -25.9458  -30.8230   21.3696 C   0  0  0  0  0  0
  -26.0249  -29.4572   20.7042 C   0  0  0  0  0  0
  -27.2155  -28.6786   20.6926 C   0  0  0  0  0  0
  -26.0379  -26.9572   19.4602 C   0  0  0  0  0  0
  -24.8631  -27.7251   19.4692 C   0  0  0  0  0  0
  -23.6180  -29.8326   20.1628 C   0  0  0  0  0  0
  -25.4125  -36.3076   24.0319 C   0  0  1  0  0  0
  -20.5872  -28.3718   23.1350 C   0  0  2  0  0  0
  -20.6778  -26.9470   22.5453 C   0  0  0  0  0  0
  -19.5757  -26.6428   21.5256 C   0  0  0  0  0  0
  -18.1931  -26.8000   22.1637 C   0  0  0  0  0  0
  -19.1539  -28.8905   23.2900 C   0  0  0  0  0  0
  -18.9443  -30.1503   23.8910 C   0  0  0  0  0  0
  -17.6446  -30.6634   24.0593 C   0  0  0  0  0  0
  -25.9078  -34.9462   23.5080 C   0  0  0  0  0  0
  -16.5333  -29.9133   23.6359 C   0  0  0  0  0  0
  -16.7266  -28.6564   23.0351 C   0  0  0  0  0  0
  -26.4478  -31.6585   25.0693 C   0  0  0  0  0  0
  -25.3642  -31.3780   26.1371 C   0  0  0  0  0  0
  -27.0260  -30.2964   24.6153 C   0  0  0  0  0  0
  -27.6081  -32.4290   25.7453 C   0  0  0  0  0  0
  -27.5600  -37.1772   24.8435 C   0  0  0  0  0  0
  -21.4180  -29.3037   22.3732 N   0  0  0  0  0  0
  -26.4276  -37.3790   23.9441 N   0  0  0  0  0  0
  -24.6765  -31.0751   22.0988 N   0  0  0  0  0  0
  -23.4220  -28.8242   23.3099 O   0  0  0  0  0  0
  -28.3649  -26.5562   20.1433 O   0  0  0  0  0  0
  -26.5661  -34.8932   22.4652 O   0  0  0  0  0  0
  -23.5396  -32.1457   23.7441 O   0  0  0  0  0  0
  -29.3608  -18.0381   21.0699 C   0  0  0  0  0  0
  -29.8653  -16.9237   20.3123 C   0  0  0  0  0  0
  -30.1716  -17.4016   19.0436 C   0  0  0  0  0  0
  -29.5099  -19.1413   20.2564 C   0  0  0  0  0  0
  -28.8162  -22.7337   20.3635 C   0  0  0  0  0  0
  -30.6182  -16.7797   17.7797 C   0  0  0  0  0  0
  -29.1688  -24.0481   20.1938 C   0  0  0  0  0  0
  -29.7031  -21.5722   20.5462 C   0  0  0  0  0  0
  -29.9292  -17.1708   16.4764 C   0  0  0  0  0  0
  -28.0958  -25.1339   19.9248 C   0  0  0  0  0  0
  -29.8376  -15.5597   20.8067 N   0  0  0  0  0  0
  -29.0181  -20.3966   20.4905 N   0  0  0  0  0  0
  -31.5254  -15.9501   17.7190 O   0  0  0  0  0  0
  -30.9117  -21.6446   20.7877 O   0  0  0  0  0  0
  -29.9740  -18.7664   19.0279 O   0  0  0  0  0  0
  -30.4254  -24.5412   20.1935 O   0  0  0  0  0  0
  -31.4716  -12.4363   19.1023 H   0  0  0  0  0  0
  -30.3646  -11.3011   19.8108 H   0  0  0  0  0  0
  -29.7181  -11.7294   17.4338 H   0  0  0  0  0  0
  -29.6964  -13.4530   17.7219 H   0  0  0  0  0  0
  -27.7843  -11.3362   18.7492 H   0  0  0  0  0  0
  -27.3804  -12.7222   17.7678 H   0  0  0  0  0  0
  -27.7031  -14.2528   19.5759 H   0  0  0  0  0  0
  -28.6933  -11.9316   21.3070 H   0  0  0  0  0  0
  -28.4873  -13.5641   21.8708 H   0  0  0  0  0  0
  -25.2708   -9.5679   22.4828 H   0  0  0  0  0  0
  -23.9972   -7.4576   22.7477 H   0  0  0  0  0  0
  -21.0841   -8.8763   19.8969 H   0  0  0  0  0  0
  -22.3629  -10.9686   19.6172 H   0  0  0  0  0  0
  -21.1962   -7.6100   23.9765 H   0  0  0  0  0  0
  -21.1508   -6.0444   25.9132 H   0  0  0  0  0  0
  -22.0595   -2.7571   23.2845 H   0  0  0  0  0  0
  -22.3898  -12.0001   22.4751 H   0  0  0  0  0  0
  -21.1075  -13.1600   22.2567 H   0  0  0  0  0  0
  -24.6311  -15.8077   20.4809 H   0  0  0  0  0  0
  -26.2429  -15.6224   20.0022 H   0  0  0  0  0  0
  -26.7203  -32.5507   23.1131 H   0  0  0  0  0  0
  -24.9970  -33.9725   25.0312 H   0  0  0  0  0  0
  -22.6981  -31.3090   21.4145 H   0  0  0  0  0  0
  -23.3784  -35.9585   23.3206 H   0  0  0  0  0  0
  -24.3606  -36.9008   22.2066 H   0  0  0  0  0  0
  -23.7189  -37.6439   23.6725 H   0  0  0  0  0  0
  -26.0650  -31.6012   20.6136 H   0  0  0  0  0  0
  -26.8307  -30.8659   21.9934 H   0  0  0  0  0  0
  -28.1114  -29.0573   21.1628 H   0  0  0  0  0  0
  -25.9660  -26.0175   18.9367 H   0  0  0  0  0  0
  -23.9786  -27.3576   18.9697 H   0  0  0  0  0  0
  -23.7158  -30.6065   19.4014 H   0  0  0  0  0  0
  -22.7455  -29.2433   19.8764 H   0  0  0  0  0  0
  -25.1299  -36.1877   25.0807 H   0  0  0  0  0  0
  -20.9934  -28.3282   24.1478 H   0  0  0  0  0  0
  -20.5716  -26.2344   23.3652 H   0  0  0  0  0  0
  -21.6644  -26.7546   22.1221 H   0  0  0  0  0  0
  -19.6911  -25.6323   21.1320 H   0  0  0  0  0  0
  -19.6705  -27.3219   20.6778 H   0  0  0  0  0  0
  -17.4228  -26.6796   21.4011 H   0  0  0  0  0  0
  -18.0263  -26.0129   22.9009 H   0  0  0  0  0  0
  -19.7916  -30.7342   24.2276 H   0  0  0  0  0  0
  -17.4997  -31.6299   24.5209 H   0  0  0  0  0  0
  -15.5343  -30.3041   23.7660 H   0  0  0  0  0  0
  -15.8664  -28.0886   22.7046 H   0  0  0  0  0  0
  -24.5954  -30.6987   25.7657 H   0  0  0  0  0  0
  -24.8683  -32.2968   26.4512 H   0  0  0  0  0  0
  -25.7908  -30.9155   27.0275 H   0  0  0  0  0  0
  -26.2792  -29.6777   24.1163 H   0  0  0  0  0  0
  -27.3859  -29.7183   25.4671 H   0  0  0  0  0  0
  -27.8730  -30.4155   23.9396 H   0  0  0  0  0  0
  -27.2735  -33.3607   26.2018 H   0  0  0  0  0  0
  -28.3904  -32.6804   25.0275 H   0  0  0  0  0  0
  -28.0745  -31.8401   26.5361 H   0  0  0  0  0  0
  -28.2545  -38.0140   24.7596 H   0  0  0  0  0  0
  -28.1165  -36.2686   24.6086 H   0  0  0  0  0  0
  -27.2381  -37.1193   25.8844 H   0  0  0  0  0  0
  -20.9407  -29.8667   21.6837 H   0  0  0  0  0  0
  -26.0145  -38.2832   24.1522 H   0  0  0  0  0  0
  -28.9366  -18.0317   22.0656 H   0  0  0  0  0  0
  -27.7557  -22.5240   20.3437 H   0  0  0  0  0  0
  -30.5567  -17.8231   15.8675 H   0  0  0  0  0  0
  -28.9750  -17.6641   16.6550 H   0  0  0  0  0  0
  -29.7190  -16.2660   15.9026 H   0  0  0  0  0  0
  -27.2340  -24.8547   20.5332 H   0  0  0  0  0  0
  -27.8183  -24.9905   18.8788 H   0  0  0  0  0  0
  -29.0055  -15.2926   21.3073 H   0  0  0  0  0  0
  -28.0140  -20.4858   20.3985 H   0  0  0  0  0  0
  -31.0413  -23.8200   20.2827 H   0  0  0  0  0  0
  1 25  1  0  0  0
  1 30  2  0  0  0
  1 81  1  0  0  0
  2  3  1  0  0  0
  2 25  1  0  0  0
  2 87  1  0  0  0
  2 88  1  0  0  0
  3  4  1  0  0  0
  3 89  1  0  0  0
  3 90  1  0  0  0
  4  5  1  0  0  0
  4 91  1  0  0  0
  4 92  1  0  0  0
  5  6  1  0  0  0
  5 26  1  0  0  0
  5 93  1  0  0  0
  6 25  1  0  0  0
  6 94  1  0  0  0
  6 95  1  0  0  0
  7  8  2  0  0  0
  7 26  1  0  0  0
  7 29  1  0  0  0
  8  9  1  0  0  0
  8 22  1  0  0  0
  9 10  1  0  0  0
  9 27  2  0  0  0
 10 11  2  0  0  0
 10 15  1  0  0  0
 11 12  1  0  0  0
 11 96  1  0  0  0
 12 13  2  0  0  0
 12 97  1  0  0  0
 13 14  1  0  0  0
 13 31  1  0  0  0
 14 15  2  0  0  0
 14 98  1  0  0  0
 15 99  1  0  0  0
 16 17  2  0  0  0
 16 21  1  0  0  0
 16 31  1  0  0  0
 17 18  1  0  0  0
 17100  1  0  0  0
 18 19  2  0  0  0
 18101  1  0  0  0
 19 20  1  0  0  0
 19 24  1  0  0  0
 20 21  2  0  0  0
 20102  1  0  0  0
 21 23  1  0  0  0
 22 28  1  0  0  0
 22 32  2  0  0  0
 26 27  1  0  0  0
 28103  1  0  0  0
 28104  1  0  0  0
 29105  1  0  0  0
 29106  1  0  0  0
 33 34  1  0  0  0
 33 66  1  0  0  0
 33 70  2  0  0  0
 34 36  1  0  0  0
 34 59  1  0  0  0
 34107  1  0  0  0
 35 44  2  0  0  0
 35 45  1  0  0  0
 35 68  1  0  0  0
 36 56  1  0  0  0
 36108  1  0  0  0
 37 39  1  0  0  0
 37 47  1  0  0  0
 37 66  1  0  0  0
 37109  1  0  0  0
 38 43  2  0  0  0
 38 46  1  0  0  0
 38 47  1  0  0  0
 39 64  1  0  0  0
 39 67  2  0  0  0
 40 52  1  0  0  0
 40 53  2  0  0  0
 40 58  1  0  0  0
 41110  1  0  0  0
 41111  1  0  0  0
 41112  1  0  0  0
 41 48  1  0  0  0
 42 43  1  0  0  0
 42 66  1  0  0  0
 42113  1  0  0  0
 42114  1  0  0  0
 43 44  1  0  0  0
 44115  1  0  0  0
 45 46  2  0  0  0
 45116  1  0  0  0
 46117  1  0  0  0
 47118  1  0  0  0
 47119  1  0  0  0
 48 56  1  0  0  0
 48 65  1  0  0  0
 48120  1  0  0  0
 49 50  1  0  0  0
 49 53  1  0  0  0
 49 64  1  0  0  0
 49121  1  0  0  0
 50 51  1  0  0  0
 50122  1  0  0  0
 50123  1  0  0  0
 51 52  1  0  0  0
 51124  1  0  0  0
 51125  1  0  0  0
 52126  1  0  0  0
 52127  1  0  0  0
 53 54  1  0  0  0
 54 55  2  0  0  0
 54128  1  0  0  0
 55 57  1  0  0  0
 55129  1  0  0  0
 56 69  2  0  0  0
 57 58  2  0  0  0
 57130  1  0  0  0
 58131  1  0  0  0
 59 60  1  0  0  0
 59 61  1  0  0  0
 59 62  1  0  0  0
 60132  1  0  0  0
 60133  1  0  0  0
 60134  1  0  0  0
 61135  1  0  0  0
 61136  1  0  0  0
 61137  1  0  0  0
 62138  1  0  0  0
 62139  1  0  0  0
 62140  1  0  0  0
 63 65  1  0  0  0
 63141  1  0  0  0
 63142  1  0  0  0
 63143  1  0  0  0
 64144  1  0  0  0
 65145  1  0  0  0
 68 80  1  0  0  0
 71 72  1  0  0  0
 71 74  2  0  0  0
 71146  1  0  0  0
 72 73  2  0  0  0
 72 81  1  0  0  0
 73 76  1  0  0  0
 73 85  1  0  0  0
 74 82  1  0  0  0
 74 85  1  0  0  0
 75 77  2  0  0  0
 75 78  1  0  0  0
 75147  1  0  0  0
 76 79  1  0  0  0
 76 83  2  0  0  0
 77 80  1  0  0  0
 77 86  1  0  0  0
 78 82  1  0  0  0
 78 84  2  0  0  0
 79148  1  0  0  0
 79149  1  0  0  0
 79150  1  0  0  0
 80151  1  0  0  0
 80152  1  0  0  0
 81153  1  0  0  0
 82154  1  0  0  0
 86155  1  0  0  0
M  ISO  4   1 100  68 101  80 101  81 100
M  END
> <chiral flag>
0

> <version>
0

> <s_m_source_file>
/data/baiqing/PycharmProjects/Reinvent-master-3.2/result/LINK_invent/BTK/process_docking_weight1_custom_product_contain_oxygen_bond_distance_aromatic_linkinvent_7_9_3/rearranged_h_0149.sdf

> <i_m_source_file_index>
22

> <r_mmod_Potential_Energy-OPLS-2005>
37.0162239074707

> <r_mmod_Stretch_Energy-OPLS-2005>
55.2143898010254

> <r_mmod_Bend_Energy-OPLS-2005>
142.996643066406

> <r_mmod_Torsional_Energy-OPLS-2005>
277.104675292969

> <r_mmod_Improper_Torsional_Energy-OPLS-2005>
8.0141077041626

> <r_mmod_Van_der_Waal_Energy-OPLS-2005>
128.064666748047

> <r_mmod_Electrostatic_Energy-OPLS-2005>
-324.585327148438

> <r_mmod_Solvation_Energy-OPLS-2005>
-275.603790283203

> <b_mmod_Minimization_Converged-OPLS-2005>
0

> <r_mmod_RMS_Derivative-OPLS-2005>
8.5432300567627

$$$$
22
                    3D
 Structure written by MMmdl.
154162  0  0  1  0            999 V2000
  -30.6116  -14.7584   20.4436 C   0  0  0  0  0  0
  -30.4233  -12.4625   19.4838 C   0  0  0  0  0  0
  -29.5098  -12.5220   18.2397 C   0  0  0  0  0  0
  -28.0350  -12.3409   18.6472 C   0  0  0  0  0  0
  -27.6363  -13.2392   19.8486 C   0  0  2  0  0  0
  -28.6777  -13.1852   20.9880 C   0  0  0  0  0  0
  -25.2454  -13.8195   20.5681 C   0  0  0  0  0  0
  -24.1759  -13.0428   20.9210 C   0  0  0  0  0  0
  -24.6364  -11.6913   20.8726 C   0  0  0  0  0  0
  -23.9033  -10.4292   21.0397 C   0  0  0  0  0  0
  -24.3592   -9.4216   21.9174 C   0  0  0  0  0  0
  -23.6294   -8.2235   22.0731 C   0  0  0  0  0  0
  -22.4272   -8.0261   21.3532 C   0  0  0  0  0  0
  -21.9892   -9.0224   20.4624 C   0  0  0  0  0  0
  -22.7199  -10.2124   20.3044 C   0  0  0  0  0  0
  -21.6850   -6.0729   22.5281 C   0  0  0  0  0  0
  -21.4011   -6.5632   23.8221 C   0  0  0  0  0  0
  -21.3670   -5.6782   24.9175 C   0  0  0  0  0  0
  -21.6055   -4.3048   24.7226 C   0  0  0  0  0  0
  -21.8820   -3.8136   23.4348 C   0  0  0  0  0  0
  -21.9186   -4.6953   22.3400 C   0  0  0  0  0  0
  -22.7785  -13.5204   21.1901 C   0  0  0  0  0  0
  -22.1654   -4.2142   21.0980 F   0  0  0  0  0  0
  -21.5632   -3.4539   25.7737 F   0  0  0  0  0  0
  -29.9788  -13.5341   20.4077 N   0  0  0  0  0  0
  -26.2896  -12.9421   20.3261 N   0  0  0  0  0  0
  -25.9296  -11.6557   20.5709 N   0  0  0  0  0  0
  -22.0430  -12.8197   22.0461 N   0  0  0  0  0  0
  -25.4112  -15.1928   20.4100 N   0  0  0  0  0  0
  -31.8177  -14.8036   20.1804 O   0  0  0  0  0  0
  -21.6627   -6.8870   21.4239 O   0  0  0  0  0  0
  -22.3486  -14.5519   20.6757 O   0  0  0  0  0  0
  -24.6315  -31.8561   23.1994 C   0  0  0  0  0  0
  -25.9137  -32.4767   23.8342 C   0  0  1  0  0  0
  -27.2175  -27.2631   20.1260 C   0  0  0  0  0  0
  -25.5939  -33.8559   24.2271 N   0  0  0  0  0  0
  -23.4279  -30.4796   21.5434 C   0  0  2  0  0  0
  -24.8751  -28.9248   20.1126 C   0  0  0  0  0  0
  -22.7504  -29.4609   22.4922 C   0  0  0  0  0  0
  -18.0294  -28.1389   22.8488 C   0  0  0  0  0  0
  -24.1491  -36.7279   23.2641 C   0  0  0  0  0  0
  -25.9756  -30.7688   21.3796 C   0  0  0  0  0  0
  -26.0484  -29.3910   20.7209 C   0  0  0  0  0  0
  -27.2260  -28.5741   20.7140 C   0  0  0  0  0  0
  -26.0244  -26.8666   19.4869 C   0  0  0  0  0  0
  -24.8675  -27.6697   19.4852 C   0  0  0  0  0  0
  -23.6467  -29.8151   20.1596 C   0  0  0  0  0  0
  -25.4119  -36.3069   24.0331 C   0  0  1  0  0  0
  -20.5903  -28.3696   23.1279 C   0  0  2  0  0  0
  -20.6791  -26.9415   22.5410 C   0  0  0  0  0  0
  -19.5764  -26.6385   21.5221 C   0  0  0  0  0  0
  -18.1945  -26.7930   22.1631 C   0  0  0  0  0  0
  -19.1551  -28.8856   23.2876 C   0  0  0  0  0  0
  -18.9470  -30.1464   23.8888 C   0  0  0  0  0  0
  -17.6469  -30.6584   24.0562 C   0  0  0  0  0  0
  -25.9062  -34.9443   23.5095 C   0  0  0  0  0  0
  -16.5359  -29.9083   23.6335 C   0  0  0  0  0  0
  -16.7282  -28.6506   23.0345 C   0  0  0  0  0  0
  -26.4505  -31.6580   25.0722 C   0  0  0  0  0  0
  -25.3728  -31.3726   26.1441 C   0  0  0  0  0  0
  -27.0340  -30.2993   24.6196 C   0  0  0  0  0  0
  -27.6063  -32.4302   25.7488 C   0  0  0  0  0  0
  -27.5583  -37.1798   24.8465 C   0  0  0  0  0  0
  -21.4217  -29.3035   22.3656 N   0  0  0  0  0  0
  -26.4295  -37.3773   23.9410 N   0  0  0  0  0  0
  -24.6972  -31.0527   22.0974 N   0  0  0  0  0  0
  -23.4216  -28.8156   23.3014 O   0  0  0  0  0  0
  -28.2989  -26.3538   20.1426 O   0  0  0  0  0  0
  -26.5633  -34.8915   22.4667 O   0  0  0  0  0  0
  -23.5464  -32.1391   23.7295 O   0  0  0  0  0  0
  -30.0820  -17.3213   20.0484 C   0  0  0  0  0  0
  -30.8902  -17.5715   18.9464 C   0  0  0  0  0  0
  -29.7759  -19.6909   19.7983 C   0  0  0  0  0  0
  -28.8199  -23.7065   19.9951 C   0  0  0  0  0  0
  -32.0307  -16.6526   16.9946 C   0  0  0  0  0  0
  -33.0260  -15.5706   16.5969 C   0  0  0  0  0  0
  -28.6740  -22.2108   20.5807 C   0  0  0  0  0  0
  -28.0142  -24.9494   20.6186 C   0  0  0  0  0  0
  -29.4350  -18.5541   20.5011 N   0  0  0  0  0  0
  -29.8580  -15.9299   20.5682 N   0  0  0  0  0  0
  -31.6532  -16.6681   18.2810 N   0  0  0  0  0  0
  -29.4340  -21.1024   19.8787 N   0  0  0  0  0  0
  -29.5656  -23.8779   19.0237 O   0  0  0  0  0  0
  -31.5978  -17.4237   16.1364 O   0  0  0  0  0  0
  -30.8917  -19.2799   18.5096 S   0  0  0  0  0  0
  -31.4687  -12.5716   19.1873 H   0  0  0  0  0  0
  -30.3512  -11.4860   19.9674 H   0  0  0  0  0  0
  -29.7979  -11.7592   17.5154 H   0  0  0  0  0  0
  -29.6357  -13.4838   17.7387 H   0  0  0  0  0  0
  -27.8923  -11.2915   18.9100 H   0  0  0  0  0  0
  -27.3795  -12.5352   17.7964 H   0  0  0  0  0  0
  -27.6272  -14.2603   19.4647 H   0  0  0  0  0  0
  -28.7119  -12.1911   21.4351 H   0  0  0  0  0  0
  -28.4102  -13.8742   21.7918 H   0  0  0  0  0  0
  -25.2725   -9.5712   22.4757 H   0  0  0  0  0  0
  -24.0012   -7.4623   22.7451 H   0  0  0  0  0  0
  -21.0815   -8.8733   19.8941 H   0  0  0  0  0  0
  -22.3626  -10.9663   19.6159 H   0  0  0  0  0  0
  -21.2007   -7.6144   23.9727 H   0  0  0  0  0  0
  -21.1497   -6.0504   25.9089 H   0  0  0  0  0  0
  -22.0594   -2.7600   23.2829 H   0  0  0  0  0  0
  -22.4009  -11.9841   22.4837 H   0  0  0  0  0  0
  -21.1054  -13.1240   22.2685 H   0  0  0  0  0  0
  -24.6353  -15.8371   20.5164 H   0  0  0  0  0  0
  -26.2529  -15.6438   20.0754 H   0  0  0  0  0  0
  -26.7200  -32.5407   23.1077 H   0  0  0  0  0  0
  -25.0072  -33.9702   25.0404 H   0  0  0  0  0  0
  -22.7237  -31.3018   21.3994 H   0  0  0  0  0  0
  -23.3760  -35.9605   23.3309 H   0  0  0  0  0  0
  -24.3586  -36.8896   22.2056 H   0  0  0  0  0  0
  -23.7247  -37.6481   23.6663 H   0  0  0  0  0  0
  -26.1148  -31.5305   20.6117 H   0  0  0  0  0  0
  -26.8530  -30.8173   22.0123 H   0  0  0  0  0  0
  -28.1244  -28.9288   21.1981 H   0  0  0  0  0  0
  -25.9741  -25.9117   18.9854 H   0  0  0  0  0  0
  -23.9711  -27.3093   19.0010 H   0  0  0  0  0  0
  -23.7760  -30.5943   19.4074 H   0  0  0  0  0  0
  -22.7646  -29.2526   19.8507 H   0  0  0  0  0  0
  -25.1304  -36.1920   25.0827 H   0  0  0  0  0  0
  -21.0003  -28.3276   24.1401 H   0  0  0  0  0  0
  -20.5714  -26.2300   23.3617 H   0  0  0  0  0  0
  -21.6656  -26.7449   22.1199 H   0  0  0  0  0  0
  -19.6925  -25.6301   21.1250 H   0  0  0  0  0  0
  -19.6702  -27.3198   20.6766 H   0  0  0  0  0  0
  -17.4220  -26.6683   21.4027 H   0  0  0  0  0  0
  -18.0329  -26.0071   22.9026 H   0  0  0  0  0  0
  -19.7945  -30.7277   24.2252 H   0  0  0  0  0  0
  -17.5024  -31.6266   24.5164 H   0  0  0  0  0  0
  -15.5361  -30.2974   23.7663 H   0  0  0  0  0  0
  -15.8695  -28.0824   22.7051 H   0  0  0  0  0  0
  -24.5891  -30.7092   25.7772 H   0  0  0  0  0  0
  -24.8925  -32.2891   26.4877 H   0  0  0  0  0  0
  -25.8041  -30.8890   27.0215 H   0  0  0  0  0  0
  -26.2912  -29.6739   24.1226 H   0  0  0  0  0  0
  -27.4036  -29.7255   25.4710 H   0  0  0  0  0  0
  -27.8797  -30.4270   23.9428 H   0  0  0  0  0  0
  -27.2695  -33.3611   26.2056 H   0  0  0  0  0  0
  -28.3884  -32.6843   25.0322 H   0  0  0  0  0  0
  -28.0722  -31.8423   26.5407 H   0  0  0  0  0  0
  -28.2600  -38.0095   24.7514 H   0  0  0  0  0  0
  -28.1076  -36.2625   24.6285 H   0  0  0  0  0  0
  -27.2295  -37.1446   25.8865 H   0  0  0  0  0  0
  -20.9404  -29.8728   21.6838 H   0  0  0  0  0  0
  -26.0169  -38.2848   24.1401 H   0  0  0  0  0  0
  -32.6708  -15.0317   15.7189 H   0  0  0  0  0  0
  -33.1838  -14.8495   17.4000 H   0  0  0  0  0  0
  -33.9894  -16.0223   16.3545 H   0  0  0  0  0  0
  -27.6127  -21.9604   20.5943 H   0  0  0  0  0  0
  -28.9936  -22.2406   21.6227 H   0  0  0  0  0  0
  -28.2062  -24.9402   21.6913 H   0  0  0  0  0  0
  -26.9545  -24.7183   20.5148 H   0  0  0  0  0  0
  -28.9407  -15.7813   20.9601 H   0  0  0  0  0  0
  -31.9611  -15.8818   18.8553 H   0  0  0  0  0  0
  -29.9398  -21.5798   19.1335 H   0  0  0  0  0  0
  1 25  1  0  0  0
  1 30  2  0  0  0
  1 80  1  0  0  0
  2  3  1  0  0  0
  2 25  1  0  0  0
  2 86  1  0  0  0
  2 87  1  0  0  0
  3  4  1  0  0  0
  3 88  1  0  0  0
  3 89  1  0  0  0
  4  5  1  0  0  0
  4 90  1  0  0  0
  4 91  1  0  0  0
  5  6  1  0  0  0
  5 26  1  0  0  0
  5 92  1  0  0  0
  6 25  1  0  0  0
  6 93  1  0  0  0
  6 94  1  0  0  0
  7  8  2  0  0  0
  7 26  1  0  0  0
  7 29  1  0  0  0
  8  9  1  0  0  0
  8 22  1  0  0  0
  9 10  1  0  0  0
  9 27  2  0  0  0
 10 11  2  0  0  0
 10 15  1  0  0  0
 11 12  1  0  0  0
 11 95  1  0  0  0
 12 13  2  0  0  0
 12 96  1  0  0  0
 13 14  1  0  0  0
 13 31  1  0  0  0
 14 15  2  0  0  0
 14 97  1  0  0  0
 15 98  1  0  0  0
 16 17  2  0  0  0
 16 21  1  0  0  0
 16 31  1  0  0  0
 17 18  1  0  0  0
 17 99  1  0  0  0
 18 19  2  0  0  0
 18100  1  0  0  0
 19 20  1  0  0  0
 19 24  1  0  0  0
 20 21  2  0  0  0
 20101  1  0  0  0
 21 23  1  0  0  0
 22 28  1  0  0  0
 22 32  2  0  0  0
 26 27  1  0  0  0
 28102  1  0  0  0
 28103  1  0  0  0
 29104  1  0  0  0
 29105  1  0  0  0
 33 34  1  0  0  0
 33 66  1  0  0  0
 33 70  2  0  0  0
 34 36  1  0  0  0
 34 59  1  0  0  0
 34106  1  0  0  0
 35 44  2  0  0  0
 35 45  1  0  0  0
 35 68  1  0  0  0
 36 56  1  0  0  0
 36107  1  0  0  0
 37 39  1  0  0  0
 37 47  1  0  0  0
 37 66  1  0  0  0
 37108  1  0  0  0
 38 43  2  0  0  0
 38 46  1  0  0  0
 38 47  1  0  0  0
 39 64  1  0  0  0
 39 67  2  0  0  0
 40 52  1  0  0  0
 40 53  2  0  0  0
 40 58  1  0  0  0
 41109  1  0  0  0
 41110  1  0  0  0
 41111  1  0  0  0
 41 48  1  0  0  0
 42 43  1  0  0  0
 42 66  1  0  0  0
 42112  1  0  0  0
 42113  1  0  0  0
 43 44  1  0  0  0
 44114  1  0  0  0
 45 46  2  0  0  0
 45115  1  0  0  0
 46116  1  0  0  0
 47117  1  0  0  0
 47118  1  0  0  0
 48 56  1  0  0  0
 48 65  1  0  0  0
 48119  1  0  0  0
 49 50  1  0  0  0
 49 53  1  0  0  0
 49 64  1  0  0  0
 49120  1  0  0  0
 50 51  1  0  0  0
 50121  1  0  0  0
 50122  1  0  0  0
 51 52  1  0  0  0
 51123  1  0  0  0
 51124  1  0  0  0
 52125  1  0  0  0
 52126  1  0  0  0
 53 54  1  0  0  0
 54 55  2  0  0  0
 54127  1  0  0  0
 55 57  1  0  0  0
 55128  1  0  0  0
 56 69  2  0  0  0
 57 58  2  0  0  0
 57129  1  0  0  0
 58130  1  0  0  0
 59 60  1  0  0  0
 59 61  1  0  0  0
 59 62  1  0  0  0
 60131  1  0  0  0
 60132  1  0  0  0
 60133  1  0  0  0
 61134  1  0  0  0
 61135  1  0  0  0
 61136  1  0  0  0
 62137  1  0  0  0
 62138  1  0  0  0
 62139  1  0  0  0
 63 65  1  0  0  0
 63140  1  0  0  0
 63141  1  0  0  0
 63142  1  0  0  0
 64143  1  0  0  0
 65144  1  0  0  0
 68 78  1  0  0  0
 71 72  2  0  0  0
 71 79  1  0  0  0
 71 80  1  0  0  0
 72 81  1  0  0  0
 72 85  1  0  0  0
 73 79  2  0  0  0
 73 82  1  0  0  0
 73 85  1  0  0  0
 74 77  1  0  0  0
 74 78  1  0  0  0
 74 83  2  0  0  0
 75 76  1  0  0  0
 75 81  1  0  0  0
 75 84  2  0  0  0
 76145  1  0  0  0
 76146  1  0  0  0
 76147  1  0  0  0
 77 82  1  0  0  0
 77148  1  0  0  0
 77149  1  0  0  0
 78150  1  0  0  0
 78151  1  0  0  0
 80152  1  0  0  0
 81153  1  0  0  0
 82154  1  0  0  0
M  ISO  4   1 100  68 101  78 101  80 100
M  END
> <chiral flag>
0

> <version>
0

> <s_m_source_file>
/data/baiqing/PycharmProjects/Reinvent-master-3.2/result/LINK_invent/BTK/process_docking_weight1_custom_product_contain_oxygen_bond_distance_aromatic_linkinvent_7_9_3/rearranged_h_0149.sdf

> <i_m_source_file_index>
23

> <r_mmod_Potential_Energy-OPLS-2005>
22.3308486938477

> <r_mmod_Stretch_Energy-OPLS-2005>
130.160079956055

> <r_mmod_Bend_Energy-OPLS-2005>
194.00602722168

> <r_mmod_Torsional_Energy-OPLS-2005>
239.075820922852

> <r_mmod_Improper_Torsional_Energy-OPLS-2005>
5.29631042480469

> <r_mmod_Van_der_Waal_Energy-OPLS-2005>
131.439971923828

> <r_mmod_Electrostatic_Energy-OPLS-2005>
-513.834228515625

> <r_mmod_Solvation_Energy-OPLS-2005>
-253.101623535156

> <b_mmod_Minimization_Converged-OPLS-2005>
0

> <r_mmod_RMS_Derivative-OPLS-2005>
2.61750102043152

$$$$
23
                    3D
 Structure written by MMmdl.
152160  0  0  1  0            999 V2000
  -30.6578  -14.5376   20.5153 C   0  0  0  0  0  0
  -30.4238  -12.3272   19.4395 C   0  0  0  0  0  0
  -29.4985  -12.5147   18.2166 C   0  0  0  0  0  0
  -28.0181  -12.3758   18.6213 C   0  0  0  0  0  0
  -27.6606  -13.2108   19.8798 C   0  0  2  0  0  0
  -28.7054  -13.0077   21.0042 C   0  0  0  0  0  0
  -25.2559  -13.8162   20.5675 C   0  0  0  0  0  0
  -24.1816  -13.0429   20.9169 C   0  0  0  0  0  0
  -24.6375  -11.6898   20.8729 C   0  0  0  0  0  0
  -23.9043  -10.4281   21.0395 C   0  0  0  0  0  0
  -24.3600   -9.4204   21.9171 C   0  0  0  0  0  0
  -23.6294   -8.2230   22.0738 C   0  0  0  0  0  0
  -22.4278   -8.0261   21.3525 C   0  0  0  0  0  0
  -21.9901   -9.0231   20.4631 C   0  0  0  0  0  0
  -22.7213  -10.2122   20.3042 C   0  0  0  0  0  0
  -21.6858   -6.0722   22.5276 C   0  0  0  0  0  0
  -21.4007   -6.5633   23.8201 C   0  0  0  0  0  0
  -21.3660   -5.6791   24.9171 C   0  0  0  0  0  0
  -21.6059   -4.3053   24.7229 C   0  0  0  0  0  0
  -21.8814   -3.8134   23.4349 C   0  0  0  0  0  0
  -21.9190   -4.6947   22.3401 C   0  0  0  0  0  0
  -22.7835  -13.5219   21.1846 C   0  0  0  0  0  0
  -22.1656   -4.2116   21.0986 F   0  0  0  0  0  0
  -21.5639   -3.4543   25.7747 F   0  0  0  0  0  0
  -30.0365  -13.3226   20.4561 N   0  0  0  0  0  0
  -26.3015  -12.9344   20.3392 N   0  0  0  0  0  0
  -25.9317  -11.6497   20.5777 N   0  0  0  0  0  0
  -22.0484  -12.8222   22.0421 N   0  0  0  0  0  0
  -25.4285  -15.1873   20.4059 N   0  0  0  0  0  0
  -31.7704  -14.7410   20.0259 O   0  0  0  0  0  0
  -21.6640   -6.8864   21.4235 O   0  0  0  0  0  0
  -22.3520  -14.5534   20.6704 O   0  0  0  0  0  0
  -24.6213  -31.8631   23.2081 C   0  0  0  0  0  0
  -25.9086  -32.4798   23.8386 C   0  0  1  0  0  0
  -27.2282  -27.3656   20.0963 C   0  0  0  0  0  0
  -25.5933  -33.8600   24.2317 N   0  0  0  0  0  0
  -23.4124  -30.4895   21.5483 C   0  0  2  0  0  0
  -24.8585  -28.9532   20.1080 C   0  0  0  0  0  0
  -22.7448  -29.4644   22.4940 C   0  0  0  0  0  0
  -18.0284  -28.1384   22.8479 C   0  0  0  0  0  0
  -24.1492  -36.7305   23.2634 C   0  0  0  0  0  0
  -25.9501  -30.8053   21.3762 C   0  0  0  0  0  0
  -26.0217  -29.4372   20.7171 C   0  0  0  0  0  0
  -27.2045  -28.6498   20.7099 C   0  0  0  0  0  0
  -26.0454  -26.9320   19.4500 C   0  0  0  0  0  0
  -24.8702  -27.7059   19.4661 C   0  0  0  0  0  0
  -23.6247  -29.8280   20.1608 C   0  0  0  0  0  0
  -25.4113  -36.3088   24.0327 C   0  0  1  0  0  0
  -20.5881  -28.3685   23.1288 C   0  0  2  0  0  0
  -20.6787  -26.9413   22.5413 C   0  0  0  0  0  0
  -19.5769  -26.6384   21.5213 C   0  0  0  0  0  0
  -18.1940  -26.7932   22.1609 C   0  0  0  0  0  0
  -19.1532  -28.8849   23.2890 C   0  0  0  0  0  0
  -18.9456  -30.1456   23.8896 C   0  0  0  0  0  0
  -17.6455  -30.6587   24.0558 C   0  0  0  0  0  0
  -25.9043  -34.9455   23.5111 C   0  0  0  0  0  0
  -16.5347  -29.9081   23.6331 C   0  0  0  0  0  0
  -16.7270  -28.6506   23.0340 C   0  0  0  0  0  0
  -26.4499  -31.6590   25.0730 C   0  0  0  0  0  0
  -25.3759  -31.3703   26.1475 C   0  0  0  0  0  0
  -27.0341  -30.3020   24.6160 C   0  0  0  0  0  0
  -27.6080  -32.4300   25.7492 C   0  0  0  0  0  0
  -27.5580  -37.1801   24.8456 C   0  0  0  0  0  0
  -21.4168  -29.3042   22.3679 N   0  0  0  0  0  0
  -26.4292  -37.3781   23.9404 N   0  0  0  0  0  0
  -24.6795  -31.0687   22.1013 N   0  0  0  0  0  0
  -23.4192  -28.8173   23.2994 O   0  0  0  0  0  0
  -28.3841  -26.5844   20.1559 O   0  0  0  0  0  0
  -26.5595  -34.8909   22.4665 O   0  0  0  0  0  0
  -23.5386  -32.1410   23.7439 O   0  0  0  0  0  0
  -30.1535  -18.1059   20.3205 C   0  0  0  0  0  0
  -31.4771  -18.4584   20.1538 C   0  0  0  0  0  0
  -29.9937  -20.4145   20.5153 C   0  0  0  0  0  0
  -29.6843  -22.8801   20.1825 C   0  0  0  0  0  0
  -29.5212  -16.7300   20.0894 C   0  0  0  0  0  0
  -29.1132  -24.2066   20.7770 C   0  0  0  0  0  0
  -28.3667  -25.1660   19.7851 C   0  0  0  0  0  0
  -29.3314  -19.2382   20.5657 N   0  0  0  0  0  0
  -32.5600  -17.6319   19.8758 N   0  0  0  0  0  0
  -29.3479  -21.6832   20.7325 N   0  0  0  0  0  0
  -29.8803  -15.5622   20.9340 N   0  0  0  0  0  0
  -30.4431  -22.9559   19.2125 O   0  0  0  0  0  0
  -31.7233  -20.1906   20.2498 S   0  0  0  0  0  0
  -31.4713  -12.4188   19.1452 H   0  0  0  0  0  0
  -30.3176  -11.3190   19.8436 H   0  0  0  0  0  0
  -29.7463  -11.7881   17.4405 H   0  0  0  0  0  0
  -29.6624  -13.5001   17.7753 H   0  0  0  0  0  0
  -27.8218  -11.3203   18.8115 H   0  0  0  0  0  0
  -27.3688  -12.6592   17.7906 H   0  0  0  0  0  0
  -27.6990  -14.2570   19.5770 H   0  0  0  0  0  0
  -28.6858  -11.9744   21.3523 H   0  0  0  0  0  0
  -28.4670  -13.6166   21.8787 H   0  0  0  0  0  0
  -25.2740   -9.5705   22.4753 H   0  0  0  0  0  0
  -24.0010   -7.4633   22.7465 H   0  0  0  0  0  0
  -21.0818   -8.8745   19.8952 H   0  0  0  0  0  0
  -22.3649  -10.9660   19.6157 H   0  0  0  0  0  0
  -21.1988   -7.6140   23.9696 H   0  0  0  0  0  0
  -21.1500   -6.0524   25.9078 H   0  0  0  0  0  0
  -22.0596   -2.7594   23.2861 H   0  0  0  0  0  0
  -22.4105  -11.9897   22.4823 H   0  0  0  0  0  0
  -21.1092  -13.1233   22.2612 H   0  0  0  0  0  0
  -24.6615  -15.8437   20.5047 H   0  0  0  0  0  0
  -26.2766  -15.6203   20.0641 H   0  0  0  0  0  0
  -26.7147  -32.5487   23.1131 H   0  0  0  0  0  0
  -25.0110  -33.9767   25.0479 H   0  0  0  0  0  0
  -22.7041  -31.3087   21.4093 H   0  0  0  0  0  0
  -23.3749  -35.9645   23.3290 H   0  0  0  0  0  0
  -24.3593  -36.8940   22.2055 H   0  0  0  0  0  0
  -23.7254  -37.6506   23.6667 H   0  0  0  0  0  0
  -26.0780  -31.5726   20.6113 H   0  0  0  0  0  0
  -26.8332  -30.8520   22.0020 H   0  0  0  0  0  0
  -28.0979  -29.0154   21.1965 H   0  0  0  0  0  0
  -25.9905  -26.0011   18.9082 H   0  0  0  0  0  0
  -23.9828  -27.3422   18.9657 H   0  0  0  0  0  0
  -23.7361  -30.6063   19.4043 H   0  0  0  0  0  0
  -22.7477  -29.2524   19.8612 H   0  0  0  0  0  0
  -25.1289  -36.1947   25.0821 H   0  0  0  0  0  0
  -20.9979  -28.3275   24.1411 H   0  0  0  0  0  0
  -20.5724  -26.2283   23.3605 H   0  0  0  0  0  0
  -21.6658  -26.7479   22.1183 H   0  0  0  0  0  0
  -19.6937  -25.6298   21.1241 H   0  0  0  0  0  0
  -19.6718  -27.3193   20.6747 H   0  0  0  0  0  0
  -17.4221  -26.6678   21.4002 H   0  0  0  0  0  0
  -18.0337  -26.0078   22.9006 H   0  0  0  0  0  0
  -19.7930  -30.7274   24.2262 H   0  0  0  0  0  0
  -17.5009  -31.6265   24.5154 H   0  0  0  0  0  0
  -15.5345  -30.2973   23.7670 H   0  0  0  0  0  0
  -15.8676  -28.0833   22.7037 H   0  0  0  0  0  0
  -24.5915  -30.7081   25.7794 H   0  0  0  0  0  0
  -24.8974  -32.2862   26.4952 H   0  0  0  0  0  0
  -25.8103  -30.8826   27.0213 H   0  0  0  0  0  0
  -26.2902  -29.6755   24.1226 H   0  0  0  0  0  0
  -27.4100  -29.7289   25.4650 H   0  0  0  0  0  0
  -27.8748  -30.4312   23.9337 H   0  0  0  0  0  0
  -27.2718  -33.3590   26.2107 H   0  0  0  0  0  0
  -28.3879  -32.6873   25.0310 H   0  0  0  0  0  0
  -28.0769  -31.8394   26.5377 H   0  0  0  0  0  0
  -28.2580  -38.0110   24.7509 H   0  0  0  0  0  0
  -28.1082  -36.2641   24.6261 H   0  0  0  0  0  0
  -27.2296  -37.1431   25.8854 H   0  0  0  0  0  0
  -20.9336  -29.8726   21.6864 H   0  0  0  0  0  0
  -26.0167  -38.2852   24.1417 H   0  0  0  0  0  0
  -29.6730  -16.4542   19.0434 H   0  0  0  0  0  0
  -28.4394  -16.8257   20.1750 H   0  0  0  0  0  0
  -29.9755  -24.7395   21.1784 H   0  0  0  0  0  0
  -28.4771  -23.9899   21.6362 H   0  0  0  0  0  0
  -27.3644  -24.7511   19.7152 H   0  0  0  0  0  0
  -28.7981  -25.0847   18.7860 H   0  0  0  0  0  0
  -32.4650  -16.6136   19.8428 H   0  0  0  0  0  0
  -33.4982  -17.9542   19.6574 H   0  0  0  0  0  0
  -28.5982  -21.6808   21.4076 H   0  0  0  0  0  0
  -29.1224  -15.2647   21.5281 H   0  0  0  0  0  0
  1 25  1  0  0  0
  1 30  2  0  0  0
  1 81  1  0  0  0
  2  3  1  0  0  0
  2 25  1  0  0  0
  2 84  1  0  0  0
  2 85  1  0  0  0
  3  4  1  0  0  0
  3 86  1  0  0  0
  3 87  1  0  0  0
  4  5  1  0  0  0
  4 88  1  0  0  0
  4 89  1  0  0  0
  5  6  1  0  0  0
  5 26  1  0  0  0
  5 90  1  0  0  0
  6 25  1  0  0  0
  6 91  1  0  0  0
  6 92  1  0  0  0
  7  8  2  0  0  0
  7 26  1  0  0  0
  7 29  1  0  0  0
  8  9  1  0  0  0
  8 22  1  0  0  0
  9 10  1  0  0  0
  9 27  2  0  0  0
 10 11  2  0  0  0
 10 15  1  0  0  0
 11 12  1  0  0  0
 11 93  1  0  0  0
 12 13  2  0  0  0
 12 94  1  0  0  0
 13 14  1  0  0  0
 13 31  1  0  0  0
 14 15  2  0  0  0
 14 95  1  0  0  0
 15 96  1  0  0  0
 16 17  2  0  0  0
 16 21  1  0  0  0
 16 31  1  0  0  0
 17 18  1  0  0  0
 17 97  1  0  0  0
 18 19  2  0  0  0
 18 98  1  0  0  0
 19 20  1  0  0  0
 19 24  1  0  0  0
 20 21  2  0  0  0
 20 99  1  0  0  0
 21 23  1  0  0  0
 22 28  1  0  0  0
 22 32  2  0  0  0
 26 27  1  0  0  0
 28100  1  0  0  0
 28101  1  0  0  0
 29102  1  0  0  0
 29103  1  0  0  0
 33 34  1  0  0  0
 33 66  1  0  0  0
 33 70  2  0  0  0
 34 36  1  0  0  0
 34 59  1  0  0  0
 34104  1  0  0  0
 35 44  2  0  0  0
 35 45  1  0  0  0
 35 68  1  0  0  0
 36 56  1  0  0  0
 36105  1  0  0  0
 37 39  1  0  0  0
 37 47  1  0  0  0
 37 66  1  0  0  0
 37106  1  0  0  0
 38 43  2  0  0  0
 38 46  1  0  0  0
 38 47  1  0  0  0
 39 64  1  0  0  0
 39 67  2  0  0  0
 40 52  1  0  0  0
 40 53  2  0  0  0
 40 58  1  0  0  0
 41107  1  0  0  0
 41108  1  0  0  0
 41109  1  0  0  0
 41 48  1  0  0  0
 42 43  1  0  0  0
 42 66  1  0  0  0
 42110  1  0  0  0
 42111  1  0  0  0
 43 44  1  0  0  0
 44112  1  0  0  0
 45 46  2  0  0  0
 45113  1  0  0  0
 46114  1  0  0  0
 47115  1  0  0  0
 47116  1  0  0  0
 48 56  1  0  0  0
 48 65  1  0  0  0
 48117  1  0  0  0
 49 50  1  0  0  0
 49 53  1  0  0  0
 49 64  1  0  0  0
 49118  1  0  0  0
 50 51  1  0  0  0
 50119  1  0  0  0
 50120  1  0  0  0
 51 52  1  0  0  0
 51121  1  0  0  0
 51122  1  0  0  0
 52123  1  0  0  0
 52124  1  0  0  0
 53 54  1  0  0  0
 54 55  2  0  0  0
 54125  1  0  0  0
 55 57  1  0  0  0
 55126  1  0  0  0
 56 69  2  0  0  0
 57 58  2  0  0  0
 57127  1  0  0  0
 58128  1  0  0  0
 59 60  1  0  0  0
 59 61  1  0  0  0
 59 62  1  0  0  0
 60129  1  0  0  0
 60130  1  0  0  0
 60131  1  0  0  0
 61132  1  0  0  0
 61133  1  0  0  0
 61134  1  0  0  0
 62135  1  0  0  0
 62136  1  0  0  0
 62137  1  0  0  0
 63 65  1  0  0  0
 63138  1  0  0  0
 63139  1  0  0  0
 63140  1  0  0  0
 64141  1  0  0  0
 65142  1  0  0  0
 68 77  1  0  0  0
 71 72  2  0  0  0
 71 75  1  0  0  0
 71 78  1  0  0  0
 72 79  1  0  0  0
 72 83  1  0  0  0
 73 78  2  0  0  0
 73 80  1  0  0  0
 73 83  1  0  0  0
 74 76  1  0  0  0
 74 80  1  0  0  0
 74 82  2  0  0  0
 75 81  1  0  0  0
 75143  1  0  0  0
 75144  1  0  0  0
 76 77  1  0  0  0
 76145  1  0  0  0
 76146  1  0  0  0
 77147  1  0  0  0
 77148  1  0  0  0
 79149  1  0  0  0
 79150  1  0  0  0
 80151  1  0  0  0
 81152  1  0  0  0
M  ISO  4   1 100  68 101  77 101  81 100
M  END
> <chiral flag>
0

> <version>
0

> <s_m_source_file>
/data/baiqing/PycharmProjects/Reinvent-master-3.2/result/LINK_invent/BTK/process_docking_weight1_custom_product_contain_oxygen_bond_distance_aromatic_linkinvent_7_9_3/rearranged_h_0149.sdf

> <i_m_source_file_index>
24

> <r_mmod_Potential_Energy-OPLS-2005>
-116.432563781738

> <r_mmod_Stretch_Energy-OPLS-2005>
52.1353340148926

> <r_mmod_Bend_Energy-OPLS-2005>
126.911613464355

> <r_mmod_Torsional_Energy-OPLS-2005>
244.791351318359

> <r_mmod_Improper_Torsional_Energy-OPLS-2005>
9.61586093902588

> <r_mmod_Van_der_Waal_Energy-OPLS-2005>
127.142395019531

> <r_mmod_Electrostatic_Energy-OPLS-2005>
-452.263885498047

> <r_mmod_Solvation_Energy-OPLS-2005>
-250.712509155273

> <b_mmod_Minimization_Converged-OPLS-2005>
0

> <r_mmod_RMS_Derivative-OPLS-2005>
2.17386794090271

$$$$
24
                    3D
 Structure written by MMmdl.
159168  0  0  1  0            999 V2000
  -30.6646  -14.5202   20.5668 C   0  0  0  0  0  0
  -30.4358  -12.3292   19.4388 C   0  0  0  0  0  0
  -29.5058  -12.5058   18.2184 C   0  0  0  0  0  0
  -28.0254  -12.3665   18.6251 C   0  0  0  0  0  0
  -27.6646  -13.2065   19.8793 C   0  0  2  0  0  0
  -28.7040  -12.9891   21.0023 C   0  0  0  0  0  0
  -25.2601  -13.8159   20.5679 C   0  0  0  0  0  0
  -24.1851  -13.0437   20.9164 C   0  0  0  0  0  0
  -24.6400  -11.6903   20.8719 C   0  0  0  0  0  0
  -23.9063  -10.4291   21.0391 C   0  0  0  0  0  0
  -24.3608   -9.4213   21.9182 C   0  0  0  0  0  0
  -23.6280   -8.2247   22.0758 C   0  0  0  0  0  0
  -22.4269   -8.0278   21.3537 C   0  0  0  0  0  0
  -21.9906   -9.0251   20.4639 C   0  0  0  0  0  0
  -22.7232  -10.2132   20.3045 C   0  0  0  0  0  0
  -21.6847   -6.0729   22.5270 C   0  0  0  0  0  0
  -21.4011   -6.5633   23.8203 C   0  0  0  0  0  0
  -21.3662   -5.6788   24.9164 C   0  0  0  0  0  0
  -21.6044   -4.3046   24.7218 C   0  0  0  0  0  0
  -21.8824   -3.8141   23.4337 C   0  0  0  0  0  0
  -21.9195   -4.6956   22.3394 C   0  0  0  0  0  0
  -22.7871  -13.5241   21.1828 C   0  0  0  0  0  0
  -22.1662   -4.2146   21.0970 F   0  0  0  0  0  0
  -21.5633   -3.4531   25.7735 F   0  0  0  0  0  0
  -30.0345  -13.3147   20.4581 N   0  0  0  0  0  0
  -26.3041  -12.9328   20.3370 N   0  0  0  0  0  0
  -25.9332  -11.6490   20.5762 N   0  0  0  0  0  0
  -22.0505  -12.8226   22.0372 N   0  0  0  0  0  0
  -25.4334  -15.1881   20.4107 N   0  0  0  0  0  0
  -31.7842  -14.7247   20.0852 O   0  0  0  0  0  0
  -21.6629   -6.8874   21.4238 O   0  0  0  0  0  0
  -22.3564  -14.5554   20.6689 O   0  0  0  0  0  0
  -24.6184  -31.8643   23.2101 C   0  0  0  0  0  0
  -25.9067  -32.4794   23.8408 C   0  0  1  0  0  0
  -27.2317  -27.3903   20.1175 C   0  0  0  0  0  0
  -25.5914  -33.8598   24.2329 N   0  0  0  0  0  0
  -23.4100  -30.4868   21.5493 C   0  0  2  0  0  0
  -24.8596  -28.9464   20.1219 C   0  0  0  0  0  0
  -22.7427  -29.4643   22.4972 C   0  0  0  0  0  0
  -18.0274  -28.1384   22.8490 C   0  0  0  0  0  0
  -24.1480  -36.7291   23.2649 C   0  0  0  0  0  0
  -25.9425  -30.8147   21.3738 C   0  0  0  0  0  0
  -26.0201  -29.4416   20.7319 C   0  0  0  0  0  0
  -27.2098  -28.6683   20.7341 C   0  0  0  0  0  0
  -26.0668  -26.9404   19.4668 C   0  0  0  0  0  0
  -24.8785  -27.6936   19.4869 C   0  0  0  0  0  0
  -23.6251  -29.8207   20.1651 C   0  0  0  0  0  0
  -25.4105  -36.3092   24.0345 C   0  0  1  0  0  0
  -20.5866  -28.3684   23.1289 C   0  0  2  0  0  0
  -20.6754  -26.9415   22.5402 C   0  0  0  0  0  0
  -19.5732  -26.6396   21.5204 C   0  0  0  0  0  0
  -18.1911  -26.7932   22.1617 C   0  0  0  0  0  0
  -19.1527  -28.8850   23.2882 C   0  0  0  0  0  0
  -18.9462  -30.1452   23.8899 C   0  0  0  0  0  0
  -17.6465  -30.6582   24.0575 C   0  0  0  0  0  0
  -25.9037  -34.9456   23.5130 C   0  0  0  0  0  0
  -16.5358  -29.9085   23.6340 C   0  0  0  0  0  0
  -16.7270  -28.6509   23.0355 C   0  0  0  0  0  0
  -26.4504  -31.6574   25.0735 C   0  0  0  0  0  0
  -25.3772  -31.3628   26.1466 C   0  0  0  0  0  0
  -27.0372  -30.3030   24.6114 C   0  0  0  0  0  0
  -27.6066  -32.4305   25.7498 C   0  0  0  0  0  0
  -27.5569  -37.1800   24.8482 C   0  0  0  0  0  0
  -21.4152  -29.3040   22.3695 N   0  0  0  0  0  0
  -26.4288  -37.3778   23.9420 N   0  0  0  0  0  0
  -24.6750  -31.0709   22.1026 N   0  0  0  0  0  0
  -23.4166  -28.8189   23.3041 O   0  0  0  0  0  0
  -28.3702  -26.6067   20.0513 O   0  0  0  0  0  0
  -26.5602  -34.8904   22.4693 O   0  0  0  0  0  0
  -23.5368  -32.1428   23.7464 O   0  0  0  0  0  0
  -30.5846  -19.0695   20.3489 C   0  0  0  0  0  0
  -30.7694  -17.6528   20.1769 C   0  0  0  0  0  0
  -29.7181  -19.4008   21.3625 C   0  0  0  0  0  0
  -30.0320  -16.8671   21.0391 C   0  0  0  0  0  0
  -28.6992  -23.1344   21.8847 C   0  0  0  0  0  0
  -29.3988  -20.7037   21.9691 C   0  0  0  0  0  0
  -28.6346  -23.4891   19.5446 C   0  0  0  0  0  0
  -28.8846  -21.9882   19.8320 C   0  0  0  0  0  0
  -28.1061  -24.1223   20.8494 C   0  0  1  0  0  0
  -26.5636  -24.0113   20.9639 C   0  0  0  0  0  0
  -28.5813  -25.6138   21.0903 C   0  0  0  0  0  0
  -29.0560  -21.8556   21.2848 N   0  0  0  0  0  0
  -29.9389  -15.5017   21.1577 N   0  0  0  0  0  0
  -29.4662  -20.7077   23.3149 N   0  3  0  0  0  0
  -28.7863  -23.3735   23.0973 O   0  0  0  0  0  0
  -29.0687  -17.9210   22.0657 S   0  0  0  0  0  0
  -31.4793  -12.4441   19.1390 H   0  0  0  0  0  0
  -30.3550  -11.3180   19.8407 H   0  0  0  0  0  0
  -29.7501  -11.7717   17.4499 H   0  0  0  0  0  0
  -29.6711  -13.4862   17.7682 H   0  0  0  0  0  0
  -27.8352  -11.3105   18.8223 H   0  0  0  0  0  0
  -27.3793  -12.6402   17.7899 H   0  0  0  0  0  0
  -27.7087  -14.2548   19.5827 H   0  0  0  0  0  0
  -28.6868  -11.9503   21.3359 H   0  0  0  0  0  0
  -28.4561  -13.5779   21.8865 H   0  0  0  0  0  0
  -25.2751   -9.5689   22.4760 H   0  0  0  0  0  0
  -23.9983   -7.4644   22.7490 H   0  0  0  0  0  0
  -21.0839   -8.8771   19.8939 H   0  0  0  0  0  0
  -22.3697  -10.9670   19.6150 H   0  0  0  0  0  0
  -21.1997   -7.6139   23.9706 H   0  0  0  0  0  0
  -21.1479   -6.0512   25.9068 H   0  0  0  0  0  0
  -22.0604   -2.7603   23.2837 H   0  0  0  0  0  0
  -22.4119  -11.9880   22.4746 H   0  0  0  0  0  0
  -21.1123  -13.1259   22.2576 H   0  0  0  0  0  0
  -24.6688  -15.8455   20.5192 H   0  0  0  0  0  0
  -26.2896  -15.6256   20.0941 H   0  0  0  0  0  0
  -26.7148  -32.5507   23.1181 H   0  0  0  0  0  0
  -25.0094  -33.9771   25.0495 H   0  0  0  0  0  0
  -22.7025  -31.3056   21.4048 H   0  0  0  0  0  0
  -23.3750  -35.9614   23.3312 H   0  0  0  0  0  0
  -24.3584  -36.8914   22.2067 H   0  0  0  0  0  0
  -23.7214  -37.6483   23.6675 H   0  0  0  0  0  0
  -26.0573  -31.5739   20.5996 H   0  0  0  0  0  0
  -26.8291  -30.8747   21.9930 H   0  0  0  0  0  0
  -28.1059  -29.0506   21.2022 H   0  0  0  0  0  0
  -26.0827  -26.0112   18.9200 H   0  0  0  0  0  0
  -23.9939  -27.3138   18.9945 H   0  0  0  0  0  0
  -23.7449  -30.5968   19.4090 H   0  0  0  0  0  0
  -22.7482  -29.2456   19.8614 H   0  0  0  0  0  0
  -25.1275  -36.1965   25.0838 H   0  0  0  0  0  0
  -20.9945  -28.3258   24.1413 H   0  0  0  0  0  0
  -20.5650  -26.2302   23.3600 H   0  0  0  0  0  0
  -21.6621  -26.7425   22.1203 H   0  0  0  0  0  0
  -19.6891  -25.6305   21.1234 H   0  0  0  0  0  0
  -19.6670  -27.3210   20.6737 H   0  0  0  0  0  0
  -17.4172  -26.6700   21.4021 H   0  0  0  0  0  0
  -18.0306  -26.0054   22.8998 H   0  0  0  0  0  0
  -19.7938  -30.7265   24.2267 H   0  0  0  0  0  0
  -17.5024  -31.6257   24.5181 H   0  0  0  0  0  0
  -15.5364  -30.2994   23.7651 H   0  0  0  0  0  0
  -15.8670  -28.0834   22.7058 H   0  0  0  0  0  0
  -24.6015  -30.6898   25.7790 H   0  0  0  0  0  0
  -24.8884  -32.2747   26.4897 H   0  0  0  0  0  0
  -25.8154  -30.8830   27.0226 H   0  0  0  0  0  0
  -26.2919  -29.6731   24.1241 H   0  0  0  0  0  0
  -27.4244  -29.7318   25.4560 H   0  0  0  0  0  0
  -27.8702  -30.4372   23.9210 H   0  0  0  0  0  0
  -27.2698  -33.3637   26.2023 H   0  0  0  0  0  0
  -28.3899  -32.6798   25.0327 H   0  0  0  0  0  0
  -28.0696  -31.8450   26.5450 H   0  0  0  0  0  0
  -28.2581  -38.0096   24.7527 H   0  0  0  0  0  0
  -28.1062  -36.2626   24.6317 H   0  0  0  0  0  0
  -27.2285  -37.1461   25.8883 H   0  0  0  0  0  0
  -20.9336  -29.8782   21.6922 H   0  0  0  0  0  0
  -26.0171  -38.2853   24.1424 H   0  0  0  0  0  0
  -31.1391  -19.7827   19.7566 H   0  0  0  0  0  0
  -31.4482  -17.2713   19.4270 H   0  0  0  0  0  0
  -27.9303  -23.6176   18.7217 H   0  0  0  0  0  0
  -29.5659  -23.9655   19.2340 H   0  0  0  0  0  0
  -29.7612  -21.6304   19.2950 H   0  0  0  0  0  0
  -28.0324  -21.3822   19.5245 H   0  0  0  0  0  0
  -26.2330  -23.0097   21.2445 H   0  0  0  0  0  0
  -26.0634  -24.2264   20.0243 H   0  0  0  0  0  0
  -26.1683  -24.6943   21.7179 H   0  0  0  0  0  0
  -29.6596  -25.6026   21.2585 H   0  0  0  0  0  0
  -28.1633  -25.9860   22.0276 H   0  0  0  0  0  0
  -29.1249  -15.1652   21.6498 H   0  0  0  0  0  0
  -29.7332  -19.8786   23.8238 H   0  0  0  0  0  0
  -29.2878  -21.5627   23.8323 H   0  0  0  0  0  0
  1 25  1  0  0  0
  1 30  2  0  0  0
  1 83  1  0  0  0
  2  3  1  0  0  0
  2 25  1  0  0  0
  2 87  1  0  0  0
  2 88  1  0  0  0
  3  4  1  0  0  0
  3 89  1  0  0  0
  3 90  1  0  0  0
  4  5  1  0  0  0
  4 91  1  0  0  0
  4 92  1  0  0  0
  5  6  1  0  0  0
  5 26  1  0  0  0
  5 93  1  0  0  0
  6 25  1  0  0  0
  6 94  1  0  0  0
  6 95  1  0  0  0
  7  8  2  0  0  0
  7 26  1  0  0  0
  7 29  1  0  0  0
  8  9  1  0  0  0
  8 22  1  0  0  0
  9 10  1  0  0  0
  9 27  2  0  0  0
 10 11  2  0  0  0
 10 15  1  0  0  0
 11 12  1  0  0  0
 11 96  1  0  0  0
 12 13  2  0  0  0
 12 97  1  0  0  0
 13 14  1  0  0  0
 13 31  1  0  0  0
 14 15  2  0  0  0
 14 98  1  0  0  0
 15 99  1  0  0  0
 16 17  2  0  0  0
 16 21  1  0  0  0
 16 31  1  0  0  0
 17 18  1  0  0  0
 17100  1  0  0  0
 18 19  2  0  0  0
 18101  1  0  0  0
 19 20  1  0  0  0
 19 24  1  0  0  0
 20 21  2  0  0  0
 20102  1  0  0  0
 21 23  1  0  0  0
 22 28  1  0  0  0
 22 32  2  0  0  0
 26 27  1  0  0  0
 28103  1  0  0  0
 28104  1  0  0  0
 29105  1  0  0  0
 29106  1  0  0  0
 33 34  1  0  0  0
 33 66  1  0  0  0
 33 70  2  0  0  0
 34 36  1  0  0  0
 34 59  1  0  0  0
 34107  1  0  0  0
 35 44  2  0  0  0
 35 45  1  0  0  0
 35 68  1  0  0  0
 36 56  1  0  0  0
 36108  1  0  0  0
 37 39  1  0  0  0
 37 47  1  0  0  0
 37 66  1  0  0  0
 37109  1  0  0  0
 38 43  2  0  0  0
 38 46  1  0  0  0
 38 47  1  0  0  0
 39 64  1  0  0  0
 39 67  2  0  0  0
 40 52  1  0  0  0
 40 53  2  0  0  0
 40 58  1  0  0  0
 41110  1  0  0  0
 41111  1  0  0  0
 41112  1  0  0  0
 41 48  1  0  0  0
 42 43  1  0  0  0
 42 66  1  0  0  0
 42113  1  0  0  0
 42114  1  0  0  0
 43 44  1  0  0  0
 44115  1  0  0  0
 45 46  2  0  0  0
 45116  1  0  0  0
 46117  1  0  0  0
 47118  1  0  0  0
 47119  1  0  0  0
 48 56  1  0  0  0
 48 65  1  0  0  0
 48120  1  0  0  0
 49 50  1  0  0  0
 49 53  1  0  0  0
 49 64  1  0  0  0
 49121  1  0  0  0
 50 51  1  0  0  0
 50122  1  0  0  0
 50123  1  0  0  0
 51 52  1  0  0  0
 51124  1  0  0  0
 51125  1  0  0  0
 52126  1  0  0  0
 52127  1  0  0  0
 53 54  1  0  0  0
 54 55  2  0  0  0
 54128  1  0  0  0
 55 57  1  0  0  0
 55129  1  0  0  0
 56 69  2  0  0  0
 57 58  2  0  0  0
 57130  1  0  0  0
 58131  1  0  0  0
 59 60  1  0  0  0
 59 61  1  0  0  0
 59 62  1  0  0  0
 60132  1  0  0  0
 60133  1  0  0  0
 60134  1  0  0  0
 61135  1  0  0  0
 61136  1  0  0  0
 61137  1  0  0  0
 62138  1  0  0  0
 62139  1  0  0  0
 62140  1  0  0  0
 63 65  1  0  0  0
 63141  1  0  0  0
 63142  1  0  0  0
 63143  1  0  0  0
 64144  1  0  0  0
 65145  1  0  0  0
 68 81  1  0  0  0
 71 72  1  0  0  0
 71 73  2  0  0  0
 71146  1  0  0  0
 72 74  2  0  0  0
 72147  1  0  0  0
 73 76  1  0  0  0
 73 86  1  0  0  0
 74 83  1  0  0  0
 74 86  1  0  0  0
 75 79  1  0  0  0
 75 82  1  0  0  0
 75 85  2  0  0  0
 76 82  1  0  0  0
 76 84  2  0  0  0
 77 78  1  0  0  0
 77 79  1  0  0  0
 77148  1  0  0  0
 77149  1  0  0  0
 78 82  1  0  0  0
 78150  1  0  0  0
 78151  1  0  0  0
 79 80  1  0  0  0
 79 81  1  0  0  0
 80152  1  0  0  0
 80153  1  0  0  0
 80154  1  0  0  0
 81155  1  0  0  0
 81156  1  0  0  0
 83157  1  0  0  0
 84158  1  0  0  0
 84159  1  0  0  0
M  CHG  1  84   1
M  ISO  4   1 100  68 101  81 101  83 100
M  END
> <chiral flag>
0

> <version>
0

> <s_m_source_file>
/data/baiqing/PycharmProjects/Reinvent-master-3.2/result/LINK_invent/BTK/process_docking_weight1_custom_product_contain_oxygen_bond_distance_aromatic_linkinvent_7_9_3/rearranged_h_0149.sdf

> <i_m_source_file_index>
25

> <r_mmod_Potential_Energy-OPLS-2005>
-35.3641090393066

> <r_mmod_Stretch_Energy-OPLS-2005>
50.898738861084

> <r_mmod_Bend_Energy-OPLS-2005>
152.31266784668

> <r_mmod_Torsional_Energy-OPLS-2005>
285.306274414062

> <r_mmod_Improper_Torsional_Energy-OPLS-2005>
3.89557814598083

> <r_mmod_Van_der_Waal_Energy-OPLS-2005>
131.826675415039

> <r_mmod_Electrostatic_Energy-OPLS-2005>
-234.429840087891

> <r_mmod_Solvation_Energy-OPLS-2005>
-443.693145751953

> <b_mmod_Minimization_Converged-OPLS-2005>
0

> <r_mmod_RMS_Derivative-OPLS-2005>
1.49765062332153

$$$$
25
                    3D
 Structure written by MMmdl.
157166  0  0  1  0            999 V2000
  -30.6666  -14.5971   20.4842 C   0  0  0  0  0  0
  -30.4256  -12.3606   19.4589 C   0  0  0  0  0  0
  -29.5063  -12.4889   18.2262 C   0  0  0  0  0  0
  -28.0270  -12.3451   18.6341 C   0  0  0  0  0  0
  -27.6530  -13.2186   19.8615 C   0  0  2  0  0  0
  -28.6959  -13.0877   20.9944 C   0  0  0  0  0  0
  -25.2571  -13.8181   20.5688 C   0  0  0  0  0  0
  -24.1835  -13.0449   20.9193 C   0  0  0  0  0  0
  -24.6391  -11.6918   20.8724 C   0  0  0  0  0  0
  -23.9057  -10.4299   21.0400 C   0  0  0  0  0  0
  -24.3613   -9.4221   21.9181 C   0  0  0  0  0  0
  -23.6294   -8.2252   22.0760 C   0  0  0  0  0  0
  -22.4275   -8.0281   21.3544 C   0  0  0  0  0  0
  -21.9899   -9.0258   20.4650 C   0  0  0  0  0  0
  -22.7222  -10.2139   20.3057 C   0  0  0  0  0  0
  -21.6861   -6.0735   22.5272 C   0  0  0  0  0  0
  -21.4014   -6.5640   23.8205 C   0  0  0  0  0  0
  -21.3662   -5.6794   24.9168 C   0  0  0  0  0  0
  -21.6044   -4.3055   24.7218 C   0  0  0  0  0  0
  -21.8820   -3.8148   23.4335 C   0  0  0  0  0  0
  -21.9203   -4.6963   22.3391 C   0  0  0  0  0  0
  -22.7855  -13.5252   21.1857 C   0  0  0  0  0  0
  -22.1670   -4.2153   21.0968 F   0  0  0  0  0  0
  -21.5639   -3.4536   25.7731 F   0  0  0  0  0  0
  -30.0143  -13.3968   20.4250 N   0  0  0  0  0  0
  -26.2990  -12.9360   20.3306 N   0  0  0  0  0  0
  -25.9328  -11.6513   20.5748 N   0  0  0  0  0  0
  -22.0487  -12.8247   22.0401 N   0  0  0  0  0  0
  -25.4314  -15.1896   20.4093 N   0  0  0  0  0  0
  -31.8443  -14.6917   20.1272 O   0  0  0  0  0  0
  -21.6638   -6.8876   21.4234 O   0  0  0  0  0  0
  -22.3544  -14.5568   20.6713 O   0  0  0  0  0  0
  -24.6227  -31.8631   23.2038 C   0  0  0  0  0  0
  -25.9092  -32.4793   23.8362 C   0  0  1  0  0  0
  -27.2239  -27.3662   20.1123 C   0  0  0  0  0  0
  -25.5926  -33.8590   24.2296 N   0  0  0  0  0  0
  -23.4146  -30.4870   21.5464 C   0  0  2  0  0  0
  -24.8616  -28.9459   20.1106 C   0  0  0  0  0  0
  -22.7457  -29.4645   22.4950 C   0  0  0  0  0  0
  -18.0289  -28.1382   22.8484 C   0  0  0  0  0  0
  -24.1491  -36.7299   23.2638 C   0  0  0  0  0  0
  -25.9505  -30.8089   21.3667 C   0  0  0  0  0  0
  -26.0274  -29.4395   20.7107 C   0  0  0  0  0  0
  -27.2174  -28.6608   20.7014 C   0  0  0  0  0  0
  -26.0428  -26.9085   19.4928 C   0  0  0  0  0  0
  -24.8680  -27.6836   19.4933 C   0  0  0  0  0  0
  -23.6271  -29.8215   20.1609 C   0  0  0  0  0  0
  -25.4112  -36.3091   24.0333 C   0  0  1  0  0  0
  -20.5885  -28.3683   23.1291 C   0  0  2  0  0  0
  -20.6780  -26.9412   22.5416 C   0  0  0  0  0  0
  -19.5758  -26.6382   21.5213 C   0  0  0  0  0  0
  -18.1933  -26.7924   22.1625 C   0  0  0  0  0  0
  -19.1537  -28.8848   23.2887 C   0  0  0  0  0  0
  -18.9461  -30.1453   23.8902 C   0  0  0  0  0  0
  -17.6462  -30.6585   24.0568 C   0  0  0  0  0  0
  -25.9047  -34.9462   23.5113 C   0  0  0  0  0  0
  -16.5357  -29.9085   23.6328 C   0  0  0  0  0  0
  -16.7277  -28.6505   23.0345 C   0  0  0  0  0  0
  -26.4494  -31.6585   25.0716 C   0  0  0  0  0  0
  -25.3744  -31.3707   26.1455 C   0  0  0  0  0  0
  -27.0323  -30.3015   24.6127 C   0  0  0  0  0  0
  -27.6060  -32.4313   25.7488 C   0  0  0  0  0  0
  -27.5579  -37.1805   24.8463 C   0  0  0  0  0  0
  -21.4175  -29.3040   22.3689 N   0  0  0  0  0  0
  -26.4289  -37.3783   23.9411 N   0  0  0  0  0  0
  -24.6814  -31.0684   22.0965 N   0  0  0  0  0  0
  -23.4197  -28.8194   23.3021 O   0  0  0  0  0  0
  -28.3307  -26.5239   20.1288 O   0  0  0  0  0  0
  -26.5613  -34.8925   22.4676 O   0  0  0  0  0  0
  -23.5408  -32.1408   23.7402 O   0  0  0  0  0  0
  -29.2660  -18.1971   20.8235 C   0  0  0  0  0  0
  -31.2870  -17.5808   19.8306 C   0  0  0  0  0  0
  -30.1721  -17.1133   20.4834 C   0  0  0  0  0  0
  -29.6967  -19.4634   20.4264 C   0  0  0  0  0  0
  -28.6828  -21.6211   19.3163 C   0  0  0  0  0  0
  -28.0324  -23.0235   19.5727 C   0  0  0  0  0  0
  -29.2706  -23.1016   21.7458 C   0  0  0  0  0  0
  -29.0500  -20.8557   20.6218 C   0  0  2  0  0  0
  -28.8816  -23.9510   20.4915 C   0  0  2  0  0  0
  -28.1566  -25.3000   20.9143 C   0  0  0  0  0  0
  -29.9122  -15.7039   20.7735 N   0  0  0  0  0  0
  -29.8864  -21.7719   21.4401 N   0  3  0  0  0  0
  -31.2418  -19.3168   19.6163 S   0  0  0  0  0  0
  -31.4715  -12.4562   19.1607 H   0  0  0  0  0  0
  -30.3343  -11.3708   19.9094 H   0  0  0  0  0  0
  -29.7638  -11.7302   17.4862 H   0  0  0  0  0  0
  -29.6652  -13.4545   17.7430 H   0  0  0  0  0  0
  -27.8491  -11.2929   18.8602 H   0  0  0  0  0  0
  -27.3794  -12.5864   17.7908 H   0  0  0  0  0  0
  -27.6720  -14.2522   19.5160 H   0  0  0  0  0  0
  -28.6944  -12.0786   21.4068 H   0  0  0  0  0  0
  -28.4491  -13.7512   21.8257 H   0  0  0  0  0  0
  -25.2748   -9.5720   22.4759 H   0  0  0  0  0  0
  -24.0019   -7.4655   22.7487 H   0  0  0  0  0  0
  -21.0835   -8.8764   19.8957 H   0  0  0  0  0  0
  -22.3671  -10.9682   19.6172 H   0  0  0  0  0  0
  -21.1996   -7.6145   23.9707 H   0  0  0  0  0  0
  -21.1489   -6.0520   25.9074 H   0  0  0  0  0  0
  -22.0604   -2.7612   23.2833 H   0  0  0  0  0  0
  -22.4075  -11.9881   22.4746 H   0  0  0  0  0  0
  -21.1123  -13.1303   22.2642 H   0  0  0  0  0  0
  -24.6678  -15.8465   20.5250 H   0  0  0  0  0  0
  -26.2687  -15.6191   20.0384 H   0  0  0  0  0  0
  -26.7170  -32.5484   23.1127 H   0  0  0  0  0  0
  -25.0091  -33.9743   25.0455 H   0  0  0  0  0  0
  -22.7063  -31.3060   21.4052 H   0  0  0  0  0  0
  -23.3754  -35.9628   23.3297 H   0  0  0  0  0  0
  -24.3588  -36.8918   22.2051 H   0  0  0  0  0  0
  -23.7237  -37.6501   23.6655 H   0  0  0  0  0  0
  -26.0741  -31.5742   20.5989 H   0  0  0  0  0  0
  -26.8331  -30.8591   21.9920 H   0  0  0  0  0  0
  -28.1155  -29.0346   21.1728 H   0  0  0  0  0  0
  -26.0276  -25.9354   19.0213 H   0  0  0  0  0  0
  -23.9733  -27.2989   19.0225 H   0  0  0  0  0  0
  -23.7430  -30.5979   19.4035 H   0  0  0  0  0  0
  -22.7476  -29.2490   19.8612 H   0  0  0  0  0  0
  -25.1291  -36.1948   25.0824 H   0  0  0  0  0  0
  -20.9983  -28.3256   24.1409 H   0  0  0  0  0  0
  -20.5684  -26.2294   23.3611 H   0  0  0  0  0  0
  -21.6650  -26.7449   22.1210 H   0  0  0  0  0  0
  -19.6920  -25.6293   21.1241 H   0  0  0  0  0  0
  -19.6694  -27.3195   20.6745 H   0  0  0  0  0  0
  -17.4209  -26.6677   21.4023 H   0  0  0  0  0  0
  -18.0335  -26.0066   22.9020 H   0  0  0  0  0  0
  -19.7940  -30.7265   24.2269 H   0  0  0  0  0  0
  -17.5023  -31.6261   24.5172 H   0  0  0  0  0  0
  -15.5358  -30.2993   23.7643 H   0  0  0  0  0  0
  -15.8680  -28.0831   22.7046 H   0  0  0  0  0  0
  -24.5919  -30.7054   25.7790 H   0  0  0  0  0  0
  -24.8941  -32.2869   26.4898 H   0  0  0  0  0  0
  -25.8092  -30.8879   27.0217 H   0  0  0  0  0  0
  -26.2875  -29.6776   24.1170 H   0  0  0  0  0  0
  -27.4063  -29.7253   25.4601 H   0  0  0  0  0  0
  -27.8729  -30.4313   23.9302 H   0  0  0  0  0  0
  -27.2668  -33.3606   26.2076 H   0  0  0  0  0  0
  -28.3865  -32.6883   25.0315 H   0  0  0  0  0  0
  -28.0731  -31.8430   26.5397 H   0  0  0  0  0  0
  -28.2597  -38.0104   24.7524 H   0  0  0  0  0  0
  -28.1079  -36.2638   24.6277 H   0  0  0  0  0  0
  -27.2305  -37.1441   25.8869 H   0  0  0  0  0  0
  -20.9345  -29.8768   21.6910 H   0  0  0  0  0  0
  -26.0175  -38.2861   24.1413 H   0  0  0  0  0  0
  -28.3358  -18.0162   21.3442 H   0  0  0  0  0  0
  -32.1389  -17.0309   19.4456 H   0  0  0  0  0  0
  -29.5759  -21.7501   18.7037 H   0  0  0  0  0  0
  -28.0029  -21.0109   18.7199 H   0  0  0  0  0  0
  -27.0508  -22.8721   20.0264 H   0  0  0  0  0  0
  -27.8454  -23.5227   18.6212 H   0  0  0  0  0  0
  -28.3900  -22.9356   22.3676 H   0  0  0  0  0  0
  -29.9738  -23.6646   22.3620 H   0  0  0  0  0  0
  -28.1227  -20.7028   21.1766 H   0  0  0  0  0  0
  -29.8026  -24.2158   19.9709 H   0  0  0  0  0  0
  -28.5241  -25.5765   21.9036 H   0  0  0  0  0  0
  -27.1010  -25.0788   21.0804 H   0  0  0  0  0  0
  -28.9890  -15.4933   21.1207 H   0  0  0  0  0  0
  -30.0951  -21.3122   22.3112 H   0  0  0  0  0  0
  -30.7631  -21.9213   20.9692 H   0  0  0  0  0  0
  1 25  1  0  0  0
  1 30  2  0  0  0
  1 81  1  0  0  0
  2  3  1  0  0  0
  2 25  1  0  0  0
  2 84  1  0  0  0
  2 85  1  0  0  0
  3  4  1  0  0  0
  3 86  1  0  0  0
  3 87  1  0  0  0
  4  5  1  0  0  0
  4 88  1  0  0  0
  4 89  1  0  0  0
  5  6  1  0  0  0
  5 26  1  0  0  0
  5 90  1  0  0  0
  6 25  1  0  0  0
  6 91  1  0  0  0
  6 92  1  0  0  0
  7  8  2  0  0  0
  7 26  1  0  0  0
  7 29  1  0  0  0
  8  9  1  0  0  0
  8 22  1  0  0  0
  9 10  1  0  0  0
  9 27  2  0  0  0
 10 11  2  0  0  0
 10 15  1  0  0  0
 11 12  1  0  0  0
 11 93  1  0  0  0
 12 13  2  0  0  0
 12 94  1  0  0  0
 13 14  1  0  0  0
 13 31  1  0  0  0
 14 15  2  0  0  0
 14 95  1  0  0  0
 15 96  1  0  0  0
 16 17  2  0  0  0
 16 21  1  0  0  0
 16 31  1  0  0  0
 17 18  1  0  0  0
 17 97  1  0  0  0
 18 19  2  0  0  0
 18 98  1  0  0  0
 19 20  1  0  0  0
 19 24  1  0  0  0
 20 21  2  0  0  0
 20 99  1  0  0  0
 21 23  1  0  0  0
 22 28  1  0  0  0
 22 32  2  0  0  0
 26 27  1  0  0  0
 28100  1  0  0  0
 28101  1  0  0  0
 29102  1  0  0  0
 29103  1  0  0  0
 33 34  1  0  0  0
 33 66  1  0  0  0
 33 70  2  0  0  0
 34 36  1  0  0  0
 34 59  1  0  0  0
 34104  1  0  0  0
 35 44  2  0  0  0
 35 45  1  0  0  0
 35 68  1  0  0  0
 36 56  1  0  0  0
 36105  1  0  0  0
 37 39  1  0  0  0
 37 47  1  0  0  0
 37 66  1  0  0  0
 37106  1  0  0  0
 38 43  2  0  0  0
 38 46  1  0  0  0
 38 47  1  0  0  0
 39 64  1  0  0  0
 39 67  2  0  0  0
 40 52  1  0  0  0
 40 53  2  0  0  0
 40 58  1  0  0  0
 41107  1  0  0  0
 41108  1  0  0  0
 41109  1  0  0  0
 41 48  1  0  0  0
 42 43  1  0  0  0
 42 66  1  0  0  0
 42110  1  0  0  0
 42111  1  0  0  0
 43 44  1  0  0  0
 44112  1  0  0  0
 45 46  2  0  0  0
 45113  1  0  0  0
 46114  1  0  0  0
 47115  1  0  0  0
 47116  1  0  0  0
 48 56  1  0  0  0
 48 65  1  0  0  0
 48117  1  0  0  0
 49 50  1  0  0  0
 49 53  1  0  0  0
 49 64  1  0  0  0
 49118  1  0  0  0
 50 51  1  0  0  0
 50119  1  0  0  0
 50120  1  0  0  0
 51 52  1  0  0  0
 51121  1  0  0  0
 51122  1  0  0  0
 52123  1  0  0  0
 52124  1  0  0  0
 53 54  1  0  0  0
 54 55  2  0  0  0
 54125  1  0  0  0
 55 57  1  0  0  0
 55126  1  0  0  0
 56 69  2  0  0  0
 57 58  2  0  0  0
 57127  1  0  0  0
 58128  1  0  0  0
 59 60  1  0  0  0
 59 61  1  0  0  0
 59 62  1  0  0  0
 60129  1  0  0  0
 60130  1  0  0  0
 60131  1  0  0  0
 61132  1  0  0  0
 61133  1  0  0  0
 61134  1  0  0  0
 62135  1  0  0  0
 62136  1  0  0  0
 62137  1  0  0  0
 63 65  1  0  0  0
 63138  1  0  0  0
 63139  1  0  0  0
 63140  1  0  0  0
 64141  1  0  0  0
 65142  1  0  0  0
 68 80  1  0  0  0
 71 73  1  0  0  0
 71 74  2  0  0  0
 71143  1  0  0  0
 72 73  2  0  0  0
 72 83  1  0  0  0
 72144  1  0  0  0
 73 81  1  0  0  0
 74 83  1  0  0  0
 74 78  1  0  0  0
 75 76  1  0  0  0
 75 78  1  0  0  0
 75145  1  0  0  0
 75146  1  0  0  0
 76 79  1  0  0  0
 76147  1  0  0  0
 76148  1  0  0  0
 77 79  1  0  0  0
 77 82  1  0  0  0
 77149  1  0  0  0
 77150  1  0  0  0
 78 82  1  0  0  0
 78151  1  0  0  0
 79 80  1  0  0  0
 79152  1  0  0  0
 80153  1  0  0  0
 80154  1  0  0  0
 81155  1  0  0  0
 82156  1  0  0  0
 82157  1  0  0  0
M  CHG  1  82   1
M  ISO  4   1 100  68 101  80 101  81 100
M  END
> <chiral flag>
0

> <version>
0

> <s_m_source_file>
/data/baiqing/PycharmProjects/Reinvent-master-3.2/result/LINK_invent/BTK/process_docking_weight1_custom_product_contain_oxygen_bond_distance_aromatic_linkinvent_7_9_3/rearranged_h_0149.sdf

> <i_m_source_file_index>
26

> <r_mmod_Potential_Energy-OPLS-2005>
-149.449035644531

> <r_mmod_Stretch_Energy-OPLS-2005>
62.1557769775391

> <r_mmod_Bend_Energy-OPLS-2005>
122.505157470703

> <r_mmod_Torsional_Energy-OPLS-2005>
254.577438354492

> <r_mmod_Improper_Torsional_Energy-OPLS-2005>
4.37448835372925

> <r_mmod_Van_der_Waal_Energy-OPLS-2005>
127.347633361816

> <r_mmod_Electrostatic_Energy-OPLS-2005>
-294.49462890625

> <r_mmod_Solvation_Energy-OPLS-2005>
-462.276000976562

> <b_mmod_Minimization_Converged-OPLS-2005>
0

> <r_mmod_RMS_Derivative-OPLS-2005>
1.67659902572632

$$$$
26
                    3D
 Structure written by MMmdl.
152161  0  0  1  0            999 V2000
  -30.6445  -14.8515   20.4432 C   0  0  0  0  0  0
  -30.4176  -12.5348   19.4853 C   0  0  0  0  0  0
  -29.5055  -12.5129   18.2417 C   0  0  0  0  0  0
  -28.0392  -12.3154   18.6643 C   0  0  0  0  0  0
  -27.6273  -13.2472   19.8354 C   0  0  2  0  0  0
  -28.6734  -13.2691   20.9706 C   0  0  0  0  0  0
  -25.2425  -13.8207   20.5694 C   0  0  0  0  0  0
  -24.1757  -13.0429   20.9237 C   0  0  0  0  0  0
  -24.6382  -11.6923   20.8768 C   0  0  0  0  0  0
  -23.9078  -10.4287   21.0416 C   0  0  0  0  0  0
  -24.3626   -9.4204   21.9191 C   0  0  0  0  0  0
  -23.6300   -8.2239   22.0754 C   0  0  0  0  0  0
  -22.4279   -8.0283   21.3545 C   0  0  0  0  0  0
  -21.9921   -9.0256   20.4641 C   0  0  0  0  0  0
  -22.7256  -10.2133   20.3058 C   0  0  0  0  0  0
  -21.6852   -6.0743   22.5282 C   0  0  0  0  0  0
  -21.4012   -6.5643   23.8217 C   0  0  0  0  0  0
  -21.3654   -5.6794   24.9176 C   0  0  0  0  0  0
  -21.6043   -4.3058   24.7225 C   0  0  0  0  0  0
  -21.8818   -3.8153   23.4344 C   0  0  0  0  0  0
  -21.9190   -4.6971   22.3402 C   0  0  0  0  0  0
  -22.7776  -13.5201   21.1892 C   0  0  0  0  0  0
  -22.1663   -4.2157   21.0980 F   0  0  0  0  0  0
  -21.5627   -3.4541   25.7734 F   0  0  0  0  0  0
  -29.9527  -13.6487   20.3597 N   0  0  0  0  0  0
  -26.2867  -12.9458   20.3248 N   0  0  0  0  0  0
  -25.9317  -11.6588   20.5756 N   0  0  0  0  0  0
  -22.0411  -12.8193   22.0437 N   0  0  0  0  0  0
  -25.4019  -15.1923   20.4061 N   0  0  0  0  0  0
  -31.8511  -14.8118   20.1780 O   0  0  0  0  0  0
  -21.6639   -6.8887   21.4243 O   0  0  0  0  0  0
  -22.3467  -14.5512   20.6733 O   0  0  0  0  0  0
  -24.6386  -31.8501   23.1931 C   0  0  0  0  0  0
  -25.9178  -32.4728   23.8299 C   0  0  1  0  0  0
  -27.2079  -27.1881   20.1426 C   0  0  0  0  0  0
  -25.5947  -33.8529   24.2223 N   0  0  0  0  0  0
  -23.4386  -30.4716   21.5389 C   0  0  2  0  0  0
  -24.8864  -28.9100   20.1097 C   0  0  0  0  0  0
  -22.7544  -29.4572   22.4889 C   0  0  0  0  0  0
  -18.0298  -28.1396   22.8482 C   0  0  0  0  0  0
  -24.1488  -36.7265   23.2639 C   0  0  0  0  0  0
  -25.9913  -30.7399   21.3844 C   0  0  0  0  0  0
  -26.0629  -29.3557   20.7272 C   0  0  0  0  0  0
  -27.2287  -28.5092   20.7300 C   0  0  0  0  0  0
  -26.0147  -26.8425   19.4720 C   0  0  0  0  0  0
  -24.8722  -27.6653   19.4663 C   0  0  0  0  0  0
  -23.6610  -29.8049   20.1562 C   0  0  0  0  0  0
  -25.4118  -36.3053   24.0323 C   0  0  1  0  0  0
  -20.5909  -28.3713   23.1252 C   0  0  2  0  0  0
  -20.6782  -26.9426   22.5402 C   0  0  0  0  0  0
  -19.5754  -26.6391   21.5212 C   0  0  0  0  0  0
  -18.1935  -26.7936   22.1623 C   0  0  0  0  0  0
  -19.1554  -28.8872   23.2859 C   0  0  0  0  0  0
  -18.9470  -30.1467   23.8882 C   0  0  0  0  0  0
  -17.6470  -30.6593   24.0563 C   0  0  0  0  0  0
  -25.9068  -34.9427   23.5080 C   0  0  0  0  0  0
  -16.5360  -29.9086   23.6339 C   0  0  0  0  0  0
  -16.7282  -28.6502   23.0362 C   0  0  0  0  0  0
  -26.4514  -31.6566   25.0713 C   0  0  0  0  0  0
  -25.3709  -31.3751   26.1419 C   0  0  0  0  0  0
  -27.0352  -30.2964   24.6245 C   0  0  0  0  0  0
  -27.6066  -32.4306   25.7491 C   0  0  0  0  0  0
  -27.5579  -37.1789   24.8459 C   0  0  0  0  0  0
  -21.4243  -29.3045   22.3632 N   0  0  0  0  0  0
  -26.4284  -37.3764   23.9415 N   0  0  0  0  0  0
  -24.7091  -31.0404   22.0944 N   0  0  0  0  0  0
  -23.4213  -28.8122   23.3017 O   0  0  0  0  0  0
  -28.2492  -26.2066   20.1925 O   0  0  0  0  0  0
  -26.5648  -34.8913   22.4654 O   0  0  0  0  0  0
  -23.5516  -32.1347   23.7185 O   0  0  0  0  0  0
  -29.8933  -20.1223   20.0477 C   0  0  0  0  0  0
  -29.8851  -18.6486   20.2353 C   0  0  0  0  0  0
  -28.8104  -18.1992   20.8867 C   0  0  0  0  0  0
  -28.7804  -20.8198   20.5693 C   0  0  0  0  0  0
  -28.7935  -23.4605   20.2689 C   0  0  0  0  0  0
  -30.7293  -17.3907   19.9233 C   0  0  0  0  0  0
  -28.7878  -16.6756   21.0835 C   0  0  0  0  0  0
  -27.7025  -24.8573   22.1544 C   0  0  0  0  0  0
  -27.8793  -24.7761   20.6281 C   0  0  1  0  0  0
  -30.0244  -16.1289   20.4259 N   0  0  0  0  0  0
  -28.3450  -22.1784   20.6292 N   0  0  0  0  0  0
  -29.8658  -23.6153   19.6789 O   0  0  0  0  0  0
  -27.7405  -19.5474   21.3048 S   0  0  0  0  0  0
  -31.4578  -12.6445   19.1745 H   0  0  0  0  0  0
  -30.3713  -11.5833   20.0173 H   0  0  0  0  0  0
  -29.8113  -11.7170   17.5613 H   0  0  0  0  0  0
  -29.6091  -13.4482   17.6889 H   0  0  0  0  0  0
  -27.9275  -11.2739   18.9679 H   0  0  0  0  0  0
  -27.3731  -12.4566   17.8124 H   0  0  0  0  0  0
  -27.5932  -14.2487   19.4070 H   0  0  0  0  0  0
  -28.7438  -12.2944   21.4562 H   0  0  0  0  0  0
  -28.3877  -13.9793   21.7466 H   0  0  0  0  0  0
  -25.2765   -9.5691   22.4778 H   0  0  0  0  0  0
  -24.0010   -7.4632   22.7476 H   0  0  0  0  0  0
  -21.0859   -8.8781   19.8942 H   0  0  0  0  0  0
  -22.3721  -10.9675   19.6174 H   0  0  0  0  0  0
  -21.2009   -7.6153   23.9723 H   0  0  0  0  0  0
  -21.1477   -6.0522   25.9082 H   0  0  0  0  0  0
  -22.0601   -2.7617   23.2835 H   0  0  0  0  0  0
  -22.4016  -11.9849   22.4833 H   0  0  0  0  0  0
  -21.1031  -13.1230   22.2634 H   0  0  0  0  0  0
  -24.6251  -15.8361   20.5111 H   0  0  0  0  0  0
  -26.2327  -15.6330   20.0352 H   0  0  0  0  0  0
  -26.7241  -32.5356   23.1030 H   0  0  0  0  0  0
  -25.0081  -33.9649   25.0362 H   0  0  0  0  0  0
  -22.7382  -31.2960   21.3905 H   0  0  0  0  0  0
  -23.3764  -35.9582   23.3278 H   0  0  0  0  0  0
  -24.3586  -36.8918   22.2059 H   0  0  0  0  0  0
  -23.7220  -37.6450   23.6681 H   0  0  0  0  0  0
  -26.1371  -31.4956   20.6112 H   0  0  0  0  0  0
  -26.8661  -30.7922   22.0207 H   0  0  0  0  0  0
  -28.1250  -28.8418   21.2342 H   0  0  0  0  0  0
  -25.9406  -25.9009   18.9493 H   0  0  0  0  0  0
  -23.9773  -27.3263   18.9623 H   0  0  0  0  0  0
  -23.7912  -30.5804   19.4005 H   0  0  0  0  0  0
  -22.7773  -29.2423   19.8496 H   0  0  0  0  0  0
  -25.1303  -36.1887   25.0815 H   0  0  0  0  0  0
  -20.9999  -28.3291   24.1377 H   0  0  0  0  0  0
  -20.5684  -26.2327   23.3612 H   0  0  0  0  0  0
  -21.6647  -26.7441   22.1200 H   0  0  0  0  0  0
  -19.6915  -25.6298   21.1250 H   0  0  0  0  0  0
  -19.6691  -27.3192   20.6735 H   0  0  0  0  0  0
  -17.4210  -26.6688   21.4020 H   0  0  0  0  0  0
  -18.0331  -26.0079   22.9020 H   0  0  0  0  0  0
  -19.7946  -30.7284   24.2247 H   0  0  0  0  0  0
  -17.5026  -31.6271   24.5166 H   0  0  0  0  0  0
  -15.5359  -30.2986   23.7669 H   0  0  0  0  0  0
  -15.8684  -28.0816   22.7092 H   0  0  0  0  0  0
  -24.5872  -30.7120   25.7735 H   0  0  0  0  0  0
  -24.8915  -32.2935   26.4814 H   0  0  0  0  0  0
  -25.7994  -30.8932   27.0214 H   0  0  0  0  0  0
  -26.2939  -29.6710   24.1255 H   0  0  0  0  0  0
  -27.3984  -29.7238   25.4787 H   0  0  0  0  0  0
  -27.8849  -30.4207   23.9528 H   0  0  0  0  0  0
  -27.2684  -33.3629   26.2022 H   0  0  0  0  0  0
  -28.3902  -32.6821   25.0334 H   0  0  0  0  0  0
  -28.0698  -31.8449   26.5441 H   0  0  0  0  0  0
  -28.2581  -38.0105   24.7535 H   0  0  0  0  0  0
  -28.1096  -36.2638   24.6247 H   0  0  0  0  0  0
  -27.2307  -37.1391   25.8864 H   0  0  0  0  0  0
  -20.9444  -29.8760   21.6819 H   0  0  0  0  0  0
  -26.0156  -38.2834   24.1431 H   0  0  0  0  0  0
  -30.7120  -20.6082   19.5353 H   0  0  0  0  0  0
  -31.7124  -17.4718   20.3896 H   0  0  0  0  0  0
  -30.8948  -17.2964   18.8488 H   0  0  0  0  0  0
  -27.9002  -16.2462   20.6268 H   0  0  0  0  0  0
  -28.7825  -16.4212   22.1441 H   0  0  0  0  0  0
  -27.4508  -23.8910   22.5919 H   0  0  0  0  0  0
  -26.9018  -25.5472   22.4214 H   0  0  0  0  0  0
  -28.6179  -25.2078   22.6307 H   0  0  0  0  0  0
  -26.9098  -24.5132   20.2111 H   0  0  0  0  0  0
  -27.4470  -22.2578   21.0881 H   0  0  0  0  0  0
  1 25  1  0  0  0
  1 30  2  0  0  0
  1 80  1  0  0  0
  2  3  1  0  0  0
  2 25  1  0  0  0
  2 84  1  0  0  0
  2 85  1  0  0  0
  3  4  1  0  0  0
  3 86  1  0  0  0
  3 87  1  0  0  0
  4  5  1  0  0  0
  4 88  1  0  0  0
  4 89  1  0  0  0
  5  6  1  0  0  0
  5 26  1  0  0  0
  5 90  1  0  0  0
  6 25  1  0  0  0
  6 91  1  0  0  0
  6 92  1  0  0  0
  7  8  2  0  0  0
  7 26  1  0  0  0
  7 29  1  0  0  0
  8  9  1  0  0  0
  8 22  1  0  0  0
  9 10  1  0  0  0
  9 27  2  0  0  0
 10 11  2  0  0  0
 10 15  1  0  0  0
 11 12  1  0  0  0
 11 93  1  0  0  0
 12 13  2  0  0  0
 12 94  1  0  0  0
 13 14  1  0  0  0
 13 31  1  0  0  0
 14 15  2  0  0  0
 14 95  1  0  0  0
 15 96  1  0  0  0
 16 17  2  0  0  0
 16 21  1  0  0  0
 16 31  1  0  0  0
 17 18  1  0  0  0
 17 97  1  0  0  0
 18 19  2  0  0  0
 18 98  1  0  0  0
 19 20  1  0  0  0
 19 24  1  0  0  0
 20 21  2  0  0  0
 20 99  1  0  0  0
 21 23  1  0  0  0
 22 28  1  0  0  0
 22 32  2  0  0  0
 26 27  1  0  0  0
 28100  1  0  0  0
 28101  1  0  0  0
 29102  1  0  0  0
 29103  1  0  0  0
 33 34  1  0  0  0
 33 66  1  0  0  0
 33 70  2  0  0  0
 34 36  1  0  0  0
 34 59  1  0  0  0
 34104  1  0  0  0
 35 44  2  0  0  0
 35 45  1  0  0  0
 35 68  1  0  0  0
 36 56  1  0  0  0
 36105  1  0  0  0
 37 39  1  0  0  0
 37 47  1  0  0  0
 37 66  1  0  0  0
 37106  1  0  0  0
 38 43  2  0  0  0
 38 46  1  0  0  0
 38 47  1  0  0  0
 39 64  1  0  0  0
 39 67  2  0  0  0
 40 52  1  0  0  0
 40 53  2  0  0  0
 40 58  1  0  0  0
 41107  1  0  0  0
 41108  1  0  0  0
 41109  1  0  0  0
 41 48  1  0  0  0
 42 43  1  0  0  0
 42 66  1  0  0  0
 42110  1  0  0  0
 42111  1  0  0  0
 43 44  1  0  0  0
 44112  1  0  0  0
 45 46  2  0  0  0
 45113  1  0  0  0
 46114  1  0  0  0
 47115  1  0  0  0
 47116  1  0  0  0
 48 56  1  0  0  0
 48 65  1  0  0  0
 48117  1  0  0  0
 49 50  1  0  0  0
 49 53  1  0  0  0
 49 64  1  0  0  0
 49118  1  0  0  0
 50 51  1  0  0  0
 50119  1  0  0  0
 50120  1  0  0  0
 51 52  1  0  0  0
 51121  1  0  0  0
 51122  1  0  0  0
 52123  1  0  0  0
 52124  1  0  0  0
 53 54  1  0  0  0
 54 55  2  0  0  0
 54125  1  0  0  0
 55 57  1  0  0  0
 55126  1  0  0  0
 56 69  2  0  0  0
 57 58  2  0  0  0
 57127  1  0  0  0
 58128  1  0  0  0
 59 60  1  0  0  0
 59 61  1  0  0  0
 59 62  1  0  0  0
 60129  1  0  0  0
 60130  1  0  0  0
 60131  1  0  0  0
 61132  1  0  0  0
 61133  1  0  0  0
 61134  1  0  0  0
 62135  1  0  0  0
 62136  1  0  0  0
 62137  1  0  0  0
 63 65  1  0  0  0
 63138  1  0  0  0
 63139  1  0  0  0
 63140  1  0  0  0
 64141  1  0  0  0
 65142  1  0  0  0
 68 79  1  0  0  0
 71 72  1  0  0  0
 71 74  2  0  0  0
 71143  1  0  0  0
 72 73  2  0  0  0
 72 76  1  0  0  0
 73 77  1  0  0  0
 73 83  1  0  0  0
 74 81  1  0  0  0
 74 83  1  0  0  0
 75 79  1  0  0  0
 75 81  1  0  0  0
 75 82  2  0  0  0
 76 80  1  0  0  0
 76144  1  0  0  0
 76145  1  0  0  0
 77 80  1  0  0  0
 77146  1  0  0  0
 77147  1  0  0  0
 78148  1  0  0  0
 78149  1  0  0  0
 78150  1  0  0  0
 78 79  1  0  0  0
 79151  1  0  0  0
 81152  1  0  0  0
M  ISO  4   1 100  68 101  79 101  80 100
M  END
> <chiral flag>
0

> <version>
0

> <s_m_source_file>
/data/baiqing/PycharmProjects/Reinvent-master-3.2/result/LINK_invent/BTK/process_docking_weight1_custom_product_contain_oxygen_bond_distance_aromatic_linkinvent_7_9_3/rearranged_h_0149.sdf

> <i_m_source_file_index>
27

> <r_mmod_Potential_Energy-OPLS-2005>
429.358520507812

> <r_mmod_Stretch_Energy-OPLS-2005>
171.014114379883

> <r_mmod_Bend_Energy-OPLS-2005>
304.940521240234

> <r_mmod_Torsional_Energy-OPLS-2005>
265.746551513672

> <r_mmod_Improper_Torsional_Energy-OPLS-2005>
11.2973318099976

> <r_mmod_Van_der_Waal_Energy-OPLS-2005>
109.147407531738

> <r_mmod_Electrostatic_Energy-OPLS-2005>
-341.321075439453

> <r_mmod_Solvation_Energy-OPLS-2005>
-235.37776184082

> <b_mmod_Minimization_Converged-OPLS-2005>
0

> <r_mmod_RMS_Derivative-OPLS-2005>
1.06882512569427

$$$$
27
                    3D
 Structure written by MMmdl.
160169  0  0  1  0            999 V2000
  -30.5775  -14.7356   20.4565 C   0  0  0  0  0  0
  -30.4428  -12.4469   19.4592 C   0  0  0  0  0  0
  -29.5100  -12.5073   18.2272 C   0  0  0  0  0  0
  -28.0338  -12.3382   18.6407 C   0  0  0  0  0  0
  -27.6469  -13.2238   19.8536 C   0  0  2  0  0  0
  -28.6954  -13.1273   20.9846 C   0  0  0  0  0  0
  -25.2546  -13.8184   20.5696 C   0  0  0  0  0  0
  -24.1834  -13.0455   20.9233 C   0  0  0  0  0  0
  -24.6400  -11.6918   20.8763 C   0  0  0  0  0  0
  -23.9066  -10.4303   21.0412 C   0  0  0  0  0  0
  -24.3614   -9.4215   21.9184 C   0  0  0  0  0  0
  -23.6302   -8.2244   22.0741 C   0  0  0  0  0  0
  -22.4280   -8.0284   21.3536 C   0  0  0  0  0  0
  -21.9915   -9.0258   20.4634 C   0  0  0  0  0  0
  -22.7239  -10.2143   20.3056 C   0  0  0  0  0  0
  -21.6855   -6.0743   22.5276 C   0  0  0  0  0  0
  -21.4013   -6.5642   23.8212 C   0  0  0  0  0  0
  -21.3659   -5.6792   24.9175 C   0  0  0  0  0  0
  -21.6048   -4.3056   24.7221 C   0  0  0  0  0  0
  -21.8820   -3.8148   23.4340 C   0  0  0  0  0  0
  -21.9197   -4.6971   22.3401 C   0  0  0  0  0  0
  -22.7851  -13.5233   21.1892 C   0  0  0  0  0  0
  -22.1669   -4.2153   21.0983 F   0  0  0  0  0  0
  -21.5626   -3.4542   25.7734 F   0  0  0  0  0  0
  -29.9977  -13.4893   20.4079 N   0  0  0  0  0  0
  -26.2967  -12.9371   20.3298 N   0  0  0  0  0  0
  -25.9329  -11.6522   20.5767 N   0  0  0  0  0  0
  -22.0485  -12.8226   22.0429 N   0  0  0  0  0  0
  -25.4268  -15.1904   20.4055 N   0  0  0  0  0  0
  -31.7599  -14.8894   20.1338 O   0  0  0  0  0  0
  -21.6643   -6.8882   21.4236 O   0  0  0  0  0  0
  -22.3548  -14.5550   20.6743 O   0  0  0  0  0  0
  -24.6237  -31.8586   23.2001 C   0  0  0  0  0  0
  -25.9080  -32.4792   23.8316 C   0  0  1  0  0  0
  -27.2279  -27.3127   20.1204 C   0  0  0  0  0  0
  -25.5898  -33.8587   24.2250 N   0  0  0  0  0  0
  -23.4182  -30.4798   21.5447 C   0  0  2  0  0  0
  -24.8664  -28.9259   20.1150 C   0  0  0  0  0  0
  -22.7472  -29.4593   22.4945 C   0  0  0  0  0  0
  -18.0277  -28.1405   22.8487 C   0  0  0  0  0  0
  -24.1480  -36.7287   23.2649 C   0  0  0  0  0  0
  -25.9581  -30.7891   21.3666 C   0  0  0  0  0  0
  -26.0347  -29.4117   20.7154 C   0  0  0  0  0  0
  -27.2207  -28.6192   20.7022 C   0  0  0  0  0  0
  -26.0384  -26.8685   19.5087 C   0  0  0  0  0  0
  -24.8702  -27.6603   19.5001 C   0  0  0  0  0  0
  -23.6356  -29.8120   20.1601 C   0  0  0  0  0  0
  -25.4111  -36.3084   24.0327 C   0  0  1  0  0  0
  -20.5883  -28.3677   23.1320 C   0  0  2  0  0  0
  -20.6772  -26.9410   22.5433 C   0  0  0  0  0  0
  -19.5756  -26.6399   21.5222 C   0  0  0  0  0  0
  -18.1929  -26.7947   22.1626 C   0  0  0  0  0  0
  -19.1533  -28.8855   23.2905 C   0  0  0  0  0  0
  -18.9470  -30.1454   23.8934 C   0  0  0  0  0  0
  -17.6481  -30.6616   24.0574 C   0  0  0  0  0  0
  -25.9062  -34.9467   23.5099 C   0  0  0  0  0  0
  -16.5365  -29.9132   23.6324 C   0  0  0  0  0  0
  -16.7267  -28.6546   23.0343 C   0  0  0  0  0  0
  -26.4478  -31.6582   25.0672 C   0  0  0  0  0  0
  -25.3729  -31.3714   26.1407 C   0  0  0  0  0  0
  -27.0299  -30.3021   24.6044 C   0  0  0  0  0  0
  -27.6041  -32.4293   25.7455 C   0  0  0  0  0  0
  -27.5566  -37.1792   24.8476 C   0  0  0  0  0  0
  -21.4177  -29.3044   22.3724 N   0  0  0  0  0  0
  -26.4278  -37.3789   23.9426 N   0  0  0  0  0  0
  -24.6867  -31.0586   22.0955 N   0  0  0  0  0  0
  -23.4202  -28.8115   23.3001 O   0  0  0  0  0  0
  -28.3646  -26.4890   20.0781 O   0  0  0  0  0  0
  -26.5658  -34.8943   22.4686 O   0  0  0  0  0  0
  -23.5404  -32.1383   23.7343 O   0  0  0  0  0  0
  -30.4949  -19.4835   20.2926 C   0  0  0  0  0  0
  -30.8340  -18.0622   20.2947 C   0  0  0  0  0  0
  -29.1747  -19.7906   20.5604 C   0  0  0  0  0  0
  -29.7937  -17.1910   20.5739 C   0  0  0  0  0  0
  -28.5510  -21.8363   22.9482 C   0  0  0  0  0  0
  -27.5708  -21.2273   21.9404 C   0  0  0  0  0  0
  -29.5873  -22.5738   22.0834 C   0  0  0  0  0  0
  -28.3760  -21.1649   20.6304 C   0  0  1  0  0  0
  -27.6767  -25.3974   22.1714 C   0  0  0  0  0  0
  -28.2596  -23.7575   20.2204 C   0  0  0  0  0  0
  -28.4836  -25.2258   20.8687 C   0  0  1  0  0  0
  -29.7143  -15.7944   20.6830 N   0  0  0  0  0  0
  -29.0876  -22.5199   20.6862 N   0  3  1  0  0  0
  -28.3568  -18.2210   20.8038 S   0  0  0  0  0  0
  -31.4799  -12.5924   19.1524 H   0  0  0  0  0  0
  -30.4011  -11.4632   19.9297 H   0  0  0  0  0  0
  -29.7835  -11.7327   17.5083 H   0  0  0  0  0  0
  -29.6382  -13.4609   17.7131 H   0  0  0  0  0  0
  -27.8788  -11.2875   18.8865 H   0  0  0  0  0  0
  -27.3777  -12.5537   17.7957 H   0  0  0  0  0  0
  -27.6471  -14.2494   19.4840 H   0  0  0  0  0  0
  -28.7308  -12.1198   21.4033 H   0  0  0  0  0  0
  -28.4329  -13.7893   21.8123 H   0  0  0  0  0  0
  -25.2750   -9.5706   22.4766 H   0  0  0  0  0  0
  -24.0020   -7.4630   22.7445 H   0  0  0  0  0  0
  -21.0855   -8.8772   19.8929 H   0  0  0  0  0  0
  -22.3688  -10.9689   19.6170 H   0  0  0  0  0  0
  -21.1999   -7.6146   23.9722 H   0  0  0  0  0  0
  -21.1479   -6.0518   25.9080 H   0  0  0  0  0  0
  -22.0598   -2.7609   23.2842 H   0  0  0  0  0  0
  -22.4096  -11.9889   22.4834 H   0  0  0  0  0  0
  -21.1083  -13.1223   22.2594 H   0  0  0  0  0  0
  -24.6527  -15.8401   20.4933 H   0  0  0  0  0  0
  -26.2568  -15.6166   20.0144 H   0  0  0  0  0  0
  -26.7131  -32.5477   23.1047 H   0  0  0  0  0  0
  -24.9952  -33.9716   25.0323 H   0  0  0  0  0  0
  -22.7111  -31.3010   21.4024 H   0  0  0  0  0  0
  -23.3752  -35.9615   23.3331 H   0  0  0  0  0  0
  -24.3551  -36.8887   22.2061 H   0  0  0  0  0  0
  -23.7232  -37.6487   23.6662 H   0  0  0  0  0  0
  -26.0803  -31.5486   20.5930 H   0  0  0  0  0  0
  -26.8417  -30.8499   21.9892 H   0  0  0  0  0  0
  -28.1245  -28.9978   21.1586 H   0  0  0  0  0  0
  -26.0156  -25.8985   19.0321 H   0  0  0  0  0  0
  -23.9756  -27.2886   19.0204 H   0  0  0  0  0  0
  -23.7648  -30.5925   19.4099 H   0  0  0  0  0  0
  -22.7530  -29.2509   19.8482 H   0  0  0  0  0  0
  -25.1297  -36.1924   25.0817 H   0  0  0  0  0  0
  -20.9959  -28.3244   24.1451 H   0  0  0  0  0  0
  -20.5684  -26.2278   23.3614 H   0  0  0  0  0  0
  -21.6637  -26.7462   22.1221 H   0  0  0  0  0  0
  -19.6920  -25.6314   21.1244 H   0  0  0  0  0  0
  -19.6715  -27.3216   20.6759 H   0  0  0  0  0  0
  -17.4199  -26.6683   21.4028 H   0  0  0  0  0  0
  -18.0328  -26.0115   22.9045 H   0  0  0  0  0  0
  -19.7958  -30.7239   24.2338 H   0  0  0  0  0  0
  -17.5064  -31.6300   24.5163 H   0  0  0  0  0  0
  -15.5379  -30.3070   23.7641 H   0  0  0  0  0  0
  -15.8652  -28.0890   22.7048 H   0  0  0  0  0  0
  -24.5942  -30.7011   25.7760 H   0  0  0  0  0  0
  -24.8877  -32.2874   26.4789 H   0  0  0  0  0  0
  -25.8080  -30.8957   27.0200 H   0  0  0  0  0  0
  -26.2832  -29.6816   24.1083 H   0  0  0  0  0  0
  -27.4066  -29.7221   25.4470 H   0  0  0  0  0  0
  -27.8671  -30.4345   23.9191 H   0  0  0  0  0  0
  -27.2646  -33.3596   26.2026 H   0  0  0  0  0  0
  -28.3868  -32.6840   25.0303 H   0  0  0  0  0  0
  -28.0685  -31.8422   26.5379 H   0  0  0  0  0  0
  -28.2598  -38.0080   24.7535 H   0  0  0  0  0  0
  -28.1043  -36.2613   24.6294 H   0  0  0  0  0  0
  -27.2285  -37.1447   25.8878 H   0  0  0  0  0  0
  -20.9345  -29.8855   21.7022 H   0  0  0  0  0  0
  -26.0162  -38.2854   24.1464 H   0  0  0  0  0  0
  -31.2523  -20.2268   20.0841 H   0  0  0  0  0  0
  -31.8456  -17.7410   20.0863 H   0  0  0  0  0  0
  -29.0398  -21.0582   23.5346 H   0  0  0  0  0  0
  -28.0435  -22.4954   23.6522 H   0  0  0  0  0  0
  -26.7324  -21.9141   21.8221 H   0  0  0  0  0  0
  -27.1384  -20.2824   22.2651 H   0  0  0  0  0  0
  -30.5216  -22.0117   22.1149 H   0  0  0  0  0  0
  -29.8427  -23.5603   22.4627 H   0  0  0  0  0  0
  -27.6917  -21.1794   19.7814 H   0  0  0  0  0  0
  -27.8592  -24.6033   22.8875 H   0  0  0  0  0  0
  -26.6066  -25.3994   21.9686 H   0  0  0  0  0  0
  -27.9223  -26.3367   22.6652 H   0  0  0  0  0  0
  -28.4022  -23.8341   19.1422 H   0  0  0  0  0  0
  -27.2001  -23.5297   20.3312 H   0  0  0  0  0  0
  -29.5396  -25.2667   21.1322 H   0  0  0  0  0  0
  -28.7870  -15.4644   20.9048 H   0  0  0  0  0  0
  -29.8988  -22.4790   20.0858 H   0  0  0  0  0  0
  1 25  1  0  0  0
  1 30  2  0  0  0
  1 82  1  0  0  0
  2  3  1  0  0  0
  2 25  1  0  0  0
  2 85  1  0  0  0
  2 86  1  0  0  0
  3  4  1  0  0  0
  3 87  1  0  0  0
  3 88  1  0  0  0
  4  5  1  0  0  0
  4 89  1  0  0  0
  4 90  1  0  0  0
  5  6  1  0  0  0
  5 26  1  0  0  0
  5 91  1  0  0  0
  6 25  1  0  0  0
  6 92  1  0  0  0
  6 93  1  0  0  0
  7  8  2  0  0  0
  7 26  1  0  0  0
  7 29  1  0  0  0
  8  9  1  0  0  0
  8 22  1  0  0  0
  9 10  1  0  0  0
  9 27  2  0  0  0
 10 11  2  0  0  0
 10 15  1  0  0  0
 11 12  1  0  0  0
 11 94  1  0  0  0
 12 13  2  0  0  0
 12 95  1  0  0  0
 13 14  1  0  0  0
 13 31  1  0  0  0
 14 15  2  0  0  0
 14 96  1  0  0  0
 15 97  1  0  0  0
 16 17  2  0  0  0
 16 21  1  0  0  0
 16 31  1  0  0  0
 17 18  1  0  0  0
 17 98  1  0  0  0
 18 19  2  0  0  0
 18 99  1  0  0  0
 19 20  1  0  0  0
 19 24  1  0  0  0
 20 21  2  0  0  0
 20100  1  0  0  0
 21 23  1  0  0  0
 22 28  1  0  0  0
 22 32  2  0  0  0
 26 27  1  0  0  0
 28101  1  0  0  0
 28102  1  0  0  0
 29103  1  0  0  0
 29104  1  0  0  0
 33 34  1  0  0  0
 33 66  1  0  0  0
 33 70  2  0  0  0
 34 36  1  0  0  0
 34 59  1  0  0  0
 34105  1  0  0  0
 35 44  2  0  0  0
 35 45  1  0  0  0
 35 68  1  0  0  0
 36 56  1  0  0  0
 36106  1  0  0  0
 37 39  1  0  0  0
 37 47  1  0  0  0
 37 66  1  0  0  0
 37107  1  0  0  0
 38 43  2  0  0  0
 38 46  1  0  0  0
 38 47  1  0  0  0
 39 64  1  0  0  0
 39 67  2  0  0  0
 40 52  1  0  0  0
 40 53  2  0  0  0
 40 58  1  0  0  0
 41108  1  0  0  0
 41109  1  0  0  0
 41110  1  0  0  0
 41 48  1  0  0  0
 42 43  1  0  0  0
 42 66  1  0  0  0
 42111  1  0  0  0
 42112  1  0  0  0
 43 44  1  0  0  0
 44113  1  0  0  0
 45 46  2  0  0  0
 45114  1  0  0  0
 46115  1  0  0  0
 47116  1  0  0  0
 47117  1  0  0  0
 48 56  1  0  0  0
 48 65  1  0  0  0
 48118  1  0  0  0
 49 50  1  0  0  0
 49 53  1  0  0  0
 49 64  1  0  0  0
 49119  1  0  0  0
 50 51  1  0  0  0
 50120  1  0  0  0
 50121  1  0  0  0
 51 52  1  0  0  0
 51122  1  0  0  0
 51123  1  0  0  0
 52124  1  0  0  0
 52125  1  0  0  0
 53 54  1  0  0  0
 54 55  2  0  0  0
 54126  1  0  0  0
 55 57  1  0  0  0
 55127  1  0  0  0
 56 69  2  0  0  0
 57 58  2  0  0  0
 57128  1  0  0  0
 58129  1  0  0  0
 59 60  1  0  0  0
 59 61  1  0  0  0
 59 62  1  0  0  0
 60130  1  0  0  0
 60131  1  0  0  0
 60132  1  0  0  0
 61133  1  0  0  0
 61134  1  0  0  0
 61135  1  0  0  0
 62136  1  0  0  0
 62137  1  0  0  0
 62138  1  0  0  0
 63 65  1  0  0  0
 63139  1  0  0  0
 63140  1  0  0  0
 63141  1  0  0  0
 64142  1  0  0  0
 65143  1  0  0  0
 68 81  1  0  0  0
 71 72  1  0  0  0
 71 73  2  0  0  0
 71144  1  0  0  0
 72 74  2  0  0  0
 72145  1  0  0  0
 73 84  1  0  0  0
 73 78  1  0  0  0
 74 82  1  0  0  0
 74 84  1  0  0  0
 75 76  1  0  0  0
 75 77  1  0  0  0
 75146  1  0  0  0
 75147  1  0  0  0
 76 78  1  0  0  0
 76148  1  0  0  0
 76149  1  0  0  0
 77 83  1  0  0  0
 77150  1  0  0  0
 77151  1  0  0  0
 78 83  1  0  0  0
 78152  1  0  0  0
 79153  1  0  0  0
 79154  1  0  0  0
 79155  1  0  0  0
 79 81  1  0  0  0
 80 81  1  0  0  0
 80156  1  0  0  0
 80157  1  0  0  0
 80 83  1  0  0  0
 81158  1  0  0  0
 82159  1  0  0  0
 83160  1  0  0  0
M  CHG  1  83   1
M  ISO  4   1 100  68 101  81 101  82 100
M  END
> <chiral flag>
0

> <version>
0

> <s_m_source_file>
/data/baiqing/PycharmProjects/Reinvent-master-3.2/result/LINK_invent/BTK/process_docking_weight1_custom_product_contain_oxygen_bond_distance_aromatic_linkinvent_7_9_3/rearranged_h_0149.sdf

> <i_m_source_file_index>
28

> <r_mmod_Potential_Energy-OPLS-2005>
114.479034423828

> <r_mmod_Stretch_Energy-OPLS-2005>
107.513496398926

> <r_mmod_Bend_Energy-OPLS-2005>
221.841094970703

> <r_mmod_Torsional_Energy-OPLS-2005>
303.294006347656

> <r_mmod_Improper_Torsional_Energy-OPLS-2005>
4.98742151260376

> <r_mmod_Van_der_Waal_Energy-OPLS-2005>
115.396430969238

> <r_mmod_Electrostatic_Energy-OPLS-2005>
-280.082641601562

> <r_mmod_Solvation_Energy-OPLS-2005>
-425.341339111328

> <b_mmod_Minimization_Converged-OPLS-2005>
0

> <r_mmod_RMS_Derivative-OPLS-2005>
2.90786004066467

$$$$
28
                    3D
 Structure written by MMmdl.
159168  0  0  1  0            999 V2000
  -30.6187  -14.7531   20.4206 C   0  0  0  0  0  0
  -30.4210  -12.4467   19.4828 C   0  0  0  0  0  0
  -29.5109  -12.5030   18.2355 C   0  0  0  0  0  0
  -28.0386  -12.3155   18.6529 C   0  0  0  0  0  0
  -27.6352  -13.2315   19.8385 C   0  0  2  0  0  0
  -28.6744  -13.1858   20.9791 C   0  0  0  0  0  0
  -25.2487  -13.8186   20.5664 C   0  0  0  0  0  0
  -24.1780  -13.0440   20.9201 C   0  0  0  0  0  0
  -24.6350  -11.6922   20.8697 C   0  0  0  0  0  0
  -23.9020  -10.4293   21.0408 C   0  0  0  0  0  0
  -24.3573   -9.4212   21.9186 C   0  0  0  0  0  0
  -23.6278   -8.2225   22.0719 C   0  0  0  0  0  0
  -22.4262   -8.0249   21.3529 C   0  0  0  0  0  0
  -21.9908   -9.0211   20.4630 C   0  0  0  0  0  0
  -22.7202  -10.2107   20.3058 C   0  0  0  0  0  0
  -21.6846   -6.0710   22.5288 C   0  0  0  0  0  0
  -21.4022   -6.5614   23.8224 C   0  0  0  0  0  0
  -21.3658   -5.6750   24.9174 C   0  0  0  0  0  0
  -21.6052   -4.3022   24.7241 C   0  0  0  0  0  0
  -21.8814   -3.8139   23.4350 C   0  0  0  0  0  0
  -21.9187   -4.6948   22.3396 C   0  0  0  0  0  0
  -22.7807  -13.5216   21.1884 C   0  0  0  0  0  0
  -22.1678   -4.2138   21.0977 F   0  0  0  0  0  0
  -21.5630   -3.4503   25.7757 F   0  0  0  0  0  0
  -29.9800  -13.5277   20.3987 N   0  0  0  0  0  0
  -26.2882  -12.9397   20.3185 N   0  0  0  0  0  0
  -25.9268  -11.6557   20.5681 N   0  0  0  0  0  0
  -22.0444  -12.8198   22.0430 N   0  0  0  0  0  0
  -25.4210  -15.1895   20.4041 N   0  0  0  0  0  0
  -31.8204  -14.7858   20.1434 O   0  0  0  0  0  0
  -21.6621   -6.8849   21.4238 O   0  0  0  0  0  0
  -22.3522  -14.5522   20.6704 O   0  0  0  0  0  0
  -24.6308  -31.8553   23.2039 C   0  0  0  0  0  0
  -25.9135  -32.4771   23.8339 C   0  0  1  0  0  0
  -27.2092  -27.2558   20.1113 C   0  0  0  0  0  0
  -25.5940  -33.8564   24.2263 N   0  0  0  0  0  0
  -23.4252  -30.4783   21.5495 C   0  0  2  0  0  0
  -24.8640  -28.9234   20.1125 C   0  0  0  0  0  0
  -22.7503  -29.4590   22.4973 C   0  0  0  0  0  0
  -18.0292  -28.1414   22.8470 C   0  0  0  0  0  0
  -24.1466  -36.7263   23.2644 C   0  0  0  0  0  0
  -25.9706  -30.7607   21.3848 C   0  0  0  0  0  0
  -26.0356  -29.3836   20.7233 C   0  0  0  0  0  0
  -27.2044  -28.5574   20.7204 C   0  0  0  0  0  0
  -26.0210  -26.8708   19.4588 C   0  0  0  0  0  0
  -24.8578  -27.6688   19.4797 C   0  0  0  0  0  0
  -23.6393  -29.8152   20.1632 C   0  0  0  0  0  0
  -25.4100  -36.3082   24.0329 C   0  0  1  0  0  0
  -20.5880  -28.3684   23.1319 C   0  0  2  0  0  0
  -20.6784  -26.9408   22.5420 C   0  0  0  0  0  0
  -19.5757  -26.6391   21.5216 C   0  0  0  0  0  0
  -18.1942  -26.7958   22.1622 C   0  0  0  0  0  0
  -19.1543  -28.8870   23.2882 C   0  0  0  0  0  0
  -18.9465  -30.1485   23.8861 C   0  0  0  0  0  0
  -17.6463  -30.6606   24.0560 C   0  0  0  0  0  0
  -25.9040  -34.9448   23.5106 C   0  0  0  0  0  0
  -16.5356  -29.9081   23.6347 C   0  0  0  0  0  0
  -16.7288  -28.6523   23.0335 C   0  0  0  0  0  0
  -26.4477  -31.6615   25.0751 C   0  0  0  0  0  0
  -25.3706  -31.3780   26.1494 C   0  0  0  0  0  0
  -27.0336  -30.3043   24.6278 C   0  0  0  0  0  0
  -27.6033  -32.4363   25.7515 C   0  0  0  0  0  0
  -27.5565  -37.1792   24.8466 C   0  0  0  0  0  0
  -21.4213  -29.3025   22.3706 N   0  0  0  0  0  0
  -26.4280  -37.3786   23.9421 N   0  0  0  0  0  0
  -24.6941  -31.0505   22.1027 N   0  0  0  0  0  0
  -23.4210  -28.8125   23.3066 O   0  0  0  0  0  0
  -28.3130  -26.3771   20.1992 O   0  0  0  0  0  0
  -26.5610  -34.8931   22.4671 O   0  0  0  0  0  0
  -23.5469  -32.1383   23.7349 O   0  0  0  0  0  0
  -30.8216  -19.9711   19.3470 C   0  0  0  0  0  0
  -29.3447  -18.4778   20.5399 C   0  0  0  0  0  0
  -31.5655  -18.8350   19.0021 C   0  0  0  0  0  0
  -29.6646  -19.8404   20.1299 C   0  0  0  0  0  0
  -30.1666  -17.3268   20.1722 C   0  0  0  0  0  0
  -28.9679  -21.1366   20.5830 C   0  0  0  0  0  0
  -27.0360  -22.4942   18.1973 C   0  0  0  0  0  0
  -26.6066  -23.1522   19.5365 C   0  0  0  0  0  0
  -28.5270  -22.1336   18.3815 C   0  0  0  0  0  0
  -27.9340  -23.5711   20.1925 C   0  0  2  0  0  0
  -28.4214  -25.0099   19.5662 C   0  0  0  0  0  0
  -31.2455  -17.5807   19.3949 N   0  0  0  0  0  0
  -28.7117  -22.2937   19.8239 N   0  0  0  0  0  0
  -29.8665  -15.9219   20.5773 N   0  0  0  0  0  0
  -28.5868  -21.1284   21.8675 N   0  3  0  0  0  0
  -31.4699  -12.5375   19.1988 H   0  0  0  0  0  0
  -30.3431  -11.4749   19.9750 H   0  0  0  0  0  0
  -29.8031  -11.7306   17.5222 H   0  0  0  0  0  0
  -29.6355  -13.4586   17.7209 H   0  0  0  0  0  0
  -27.9138  -11.2758   18.9478 H   0  0  0  0  0  0
  -27.3694  -12.4687   17.8044 H   0  0  0  0  0  0
  -27.6250  -14.2440   19.4380 H   0  0  0  0  0  0
  -28.7013  -12.2006   21.4477 H   0  0  0  0  0  0
  -28.4038  -13.8868   21.7694 H   0  0  0  0  0  0
  -25.2743   -9.5698   22.4755 H   0  0  0  0  0  0
  -24.0017   -7.4601   22.7398 H   0  0  0  0  0  0
  -21.0865   -8.8724   19.8900 H   0  0  0  0  0  0
  -22.3682  -10.9649   19.6128 H   0  0  0  0  0  0
  -21.2043   -7.6133   23.9750 H   0  0  0  0  0  0
  -21.1475   -6.0472   25.9084 H   0  0  0  0  0  0
  -22.0602   -2.7604   23.2842 H   0  0  0  0  0  0
  -22.4049  -11.9882   22.4889 H   0  0  0  0  0  0
  -21.1027  -13.1225   22.2540 H   0  0  0  0  0  0
  -24.6447  -15.8374   20.4772 H   0  0  0  0  0  0
  -26.2532  -15.6166   20.0184 H   0  0  0  0  0  0
  -26.7205  -32.5386   23.1061 H   0  0  0  0  0  0
  -25.0048  -33.9667   25.0402 H   0  0  0  0  0  0
  -22.7217  -31.3031   21.4132 H   0  0  0  0  0  0
  -23.3737  -35.9583   23.3324 H   0  0  0  0  0  0
  -24.3544  -36.8877   22.2053 H   0  0  0  0  0  0
  -23.7197  -37.6467   23.6648 H   0  0  0  0  0  0
  -26.1156  -31.5251   20.6192 H   0  0  0  0  0  0
  -26.8459  -30.8020   22.0217 H   0  0  0  0  0  0
  -28.0970  -28.9011   21.2243 H   0  0  0  0  0  0
  -25.9579  -25.9350   18.9378 H   0  0  0  0  0  0
  -23.9565  -27.3059   19.0054 H   0  0  0  0  0  0
  -23.7717  -30.5960   19.4143 H   0  0  0  0  0  0
  -22.7514  -29.2617   19.8530 H   0  0  0  0  0  0
  -25.1278  -36.1917   25.0819 H   0  0  0  0  0  0
  -20.9951  -28.3236   24.1455 H   0  0  0  0  0  0
  -20.5713  -26.2256   23.3605 H   0  0  0  0  0  0
  -21.6666  -26.7473   22.1209 H   0  0  0  0  0  0
  -19.6905  -25.6289   21.1273 H   0  0  0  0  0  0
  -19.6727  -27.3176   20.6732 H   0  0  0  0  0  0
  -17.4211  -26.6701   21.4034 H   0  0  0  0  0  0
  -18.0340  -26.0137   22.9058 H   0  0  0  0  0  0
  -19.7940  -30.7342   24.2202 H   0  0  0  0  0  0
  -17.5008  -31.6290   24.5161 H   0  0  0  0  0  0
  -15.5343  -30.2959   23.7734 H   0  0  0  0  0  0
  -15.8695  -28.0861   22.7019 H   0  0  0  0  0  0
  -24.5844  -30.7172   25.7831 H   0  0  0  0  0  0
  -24.8923  -32.2957   26.4932 H   0  0  0  0  0  0
  -25.8021  -30.8940   27.0274 H   0  0  0  0  0  0
  -26.2949  -29.6801   24.1255 H   0  0  0  0  0  0
  -27.3959  -29.7313   25.4820 H   0  0  0  0  0  0
  -27.8846  -30.4333   23.9593 H   0  0  0  0  0  0
  -27.2650  -33.3678   26.2071 H   0  0  0  0  0  0
  -28.3843  -32.6913   25.0337 H   0  0  0  0  0  0
  -28.0707  -31.8513   26.5453 H   0  0  0  0  0  0
  -28.2604  -38.0075   24.7527 H   0  0  0  0  0  0
  -28.1057  -36.2607   24.6286 H   0  0  0  0  0  0
  -27.2299  -37.1460   25.8883 H   0  0  0  0  0  0
  -20.9404  -29.8701   21.6887 H   0  0  0  0  0  0
  -26.0150  -38.2871   24.1428 H   0  0  0  0  0  0
  -31.1713  -20.9453   19.0347 H   0  0  0  0  0  0
  -28.4679  -18.3151   21.1505 H   0  0  0  0  0  0
  -32.4613  -18.9411   18.4051 H   0  0  0  0  0  0
  -26.9020  -23.1787   17.3577 H   0  0  0  0  0  0
  -26.4359  -21.6071   17.9866 H   0  0  0  0  0  0
  -26.1055  -22.4153   20.1666 H   0  0  0  0  0  0
  -25.8901  -23.9536   19.3921 H   0  0  0  0  0  0
  -29.1799  -22.8258   17.8453 H   0  0  0  0  0  0
  -28.7425  -21.1258   18.0299 H   0  0  0  0  0  0
  -27.8428  -23.6645   21.2744 H   0  0  0  0  0  0
  -28.0263  -25.1044   18.5516 H   0  0  0  0  0  0
  -29.4935  -24.9021   19.3928 H   0  0  0  0  0  0
  -28.9335  -15.7697   20.9243 H   0  0  0  0  0  0
  -28.7153  -20.2838   22.4023 H   0  0  0  0  0  0
  -28.1789  -21.9237   22.3303 H   0  0  0  0  0  0
  1 25  1  0  0  0
  1 30  2  0  0  0
  1 84  1  0  0  0
  2  3  1  0  0  0
  2 25  1  0  0  0
  2 86  1  0  0  0
  2 87  1  0  0  0
  3  4  1  0  0  0
  3 88  1  0  0  0
  3 89  1  0  0  0
  4  5  1  0  0  0
  4 90  1  0  0  0
  4 91  1  0  0  0
  5  6  1  0  0  0
  5 26  1  0  0  0
  5 92  1  0  0  0
  6 25  1  0  0  0
  6 93  1  0  0  0
  6 94  1  0  0  0
  7  8  2  0  0  0
  7 26  1  0  0  0
  7 29  1  0  0  0
  8  9  1  0  0  0
  8 22  1  0  0  0
  9 10  1  0  0  0
  9 27  2  0  0  0
 10 11  2  0  0  0
 10 15  1  0  0  0
 11 12  1  0  0  0
 11 95  1  0  0  0
 12 13  2  0  0  0
 12 96  1  0  0  0
 13 14  1  0  0  0
 13 31  1  0  0  0
 14 15  2  0  0  0
 14 97  1  0  0  0
 15 98  1  0  0  0
 16 17  2  0  0  0
 16 21  1  0  0  0
 16 31  1  0  0  0
 17 18  1  0  0  0
 17 99  1  0  0  0
 18 19  2  0  0  0
 18100  1  0  0  0
 19 20  1  0  0  0
 19 24  1  0  0  0
 20 21  2  0  0  0
 20101  1  0  0  0
 21 23  1  0  0  0
 22 28  1  0  0  0
 22 32  2  0  0  0
 26 27  1  0  0  0
 28102  1  0  0  0
 28103  1  0  0  0
 29104  1  0  0  0
 29105  1  0  0  0
 33 34  1  0  0  0
 33 66  1  0  0  0
 33 70  2  0  0  0
 34 36  1  0  0  0
 34 59  1  0  0  0
 34106  1  0  0  0
 35 44  2  0  0  0
 35 45  1  0  0  0
 35 68  1  0  0  0
 36 56  1  0  0  0
 36107  1  0  0  0
 37 39  1  0  0  0
 37 47  1  0  0  0
 37 66  1  0  0  0
 37108  1  0  0  0
 38 43  2  0  0  0
 38 46  1  0  0  0
 38 47  1  0  0  0
 39 64  1  0  0  0
 39 67  2  0  0  0
 40 52  1  0  0  0
 40 53  2  0  0  0
 40 58  1  0  0  0
 41109  1  0  0  0
 41110  1  0  0  0
 41111  1  0  0  0
 41 48  1  0  0  0
 42 43  1  0  0  0
 42 66  1  0  0  0
 42112  1  0  0  0
 42113  1  0  0  0
 43 44  1  0  0  0
 44114  1  0  0  0
 45 46  2  0  0  0
 45115  1  0  0  0
 46116  1  0  0  0
 47117  1  0  0  0
 47118  1  0  0  0
 48 56  1  0  0  0
 48 65  1  0  0  0
 48119  1  0  0  0
 49 50  1  0  0  0
 49 53  1  0  0  0
 49 64  1  0  0  0
 49120  1  0  0  0
 50 51  1  0  0  0
 50121  1  0  0  0
 50122  1  0  0  0
 51 52  1  0  0  0
 51123  1  0  0  0
 51124  1  0  0  0
 52125  1  0  0  0
 52126  1  0  0  0
 53 54  1  0  0  0
 54 55  2  0  0  0
 54127  1  0  0  0
 55 57  1  0  0  0
 55128  1  0  0  0
 56 69  2  0  0  0
 57 58  2  0  0  0
 57129  1  0  0  0
 58130  1  0  0  0
 59 60  1  0  0  0
 59 61  1  0  0  0
 59 62  1  0  0  0
 60131  1  0  0  0
 60132  1  0  0  0
 60133  1  0  0  0
 61134  1  0  0  0
 61135  1  0  0  0
 61136  1  0  0  0
 62137  1  0  0  0
 62138  1  0  0  0
 62139  1  0  0  0
 63 65  1  0  0  0
 63140  1  0  0  0
 63141  1  0  0  0
 63142  1  0  0  0
 64143  1  0  0  0
 65144  1  0  0  0
 68 81  1  0  0  0
 71 73  2  0  0  0
 71 74  1  0  0  0
 71145  1  0  0  0
 72 74  2  0  0  0
 72 75  1  0  0  0
 72146  1  0  0  0
 73 82  1  0  0  0
 73147  1  0  0  0
 74 76  1  0  0  0
 75 82  2  0  0  0
 75 84  1  0  0  0
 76 83  1  0  0  0
 76 85  2  0  0  0
 77 78  1  0  0  0
 77 79  1  0  0  0
 77148  1  0  0  0
 77149  1  0  0  0
 78 80  1  0  0  0
 78150  1  0  0  0
 78151  1  0  0  0
 79 83  1  0  0  0
 79152  1  0  0  0
 79153  1  0  0  0
 80 81  1  0  0  0
 80 83  1  0  0  0
 80154  1  0  0  0
 81155  1  0  0  0
 81156  1  0  0  0
 84157  1  0  0  0
 85158  1  0  0  0
 85159  1  0  0  0
M  CHG  1  85   1
M  ISO  4   1 100  68 101  81 101  84 100
M  END
> <chiral flag>
0

> <version>
0

> <s_m_source_file>
/data/baiqing/PycharmProjects/Reinvent-master-3.2/result/LINK_invent/BTK/process_docking_weight1_custom_product_contain_oxygen_bond_distance_aromatic_linkinvent_7_9_3/rearranged_h_0149.sdf

> <i_m_source_file_index>
29

> <r_mmod_Potential_Energy-OPLS-2005>
-16.6779613494873

> <r_mmod_Stretch_Energy-OPLS-2005>
135.838165283203

> <r_mmod_Bend_Energy-OPLS-2005>
251.77815246582

> <r_mmod_Torsional_Energy-OPLS-2005>
286.680236816406

> <r_mmod_Improper_Torsional_Energy-OPLS-2005>
7.50360012054443

> <r_mmod_Van_der_Waal_Energy-OPLS-2005>
142.897888183594

> <r_mmod_Electrostatic_Energy-OPLS-2005>
-433.144409179688

> <r_mmod_Solvation_Energy-OPLS-2005>
-497.679016113281

> <b_mmod_Minimization_Converged-OPLS-2005>
0

> <r_mmod_RMS_Derivative-OPLS-2005>
5.37053442001343

$$$$
29
                    3D
 Structure written by MMmdl.
158166  0  0  1  0            999 V2000
  -30.6799  -14.5842   20.5003 C   0  0  0  0  0  0
  -30.4255  -12.3613   19.4365 C   0  0  0  0  0  0
  -29.5027  -12.5052   18.2095 C   0  0  0  0  0  0
  -28.0225  -12.3604   18.6227 C   0  0  0  0  0  0
  -27.6512  -13.2232   19.8614 C   0  0  2  0  0  0
  -28.7016  -13.0752   20.9855 C   0  0  0  0  0  0
  -25.2553  -13.8203   20.5694 C   0  0  0  0  0  0
  -24.1819  -13.0474   20.9187 C   0  0  0  0  0  0
  -24.6388  -11.6937   20.8754 C   0  0  0  0  0  0
  -23.9065  -10.4317   21.0405 C   0  0  0  0  0  0
  -24.3618   -9.4233   21.9176 C   0  0  0  0  0  0
  -23.6298   -8.2268   22.0749 C   0  0  0  0  0  0
  -22.4274   -8.0314   21.3555 C   0  0  0  0  0  0
  -21.9916   -9.0278   20.4654 C   0  0  0  0  0  0
  -22.7240  -10.2154   20.3061 C   0  0  0  0  0  0
  -21.6866   -6.0736   22.5274 C   0  0  0  0  0  0
  -21.4006   -6.5629   23.8204 C   0  0  0  0  0  0
  -21.3663   -5.6783   24.9167 C   0  0  0  0  0  0
  -21.6055   -4.3042   24.7218 C   0  0  0  0  0  0
  -21.8817   -3.8137   23.4336 C   0  0  0  0  0  0
  -21.9198   -4.6960   22.3399 C   0  0  0  0  0  0
  -22.7839  -13.5259   21.1851 C   0  0  0  0  0  0
  -22.1669   -4.2147   21.0971 F   0  0  0  0  0  0
  -21.5651   -3.4527   25.7730 F   0  0  0  0  0  0
  -30.0157  -13.3925   20.4068 N   0  0  0  0  0  0
  -26.2986  -12.9388   20.3331 N   0  0  0  0  0  0
  -25.9315  -11.6532   20.5738 N   0  0  0  0  0  0
  -22.0475  -12.8265   22.0406 N   0  0  0  0  0  0
  -25.4312  -15.1929   20.4110 N   0  0  0  0  0  0
  -31.8493  -14.6974   20.1286 O   0  0  0  0  0  0
  -21.6665   -6.8894   21.4238 O   0  0  0  0  0  0
  -22.3533  -14.5573   20.6703 O   0  0  0  0  0  0
  -24.6257  -31.8584   23.2013 C   0  0  0  0  0  0
  -25.9128  -32.4758   23.8326 C   0  0  1  0  0  0
  -27.2203  -27.3267   20.1179 C   0  0  0  0  0  0
  -25.5964  -33.8554   24.2261 N   0  0  0  0  0  0
  -23.4149  -30.4847   21.5451 C   0  0  2  0  0  0
  -24.8586  -28.9355   20.1089 C   0  0  0  0  0  0
  -22.7428  -29.4633   22.4932 C   0  0  0  0  0  0
  -18.0277  -28.1389   22.8473 C   0  0  0  0  0  0
  -24.1476  -36.7297   23.2633 C   0  0  0  0  0  0
  -25.9538  -30.7914   21.3690 C   0  0  0  0  0  0
  -26.0273  -29.4201   20.7125 C   0  0  0  0  0  0
  -27.2101  -28.6273   20.7053 C   0  0  0  0  0  0
  -26.0342  -26.8938   19.4812 C   0  0  0  0  0  0
  -24.8649  -27.6784   19.4848 C   0  0  0  0  0  0
  -23.6252  -29.8144   20.1609 C   0  0  0  0  0  0
  -25.4102  -36.3065   24.0309 C   0  0  1  0  0  0
  -20.5868  -28.3700   23.1262 C   0  0  2  0  0  0
  -20.6771  -26.9429   22.5396 C   0  0  0  0  0  0
  -19.5757  -26.6378   21.5194 C   0  0  0  0  0  0
  -18.1927  -26.7929   22.1601 C   0  0  0  0  0  0
  -19.1531  -28.8861   23.2864 C   0  0  0  0  0  0
  -18.9460  -30.1458   23.8887 C   0  0  0  0  0  0
  -17.6463  -30.6594   24.0562 C   0  0  0  0  0  0
  -25.9053  -34.9442   23.5086 C   0  0  0  0  0  0
  -16.5351  -29.9092   23.6345 C   0  0  0  0  0  0
  -16.7262  -28.6516   23.0345 C   0  0  0  0  0  0
  -26.4517  -31.6576   25.0711 C   0  0  0  0  0  0
  -25.3766  -31.3744   26.1458 C   0  0  0  0  0  0
  -27.0366  -30.2995   24.6197 C   0  0  0  0  0  0
  -27.6049  -32.4323   25.7513 C   0  0  0  0  0  0
  -27.5566  -37.1805   24.8463 C   0  0  0  0  0  0
  -21.4148  -29.3070   22.3675 N   0  0  0  0  0  0
  -26.4284  -37.3762   23.9404 N   0  0  0  0  0  0
  -24.6835  -31.0599   22.0959 N   0  0  0  0  0  0
  -23.4141  -28.8182   23.3014 O   0  0  0  0  0  0
  -28.3514  -26.4987   20.1768 O   0  0  0  0  0  0
  -26.5589  -34.8915   22.4635 O   0  0  0  0  0  0
  -23.5437  -32.1387   23.7373 O   0  0  0  0  0  0
  -29.9816  -18.2900   20.4478 C   0  0  0  0  0  0
  -29.9418  -18.6116   19.1117 C   0  0  0  0  0  0
  -29.3804  -20.4446   20.2192 C   0  0  0  0  0  0
  -29.8480  -22.7405   20.1175 C   0  0  0  0  0  0
  -30.3018  -17.8499   17.8767 C   0  0  0  0  0  0
  -31.3000  -22.4500   19.7321 C   0  0  0  0  0  0
  -27.3936  -24.6484   21.5084 C   0  0  0  0  0  0
  -30.5114  -17.0324   21.1764 C   0  0  0  0  0  0
  -29.6193  -24.3047   20.2751 C   0  0  0  0  0  0
  -28.2080  -25.0192   20.2497 C   0  0  2  0  0  0
  -29.5903  -19.4644   21.1234 N   0  0  0  0  0  0
  -29.0127  -21.7727   20.3410 N   0  0  0  0  0  0
  -29.9607  -15.6770   20.8668 N   0  0  0  0  0  0
  -29.5574  -19.9344   18.9625 O   0  0  0  0  0  0
  -31.4741  -12.4520   19.1410 H   0  0  0  0  0  0
  -30.3296  -11.3655   19.8730 H   0  0  0  0  0  0
  -29.7542  -11.7626   17.4510 H   0  0  0  0  0  0
  -29.6601  -13.4819   17.7481 H   0  0  0  0  0  0
  -27.8382  -11.3053   18.8294 H   0  0  0  0  0  0
  -27.3746  -12.6173   17.7841 H   0  0  0  0  0  0
  -27.6706  -14.2622   19.5264 H   0  0  0  0  0  0
  -28.6989  -12.0537   21.3706 H   0  0  0  0  0  0
  -28.4639  -13.7188   21.8357 H   0  0  0  0  0  0
  -25.2756   -9.5720   22.4748 H   0  0  0  0  0  0
  -24.0035   -7.4640   22.7438 H   0  0  0  0  0  0
  -21.0870   -8.8780   19.8931 H   0  0  0  0  0  0
  -22.3694  -10.9697   19.6181 H   0  0  0  0  0  0
  -21.1968   -7.6129   23.9705 H   0  0  0  0  0  0
  -21.1508   -6.0512   25.9082 H   0  0  0  0  0  0
  -22.0592   -2.7602   23.2835 H   0  0  0  0  0  0
  -22.4070  -11.9952   22.4858 H   0  0  0  0  0  0
  -21.1073  -13.1274   22.2550 H   0  0  0  0  0  0
  -24.6747  -15.8564   20.5313 H   0  0  0  0  0  0
  -26.2879  -15.6275   20.0918 H   0  0  0  0  0  0
  -26.7196  -32.5409   23.1064 H   0  0  0  0  0  0
  -25.0165  -33.9690   25.0452 H   0  0  0  0  0  0
  -22.7140  -31.3098   21.4052 H   0  0  0  0  0  0
  -23.3715  -35.9662   23.3314 H   0  0  0  0  0  0
  -24.3573  -36.8910   22.2051 H   0  0  0  0  0  0
  -23.7266  -37.6516   23.6655 H   0  0  0  0  0  0
  -26.0800  -31.5473   20.5932 H   0  0  0  0  0  0
  -26.8374  -30.8420   21.9943 H   0  0  0  0  0  0
  -28.1053  -28.9915   21.1892 H   0  0  0  0  0  0
  -25.9910  -25.9341   18.9867 H   0  0  0  0  0  0
  -23.9712  -27.3016   19.0043 H   0  0  0  0  0  0
  -23.7446  -30.5927   19.4054 H   0  0  0  0  0  0
  -22.7441  -29.2450   19.8569 H   0  0  0  0  0  0
  -25.1281  -36.1903   25.0799 H   0  0  0  0  0  0
  -20.9955  -28.3285   24.1379 H   0  0  0  0  0  0
  -20.5657  -26.2313   23.3592 H   0  0  0  0  0  0
  -21.6639  -26.7450   22.1215 H   0  0  0  0  0  0
  -19.6928  -25.6276   21.1255 H   0  0  0  0  0  0
  -19.6720  -27.3156   20.6698 H   0  0  0  0  0  0
  -17.4198  -26.6660   21.4000 H   0  0  0  0  0  0
  -18.0368  -26.0068   22.9006 H   0  0  0  0  0  0
  -19.7943  -30.7269   24.2250 H   0  0  0  0  0  0
  -17.5036  -31.6274   24.5148 H   0  0  0  0  0  0
  -15.5364  -30.2995   23.7686 H   0  0  0  0  0  0
  -15.8658  -28.0835   22.7062 H   0  0  0  0  0  0
  -24.5921  -30.7103   25.7818 H   0  0  0  0  0  0
  -24.8989  -32.2928   26.4868 H   0  0  0  0  0  0
  -25.8095  -30.8941   27.0241 H   0  0  0  0  0  0
  -26.2957  -29.6737   24.1205 H   0  0  0  0  0  0
  -27.4043  -29.7253   25.4713 H   0  0  0  0  0  0
  -27.8826  -30.4271   23.9437 H   0  0  0  0  0  0
  -27.2631  -33.3615   26.2079 H   0  0  0  0  0  0
  -28.3885  -32.6894   25.0377 H   0  0  0  0  0  0
  -28.0700  -31.8469   26.5460 H   0  0  0  0  0  0
  -28.2573  -38.0098   24.7467 H   0  0  0  0  0  0
  -28.1053  -36.2626   24.6316 H   0  0  0  0  0  0
  -27.2291  -37.1491   25.8866 H   0  0  0  0  0  0
  -20.9328  -29.8806   21.6911 H   0  0  0  0  0  0
  -26.0143  -38.2832   24.1395 H   0  0  0  0  0  0
  -29.7481  -16.9126   17.8074 H   0  0  0  0  0  0
  -31.3657  -17.6082   17.8733 H   0  0  0  0  0  0
  -30.0862  -18.4209   16.9731 H   0  0  0  0  0  0
  -31.3671  -22.0510   18.7200 H   0  0  0  0  0  0
  -31.7453  -21.7275   20.4160 H   0  0  0  0  0  0
  -31.9188  -23.3444   19.7854 H   0  0  0  0  0  0
  -26.3532  -24.9635   21.4307 H   0  0  0  0  0  0
  -27.8129  -25.1174   22.3993 H   0  0  0  0  0  0
  -27.3794  -23.5709   21.6807 H   0  0  0  0  0  0
  -30.3827  -17.1698   22.2507 H   0  0  0  0  0  0
  -31.5957  -17.0074   21.0407 H   0  0  0  0  0  0
  -30.1873  -24.7859   19.4782 H   0  0  0  0  0  0
  -30.1268  -24.6064   21.1928 H   0  0  0  0  0  0
  -27.6857  -24.6597   19.3636 H   0  0  0  0  0  0
  -28.9876  -15.5260   21.0836 H   0  0  0  0  0  0
  1 25  1  0  0  0
  1 30  2  0  0  0
  1 83  1  0  0  0
  2  3  1  0  0  0
  2 25  1  0  0  0
  2 85  1  0  0  0
  2 86  1  0  0  0
  3  4  1  0  0  0
  3 87  1  0  0  0
  3 88  1  0  0  0
  4  5  1  0  0  0
  4 89  1  0  0  0
  4 90  1  0  0  0
  5  6  1  0  0  0
  5 26  1  0  0  0
  5 91  1  0  0  0
  6 25  1  0  0  0
  6 92  1  0  0  0
  6 93  1  0  0  0
  7  8  2  0  0  0
  7 26  1  0  0  0
  7 29  1  0  0  0
  8  9  1  0  0  0
  8 22  1  0  0  0
  9 10  1  0  0  0
  9 27  2  0  0  0
 10 11  2  0  0  0
 10 15  1  0  0  0
 11 12  1  0  0  0
 11 94  1  0  0  0
 12 13  2  0  0  0
 12 95  1  0  0  0
 13 14  1  0  0  0
 13 31  1  0  0  0
 14 15  2  0  0  0
 14 96  1  0  0  0
 15 97  1  0  0  0
 16 17  2  0  0  0
 16 21  1  0  0  0
 16 31  1  0  0  0
 17 18  1  0  0  0
 17 98  1  0  0  0
 18 19  2  0  0  0
 18 99  1  0  0  0
 19 20  1  0  0  0
 19 24  1  0  0  0
 20 21  2  0  0  0
 20100  1  0  0  0
 21 23  1  0  0  0
 22 28  1  0  0  0
 22 32  2  0  0  0
 26 27  1  0  0  0
 28101  1  0  0  0
 28102  1  0  0  0
 29103  1  0  0  0
 29104  1  0  0  0
 33 34  1  0  0  0
 33 66  1  0  0  0
 33 70  2  0  0  0
 34 36  1  0  0  0
 34 59  1  0  0  0
 34105  1  0  0  0
 35 44  2  0  0  0
 35 45  1  0  0  0
 35 68  1  0  0  0
 36 56  1  0  0  0
 36106  1  0  0  0
 37 39  1  0  0  0
 37 47  1  0  0  0
 37 66  1  0  0  0
 37107  1  0  0  0
 38 43  2  0  0  0
 38 46  1  0  0  0
 38 47  1  0  0  0
 39 64  1  0  0  0
 39 67  2  0  0  0
 40 52  1  0  0  0
 40 53  2  0  0  0
 40 58  1  0  0  0
 41108  1  0  0  0
 41109  1  0  0  0
 41110  1  0  0  0
 41 48  1  0  0  0
 42 43  1  0  0  0
 42 66  1  0  0  0
 42111  1  0  0  0
 42112  1  0  0  0
 43 44  1  0  0  0
 44113  1  0  0  0
 45 46  2  0  0  0
 45114  1  0  0  0
 46115  1  0  0  0
 47116  1  0  0  0
 47117  1  0  0  0
 48 56  1  0  0  0
 48 65  1  0  0  0
 48118  1  0  0  0
 49 50  1  0  0  0
 49 53  1  0  0  0
 49 64  1  0  0  0
 49119  1  0  0  0
 50 51  1  0  0  0
 50120  1  0  0  0
 50121  1  0  0  0
 51 52  1  0  0  0
 51122  1  0  0  0
 51123  1  0  0  0
 52124  1  0  0  0
 52125  1  0  0  0
 53 54  1  0  0  0
 54 55  2  0  0  0
 54126  1  0  0  0
 55 57  1  0  0  0
 55127  1  0  0  0
 56 69  2  0  0  0
 57 58  2  0  0  0
 57128  1  0  0  0
 58129  1  0  0  0
 59 60  1  0  0  0
 59 61  1  0  0  0
 59 62  1  0  0  0
 60130  1  0  0  0
 60131  1  0  0  0
 60132  1  0  0  0
 61133  1  0  0  0
 61134  1  0  0  0
 61135  1  0  0  0
 62136  1  0  0  0
 62137  1  0  0  0
 62138  1  0  0  0
 63 65  1  0  0  0
 63139  1  0  0  0
 63140  1  0  0  0
 63141  1  0  0  0
 64142  1  0  0  0
 65143  1  0  0  0
 68 80  1  0  0  0
 71 72  2  0  0  0
 71 78  1  0  0  0
 71 81  1  0  0  0
 72 75  1  0  0  0
 72 84  1  0  0  0
 73 81  2  0  0  0
 73 82  1  0  0  0
 73 84  1  0  0  0
 74 76  1  0  0  0
 74 79  1  0  0  0
 74 82  2  0  0  0
 75144  1  0  0  0
 75145  1  0  0  0
 75146  1  0  0  0
 76147  1  0  0  0
 76148  1  0  0  0
 76149  1  0  0  0
 77150  1  0  0  0
 77151  1  0  0  0
 77152  1  0  0  0
 77 80  1  0  0  0
 78 83  1  0  0  0
 78153  1  0  0  0
 78154  1  0  0  0
 79 80  1  0  0  0
 79155  1  0  0  0
 79156  1  0  0  0
 80157  1  0  0  0
 83158  1  0  0  0
M  ISO  4   1 100  68 101  80 101  83 100
M  END
> <chiral flag>
0

> <version>
0

> <s_m_source_file>
/data/baiqing/PycharmProjects/Reinvent-master-3.2/result/LINK_invent/BTK/process_docking_weight1_custom_product_contain_oxygen_bond_distance_aromatic_linkinvent_7_9_3/rearranged_h_0149.sdf

> <i_m_source_file_index>
30

> <r_mmod_Potential_Energy-OPLS-2005>
-105.003387451172

> <r_mmod_Stretch_Energy-OPLS-2005>
71.033332824707

> <r_mmod_Bend_Energy-OPLS-2005>
144.462432861328

> <r_mmod_Torsional_Energy-OPLS-2005>
220.062713623047

> <r_mmod_Improper_Torsional_Energy-OPLS-2005>
4.63168716430664

> <r_mmod_Van_der_Waal_Energy-OPLS-2005>
123.73371887207

> <r_mmod_Electrostatic_Energy-OPLS-2005>
-490.891540527344

> <r_mmod_Solvation_Energy-OPLS-2005>
-217.76921081543

> <b_mmod_Minimization_Converged-OPLS-2005>
0

> <r_mmod_RMS_Derivative-OPLS-2005>
3.8099422454834

$$$$
30
                    3D
 Structure written by MMmdl.
158167  0  0  1  0            999 V2000
  -30.6182  -14.6059   20.5261 C   0  0  0  0  0  0
  -30.4393  -12.3747   19.4506 C   0  0  0  0  0  0
  -29.5066  -12.5021   18.2259 C   0  0  0  0  0  0
  -28.0303  -12.3356   18.6363 C   0  0  0  0  0  0
  -27.6546  -13.2034   19.8677 C   0  0  2  0  0  0
  -28.6961  -13.0259   20.9946 C   0  0  0  0  0  0
  -25.2571  -13.8117   20.5675 C   0  0  0  0  0  0
  -24.1830  -13.0422   20.9174 C   0  0  0  0  0  0
  -24.6363  -11.6882   20.8760 C   0  0  0  0  0  0
  -23.9018  -10.4281   21.0407 C   0  0  0  0  0  0
  -24.3574   -9.4197   21.9177 C   0  0  0  0  0  0
  -23.6241   -8.2236   22.0752 C   0  0  0  0  0  0
  -22.4235   -8.0274   21.3528 C   0  0  0  0  0  0
  -21.9866   -9.0254   20.4653 C   0  0  0  0  0  0
  -22.7192  -10.2135   20.3055 C   0  0  0  0  0  0
  -21.6836   -6.0729   22.5278 C   0  0  0  0  0  0
  -21.4025   -6.5639   23.8224 C   0  0  0  0  0  0
  -21.3661   -5.6798   24.9183 C   0  0  0  0  0  0
  -21.6019   -4.3055   24.7233 C   0  0  0  0  0  0
  -21.8815   -3.8141   23.4362 C   0  0  0  0  0  0
  -21.9197   -4.6952   22.3416 C   0  0  0  0  0  0
  -22.7855  -13.5245   21.1807 C   0  0  0  0  0  0
  -22.1653   -4.2139   21.0983 F   0  0  0  0  0  0
  -21.5610   -3.4534   25.7743 F   0  0  0  0  0  0
  -30.0154  -13.3795   20.4435 N   0  0  0  0  0  0
  -26.2985  -12.9266   20.3321 N   0  0  0  0  0  0
  -25.9287  -11.6444   20.5777 N   0  0  0  0  0  0
  -22.0469  -12.8307   22.0396 N   0  0  0  0  0  0
  -25.4296  -15.1834   20.4048 N   0  0  0  0  0  0
  -31.7616  -14.7981   20.0995 O   0  0  0  0  0  0
  -21.6606   -6.8865   21.4241 O   0  0  0  0  0  0
  -22.3590  -14.5557   20.6646 O   0  0  0  0  0  0
  -24.6187  -31.8652   23.2065 C   0  0  0  0  0  0
  -25.9059  -32.4819   23.8391 C   0  0  1  0  0  0
  -27.2370  -27.3717   20.1400 C   0  0  0  0  0  0
  -25.5894  -33.8617   24.2319 N   0  0  0  0  0  0
  -23.4114  -30.4849   21.5479 C   0  0  2  0  0  0
  -24.8614  -28.9398   20.1226 C   0  0  0  0  0  0
  -22.7449  -29.4634   22.4975 C   0  0  0  0  0  0
  -18.0284  -28.1383   22.8480 C   0  0  0  0  0  0
  -24.1486  -36.7279   23.2636 C   0  0  0  0  0  0
  -25.9449  -30.8183   21.3656 C   0  0  0  0  0  0
  -26.0262  -29.4475   20.7138 C   0  0  0  0  0  0
  -27.2200  -28.6769   20.7056 C   0  0  0  0  0  0
  -26.0549  -26.9018   19.5282 C   0  0  0  0  0  0
  -24.8740  -27.6713   19.5242 C   0  0  0  0  0  0
  -23.6261  -29.8132   20.1665 C   0  0  0  0  0  0
  -25.4109  -36.3093   24.0336 C   0  0  1  0  0  0
  -20.5878  -28.3683   23.1296 C   0  0  2  0  0  0
  -20.6776  -26.9414   22.5413 C   0  0  0  0  0  0
  -19.5756  -26.6386   21.5206 C   0  0  0  0  0  0
  -18.1933  -26.7925   22.1619 C   0  0  0  0  0  0
  -19.1531  -28.8845   23.2881 C   0  0  0  0  0  0
  -18.9459  -30.1451   23.8891 C   0  0  0  0  0  0
  -17.6457  -30.6592   24.0562 C   0  0  0  0  0  0
  -25.9036  -34.9462   23.5123 C   0  0  0  0  0  0
  -16.5348  -29.9090   23.6323 C   0  0  0  0  0  0
  -16.7277  -28.6508   23.0344 C   0  0  0  0  0  0
  -26.4496  -31.6606   25.0715 C   0  0  0  0  0  0
  -25.3758  -31.3713   26.1461 C   0  0  0  0  0  0
  -27.0320  -30.3043   24.6087 C   0  0  0  0  0  0
  -27.6074  -32.4339   25.7466 C   0  0  0  0  0  0
  -27.5577  -37.1790   24.8470 C   0  0  0  0  0  0
  -21.4163  -29.3037   22.3695 N   0  0  0  0  0  0
  -26.4298  -37.3770   23.9401 N   0  0  0  0  0  0
  -24.6769  -31.0725   22.0979 N   0  0  0  0  0  0
  -23.4214  -28.8172   23.3026 O   0  0  0  0  0  0
  -28.3784  -26.5740   20.1651 O   0  0  0  0  0  0
  -26.5587  -34.8919   22.4681 O   0  0  0  0  0  0
  -23.5367  -32.1409   23.7423 O   0  0  0  0  0  0
  -30.3638  -17.9218   21.7816 C   0  0  0  0  0  0
  -30.1188  -19.2914   21.4002 C   0  0  0  0  0  0
  -29.5523  -19.4288   20.1966 C   0  0  0  0  0  0
  -29.9409  -16.9882   20.8397 C   0  0  0  0  0  0
  -29.4653  -22.9546   21.4098 C   0  0  0  0  0  0
  -30.2875  -20.6611   22.0040 C   0  0  0  0  0  0
  -29.2703  -20.8664   19.8311 C   0  0  0  0  0  0
  -30.7543  -25.0330   20.8213 C   0  0  0  0  0  0
  -28.2470  -25.2370   20.7636 C   0  0  0  0  0  0
  -29.4559  -24.2480   20.4770 C   0  0  2  0  0  0
  -29.7155  -21.6482   21.0262 N   0  0  0  0  0  0
  -29.8348  -15.6204   20.9973 N   0  0  0  0  0  0
  -29.4517  -23.9000   19.0379 N   0  3  0  0  0  0
  -29.3974  -23.1976   22.6181 O   0  0  0  0  0  0
  -29.2721  -17.8667   19.4401 S   0  0  0  0  0  0
  -31.4790  -12.5119   19.1503 H   0  0  0  0  0  0
  -30.3808  -11.3729   19.8813 H   0  0  0  0  0  0
  -29.7707  -11.7594   17.4698 H   0  0  0  0  0  0
  -29.6472  -13.4785   17.7583 H   0  0  0  0  0  0
  -27.8776  -11.2816   18.8722 H   0  0  0  0  0  0
  -27.3757  -12.5576   17.7939 H   0  0  0  0  0  0
  -27.6844  -14.2424   19.5377 H   0  0  0  0  0  0
  -28.7047  -11.9894   21.3370 H   0  0  0  0  0  0
  -28.4358  -13.6222   21.8711 H   0  0  0  0  0  0
  -25.2712   -9.5666   22.4761 H   0  0  0  0  0  0
  -23.9939   -7.4636   22.7480 H   0  0  0  0  0  0
  -21.0782   -8.8766   19.8981 H   0  0  0  0  0  0
  -22.3619  -10.9669   19.6170 H   0  0  0  0  0  0
  -21.2027   -7.6148   23.9731 H   0  0  0  0  0  0
  -21.1471   -6.0520   25.9088 H   0  0  0  0  0  0
  -22.0587   -2.7596   23.2877 H   0  0  0  0  0  0
  -22.4035  -12.0005   22.4879 H   0  0  0  0  0  0
  -21.1095  -13.1399   22.2534 H   0  0  0  0  0  0
  -24.6553  -15.8306   20.4916 H   0  0  0  0  0  0
  -26.2745  -15.6218   20.0605 H   0  0  0  0  0  0
  -26.7117  -32.5531   23.1149 H   0  0  0  0  0  0
  -25.0067  -33.9809   25.0479 H   0  0  0  0  0  0
  -22.7011  -31.3012   21.4035 H   0  0  0  0  0  0
  -23.3757  -35.9607   23.3328 H   0  0  0  0  0  0
  -24.3549  -36.8868   22.2041 H   0  0  0  0  0  0
  -23.7266  -37.6499   23.6633 H   0  0  0  0  0  0
  -26.0625  -31.5858   20.5998 H   0  0  0  0  0  0
  -26.8300  -30.8733   21.9874 H   0  0  0  0  0  0
  -28.1203  -29.0648   21.1609 H   0  0  0  0  0  0
  -26.0333  -25.9312   19.0535 H   0  0  0  0  0  0
  -23.9770  -27.2740   19.0685 H   0  0  0  0  0  0
  -23.7438  -30.5879   19.4085 H   0  0  0  0  0  0
  -22.7497  -29.2369   19.8639 H   0  0  0  0  0  0
  -25.1307  -36.1932   25.0835 H   0  0  0  0  0  0
  -20.9978  -28.3250   24.1410 H   0  0  0  0  0  0
  -20.5658  -26.2298   23.3608 H   0  0  0  0  0  0
  -21.6648  -26.7434   22.1210 H   0  0  0  0  0  0
  -19.6917  -25.6295   21.1229 H   0  0  0  0  0  0
  -19.6699  -27.3198   20.6733 H   0  0  0  0  0  0
  -17.4212  -26.6676   21.4017 H   0  0  0  0  0  0
  -18.0331  -26.0064   22.9011 H   0  0  0  0  0  0
  -19.7935  -30.7256   24.2276 H   0  0  0  0  0  0
  -17.5016  -31.6269   24.5172 H   0  0  0  0  0  0
  -15.5345  -30.2989   23.7646 H   0  0  0  0  0  0
  -15.8685  -28.0821   22.7060 H   0  0  0  0  0  0
  -24.5920  -30.7085   25.7781 H   0  0  0  0  0  0
  -24.8962  -32.2871   26.4925 H   0  0  0  0  0  0
  -25.8101  -30.8855   27.0209 H   0  0  0  0  0  0
  -26.2852  -29.6804   24.1154 H   0  0  0  0  0  0
  -27.4111  -29.7282   25.4540 H   0  0  0  0  0  0
  -27.8690  -30.4371   23.9224 H   0  0  0  0  0  0
  -27.2703  -33.3638   26.2068 H   0  0  0  0  0  0
  -28.3861  -32.6921   25.0271 H   0  0  0  0  0  0
  -28.0771  -31.8451   26.5358 H   0  0  0  0  0  0
  -28.2626  -38.0056   24.7481 H   0  0  0  0  0  0
  -28.1046  -36.2583   24.6350 H   0  0  0  0  0  0
  -27.2272  -37.1518   25.8871 H   0  0  0  0  0  0
  -20.9329  -29.8748   21.6892 H   0  0  0  0  0  0
  -26.0176  -38.2844   24.1407 H   0  0  0  0  0  0
  -30.7896  -17.6650   22.7415 H   0  0  0  0  0  0
  -31.3421  -20.8892   22.1595 H   0  0  0  0  0  0
  -29.7908  -20.7153   22.9746 H   0  0  0  0  0  0
  -28.2048  -21.0208   19.6489 H   0  0  0  0  0  0
  -29.8243  -21.1438   18.9350 H   0  0  0  0  0  0
  -30.7111  -25.4550   21.8282 H   0  0  0  0  0  0
  -30.9208  -25.8738   20.1471 H   0  0  0  0  0  0
  -31.6501  -24.4117   20.7850 H   0  0  0  0  0  0
  -28.1435  -25.3898   21.8407 H   0  0  0  0  0  0
  -27.3210  -24.7531   20.4579 H   0  0  0  0  0  0
  -28.9453  -15.3041   21.3552 H   0  0  0  0  0  0
  -30.2533  -23.3490   18.7860 H   0  0  0  0  0  0
  -29.4825  -24.7450   18.4923 H   0  0  0  0  0  0
  -28.6139  -23.4082   18.7754 H   0  0  0  0  0  0
  1 25  1  0  0  0
  1 30  2  0  0  0
  1 82  1  0  0  0
  2  3  1  0  0  0
  2 25  1  0  0  0
  2 86  1  0  0  0
  2 87  1  0  0  0
  3  4  1  0  0  0
  3 88  1  0  0  0
  3 89  1  0  0  0
  4  5  1  0  0  0
  4 90  1  0  0  0
  4 91  1  0  0  0
  5  6  1  0  0  0
  5 26  1  0  0  0
  5 92  1  0  0  0
  6 25  1  0  0  0
  6 93  1  0  0  0
  6 94  1  0  0  0
  7  8  2  0  0  0
  7 26  1  0  0  0
  7 29  1  0  0  0
  8  9  1  0  0  0
  8 22  1  0  0  0
  9 10  1  0  0  0
  9 27  2  0  0  0
 10 11  2  0  0  0
 10 15  1  0  0  0
 11 12  1  0  0  0
 11 95  1  0  0  0
 12 13  2  0  0  0
 12 96  1  0  0  0
 13 14  1  0  0  0
 13 31  1  0  0  0
 14 15  2  0  0  0
 14 97  1  0  0  0
 15 98  1  0  0  0
 16 17  2  0  0  0
 16 21  1  0  0  0
 16 31  1  0  0  0
 17 18  1  0  0  0
 17 99  1  0  0  0
 18 19  2  0  0  0
 18100  1  0  0  0
 19 20  1  0  0  0
 19 24  1  0  0  0
 20 21  2  0  0  0
 20101  1  0  0  0
 21 23  1  0  0  0
 22 28  1  0  0  0
 22 32  2  0  0  0
 26 27  1  0  0  0
 28102  1  0  0  0
 28103  1  0  0  0
 29104  1  0  0  0
 29105  1  0  0  0
 33 34  1  0  0  0
 33 66  1  0  0  0
 33 70  2  0  0  0
 34 36  1  0  0  0
 34 59  1  0  0  0
 34106  1  0  0  0
 35 44  2  0  0  0
 35 45  1  0  0  0
 35 68  1  0  0  0
 36 56  1  0  0  0
 36107  1  0  0  0
 37 39  1  0  0  0
 37 47  1  0  0  0
 37 66  1  0  0  0
 37108  1  0  0  0
 38 43  2  0  0  0
 38 46  1  0  0  0
 38 47  1  0  0  0
 39 64  1  0  0  0
 39 67  2  0  0  0
 40 52  1  0  0  0
 40 53  2  0  0  0
 40 58  1  0  0  0
 41109  1  0  0  0
 41110  1  0  0  0
 41111  1  0  0  0
 41 48  1  0  0  0
 42 43  1  0  0  0
 42 66  1  0  0  0
 42112  1  0  0  0
 42113  1  0  0  0
 43 44  1  0  0  0
 44114  1  0  0  0
 45 46  2  0  0  0
 45115  1  0  0  0
 46116  1  0  0  0
 47117  1  0  0  0
 47118  1  0  0  0
 48 56  1  0  0  0
 48 65  1  0  0  0
 48119  1  0  0  0
 49 50  1  0  0  0
 49 53  1  0  0  0
 49 64  1  0  0  0
 49120  1  0  0  0
 50 51  1  0  0  0
 50121  1  0  0  0
 50122  1  0  0  0
 51 52  1  0  0  0
 51123  1  0  0  0
 51124  1  0  0  0
 52125  1  0  0  0
 52126  1  0  0  0
 53 54  1  0  0  0
 54 55  2  0  0  0
 54127  1  0  0  0
 55 57  1  0  0  0
 55128  1  0  0  0
 56 69  2  0  0  0
 57 58  2  0  0  0
 57129  1  0  0  0
 58130  1  0  0  0
 59 60  1  0  0  0
 59 61  1  0  0  0
 59 62  1  0  0  0
 60131  1  0  0  0
 60132  1  0  0  0
 60133  1  0  0  0
 61134  1  0  0  0
 61135  1  0  0  0
 61136  1  0  0  0
 62137  1  0  0  0
 62138  1  0  0  0
 62139  1  0  0  0
 63 65  1  0  0  0
 63140  1  0  0  0
 63141  1  0  0  0
 63142  1  0  0  0
 64143  1  0  0  0
 65144  1  0  0  0
 68 79  1  0  0  0
 71 72  1  0  0  0
 71 74  2  0  0  0
 71145  1  0  0  0
 72 73  2  0  0  0
 72 76  1  0  0  0
 73 77  1  0  0  0
 73 85  1  0  0  0
 74 82  1  0  0  0
 74 85  1  0  0  0
 75 81  1  0  0  0
 75 84  2  0  0  0
 75 80  1  0  0  0
 76 81  1  0  0  0
 76146  1  0  0  0
 76147  1  0  0  0
 77 81  1  0  0  0
 77148  1  0  0  0
 77149  1  0  0  0
 78150  1  0  0  0
 78151  1  0  0  0
 78152  1  0  0  0
 78 80  1  0  0  0
 79 80  1  0  0  0
 79153  1  0  0  0
 79154  1  0  0  0
 80 83  1  0  0  0
 82155  1  0  0  0
 83156  1  0  0  0
 83157  1  0  0  0
 83158  1  0  0  0
M  CHG  1  83   1
M  ISO  4   1 100  68 101  79 101  82 100
M  END
> <chiral flag>
0

> <version>
0

> <s_m_source_file>
/data/baiqing/PycharmProjects/Reinvent-master-3.2/result/LINK_invent/BTK/process_docking_weight1_custom_product_contain_oxygen_bond_distance_aromatic_linkinvent_7_9_3/rearranged_h_0149.sdf

> <i_m_source_file_index>
31

> <r_mmod_Potential_Energy-OPLS-2005>
-150.465133666992

> <r_mmod_Stretch_Energy-OPLS-2005>
73.5440902709961

> <r_mmod_Bend_Energy-OPLS-2005>
210.536331176758

> <r_mmod_Torsional_Energy-OPLS-2005>
290.904357910156

> <r_mmod_Improper_Torsional_Energy-OPLS-2005>
7.33593702316284

> <r_mmod_Van_der_Waal_Energy-OPLS-2005>
121.019142150879

> <r_mmod_Electrostatic_Energy-OPLS-2005>
-369.184295654297

> <r_mmod_Solvation_Energy-OPLS-2005>
-518.155212402344

> <b_mmod_Minimization_Converged-OPLS-2005>
0

> <r_mmod_RMS_Derivative-OPLS-2005>
4.40217685699463

$$$$
31
                    3D
 Structure written by MMmdl.
151160  0  0  1  0            999 V2000
  -30.3033  -15.7160   20.2983 C   0  0  0  0  0  0
  -30.4125  -13.1486   19.5135 C   0  0  0  0  0  0
  -29.5458  -12.6625   18.3176 C   0  0  0  0  0  0
  -28.1267  -12.2967   18.7741 C   0  0  0  0  0  0
  -27.5895  -13.3168   19.8024 C   0  0  2  0  0  0
  -28.6082  -13.7053   20.9019 C   0  0  0  0  0  0
  -25.2339  -13.8315   20.5856 C   0  0  0  0  0  0
  -24.1724  -13.0440   20.9303 C   0  0  0  0  0  0
  -24.6421  -11.6962   20.8751 C   0  0  0  0  0  0
  -23.9124  -10.4297   21.0386 C   0  0  0  0  0  0
  -24.3661   -9.4210   21.9166 C   0  0  0  0  0  0
  -23.6314   -8.2259   22.0751 C   0  0  0  0  0  0
  -22.4292   -8.0294   21.3549 C   0  0  0  0  0  0
  -21.9941   -9.0271   20.4653 C   0  0  0  0  0  0
  -22.7288  -10.2143   20.3044 C   0  0  0  0  0  0
  -21.6870   -6.0743   22.5278 C   0  0  0  0  0  0
  -21.4029   -6.5643   23.8215 C   0  0  0  0  0  0
  -21.3673   -5.6789   24.9175 C   0  0  0  0  0  0
  -21.6042   -4.3048   24.7221 C   0  0  0  0  0  0
  -21.8820   -3.8149   23.4337 C   0  0  0  0  0  0
  -21.9194   -4.6969   22.3394 C   0  0  0  0  0  0
  -22.7731  -13.5165   21.1921 C   0  0  0  0  0  0
  -22.1662   -4.2147   21.0964 F   0  0  0  0  0  0
  -21.5631   -3.4529   25.7735 F   0  0  0  0  0  0
  -29.7549  -14.3515   20.2142 N   0  0  0  0  0  0
  -26.2780  -12.9663   20.3259 N   0  0  0  0  0  0
  -25.9374  -11.6720   20.5705 N   0  0  0  0  0  0
  -22.0380  -12.8155   22.0474 N   0  0  0  0  0  0
  -25.3968  -15.2062   20.4385 N   0  0  0  0  0  0
  -31.5419  -15.5781   20.2097 O   0  0  0  0  0  0
  -21.6657   -6.8886   21.4242 O   0  0  0  0  0  0
  -22.3399  -14.5461   20.6745 O   0  0  0  0  0  0
  -24.6901  -31.7929   23.1461 C   0  0  0  0  0  0
  -25.9457  -32.4430   23.8032 C   0  0  1  0  0  0
  -27.2194  -26.6377   20.2109 C   0  0  0  0  0  0
  -25.5999  -33.8260   24.1896 N   0  0  0  0  0  0
  -23.5186  -30.3931   21.5029 C   0  0  2  0  0  0
  -24.9706  -28.7199   20.1198 C   0  0  0  0  0  0
  -22.7793  -29.4285   22.4709 C   0  0  0  0  0  0
  -18.0343  -28.1428   22.8457 C   0  0  0  0  0  0
  -24.1493  -36.7137   23.2645 C   0  0  0  0  0  0
  -26.1026  -30.5022   21.4213 C   0  0  0  0  0  0
  -26.1639  -29.0611   20.7692 C   0  0  0  0  0  0
  -27.2703  -28.0505   20.7781 C   0  0  0  0  0  0
  -25.9904  -26.5196   19.5111 C   0  0  0  0  0  0
  -24.9258  -27.4748   19.4674 C   0  0  0  0  0  0
  -23.7737  -29.6871   20.1402 C   0  0  0  0  0  0
  -25.4140  -36.2874   24.0277 C   0  0  1  0  0  0
  -20.5982  -28.3793   23.1129 C   0  0  2  0  0  0
  -20.6818  -26.9457   22.5392 C   0  0  0  0  0  0
  -19.5783  -26.6372   21.5218 C   0  0  0  0  0  0
  -18.1971  -26.7955   22.1631 C   0  0  0  0  0  0
  -19.1620  -28.8938   23.2768 C   0  0  0  0  0  0
  -18.9518  -30.1518   23.8813 C   0  0  0  0  0  0
  -17.6508  -30.6612   24.0554 C   0  0  0  0  0  0
  -25.9145  -34.9268   23.4931 C   0  0  0  0  0  0
  -16.5396  -29.9091   23.6363 C   0  0  0  0  0  0
  -16.7325  -28.6522   23.0369 C   0  0  0  0  0  0
  -26.4598  -31.6500   25.0696 C   0  0  0  0  0  0
  -25.3637  -31.3849   26.1292 C   0  0  0  0  0  0
  -27.0546  -30.2828   24.6663 C   0  0  0  0  0  0
  -27.6013  -32.4387   25.7533 C   0  0  0  0  0  0
  -27.5582  -37.1689   24.8438 C   0  0  0  0  0  0
  -21.4434  -29.3026   22.3444 N   0  0  0  0  0  0
  -26.4250  -37.3659   23.9444 N   0  0  0  0  0  0
  -24.7948  -30.9304   22.0758 N   0  0  0  0  0  0
  -23.4209  -28.7906   23.3088 O   0  0  0  0  0  0
  -28.1829  -25.3971   20.2492 O   0  0  0  0  0  0
  -26.5800  -34.8871   22.4568 O   0  0  0  0  0  0
  -23.5898  -32.1036   23.6355 O   0  0  0  0  0  0
  -29.3556  -21.0980   18.8377 C   0  0  0  0  0  0
  -29.2968  -19.4410   18.5285 C   0  0  0  0  0  0
  -28.5681  -20.1854   20.9283 C   0  0  0  0  0  0
  -30.9781  -18.7866   20.4888 C   0  0  0  0  0  0
  -28.8869  -21.8335   20.2213 C   0  0  2  0  0  0
  -30.2371  -18.2900   19.2649 C   0  0  1  0  0  0
  -29.5883  -18.6364   21.0425 C   0  0  2  0  0  0
  -27.9878  -23.6131   20.2418 C   0  0  0  0  0  0
  -29.6324  -17.1611   20.1852 N   0  0  0  0  0  0
  -31.3966  -13.4159   19.1262 H   0  0  0  0  0  0
  -30.6020  -12.3330   20.2133 H   0  0  0  0  0  0
  -30.0164  -11.8096   17.8261 H   0  0  0  0  0  0
  -29.4913  -13.4574   17.5724 H   0  0  0  0  0  0
  -28.1669  -11.3079   19.2322 H   0  0  0  0  0  0
  -27.4549  -12.2167   17.9172 H   0  0  0  0  0  0
  -27.4324  -14.2223   19.2123 H   0  0  0  0  0  0
  -28.9027  -12.8496   21.5119 H   0  0  0  0  0  0
  -28.1634  -14.4302   21.5846 H   0  0  0  0  0  0
  -25.2801   -9.5697   22.4758 H   0  0  0  0  0  0
  -24.0030   -7.4648   22.7473 H   0  0  0  0  0  0
  -21.0874   -8.8797   19.8950 H   0  0  0  0  0  0
  -22.3736  -10.9688   19.6169 H   0  0  0  0  0  0
  -21.2025   -7.6150   23.9724 H   0  0  0  0  0  0
  -21.1504   -6.0514   25.9079 H   0  0  0  0  0  0
  -22.0580   -2.7607   23.2838 H   0  0  0  0  0  0
  -22.4032  -11.9847   22.4900 H   0  0  0  0  0  0
  -21.0985  -13.1171   22.2653 H   0  0  0  0  0  0
  -24.6374  -15.8617   20.5905 H   0  0  0  0  0  0
  -26.2602  -15.6562   20.1614 H   0  0  0  0  0  0
  -26.7553  -32.4867   23.0746 H   0  0  0  0  0  0
  -25.0034  -33.9278   24.9974 H   0  0  0  0  0  0
  -22.8483  -31.2330   21.3078 H   0  0  0  0  0  0
  -23.3805  -35.9414   23.3178 H   0  0  0  0  0  0
  -24.3581  -36.8937   22.2087 H   0  0  0  0  0  0
  -23.7178  -37.6248   23.6811 H   0  0  0  0  0  0
  -26.3176  -31.2245   20.6322 H   0  0  0  0  0  0
  -26.9500  -30.5671   22.0921 H   0  0  0  0  0  0
  -28.1700  -28.3204   21.3119 H   0  0  0  0  0  0
  -25.8117  -25.5843   19.0021 H   0  0  0  0  0  0
  -24.0268  -27.2043   18.9301 H   0  0  0  0  0  0
  -23.9592  -30.4461   19.3783 H   0  0  0  0  0  0
  -22.8757  -29.1604   19.8139 H   0  0  0  0  0  0
  -25.1332  -36.1626   25.0761 H   0  0  0  0  0  0
  -21.0049  -28.3434   24.1257 H   0  0  0  0  0  0
  -20.5687  -26.2436   23.3662 H   0  0  0  0  0  0
  -21.6683  -26.7400   22.1204 H   0  0  0  0  0  0
  -19.6944  -25.6256   21.1316 H   0  0  0  0  0  0
  -19.6721  -27.3139   20.6710 H   0  0  0  0  0  0
  -17.4232  -26.6675   21.4041 H   0  0  0  0  0  0
  -18.0371  -26.0118   22.9047 H   0  0  0  0  0  0
  -19.7993  -30.7358   24.2144 H   0  0  0  0  0  0
  -17.5056  -31.6278   24.5173 H   0  0  0  0  0  0
  -15.5393  -30.2962   23.7717 H   0  0  0  0  0  0
  -15.8727  -28.0796   22.7122 H   0  0  0  0  0  0
  -24.5835  -30.7191   25.7578 H   0  0  0  0  0  0
  -24.8819  -32.3088   26.4504 H   0  0  0  0  0  0
  -25.7782  -30.9138   27.0214 H   0  0  0  0  0  0
  -26.3274  -29.6401   24.1682 H   0  0  0  0  0  0
  -27.3963  -29.7330   25.5441 H   0  0  0  0  0  0
  -27.9261  -30.3926   24.0207 H   0  0  0  0  0  0
  -27.2516  -33.3742   26.1916 H   0  0  0  0  0  0
  -28.3934  -32.6867   25.0457 H   0  0  0  0  0  0
  -28.0579  -31.8669   26.5621 H   0  0  0  0  0  0
  -28.2451  -38.0126   24.7664 H   0  0  0  0  0  0
  -28.1224  -36.2660   24.6033 H   0  0  0  0  0  0
  -27.2335  -37.1046   25.8838 H   0  0  0  0  0  0
  -20.9756  -29.8661   21.6482 H   0  0  0  0  0  0
  -26.0065  -38.2682   24.1568 H   0  0  0  0  0  0
  -28.7608  -21.5640   18.0500 H   0  0  0  0  0  0
  -30.3717  -21.4336   18.6250 H   0  0  0  0  0  0
  -29.5417  -19.3724   17.4670 H   0  0  0  0  0  0
  -28.2560  -19.1122   18.5350 H   0  0  0  0  0  0
  -27.5846  -19.8875   20.5590 H   0  0  0  0  0  0
  -28.3370  -20.4282   21.9662 H   0  0  0  0  0  0
  -31.3415  -19.8127   20.4211 H   0  0  0  0  0  0
  -31.7386  -18.1156   20.8960 H   0  0  0  0  0  0
  -29.8138  -22.0883   20.7381 H   0  0  0  0  0  0
  -30.9637  -17.8783   18.5595 H   0  0  0  0  0  0
  -29.6904  -18.4111   22.1046 H   0  0  0  0  0  0
  -27.4335  -23.5257   21.1758 H   0  0  0  0  0  0
  -27.2104  -23.4904   19.4863 H   0  0  0  0  0  0
  1 25  1  0  0  0
  1 30  2  0  0  0
  1 79  1  0  0  0
  2  3  1  0  0  0
  2 25  1  0  0  0
  2 80  1  0  0  0
  2 81  1  0  0  0
  3  4  1  0  0  0
  3 82  1  0  0  0
  3 83  1  0  0  0
  4  5  1  0  0  0
  4 84  1  0  0  0
  4 85  1  0  0  0
  5  6  1  0  0  0
  5 26  1  0  0  0
  5 86  1  0  0  0
  6 25  1  0  0  0
  6 87  1  0  0  0
  6 88  1  0  0  0
  7  8  2  0  0  0
  7 26  1  0  0  0
  7 29  1  0  0  0
  8  9  1  0  0  0
  8 22  1  0  0  0
  9 10  1  0  0  0
  9 27  2  0  0  0
 10 11  2  0  0  0
 10 15  1  0  0  0
 11 12  1  0  0  0
 11 89  1  0  0  0
 12 13  2  0  0  0
 12 90  1  0  0  0
 13 14  1  0  0  0
 13 31  1  0  0  0
 14 15  2  0  0  0
 14 91  1  0  0  0
 15 92  1  0  0  0
 16 17  2  0  0  0
 16 21  1  0  0  0
 16 31  1  0  0  0
 17 18  1  0  0  0
 17 93  1  0  0  0
 18 19  2  0  0  0
 18 94  1  0  0  0
 19 20  1  0  0  0
 19 24  1  0  0  0
 20 21  2  0  0  0
 20 95  1  0  0  0
 21 23  1  0  0  0
 22 28  1  0  0  0
 22 32  2  0  0  0
 26 27  1  0  0  0
 28 96  1  0  0  0
 28 97  1  0  0  0
 29 98  1  0  0  0
 29 99  1  0  0  0
 33 34  1  0  0  0
 33 66  1  0  0  0
 33 70  2  0  0  0
 34 36  1  0  0  0
 34 59  1  0  0  0
 34100  1  0  0  0
 35 44  2  0  0  0
 35 45  1  0  0  0
 35 68  1  0  0  0
 36 56  1  0  0  0
 36101  1  0  0  0
 37 39  1  0  0  0
 37 47  1  0  0  0
 37 66  1  0  0  0
 37102  1  0  0  0
 38 43  2  0  0  0
 38 46  1  0  0  0
 38 47  1  0  0  0
 39 64  1  0  0  0
 39 67  2  0  0  0
 40 52  1  0  0  0
 40 53  2  0  0  0
 40 58  1  0  0  0
 41103  1  0  0  0
 41104  1  0  0  0
 41105  1  0  0  0
 41 48  1  0  0  0
 42 43  1  0  0  0
 42 66  1  0  0  0
 42106  1  0  0  0
 42107  1  0  0  0
 43 44  1  0  0  0
 44108  1  0  0  0
 45 46  2  0  0  0
 45109  1  0  0  0
 46110  1  0  0  0
 47111  1  0  0  0
 47112  1  0  0  0
 48 56  1  0  0  0
 48 65  1  0  0  0
 48113  1  0  0  0
 49 50  1  0  0  0
 49 53  1  0  0  0
 49 64  1  0  0  0
 49114  1  0  0  0
 50 51  1  0  0  0
 50115  1  0  0  0
 50116  1  0  0  0
 51 52  1  0  0  0
 51117  1  0  0  0
 51118  1  0  0  0
 52119  1  0  0  0
 52120  1  0  0  0
 53 54  1  0  0  0
 54 55  2  0  0  0
 54121  1  0  0  0
 55 57  1  0  0  0
 55122  1  0  0  0
 56 69  2  0  0  0
 57 58  2  0  0  0
 57123  1  0  0  0
 58124  1  0  0  0
 59 60  1  0  0  0
 59 61  1  0  0  0
 59 62  1  0  0  0
 60125  1  0  0  0
 60126  1  0  0  0
 60127  1  0  0  0
 61128  1  0  0  0
 61129  1  0  0  0
 61130  1  0  0  0
 62131  1  0  0  0
 62132  1  0  0  0
 62133  1  0  0  0
 63 65  1  0  0  0
 63134  1  0  0  0
 63135  1  0  0  0
 63136  1  0  0  0
 64137  1  0  0  0
 65138  1  0  0  0
 68 78  1  0  0  0
 71 72  1  0  0  0
 71 75  1  0  0  0
 71139  1  0  0  0
 71140  1  0  0  0
 72141  1  0  0  0
 72142  1  0  0  0
 72 76  1  0  0  0
 73 75  1  0  0  0
 73143  1  0  0  0
 73144  1  0  0  0
 73 77  1  0  0  0
 74 76  1  0  0  0
 74 77  1  0  0  0
 74145  1  0  0  0
 74146  1  0  0  0
 75 78  1  0  0  0
 75147  1  0  0  0
 76 79  1  0  0  0
 76148  1  0  0  0
 77 79  1  0  0  0
 77149  1  0  0  0
 78150  1  0  0  0
 78151  1  0  0  0
M  ISO  4   1 100  68 101  78 101  79 100
M  END
> <chiral flag>
0

> <version>
0

> <s_m_source_file>
/data/baiqing/PycharmProjects/Reinvent-master-3.2/result/LINK_invent/BTK/process_docking_weight1_custom_product_contain_oxygen_bond_distance_aromatic_linkinvent_7_9_3/rearranged_h_0149.sdf

> <i_m_source_file_index>
32

> <r_mmod_Potential_Energy-OPLS-2005>
2995.48779296875

> <r_mmod_Stretch_Energy-OPLS-2005>
1212.60437011719

> <r_mmod_Bend_Energy-OPLS-2005>
755.341979980469

> <r_mmod_Torsional_Energy-OPLS-2005>
334.218963623047

> <r_mmod_Improper_Torsional_Energy-OPLS-2005>
15.923041343689

> <r_mmod_Van_der_Waal_Energy-OPLS-2005>
142.954055786133

> <r_mmod_Electrostatic_Energy-OPLS-2005>
-292.123687744141

> <r_mmod_Solvation_Energy-OPLS-2005>
-198.446090698242

> <b_mmod_Minimization_Converged-OPLS-2005>
0

> <r_mmod_RMS_Derivative-OPLS-2005>
2.3323860168457

$$$$
32
                    3D
 Structure written by MMmdl.
150158  0  0  1  0            999 V2000
  -30.6802  -14.5688   20.5073 C   0  0  0  0  0  0
  -30.4191  -12.3486   19.4519 C   0  0  0  0  0  0
  -29.4961  -12.4874   18.2227 C   0  0  0  0  0  0
  -28.0202  -12.3368   18.6378 C   0  0  0  0  0  0
  -27.6498  -13.2163   19.8619 C   0  0  2  0  0  0
  -28.6929  -13.0739   20.9936 C   0  0  0  0  0  0
  -25.2538  -13.8184   20.5677 C   0  0  0  0  0  0
  -24.1809  -13.0444   20.9187 C   0  0  0  0  0  0
  -24.6378  -11.6911   20.8749 C   0  0  0  0  0  0
  -23.9053  -10.4291   21.0408 C   0  0  0  0  0  0
  -24.3604   -9.4205   21.9195 C   0  0  0  0  0  0
  -23.6275   -8.2243   22.0769 C   0  0  0  0  0  0
  -22.4261   -8.0282   21.3547 C   0  0  0  0  0  0
  -21.9896   -9.0258   20.4659 C   0  0  0  0  0  0
  -22.7224  -10.2134   20.3066 C   0  0  0  0  0  0
  -21.6848   -6.0726   22.5272 C   0  0  0  0  0  0
  -21.4014   -6.5630   23.8201 C   0  0  0  0  0  0
  -21.3657   -5.6787   24.9173 C   0  0  0  0  0  0
  -21.6042   -4.3053   24.7228 C   0  0  0  0  0  0
  -21.8818   -3.8137   23.4347 C   0  0  0  0  0  0
  -21.9193   -4.6953   22.3399 C   0  0  0  0  0  0
  -22.7836  -13.5239   21.1838 C   0  0  0  0  0  0
  -22.1660   -4.2139   21.0980 F   0  0  0  0  0  0
  -21.5628   -3.4539   25.7738 F   0  0  0  0  0  0
  -30.0150  -13.3785   20.4275 N   0  0  0  0  0  0
  -26.2960  -12.9366   20.3320 N   0  0  0  0  0  0
  -25.9303  -11.6518   20.5771 N   0  0  0  0  0  0
  -22.0480  -12.8245   22.0405 N   0  0  0  0  0  0
  -25.4261  -15.1903   20.4076 N   0  0  0  0  0  0
  -31.8511  -14.6617   20.1277 O   0  0  0  0  0  0
  -21.6631   -6.8873   21.4235 O   0  0  0  0  0  0
  -22.3526  -14.5539   20.6669 O   0  0  0  0  0  0
  -24.6180  -31.8659   23.2089 C   0  0  0  0  0  0
  -25.9056  -32.4811   23.8402 C   0  0  1  0  0  0
  -27.2217  -27.3826   20.1156 C   0  0  0  0  0  0
  -25.5907  -33.8612   24.2332 N   0  0  0  0  0  0
  -23.4098  -30.4892   21.5493 C   0  0  2  0  0  0
  -24.8576  -28.9555   20.1100 C   0  0  0  0  0  0
  -22.7446  -29.4642   22.4964 C   0  0  0  0  0  0
  -18.0285  -28.1371   22.8490 C   0  0  0  0  0  0
  -24.1487  -36.7303   23.2644 C   0  0  0  0  0  0
  -25.9443  -30.8155   21.3727 C   0  0  0  0  0  0
  -26.0208  -29.4474   20.7172 C   0  0  0  0  0  0
  -27.2082  -28.6684   20.7173 C   0  0  0  0  0  0
  -26.0463  -26.9310   19.4757 C   0  0  0  0  0  0
  -24.8681  -27.6994   19.4820 C   0  0  0  0  0  0
  -23.6213  -29.8261   20.1624 C   0  0  0  0  0  0
  -25.4113  -36.3105   24.0338 C   0  0  1  0  0  0
  -20.5877  -28.3673   23.1313 C   0  0  2  0  0  0
  -20.6778  -26.9402   22.5426 C   0  0  0  0  0  0
  -19.5761  -26.6386   21.5215 C   0  0  0  0  0  0
  -18.1937  -26.7922   22.1613 C   0  0  0  0  0  0
  -19.1535  -28.8834   23.2899 C   0  0  0  0  0  0
  -18.9453  -30.1436   23.8919 C   0  0  0  0  0  0
  -17.6460  -30.6581   24.0561 C   0  0  0  0  0  0
  -25.9037  -34.9468   23.5133 C   0  0  0  0  0  0
  -16.5351  -29.9081   23.6323 C   0  0  0  0  0  0
  -16.7269  -28.6495   23.0357 C   0  0  0  0  0  0
  -26.4484  -31.6597   25.0737 C   0  0  0  0  0  0
  -25.3745  -31.3679   26.1479 C   0  0  0  0  0  0
  -27.0329  -30.3045   24.6126 C   0  0  0  0  0  0
  -27.6076  -32.4320   25.7473 C   0  0  0  0  0  0
  -27.5587  -37.1803   24.8465 C   0  0  0  0  0  0
  -21.4166  -29.3029   22.3704 N   0  0  0  0  0  0
  -26.4301  -37.3790   23.9408 N   0  0  0  0  0  0
  -24.6753  -31.0721   22.1011 N   0  0  0  0  0  0
  -23.4199  -28.8188   23.3022 O   0  0  0  0  0  0
  -28.3407  -26.5624   20.1489 O   0  0  0  0  0  0
  -26.5604  -34.8922   22.4695 O   0  0  0  0  0  0
  -23.5355  -32.1430   23.7454 O   0  0  0  0  0  0
  -31.2781  -18.9740   20.3105 C   0  0  0  0  0  0
  -31.4641  -17.5610   20.3948 C   0  0  0  0  0  0
  -29.9535  -19.2147   20.5717 C   0  0  0  0  0  0
  -30.2418  -17.0089   20.6923 C   0  0  0  0  0  0
  -28.8625  -22.7844   20.6129 C   0  0  0  0  0  0
  -29.0789  -24.1134   20.3604 C   0  0  0  0  0  0
  -29.7776  -21.6795   20.2654 C   0  0  0  0  0  0
  -28.1129  -25.2539   20.7569 C   0  0  0  0  0  0
  -29.3291  -20.4445   20.6366 N   0  0  0  0  0  0
  -29.9401  -15.6673   20.8427 N   0  0  0  0  0  0
  -30.8487  -21.8575   19.6771 O   0  0  0  0  0  0
  -29.2999  -18.0182   20.8261 O   0  0  0  0  0  0
  -30.1631  -24.6077   19.7376 O   0  0  0  0  0  0
  -31.4633  -12.4407   19.1488 H   0  0  0  0  0  0
  -30.3266  -11.3563   19.8954 H   0  0  0  0  0  0
  -29.7512  -11.7347   17.4746 H   0  0  0  0  0  0
  -29.6479  -13.4576   17.7477 H   0  0  0  0  0  0
  -27.8535  -11.2860   18.8777 H   0  0  0  0  0  0
  -27.3634  -12.5613   17.7968 H   0  0  0  0  0  0
  -27.6700  -14.2500   19.5173 H   0  0  0  0  0  0
  -28.6837  -12.0587   21.3939 H   0  0  0  0  0  0
  -28.4496  -13.7276   21.8336 H   0  0  0  0  0  0
  -25.2747   -9.5679   22.4773 H   0  0  0  0  0  0
  -23.9975   -7.4639   22.7499 H   0  0  0  0  0  0
  -21.0823   -8.8776   19.8973 H   0  0  0  0  0  0
  -22.3677  -10.9675   19.6178 H   0  0  0  0  0  0
  -21.2006   -7.6142   23.9701 H   0  0  0  0  0  0
  -21.1480   -6.0525   25.9074 H   0  0  0  0  0  0
  -22.0601   -2.7599   23.2851 H   0  0  0  0  0  0
  -22.4092  -11.9899   22.4778 H   0  0  0  0  0  0
  -21.1117  -13.1296   22.2630 H   0  0  0  0  0  0
  -24.6603  -15.8466   20.5153 H   0  0  0  0  0  0
  -26.2737  -15.6261   20.0658 H   0  0  0  0  0  0
  -26.7124  -32.5519   23.1161 H   0  0  0  0  0  0
  -25.0066  -33.9774   25.0482 H   0  0  0  0  0  0
  -22.6994  -31.3064   21.4103 H   0  0  0  0  0  0
  -23.3759  -35.9625   23.3300 H   0  0  0  0  0  0
  -24.3580  -36.8937   22.2060 H   0  0  0  0  0  0
  -23.7227  -37.6498   23.6668 H   0  0  0  0  0  0
  -26.0665  -31.5819   20.6056 H   0  0  0  0  0  0
  -26.8276  -30.8671   21.9975 H   0  0  0  0  0  0
  -28.1003  -29.0322   21.2078 H   0  0  0  0  0  0
  -26.0313  -25.9736   18.9733 H   0  0  0  0  0  0
  -23.9772  -27.3233   18.9977 H   0  0  0  0  0  0
  -23.7278  -30.6025   19.4039 H   0  0  0  0  0  0
  -22.7447  -29.2460   19.8680 H   0  0  0  0  0  0
  -25.1287  -36.1980   25.0832 H   0  0  0  0  0  0
  -20.9966  -28.3243   24.1431 H   0  0  0  0  0  0
  -20.5705  -26.2266   23.3608 H   0  0  0  0  0  0
  -21.6651  -26.7458   22.1213 H   0  0  0  0  0  0
  -19.6935  -25.6307   21.1233 H   0  0  0  0  0  0
  -19.6715  -27.3203   20.6753 H   0  0  0  0  0  0
  -17.4221  -26.6687   21.3998 H   0  0  0  0  0  0
  -18.0316  -26.0053   22.8989 H   0  0  0  0  0  0
  -19.7927  -30.7239   24.2319 H   0  0  0  0  0  0
  -17.5013  -31.6263   24.5155 H   0  0  0  0  0  0
  -15.5354  -30.2994   23.7630 H   0  0  0  0  0  0
  -15.8668  -28.0813   22.7079 H   0  0  0  0  0  0
  -24.5951  -30.6994   25.7803 H   0  0  0  0  0  0
  -24.8886  -32.2806   26.4931 H   0  0  0  0  0  0
  -25.8106  -30.8854   27.0237 H   0  0  0  0  0  0
  -26.2869  -29.6778   24.1227 H   0  0  0  0  0  0
  -27.4150  -29.7316   25.4584 H   0  0  0  0  0  0
  -27.8685  -30.4369   23.9253 H   0  0  0  0  0  0
  -27.2738  -33.3644   26.2036 H   0  0  0  0  0  0
  -28.3871  -32.6842   25.0271 H   0  0  0  0  0  0
  -28.0759  -31.8451   26.5384 H   0  0  0  0  0  0
  -28.2607  -38.0103   24.7536 H   0  0  0  0  0  0
  -28.1088  -36.2636   24.6270 H   0  0  0  0  0  0
  -27.2304  -37.1436   25.8871 H   0  0  0  0  0  0
  -20.9335  -29.8722   21.6898 H   0  0  0  0  0  0
  -26.0192  -38.2869   24.1426 H   0  0  0  0  0  0
  -32.0393  -19.7087   20.0901 H   0  0  0  0  0  0
  -32.3964  -17.0370   20.2450 H   0  0  0  0  0  0
  -27.9436  -22.5305   21.1209 H   0  0  0  0  0  0
  -28.1839  -25.3830   21.8380 H   0  0  0  0  0  0
  -27.1042  -24.8806   20.5813 H   0  0  0  0  0  0
  -28.3986  -20.4315   21.0266 H   0  0  0  0  0  0
  -28.9915  -15.4641   21.1163 H   0  0  0  0  0  0
  -30.7297  -23.8731   19.5200 H   0  0  0  0  0  0
  1 25  1  0  0  0
  1 30  2  0  0  0
  1 80  1  0  0  0
  2  3  1  0  0  0
  2 25  1  0  0  0
  2 84  1  0  0  0
  2 85  1  0  0  0
  3  4  1  0  0  0
  3 86  1  0  0  0
  3 87  1  0  0  0
  4  5  1  0  0  0
  4 88  1  0  0  0
  4 89  1  0  0  0
  5  6  1  0  0  0
  5 26  1  0  0  0
  5 90  1  0  0  0
  6 25  1  0  0  0
  6 91  1  0  0  0
  6 92  1  0  0  0
  7  8  2  0  0  0
  7 26  1  0  0  0
  7 29  1  0  0  0
  8  9  1  0  0  0
  8 22  1  0  0  0
  9 10  1  0  0  0
  9 27  2  0  0  0
 10 11  2  0  0  0
 10 15  1  0  0  0
 11 12  1  0  0  0
 11 93  1  0  0  0
 12 13  2  0  0  0
 12 94  1  0  0  0
 13 14  1  0  0  0
 13 31  1  0  0  0
 14 15  2  0  0  0
 14 95  1  0  0  0
 15 96  1  0  0  0
 16 17  2  0  0  0
 16 21  1  0  0  0
 16 31  1  0  0  0
 17 18  1  0  0  0
 17 97  1  0  0  0
 18 19  2  0  0  0
 18 98  1  0  0  0
 19 20  1  0  0  0
 19 24  1  0  0  0
 20 21  2  0  0  0
 20 99  1  0  0  0
 21 23  1  0  0  0
 22 28  1  0  0  0
 22 32  2  0  0  0
 26 27  1  0  0  0
 28100  1  0  0  0
 28101  1  0  0  0
 29102  1  0  0  0
 29103  1  0  0  0
 33 34  1  0  0  0
 33 66  1  0  0  0
 33 70  2  0  0  0
 34 36  1  0  0  0
 34 59  1  0  0  0
 34104  1  0  0  0
 35 44  2  0  0  0
 35 45  1  0  0  0
 35 68  1  0  0  0
 36 56  1  0  0  0
 36105  1  0  0  0
 37 39  1  0  0  0
 37 47  1  0  0  0
 37 66  1  0  0  0
 37106  1  0  0  0
 38 43  2  0  0  0
 38 46  1  0  0  0
 38 47  1  0  0  0
 39 64  1  0  0  0
 39 67  2  0  0  0
 40 52  1  0  0  0
 40 53  2  0  0  0
 40 58  1  0  0  0
 41107  1  0  0  0
 41108  1  0  0  0
 41109  1  0  0  0
 41 48  1  0  0  0
 42 43  1  0  0  0
 42 66  1  0  0  0
 42110  1  0  0  0
 42111  1  0  0  0
 43 44  1  0  0  0
 44112  1  0  0  0
 45 46  2  0  0  0
 45113  1  0  0  0
 46114  1  0  0  0
 47115  1  0  0  0
 47116  1  0  0  0
 48 56  1  0  0  0
 48 65  1  0  0  0
 48117  1  0  0  0
 49 50  1  0  0  0
 49 53  1  0  0  0
 49 64  1  0  0  0
 49118  1  0  0  0
 50 51  1  0  0  0
 50119  1  0  0  0
 50120  1  0  0  0
 51 52  1  0  0  0
 51121  1  0  0  0
 51122  1  0  0  0
 52123  1  0  0  0
 52124  1  0  0  0
 53 54  1  0  0  0
 54 55  2  0  0  0
 54125  1  0  0  0
 55 57  1  0  0  0
 55126  1  0  0  0
 56 69  2  0  0  0
 57 58  2  0  0  0
 57127  1  0  0  0
 58128  1  0  0  0
 59 60  1  0  0  0
 59 61  1  0  0  0
 59 62  1  0  0  0
 60129  1  0  0  0
 60130  1  0  0  0
 60131  1  0  0  0
 61132  1  0  0  0
 61133  1  0  0  0
 61134  1  0  0  0
 62135  1  0  0  0
 62136  1  0  0  0
 62137  1  0  0  0
 63 65  1  0  0  0
 63138  1  0  0  0
 63139  1  0  0  0
 63140  1  0  0  0
 64141  1  0  0  0
 65142  1  0  0  0
 68 78  1  0  0  0
 71 72  1  0  0  0
 71 73  2  0  0  0
 71143  1  0  0  0
 72 74  2  0  0  0
 72144  1  0  0  0
 73 79  1  0  0  0
 73 82  1  0  0  0
 74 80  1  0  0  0
 74 82  1  0  0  0
 75 76  2  0  0  0
 75 77  1  0  0  0
 75145  1  0  0  0
 76 78  1  0  0  0
 76 83  1  0  0  0
 77 79  1  0  0  0
 77 81  2  0  0  0
 78146  1  0  0  0
 78147  1  0  0  0
 79148  1  0  0  0
 80149  1  0  0  0
 83150  1  0  0  0
M  ISO  4   1 100  68 101  78 101  80 100
M  END
> <chiral flag>
0

> <version>
0

> <s_m_source_file>
/data/baiqing/PycharmProjects/Reinvent-master-3.2/result/LINK_invent/BTK/process_docking_weight1_custom_product_contain_oxygen_bond_distance_aromatic_linkinvent_7_9_3/rearranged_h_0149.sdf

> <i_m_source_file_index>
33

> <r_mmod_Potential_Energy-OPLS-2005>
-62.9159278869629

> <r_mmod_Stretch_Energy-OPLS-2005>
52.9104156494141

> <r_mmod_Bend_Energy-OPLS-2005>
125.129043579102

> <r_mmod_Torsional_Energy-OPLS-2005>
221.966812133789

> <r_mmod_Improper_Torsional_Energy-OPLS-2005>
4.3579216003418

> <r_mmod_Van_der_Waal_Energy-OPLS-2005>
145.812423706055

> <r_mmod_Electrostatic_Energy-OPLS-2005>
-408.554077148438

> <r_mmod_Solvation_Energy-OPLS-2005>
-234.923950195312

> <b_mmod_Minimization_Converged-OPLS-2005>
0

> <r_mmod_RMS_Derivative-OPLS-2005>
1.75796663761139

$$$$
33
                    3D
 Structure written by MMmdl.
165174  0  0  1  0            999 V2000
  -30.6831  -14.5377   20.5275 C   0  0  0  0  0  0
  -30.4222  -12.3346   19.4431 C   0  0  0  0  0  0
  -29.4979  -12.5003   18.2182 C   0  0  0  0  0  0
  -28.0200  -12.3549   18.6284 C   0  0  0  0  0  0
  -27.6559  -13.2147   19.8682 C   0  0  2  0  0  0
  -28.6978  -13.0422   20.9968 C   0  0  0  0  0  0
  -25.2562  -13.8179   20.5700 C   0  0  0  0  0  0
  -24.1817  -13.0442   20.9180 C   0  0  0  0  0  0
  -24.6386  -11.6912   20.8737 C   0  0  0  0  0  0
  -23.9064  -10.4291   21.0401 C   0  0  0  0  0  0
  -24.3612   -9.4208   21.9181 C   0  0  0  0  0  0
  -23.6289   -8.2241   22.0744 C   0  0  0  0  0  0
  -22.4268   -8.0281   21.3541 C   0  0  0  0  0  0
  -21.9907   -9.0256   20.4646 C   0  0  0  0  0  0
  -22.7235  -10.2132   20.3055 C   0  0  0  0  0  0
  -21.6851   -6.0740   22.5282 C   0  0  0  0  0  0
  -21.4014   -6.5642   23.8217 C   0  0  0  0  0  0
  -21.3658   -5.6790   24.9177 C   0  0  0  0  0  0
  -21.6038   -4.3055   24.7223 C   0  0  0  0  0  0
  -21.8819   -3.8152   23.4345 C   0  0  0  0  0  0
  -21.9191   -4.6970   22.3403 C   0  0  0  0  0  0
  -22.7841  -13.5238   21.1851 C   0  0  0  0  0  0
  -22.1661   -4.2158   21.0979 F   0  0  0  0  0  0
  -21.5623   -3.4537   25.7736 F   0  0  0  0  0  0
  -30.0244  -13.3460   20.4386 N   0  0  0  0  0  0
  -26.2994  -12.9362   20.3344 N   0  0  0  0  0  0
  -25.9314  -11.6515   20.5763 N   0  0  0  0  0  0
  -22.0479  -12.8234   22.0410 N   0  0  0  0  0  0
  -25.4294  -15.1899   20.4147 N   0  0  0  0  0  0
  -31.8396  -14.6699   20.1185 O   0  0  0  0  0  0
  -21.6632   -6.8878   21.4241 O   0  0  0  0  0  0
  -22.3528  -14.5549   20.6710 O   0  0  0  0  0  0
  -24.6201  -31.8657   23.2086 C   0  0  0  0  0  0
  -25.9077  -32.4810   23.8388 C   0  0  1  0  0  0
  -27.2215  -27.3846   20.1018 C   0  0  0  0  0  0
  -25.5919  -33.8609   24.2321 N   0  0  0  0  0  0
  -23.4089  -30.4917   21.5512 C   0  0  2  0  0  0
  -24.8519  -28.9562   20.1145 C   0  0  0  0  0  0
  -22.7438  -29.4653   22.4977 C   0  0  0  0  0  0
  -18.0278  -28.1378   22.8490 C   0  0  0  0  0  0
  -24.1488  -36.7306   23.2637 C   0  0  0  0  0  0
  -25.9443  -30.8170   21.3693 C   0  0  0  0  0  0
  -26.0183  -29.4495   20.7128 C   0  0  0  0  0  0
  -27.2074  -28.6741   20.6975 C   0  0  0  0  0  0
  -26.0335  -26.9281   19.4847 C   0  0  0  0  0  0
  -24.8578  -27.6981   19.4944 C   0  0  0  0  0  0
  -23.6182  -29.8299   20.1647 C   0  0  0  0  0  0
  -25.4110  -36.3105   24.0337 C   0  0  1  0  0  0
  -20.5874  -28.3675   23.1303 C   0  0  2  0  0  0
  -20.6771  -26.9406   22.5412 C   0  0  0  0  0  0
  -19.5746  -26.6387   21.5211 C   0  0  0  0  0  0
  -18.1924  -26.7925   22.1621 C   0  0  0  0  0  0
  -19.1528  -28.8844   23.2895 C   0  0  0  0  0  0
  -18.9454  -30.1449   23.8909 C   0  0  0  0  0  0
  -17.6456  -30.6582   24.0567 C   0  0  0  0  0  0
  -25.9040  -34.9470   23.5128 C   0  0  0  0  0  0
  -16.5348  -29.9084   23.6324 C   0  0  0  0  0  0
  -16.7267  -28.6500   23.0349 C   0  0  0  0  0  0
  -26.4489  -31.6596   25.0727 C   0  0  0  0  0  0
  -25.3745  -31.3714   26.1469 C   0  0  0  0  0  0
  -27.0316  -30.3031   24.6126 C   0  0  0  0  0  0
  -27.6067  -32.4316   25.7482 C   0  0  0  0  0  0
  -27.5581  -37.1805   24.8465 C   0  0  0  0  0  0
  -21.4160  -29.3041   22.3709 N   0  0  0  0  0  0
  -26.4295  -37.3791   23.9409 N   0  0  0  0  0  0
  -24.6764  -31.0726   22.1009 N   0  0  0  0  0  0
  -23.4193  -28.8187   23.3025 O   0  0  0  0  0  0
  -28.3693  -26.6010   20.1138 O   0  0  0  0  0  0
  -26.5599  -34.8925   22.4686 O   0  0  0  0  0  0
  -23.5383  -32.1430   23.7458 O   0  0  0  0  0  0
  -31.4075  -18.9488   19.8787 C   0  0  0  0  0  0
  -31.1260  -17.5628   19.8917 C   0  0  0  0  0  0
  -29.8113  -19.3110   21.6680 C   0  0  0  0  0  0
  -30.7895  -19.8363   20.7939 C   0  0  0  0  0  0
  -30.2276  -17.0096   20.8379 C   0  0  0  0  0  0
  -29.5433  -17.9137   21.6966 C   0  0  0  0  0  0
  -31.3850  -21.1817   20.9867 C   0  0  0  0  0  0
  -30.5745  -24.8197   21.1768 C   0  0  0  0  0  0
  -31.5535  -23.6491   21.2989 C   0  0  0  0  0  0
  -29.4092  -22.8194   20.5984 C   0  0  0  0  0  0
  -29.5102  -24.3344   20.1896 C   0  0  2  0  0  0
  -30.0117  -24.4473   18.7319 C   0  0  0  0  0  0
  -28.1950  -25.1676   20.3238 C   0  0  0  0  0  0
  -30.7980  -22.4194   20.9529 N   0  0  0  0  0  0
  -28.6295  -17.4141   22.6262 N   0  0  0  0  0  0
  -29.9466  -15.5967   20.9447 N   0  0  0  0  0  0
  -32.6937  -21.1534   21.2392 N   0  3  0  0  0  0
  -31.4668  -12.4302   19.1427 H   0  0  0  0  0  0
  -30.3248  -11.3334   19.8663 H   0  0  0  0  0  0
  -29.7463  -11.7629   17.4542 H   0  0  0  0  0  0
  -29.6578  -13.4786   17.7620 H   0  0  0  0  0  0
  -27.8389  -11.3011   18.8436 H   0  0  0  0  0  0
  -27.3696  -12.6092   17.7905 H   0  0  0  0  0  0
  -27.6855  -14.2549   19.5426 H   0  0  0  0  0  0
  -28.6814  -12.0203   21.3783 H   0  0  0  0  0  0
  -28.4555  -13.6788   21.8488 H   0  0  0  0  0  0
  -25.2753   -9.5687   22.4765 H   0  0  0  0  0  0
  -24.0002   -7.4628   22.7457 H   0  0  0  0  0  0
  -21.0837   -8.8779   19.8954 H   0  0  0  0  0  0
  -22.3692  -10.9673   19.6168 H   0  0  0  0  0  0
  -21.2010   -7.6149   23.9729 H   0  0  0  0  0  0
  -21.1479   -6.0516   25.9080 H   0  0  0  0  0  0
  -22.0602   -2.7616   23.2843 H   0  0  0  0  0  0
  -22.4082  -11.9892   22.4805 H   0  0  0  0  0  0
  -21.1106  -13.1279   22.2628 H   0  0  0  0  0  0
  -24.6718  -15.8511   20.5483 H   0  0  0  0  0  0
  -26.2987  -15.6371   20.1521 H   0  0  0  0  0  0
  -26.7145  -32.5507   23.1142 H   0  0  0  0  0  0
  -25.0082  -33.9765   25.0477 H   0  0  0  0  0  0
  -22.6996  -31.3106   21.4142 H   0  0  0  0  0  0
  -23.3748  -35.9640   23.3312 H   0  0  0  0  0  0
  -24.3584  -36.8907   22.2048 H   0  0  0  0  0  0
  -23.7240  -37.6515   23.6645 H   0  0  0  0  0  0
  -26.0657  -31.5827   20.6021 H   0  0  0  0  0  0
  -26.8292  -30.8660   21.9918 H   0  0  0  0  0  0
  -28.1071  -29.0510   21.1636 H   0  0  0  0  0  0
  -25.9869  -25.9805   18.9724 H   0  0  0  0  0  0
  -23.9645  -27.3186   19.0172 H   0  0  0  0  0  0
  -23.7324  -30.6081   19.4089 H   0  0  0  0  0  0
  -22.7392  -29.2564   19.8649 H   0  0  0  0  0  0
  -25.1285  -36.1968   25.0828 H   0  0  0  0  0  0
  -20.9965  -28.3244   24.1424 H   0  0  0  0  0  0
  -20.5675  -26.2283   23.3602 H   0  0  0  0  0  0
  -21.6640  -26.7446   22.1204 H   0  0  0  0  0  0
  -19.6907  -25.6302   21.1234 H   0  0  0  0  0  0
  -19.6680  -27.3205   20.6747 H   0  0  0  0  0  0
  -17.4193  -26.6679   21.4022 H   0  0  0  0  0  0
  -18.0322  -26.0065   22.9012 H   0  0  0  0  0  0
  -19.7929  -30.7262   24.2282 H   0  0  0  0  0  0
  -17.5009  -31.6263   24.5168 H   0  0  0  0  0  0
  -15.5348  -30.2990   23.7640 H   0  0  0  0  0  0
  -15.8669  -28.0824   22.7059 H   0  0  0  0  0  0
  -24.5910  -30.7071   25.7805 H   0  0  0  0  0  0
  -24.8943  -32.2873   26.4922 H   0  0  0  0  0  0
  -25.8085  -30.8873   27.0225 H   0  0  0  0  0  0
  -26.2862  -29.6788   24.1184 H   0  0  0  0  0  0
  -27.4078  -29.7274   25.4592 H   0  0  0  0  0  0
  -27.8707  -30.4336   23.9289 H   0  0  0  0  0  0
  -27.2695  -33.3608   26.2087 H   0  0  0  0  0  0
  -28.3854  -32.6888   25.0290 H   0  0  0  0  0  0
  -28.0764  -31.8426   26.5369 H   0  0  0  0  0  0
  -28.2608  -38.0094   24.7510 H   0  0  0  0  0  0
  -28.1068  -36.2626   24.6293 H   0  0  0  0  0  0
  -27.2303  -37.1460   25.8870 H   0  0  0  0  0  0
  -20.9325  -29.8769   21.6933 H   0  0  0  0  0  0
  -26.0185  -38.2870   24.1406 H   0  0  0  0  0  0
  -32.1602  -19.3214   19.1965 H   0  0  0  0  0  0
  -31.6436  -16.9327   19.1839 H   0  0  0  0  0  0
  -29.3433  -19.9690   22.3871 H   0  0  0  0  0  0
  -31.0679  -25.7293   20.8327 H   0  0  0  0  0  0
  -30.1385  -25.0360   22.1531 H   0  0  0  0  0  0
  -31.9734  -23.6009   22.3053 H   0  0  0  0  0  0
  -32.3793  -23.7822   20.5974 H   0  0  0  0  0  0
  -29.0040  -22.2078   19.7903 H   0  0  0  0  0  0
  -28.7627  -22.6891   21.4679 H   0  0  0  0  0  0
  -30.9261  -23.8794   18.5597 H   0  0  0  0  0  0
  -30.2135  -25.4842   18.4616 H   0  0  0  0  0  0
  -29.2646  -24.0707   18.0320 H   0  0  0  0  0  0
  -27.7713  -25.0219   21.3189 H   0  0  0  0  0  0
  -27.4834  -24.7334   19.6250 H   0  0  0  0  0  0
  -28.3395  -18.0515   23.3600 H   0  0  0  0  0  0
  -28.8312  -16.4961   23.0037 H   0  0  0  0  0  0
  -29.0475  -15.3802   21.3425 H   0  0  0  0  0  0
  -33.1493  -20.2566   21.3154 H   0  0  0  0  0  0
  -33.2455  -21.9851   21.3492 H   0  0  0  0  0  0
  1 25  1  0  0  0
  1 30  2  0  0  0
  1 86  1  0  0  0
  2  3  1  0  0  0
  2 25  1  0  0  0
  2 88  1  0  0  0
  2 89  1  0  0  0
  3  4  1  0  0  0
  3 90  1  0  0  0
  3 91  1  0  0  0
  4  5  1  0  0  0
  4 92  1  0  0  0
  4 93  1  0  0  0
  5  6  1  0  0  0
  5 26  1  0  0  0
  5 94  1  0  0  0
  6 25  1  0  0  0
  6 95  1  0  0  0
  6 96  1  0  0  0
  7  8  2  0  0  0
  7 26  1  0  0  0
  7 29  1  0  0  0
  8  9  1  0  0  0
  8 22  1  0  0  0
  9 10  1  0  0  0
  9 27  2  0  0  0
 10 11  2  0  0  0
 10 15  1  0  0  0
 11 12  1  0  0  0
 11 97  1  0  0  0
 12 13  2  0  0  0
 12 98  1  0  0  0
 13 14  1  0  0  0
 13 31  1  0  0  0
 14 15  2  0  0  0
 14 99  1  0  0  0
 15100  1  0  0  0
 16 17  2  0  0  0
 16 21  1  0  0  0
 16 31  1  0  0  0
 17 18  1  0  0  0
 17101  1  0  0  0
 18 19  2  0  0  0
 18102  1  0  0  0
 19 20  1  0  0  0
 19 24  1  0  0  0
 20 21  2  0  0  0
 20103  1  0  0  0
 21 23  1  0  0  0
 22 28  1  0  0  0
 22 32  2  0  0  0
 26 27  1  0  0  0
 28104  1  0  0  0
 28105  1  0  0  0
 29106  1  0  0  0
 29107  1  0  0  0
 33 34  1  0  0  0
 33 66  1  0  0  0
 33 70  2  0  0  0
 34 36  1  0  0  0
 34 59  1  0  0  0
 34108  1  0  0  0
 35 44  2  0  0  0
 35 45  1  0  0  0
 35 68  1  0  0  0
 36 56  1  0  0  0
 36109  1  0  0  0
 37 39  1  0  0  0
 37 47  1  0  0  0
 37 66  1  0  0  0
 37110  1  0  0  0
 38 43  2  0  0  0
 38 46  1  0  0  0
 38 47  1  0  0  0
 39 64  1  0  0  0
 39 67  2  0  0  0
 40 52  1  0  0  0
 40 53  2  0  0  0
 40 58  1  0  0  0
 41111  1  0  0  0
 41112  1  0  0  0
 41113  1  0  0  0
 41 48  1  0  0  0
 42 43  1  0  0  0
 42 66  1  0  0  0
 42114  1  0  0  0
 42115  1  0  0  0
 43 44  1  0  0  0
 44116  1  0  0  0
 45 46  2  0  0  0
 45117  1  0  0  0
 46118  1  0  0  0
 47119  1  0  0  0
 47120  1  0  0  0
 48 56  1  0  0  0
 48 65  1  0  0  0
 48121  1  0  0  0
 49 50  1  0  0  0
 49 53  1  0  0  0
 49 64  1  0  0  0
 49122  1  0  0  0
 50 51  1  0  0  0
 50123  1  0  0  0
 50124  1  0  0  0
 51 52  1  0  0  0
 51125  1  0  0  0
 51126  1  0  0  0
 52127  1  0  0  0
 52128  1  0  0  0
 53 54  1  0  0  0
 54 55  2  0  0  0
 54129  1  0  0  0
 55 57  1  0  0  0
 55130  1  0  0  0
 56 69  2  0  0  0
 57 58  2  0  0  0
 57131  1  0  0  0
 58132  1  0  0  0
 59 60  1  0  0  0
 59 61  1  0  0  0
 59 62  1  0  0  0
 60133  1  0  0  0
 60134  1  0  0  0
 60135  1  0  0  0
 61136  1  0  0  0
 61137  1  0  0  0
 61138  1  0  0  0
 62139  1  0  0  0
 62140  1  0  0  0
 62141  1  0  0  0
 63 65  1  0  0  0
 63142  1  0  0  0
 63143  1  0  0  0
 63144  1  0  0  0
 64145  1  0  0  0
 65146  1  0  0  0
 68 83  1  0  0  0
 71 72  2  0  0  0
 71 74  1  0  0  0
 71147  1  0  0  0
 72 75  1  0  0  0
 72148  1  0  0  0
 73 74  2  0  0  0
 73 76  1  0  0  0
 73149  1  0  0  0
 74 77  1  0  0  0
 75 76  2  0  0  0
 75 86  1  0  0  0
 76 85  1  0  0  0
 77 84  1  0  0  0
 77 87  2  0  0  0
 78 79  1  0  0  0
 78 81  1  0  0  0
 78150  1  0  0  0
 78151  1  0  0  0
 79 84  1  0  0  0
 79152  1  0  0  0
 79153  1  0  0  0
 80 81  1  0  0  0
 80 84  1  0  0  0
 80154  1  0  0  0
 80155  1  0  0  0
 81 82  1  0  0  0
 81 83  1  0  0  0
 82156  1  0  0  0
 82157  1  0  0  0
 82158  1  0  0  0
 83159  1  0  0  0
 83160  1  0  0  0
 85161  1  0  0  0
 85162  1  0  0  0
 86163  1  0  0  0
 87164  1  0  0  0
 87165  1  0  0  0
M  CHG  1  87   1
M  ISO  4   1 100  68 101  83 101  86 100
M  END
> <chiral flag>
0

> <version>
0

> <s_m_source_file>
/data/baiqing/PycharmProjects/Reinvent-master-3.2/result/LINK_invent/BTK/process_docking_weight1_custom_product_contain_oxygen_bond_distance_aromatic_linkinvent_7_9_3/rearranged_h_0149.sdf

> <i_m_source_file_index>
34

> <r_mmod_Potential_Energy-OPLS-2005>
-202.425888061523

> <r_mmod_Stretch_Energy-OPLS-2005>
51.2330856323242

> <r_mmod_Bend_Energy-OPLS-2005>
153.454055786133

> <r_mmod_Torsional_Energy-OPLS-2005>
316.027435302734

> <r_mmod_Improper_Torsional_Energy-OPLS-2005>
9.69428634643555

> <r_mmod_Van_der_Waal_Energy-OPLS-2005>
161.397964477539

> <r_mmod_Electrostatic_Energy-OPLS-2005>
-518.064819335938

> <r_mmod_Solvation_Energy-OPLS-2005>
-399.620483398438

> <b_mmod_Minimization_Converged-OPLS-2005>
0

> <r_mmod_RMS_Derivative-OPLS-2005>
0.934825301170349

$$$$
34
                    3D
 Structure written by MMmdl.
147155  0  0  1  0            999 V2000
  -30.5848  -14.7198   20.4713 C   0  0  0  0  0  0
  -30.4453  -12.4381   19.4607 C   0  0  0  0  0  0
  -29.5121  -12.5047   18.2298 C   0  0  0  0  0  0
  -28.0369  -12.3281   18.6443 C   0  0  0  0  0  0
  -27.6466  -13.2181   19.8536 C   0  0  2  0  0  0
  -28.6927  -13.1147   20.9861 C   0  0  0  0  0  0
  -25.2537  -13.8166   20.5678 C   0  0  0  0  0  0
  -24.1818  -13.0431   20.9214 C   0  0  0  0  0  0
  -24.6390  -11.6903   20.8752 C   0  0  0  0  0  0
  -23.9064  -10.4287   21.0413 C   0  0  0  0  0  0
  -24.3614   -9.4200   21.9188 C   0  0  0  0  0  0
  -23.6290   -8.2236   22.0753 C   0  0  0  0  0  0
  -22.4274   -8.0277   21.3543 C   0  0  0  0  0  0
  -21.9909   -9.0252   20.4646 C   0  0  0  0  0  0
  -22.7238  -10.2132   20.3058 C   0  0  0  0  0  0
  -21.6852   -6.0735   22.5279 C   0  0  0  0  0  0
  -21.4011   -6.5638   23.8213 C   0  0  0  0  0  0
  -21.3659   -5.6791   24.9174 C   0  0  0  0  0  0
  -21.6045   -4.3054   24.7225 C   0  0  0  0  0  0
  -21.8820   -3.8146   23.4347 C   0  0  0  0  0  0
  -21.9191   -4.6963   22.3402 C   0  0  0  0  0  0
  -22.7840  -13.5223   21.1875 C   0  0  0  0  0  0
  -22.1661   -4.2147   21.0981 F   0  0  0  0  0  0
  -21.5630   -3.4538   25.7740 F   0  0  0  0  0  0
  -29.9987  -13.4762   20.4142 N   0  0  0  0  0  0
  -26.2956  -12.9345   20.3276 N   0  0  0  0  0  0
  -25.9315  -11.6504   20.5745 N   0  0  0  0  0  0
  -22.0482  -12.8212   22.0429 N   0  0  0  0  0  0
  -25.4229  -15.1890   20.4067 N   0  0  0  0  0  0
  -31.7699  -14.8670   20.1523 O   0  0  0  0  0  0
  -21.6637   -6.8877   21.4241 O   0  0  0  0  0  0
  -22.3529  -14.5531   20.6723 O   0  0  0  0  0  0
  -24.6282  -31.8566   23.1984 C   0  0  0  0  0  0
  -25.9117  -32.4765   23.8329 C   0  0  1  0  0  0
  -27.2305  -27.2902   20.1354 C   0  0  0  0  0  0
  -25.5923  -33.8565   24.2259 N   0  0  0  0  0  0
  -23.4253  -30.4765   21.5408 C   0  0  2  0  0  0
  -24.8749  -28.9191   20.1169 C   0  0  0  0  0  0
  -22.7488  -29.4607   22.4923 C   0  0  0  0  0  0
  -18.0291  -28.1392   22.8492 C   0  0  0  0  0  0
  -24.1488  -36.7285   23.2640 C   0  0  0  0  0  0
  -25.9672  -30.7796   21.3716 C   0  0  0  0  0  0
  -26.0445  -29.4015   20.7194 C   0  0  0  0  0  0
  -27.2287  -28.6016   20.7118 C   0  0  0  0  0  0
  -26.0393  -26.8590   19.5167 C   0  0  0  0  0  0
  -24.8755  -27.6547   19.5044 C   0  0  0  0  0  0
  -23.6439  -29.8043   20.1594 C   0  0  0  0  0  0
  -25.4114  -36.3075   24.0329 C   0  0  1  0  0  0
  -20.5894  -28.3696   23.1281 C   0  0  2  0  0  0
  -20.6778  -26.9416   22.5412 C   0  0  0  0  0  0
  -19.5748  -26.6390   21.5216 C   0  0  0  0  0  0
  -18.1931  -26.7934   22.1632 C   0  0  0  0  0  0
  -19.1544  -28.8859   23.2883 C   0  0  0  0  0  0
  -18.9466  -30.1465   23.8897 C   0  0  0  0  0  0
  -17.6465  -30.6593   24.0568 C   0  0  0  0  0  0
  -25.9053  -34.9445   23.5096 C   0  0  0  0  0  0
  -16.5356  -29.9090   23.6338 C   0  0  0  0  0  0
  -16.7278  -28.6510   23.0356 C   0  0  0  0  0  0
  -26.4492  -31.6582   25.0707 C   0  0  0  0  0  0
  -25.3721  -31.3741   26.1435 C   0  0  0  0  0  0
  -27.0331  -30.2999   24.6173 C   0  0  0  0  0  0
  -27.6052  -32.4313   25.7480 C   0  0  0  0  0  0
  -27.5580  -37.1798   24.8466 C   0  0  0  0  0  0
  -21.4197  -29.3041   22.3667 N   0  0  0  0  0  0
  -26.4289  -37.3772   23.9410 N   0  0  0  0  0  0
  -24.6927  -31.0553   22.0942 N   0  0  0  0  0  0
  -23.4193  -28.8157   23.3029 O   0  0  0  0  0  0
  -28.3406  -26.4284   20.1266 O   0  0  0  0  0  0
  -26.5627  -34.8915   22.4665 O   0  0  0  0  0  0
  -23.5438  -32.1370   23.7291 O   0  0  0  0  0  0
  -30.6226  -19.4193   20.8019 C   0  0  0  0  0  0
  -29.3758  -19.8028   20.3250 C   0  0  0  0  0  0
  -29.8125  -17.2444   20.5513 C   0  0  0  0  0  0
  -28.6376  -23.7863   19.9453 C   0  0  0  0  0  0
  -29.0731  -22.4272   20.6817 C   0  0  0  0  0  0
  -28.1965  -25.0833   20.7669 C   0  0  0  0  0  0
  -30.8579  -18.0114   20.9119 N   0  0  0  0  0  0
  -28.8061  -21.1003   20.0001 N   0  0  0  0  0  0
  -29.7203  -15.7767   20.6776 N   0  0  0  0  0  0
  -28.6224  -23.8132   18.7102 O   0  0  0  0  0  0
  -28.4509  -18.3036   20.0414 S   0  0  0  0  0  0
  -31.4826  -12.5830   19.1537 H   0  0  0  0  0  0
  -30.4048  -11.4517   19.9257 H   0  0  0  0  0  0
  -29.7895  -11.7383   17.5047 H   0  0  0  0  0  0
  -29.6383  -13.4630   17.7238 H   0  0  0  0  0  0
  -27.8912  -11.2780   18.8999 H   0  0  0  0  0  0
  -27.3787  -12.5280   17.7978 H   0  0  0  0  0  0
  -27.6486  -14.2432   19.4843 H   0  0  0  0  0  0
  -28.7234  -12.1024   21.3923 H   0  0  0  0  0  0
  -28.4288  -13.7646   21.8223 H   0  0  0  0  0  0
  -25.2761   -9.5675   22.4761 H   0  0  0  0  0  0
  -24.0003   -7.4624   22.7465 H   0  0  0  0  0  0
  -21.0843   -8.8770   19.8948 H   0  0  0  0  0  0
  -22.3699  -10.9670   19.6166 H   0  0  0  0  0  0
  -21.2003   -7.6144   23.9715 H   0  0  0  0  0  0
  -21.1481   -6.0521   25.9077 H   0  0  0  0  0  0
  -22.0599   -2.7608   23.2847 H   0  0  0  0  0  0
  -22.4094  -11.9869   22.4812 H   0  0  0  0  0  0
  -21.1098  -13.1233   22.2634 H   0  0  0  0  0  0
  -24.6466  -15.8342   20.5065 H   0  0  0  0  0  0
  -26.2475  -15.6263   20.0179 H   0  0  0  0  0  0
  -26.7185  -32.5425   23.1077 H   0  0  0  0  0  0
  -25.0069  -33.9705   25.0405 H   0  0  0  0  0  0
  -22.7217  -31.2981   21.3926 H   0  0  0  0  0  0
  -23.3752  -35.9614   23.3299 H   0  0  0  0  0  0
  -24.3584  -36.8907   22.2055 H   0  0  0  0  0  0
  -23.7231  -37.6482   23.6662 H   0  0  0  0  0  0
  -26.0991  -31.5395   20.6003 H   0  0  0  0  0  0
  -26.8472  -30.8332   22.0012 H   0  0  0  0  0  0
  -28.1301  -28.9721   21.1799 H   0  0  0  0  0  0
  -26.0076  -25.8877   19.0434 H   0  0  0  0  0  0
  -23.9797  -27.2810   19.0273 H   0  0  0  0  0  0
  -23.7674  -30.5770   19.3997 H   0  0  0  0  0  0
  -22.7632  -29.2345   19.8571 H   0  0  0  0  0  0
  -25.1295  -36.1925   25.0821 H   0  0  0  0  0  0
  -20.9995  -28.3268   24.1397 H   0  0  0  0  0  0
  -20.5683  -26.2303   23.3613 H   0  0  0  0  0  0
  -21.6646  -26.7443   22.1206 H   0  0  0  0  0  0
  -19.6910  -25.6300   21.1248 H   0  0  0  0  0  0
  -19.6689  -27.3200   20.6747 H   0  0  0  0  0  0
  -17.4205  -26.6689   21.4029 H   0  0  0  0  0  0
  -18.0332  -26.0072   22.9027 H   0  0  0  0  0  0
  -19.7938  -30.7289   24.2256 H   0  0  0  0  0  0
  -17.5018  -31.6271   24.5172 H   0  0  0  0  0  0
  -15.5358  -30.2995   23.7654 H   0  0  0  0  0  0
  -15.8681  -28.0831   22.7064 H   0  0  0  0  0  0
  -24.5886  -30.7096   25.7771 H   0  0  0  0  0  0
  -24.8923  -32.2917   26.4847 H   0  0  0  0  0  0
  -25.8040  -30.8927   27.0216 H   0  0  0  0  0  0
  -26.2903  -29.6751   24.1195 H   0  0  0  0  0  0
  -27.4019  -29.7257   25.4684 H   0  0  0  0  0  0
  -27.8779  -30.4281   23.9402 H   0  0  0  0  0  0
  -27.2672  -33.3625   26.2039 H   0  0  0  0  0  0
  -28.3874  -32.6850   25.0314 H   0  0  0  0  0  0
  -28.0700  -31.8441   26.5409 H   0  0  0  0  0  0
  -28.2601  -38.0094   24.7520 H   0  0  0  0  0  0
  -28.1075  -36.2627   24.6285 H   0  0  0  0  0  0
  -27.2304  -37.1440   25.8872 H   0  0  0  0  0  0
  -20.9375  -29.8762   21.6873 H   0  0  0  0  0  0
  -26.0170  -38.2845   24.1416 H   0  0  0  0  0  0
  -31.4329  -20.0856   21.0623 H   0  0  0  0  0  0
  -28.5803  -22.4157   21.6545 H   0  0  0  0  0  0
  -30.1410  -22.5026   20.8891 H   0  0  0  0  0  0
  -28.7782  -25.0967   21.6885 H   0  0  0  0  0  0
  -27.1613  -24.9365   21.0754 H   0  0  0  0  0  0
  -27.9171  -21.0892   19.5036 H   0  0  0  0  0  0
  -28.7775  -15.4536   20.8188 H   0  0  0  0  0  0
  1 25  1  0  0  0
  1 30  2  0  0  0
  1 79  1  0  0  0
  2  3  1  0  0  0
  2 25  1  0  0  0
  2 82  1  0  0  0
  2 83  1  0  0  0
  3  4  1  0  0  0
  3 84  1  0  0  0
  3 85  1  0  0  0
  4  5  1  0  0  0
  4 86  1  0  0  0
  4 87  1  0  0  0
  5  6  1  0  0  0
  5 26  1  0  0  0
  5 88  1  0  0  0
  6 25  1  0  0  0
  6 89  1  0  0  0
  6 90  1  0  0  0
  7  8  2  0  0  0
  7 26  1  0  0  0
  7 29  1  0  0  0
  8  9  1  0  0  0
  8 22  1  0  0  0
  9 10  1  0  0  0
  9 27  2  0  0  0
 10 11  2  0  0  0
 10 15  1  0  0  0
 11 12  1  0  0  0
 11 91  1  0  0  0
 12 13  2  0  0  0
 12 92  1  0  0  0
 13 14  1  0  0  0
 13 31  1  0  0  0
 14 15  2  0  0  0
 14 93  1  0  0  0
 15 94  1  0  0  0
 16 17  2  0  0  0
 16 21  1  0  0  0
 16 31  1  0  0  0
 17 18  1  0  0  0
 17 95  1  0  0  0
 18 19  2  0  0  0
 18 96  1  0  0  0
 19 20  1  0  0  0
 19 24  1  0  0  0
 20 21  2  0  0  0
 20 97  1  0  0  0
 21 23  1  0  0  0
 22 28  1  0  0  0
 22 32  2  0  0  0
 26 27  1  0  0  0
 28 98  1  0  0  0
 28 99  1  0  0  0
 29100  1  0  0  0
 29101  1  0  0  0
 33 34  1  0  0  0
 33 66  1  0  0  0
 33 70  2  0  0  0
 34 36  1  0  0  0
 34 59  1  0  0  0
 34102  1  0  0  0
 35 44  2  0  0  0
 35 45  1  0  0  0
 35 68  1  0  0  0
 36 56  1  0  0  0
 36103  1  0  0  0
 37 39  1  0  0  0
 37 47  1  0  0  0
 37 66  1  0  0  0
 37104  1  0  0  0
 38 43  2  0  0  0
 38 46  1  0  0  0
 38 47  1  0  0  0
 39 64  1  0  0  0
 39 67  2  0  0  0
 40 52  1  0  0  0
 40 53  2  0  0  0
 40 58  1  0  0  0
 41105  1  0  0  0
 41106  1  0  0  0
 41107  1  0  0  0
 41 48  1  0  0  0
 42 43  1  0  0  0
 42 66  1  0  0  0
 42108  1  0  0  0
 42109  1  0  0  0
 43 44  1  0  0  0
 44110  1  0  0  0
 45 46  2  0  0  0
 45111  1  0  0  0
 46112  1  0  0  0
 47113  1  0  0  0
 47114  1  0  0  0
 48 56  1  0  0  0
 48 65  1  0  0  0
 48115  1  0  0  0
 49 50  1  0  0  0
 49 53  1  0  0  0
 49 64  1  0  0  0
 49116  1  0  0  0
 50 51  1  0  0  0
 50117  1  0  0  0
 50118  1  0  0  0
 51 52  1  0  0  0
 51119  1  0  0  0
 51120  1  0  0  0
 52121  1  0  0  0
 52122  1  0  0  0
 53 54  1  0  0  0
 54 55  2  0  0  0
 54123  1  0  0  0
 55 57  1  0  0  0
 55124  1  0  0  0
 56 69  2  0  0  0
 57 58  2  0  0  0
 57125  1  0  0  0
 58126  1  0  0  0
 59 60  1  0  0  0
 59 61  1  0  0  0
 59 62  1  0  0  0
 60127  1  0  0  0
 60128  1  0  0  0
 60129  1  0  0  0
 61130  1  0  0  0
 61131  1  0  0  0
 61132  1  0  0  0
 62133  1  0  0  0
 62134  1  0  0  0
 62135  1  0  0  0
 63 65  1  0  0  0
 63136  1  0  0  0
 63137  1  0  0  0
 63138  1  0  0  0
 64139  1  0  0  0
 65140  1  0  0  0
 68 76  1  0  0  0
 71 72  2  0  0  0
 71 77  1  0  0  0
 71141  1  0  0  0
 72 78  1  0  0  0
 72 81  1  0  0  0
 73 77  2  0  0  0
 73 79  1  0  0  0
 73 81  1  0  0  0
 74 75  1  0  0  0
 74 76  1  0  0  0
 74 80  2  0  0  0
 75 78  1  0  0  0
 75142  1  0  0  0
 75143  1  0  0  0
 76144  1  0  0  0
 76145  1  0  0  0
 78146  1  0  0  0
 79147  1  0  0  0
M  ISO  4   1 100  68 101  76 101  79 100
M  END
> <chiral flag>
0

> <version>
0

> <s_m_source_file>
/data/baiqing/PycharmProjects/Reinvent-master-3.2/result/LINK_invent/BTK/process_docking_weight1_custom_product_contain_oxygen_bond_distance_aromatic_linkinvent_7_9_3/rearranged_h_0149.sdf

> <i_m_source_file_index>
35

> <r_mmod_Potential_Energy-OPLS-2005>
157.300384521484

> <r_mmod_Stretch_Energy-OPLS-2005>
100.637008666992

> <r_mmod_Bend_Energy-OPLS-2005>
158.832153320312

> <r_mmod_Torsional_Energy-OPLS-2005>
237.253631591797

> <r_mmod_Improper_Torsional_Energy-OPLS-2005>
7.34930038452148

> <r_mmod_Van_der_Waal_Energy-OPLS-2005>
110.440734863281

> <r_mmod_Electrostatic_Energy-OPLS-2005>
-260.347930908203

> <r_mmod_Solvation_Energy-OPLS-2005>
-266.898986816406

> <b_mmod_Minimization_Converged-OPLS-2005>
0

> <r_mmod_RMS_Derivative-OPLS-2005>
0.768872022628784

$$$$
35
                    3D
 Structure written by MMmdl.
161170  0  0  1  0            999 V2000
  -30.6321  -14.6195   20.5049 C   0  0  0  0  0  0
  -30.4349  -12.3829   19.4489 C   0  0  0  0  0  0
  -29.5067  -12.5163   18.2220 C   0  0  0  0  0  0
  -28.0310  -12.3440   18.6335 C   0  0  0  0  0  0
  -27.6542  -13.2060   19.8653 C   0  0  2  0  0  0
  -28.6985  -13.0603   20.9953 C   0  0  0  0  0  0
  -25.2558  -13.8131   20.5676 C   0  0  0  0  0  0
  -24.1804  -13.0416   20.9167 C   0  0  0  0  0  0
  -24.6365  -11.6886   20.8709 C   0  0  0  0  0  0
  -23.9036  -10.4282   21.0399 C   0  0  0  0  0  0
  -24.3607   -9.4204   21.9171 C   0  0  0  0  0  0
  -23.6296   -8.2233   22.0728 C   0  0  0  0  0  0
  -22.4273   -8.0262   21.3526 C   0  0  0  0  0  0
  -21.9897   -9.0233   20.4630 C   0  0  0  0  0  0
  -22.7211  -10.2120   20.3049 C   0  0  0  0  0  0
  -21.6847   -6.0723   22.5276 C   0  0  0  0  0  0
  -21.4008   -6.5626   23.8209 C   0  0  0  0  0  0
  -21.3653   -5.6784   24.9168 C   0  0  0  0  0  0
  -21.6051   -4.3050   24.7223 C   0  0  0  0  0  0
  -21.8811   -3.8138   23.4341 C   0  0  0  0  0  0
  -21.9182   -4.6950   22.3394 C   0  0  0  0  0  0
  -22.7826  -13.5226   21.1845 C   0  0  0  0  0  0
  -22.1658   -4.2130   21.0980 F   0  0  0  0  0  0
  -21.5649   -3.4538   25.7737 F   0  0  0  0  0  0
  -30.0190  -13.3952   20.4394 N   0  0  0  0  0  0
  -26.2981  -12.9289   20.3304 N   0  0  0  0  0  0
  -25.9294  -11.6464   20.5720 N   0  0  0  0  0  0
  -22.0446  -12.8237   22.0408 N   0  0  0  0  0  0
  -25.4306  -15.1856   20.4136 N   0  0  0  0  0  0
  -31.7736  -14.7994   20.0678 O   0  0  0  0  0  0
  -21.6637   -6.8865   21.4238 O   0  0  0  0  0  0
  -22.3523  -14.5527   20.6679 O   0  0  0  0  0  0
  -24.6233  -31.8644   23.2035 C   0  0  0  0  0  0
  -25.9095  -32.4812   23.8356 C   0  0  1  0  0  0
  -27.2317  -27.3575   20.1095 C   0  0  0  0  0  0
  -25.5910  -33.8605   24.2285 N   0  0  0  0  0  0
  -23.4138  -30.4878   21.5463 C   0  0  2  0  0  0
  -24.8591  -28.9415   20.1148 C   0  0  0  0  0  0
  -22.7438  -29.4666   22.4947 C   0  0  0  0  0  0
  -18.0282  -28.1390   22.8491 C   0  0  0  0  0  0
  -24.1484  -36.7300   23.2641 C   0  0  0  0  0  0
  -25.9508  -30.8080   21.3644 C   0  0  0  0  0  0
  -26.0264  -29.4369   20.7091 C   0  0  0  0  0  0
  -27.2151  -28.6559   20.6963 C   0  0  0  0  0  0
  -26.0389  -26.8991   19.5039 C   0  0  0  0  0  0
  -24.8640  -27.6741   19.5092 C   0  0  0  0  0  0
  -23.6261  -29.8198   20.1624 C   0  0  0  0  0  0
  -25.4111  -36.3095   24.0329 C   0  0  1  0  0  0
  -20.5881  -28.3695   23.1296 C   0  0  2  0  0  0
  -20.6768  -26.9419   22.5424 C   0  0  0  0  0  0
  -19.5749  -26.6392   21.5216 C   0  0  0  0  0  0
  -18.1924  -26.7937   22.1619 C   0  0  0  0  0  0
  -19.1535  -28.8851   23.2892 C   0  0  0  0  0  0
  -18.9463  -30.1443   23.8923 C   0  0  0  0  0  0
  -17.6473  -30.6598   24.0571 C   0  0  0  0  0  0
  -25.9051  -34.9472   23.5110 C   0  0  0  0  0  0
  -16.5357  -29.9108   23.6321 C   0  0  0  0  0  0
  -16.7276  -28.6515   23.0353 C   0  0  0  0  0  0
  -26.4471  -31.6618   25.0724 C   0  0  0  0  0  0
  -25.3717  -31.3756   26.1466 C   0  0  0  0  0  0
  -27.0298  -30.3055   24.6129 C   0  0  0  0  0  0
  -27.6042  -32.4340   25.7486 C   0  0  0  0  0  0
  -27.5580  -37.1798   24.8458 C   0  0  0  0  0  0
  -21.4165  -29.3065   22.3695 N   0  0  0  0  0  0
  -26.4281  -37.3797   23.9416 N   0  0  0  0  0  0
  -24.6818  -31.0682   22.0968 N   0  0  0  0  0  0
  -23.4179  -28.8206   23.3012 O   0  0  0  0  0  0
  -28.3785  -26.5608   20.1442 O   0  0  0  0  0  0
  -26.5620  -34.8937   22.4674 O   0  0  0  0  0  0
  -23.5403  -32.1417   23.7387 O   0  0  0  0  0  0
  -28.4714  -18.3901   18.8030 C   0  0  0  0  0  0
  -29.1680  -19.5411   19.2238 C   0  0  0  0  0  0
  -28.7450  -17.1280   19.3647 C   0  0  0  0  0  0
  -30.3830  -18.1566   20.8277 C   0  0  0  0  0  0
  -30.1449  -19.4548   20.2394 C   0  0  0  0  0  0
  -29.7140  -16.9714   20.3792 C   0  0  0  0  0  0
  -30.4687  -24.8553   21.1144 C   0  0  0  0  0  0
  -29.4604  -24.2593   20.4582 C   0  0  0  0  0  0
  -31.0370  -20.6274   20.5523 C   0  0  0  0  0  0
  -31.7123  -24.1273   21.5358 C   0  0  0  0  0  0
  -29.4937  -22.7137   20.1502 C   0  0  0  0  0  0
  -31.9718  -22.9346   20.6159 C   0  0  0  0  0  0
  -28.2320  -25.1027   20.0150 C   0  0  0  0  0  0
  -30.7978  -22.0024   20.5057 N   0  0  0  0  0  0
  -29.8779  -15.6552   20.9744 N   0  0  0  0  0  0
  -32.2728  -20.2393   20.8832 N   0  3  0  0  0  0
  -31.4759  -12.5031   19.1464 H   0  0  0  0  0  0
  -30.3678  -11.3796   19.8746 H   0  0  0  0  0  0
  -29.7768  -11.7781   17.4669 H   0  0  0  0  0  0
  -29.6491  -13.4930   17.7558 H   0  0  0  0  0  0
  -27.8730  -11.2903   18.8623 H   0  0  0  0  0  0
  -27.3742  -12.5753   17.7938 H   0  0  0  0  0  0
  -27.6723  -14.2392   19.5286 H   0  0  0  0  0  0
  -28.7034  -12.0422   21.3872 H   0  0  0  0  0  0
  -28.4375  -13.6974   21.8416 H   0  0  0  0  0  0
  -25.2755   -9.5708   22.4741 H   0  0  0  0  0  0
  -24.0005   -7.4633   22.7452 H   0  0  0  0  0  0
  -21.0815   -8.8755   19.8946 H   0  0  0  0  0  0
  -22.3657  -10.9660   19.6166 H   0  0  0  0  0  0
  -21.2005   -7.6144   23.9711 H   0  0  0  0  0  0
  -21.1487   -6.0511   25.9072 H   0  0  0  0  0  0
  -22.0601   -2.7598   23.2839 H   0  0  0  0  0  0
  -22.4056  -11.9917   22.4862 H   0  0  0  0  0  0
  -21.1056  -13.1254   22.2571 H   0  0  0  0  0  0
  -24.6701  -15.8445   20.5374 H   0  0  0  0  0  0
  -26.2901  -15.6249   20.1175 H   0  0  0  0  0  0
  -26.7165  -32.5485   23.1111 H   0  0  0  0  0  0
  -25.0037  -33.9748   25.0411 H   0  0  0  0  0  0
  -22.7075  -31.3085   21.4041 H   0  0  0  0  0  0
  -23.3755  -35.9621   23.3285 H   0  0  0  0  0  0
  -24.3589  -36.8936   22.2059 H   0  0  0  0  0  0
  -23.7218  -37.6488   23.6671 H   0  0  0  0  0  0
  -26.0709  -31.5696   20.5922 H   0  0  0  0  0  0
  -26.8372  -30.8624   21.9859 H   0  0  0  0  0  0
  -28.1125  -29.0369   21.1641 H   0  0  0  0  0  0
  -25.9898  -25.9297   19.0314 H   0  0  0  0  0  0
  -23.9648  -27.2820   19.0548 H   0  0  0  0  0  0
  -23.7443  -30.5970   19.4059 H   0  0  0  0  0  0
  -22.7455  -29.2503   19.8603 H   0  0  0  0  0  0
  -25.1287  -36.1948   25.0820 H   0  0  0  0  0  0
  -20.9972  -28.3269   24.1416 H   0  0  0  0  0  0
  -20.5659  -26.2305   23.3623 H   0  0  0  0  0  0
  -21.6640  -26.7450   22.1232 H   0  0  0  0  0  0
  -19.6915  -25.6302   21.1249 H   0  0  0  0  0  0
  -19.6697  -27.3199   20.6740 H   0  0  0  0  0  0
  -17.4199  -26.6683   21.4013 H   0  0  0  0  0  0
  -18.0324  -26.0086   22.9020 H   0  0  0  0  0  0
  -19.7944  -30.7237   24.2316 H   0  0  0  0  0  0
  -17.5041  -31.6282   24.5162 H   0  0  0  0  0  0
  -15.5365  -30.3031   23.7628 H   0  0  0  0  0  0
  -15.8665  -28.0849   22.7064 H   0  0  0  0  0  0
  -24.5886  -30.7102   25.7808 H   0  0  0  0  0  0
  -24.8915  -32.2931   26.4891 H   0  0  0  0  0  0
  -25.8069  -30.8945   27.0241 H   0  0  0  0  0  0
  -26.2853  -29.6834   24.1156 H   0  0  0  0  0  0
  -27.4017  -29.7282   25.4602 H   0  0  0  0  0  0
  -27.8707  -30.4357   23.9315 H   0  0  0  0  0  0
  -27.2659  -33.3633   26.2081 H   0  0  0  0  0  0
  -28.3847  -32.6922   25.0316 H   0  0  0  0  0  0
  -28.0721  -31.8462   26.5393 H   0  0  0  0  0  0
  -28.2591  -38.0104   24.7529 H   0  0  0  0  0  0
  -28.1073  -36.2638   24.6240 H   0  0  0  0  0  0
  -27.2308  -37.1409   25.8863 H   0  0  0  0  0  0
  -20.9319  -29.8792   21.6928 H   0  0  0  0  0  0
  -26.0162  -38.2860   24.1447 H   0  0  0  0  0  0
  -27.7309  -18.4648   18.0187 H   0  0  0  0  0  0
  -28.9690  -20.4735   18.7173 H   0  0  0  0  0  0
  -28.1939  -16.2791   18.9958 H   0  0  0  0  0  0
  -31.1161  -18.0573   21.6154 H   0  0  0  0  0  0
  -30.4268  -25.9070   21.3587 H   0  0  0  0  0  0
  -31.6251  -23.8118   22.5764 H   0  0  0  0  0  0
  -32.5583  -24.8143   21.4791 H   0  0  0  0  0  0
  -29.3029  -22.5952   19.0822 H   0  0  0  0  0  0
  -28.6638  -22.2415   20.6801 H   0  0  0  0  0  0
  -32.9040  -22.4850   20.9540 H   0  0  0  0  0  0
  -32.1999  -23.3020   19.6133 H   0  0  0  0  0  0
  -27.3824  -24.7644   20.6127 H   0  0  0  0  0  0
  -28.0216  -24.8609   18.9717 H   0  0  0  0  0  0
  -29.0358  -15.3106   21.4079 H   0  0  0  0  0  0
  -32.5004  -19.2592   20.8529 H   0  0  0  0  0  0
  -32.9879  -20.8855   21.1644 H   0  0  0  0  0  0
  1 25  1  0  0  0
  1 30  2  0  0  0
  1 85  1  0  0  0
  2  3  1  0  0  0
  2 25  1  0  0  0
  2 87  1  0  0  0
  2 88  1  0  0  0
  3  4  1  0  0  0
  3 89  1  0  0  0
  3 90  1  0  0  0
  4  5  1  0  0  0
  4 91  1  0  0  0
  4 92  1  0  0  0
  5  6  1  0  0  0
  5 26  1  0  0  0
  5 93  1  0  0  0
  6 25  1  0  0  0
  6 94  1  0  0  0
  6 95  1  0  0  0
  7  8  2  0  0  0
  7 26  1  0  0  0
  7 29  1  0  0  0
  8  9  1  0  0  0
  8 22  1  0  0  0
  9 10  1  0  0  0
  9 27  2  0  0  0
 10 11  2  0  0  0
 10 15  1  0  0  0
 11 12  1  0  0  0
 11 96  1  0  0  0
 12 13  2  0  0  0
 12 97  1  0  0  0
 13 14  1  0  0  0
 13 31  1  0  0  0
 14 15  2  0  0  0
 14 98  1  0  0  0
 15 99  1  0  0  0
 16 17  2  0  0  0
 16 21  1  0  0  0
 16 31  1  0  0  0
 17 18  1  0  0  0
 17100  1  0  0  0
 18 19  2  0  0  0
 18101  1  0  0  0
 19 20  1  0  0  0
 19 24  1  0  0  0
 20 21  2  0  0  0
 20102  1  0  0  0
 21 23  1  0  0  0
 22 28  1  0  0  0
 22 32  2  0  0  0
 26 27  1  0  0  0
 28103  1  0  0  0
 28104  1  0  0  0
 29105  1  0  0  0
 29106  1  0  0  0
 33 34  1  0  0  0
 33 66  1  0  0  0
 33 70  2  0  0  0
 34 36  1  0  0  0
 34 59  1  0  0  0
 34107  1  0  0  0
 35 44  2  0  0  0
 35 45  1  0  0  0
 35 68  1  0  0  0
 36 56  1  0  0  0
 36108  1  0  0  0
 37 39  1  0  0  0
 37 47  1  0  0  0
 37 66  1  0  0  0
 37109  1  0  0  0
 38 43  2  0  0  0
 38 46  1  0  0  0
 38 47  1  0  0  0
 39 64  1  0  0  0
 39 67  2  0  0  0
 40 52  1  0  0  0
 40 53  2  0  0  0
 40 58  1  0  0  0
 41110  1  0  0  0
 41111  1  0  0  0
 41112  1  0  0  0
 41 48  1  0  0  0
 42 43  1  0  0  0
 42 66  1  0  0  0
 42113  1  0  0  0
 42114  1  0  0  0
 43 44  1  0  0  0
 44115  1  0  0  0
 45 46  2  0  0  0
 45116  1  0  0  0
 46117  1  0  0  0
 47118  1  0  0  0
 47119  1  0  0  0
 48 56  1  0  0  0
 48 65  1  0  0  0
 48120  1  0  0  0
 49 50  1  0  0  0
 49 53  1  0  0  0
 49 64  1  0  0  0
 49121  1  0  0  0
 50 51  1  0  0  0
 50122  1  0  0  0
 50123  1  0  0  0
 51 52  1  0  0  0
 51124  1  0  0  0
 51125  1  0  0  0
 52126  1  0  0  0
 52127  1  0  0  0
 53 54  1  0  0  0
 54 55  2  0  0  0
 54128  1  0  0  0
 55 57  1  0  0  0
 55129  1  0  0  0
 56 69  2  0  0  0
 57 58  2  0  0  0
 57130  1  0  0  0
 58131  1  0  0  0
 59 60  1  0  0  0
 59 61  1  0  0  0
 59 62  1  0  0  0
 60132  1  0  0  0
 60133  1  0  0  0
 60134  1  0  0  0
 61135  1  0  0  0
 61136  1  0  0  0
 61137  1  0  0  0
 62138  1  0  0  0
 62139  1  0  0  0
 62140  1  0  0  0
 63 65  1  0  0  0
 63141  1  0  0  0
 63142  1  0  0  0
 63143  1  0  0  0
 64144  1  0  0  0
 65145  1  0  0  0
 68 83  1  0  0  0
 71 72  2  0  0  0
 71 73  1  0  0  0
 71146  1  0  0  0
 72 75  1  0  0  0
 72147  1  0  0  0
 73 76  2  0  0  0
 73148  1  0  0  0
 74 75  2  0  0  0
 74 76  1  0  0  0
 74149  1  0  0  0
 75 79  1  0  0  0
 76 85  1  0  0  0
 77 78  2  0  0  0
 77 80  1  0  0  0
 77150  1  0  0  0
 78 81  1  0  0  0
 78 83  1  0  0  0
 79 84  1  0  0  0
 79 86  2  0  0  0
 80 82  1  0  0  0
 80151  1  0  0  0
 80152  1  0  0  0
 81 84  1  0  0  0
 81153  1  0  0  0
 81154  1  0  0  0
 82 84  1  0  0  0
 82155  1  0  0  0
 82156  1  0  0  0
 83157  1  0  0  0
 83158  1  0  0  0
 85159  1  0  0  0
 86160  1  0  0  0
 86161  1  0  0  0
M  CHG  1  86   1
M  ISO  4   1 100  68 101  83 101  85 100
M  END
> <chiral flag>
0

> <version>
0

> <s_m_source_file>
/data/baiqing/PycharmProjects/Reinvent-master-3.2/result/LINK_invent/BTK/process_docking_weight1_custom_product_contain_oxygen_bond_distance_aromatic_linkinvent_7_9_3/rearranged_h_0149.sdf

> <i_m_source_file_index>
36

> <r_mmod_Potential_Energy-OPLS-2005>
-88.2416915893555

> <r_mmod_Stretch_Energy-OPLS-2005>
79.7242813110352

> <r_mmod_Bend_Energy-OPLS-2005>
140.010101318359

> <r_mmod_Torsional_Energy-OPLS-2005>
254.610656738281

> <r_mmod_Improper_Torsional_Energy-OPLS-2005>
7.16945838928223

> <r_mmod_Van_der_Waal_Energy-OPLS-2005>
167.34342956543

> <r_mmod_Electrostatic_Energy-OPLS-2005>
-365.588409423828

> <r_mmod_Solvation_Energy-OPLS-2005>
-408.513061523438

> <b_mmod_Minimization_Converged-OPLS-2005>
0

> <r_mmod_RMS_Derivative-OPLS-2005>
3.24497890472412

$$$$
36
                    3D
 Structure written by MMmdl.
164173  0  0  1  0            999 V2000
  -30.6534  -14.5832   20.5000 C   0  0  0  0  0  0
  -30.4370  -12.3574   19.4459 C   0  0  0  0  0  0
  -29.5098  -12.4963   18.2152 C   0  0  0  0  0  0
  -28.0275  -12.3609   18.6249 C   0  0  0  0  0  0
  -27.6604  -13.2176   19.8648 C   0  0  2  0  0  0
  -28.7027  -13.0507   20.9948 C   0  0  0  0  0  0
  -25.2606  -13.8185   20.5676 C   0  0  0  0  0  0
  -24.1853  -13.0479   20.9173 C   0  0  0  0  0  0
  -24.6400  -11.6943   20.8726 C   0  0  0  0  0  0
  -23.9064  -10.4323   21.0394 C   0  0  0  0  0  0
  -24.3618   -9.4225   21.9167 C   0  0  0  0  0  0
  -23.6298   -8.2245   22.0731 C   0  0  0  0  0  0
  -22.4261   -8.0293   21.3548 C   0  0  0  0  0  0
  -21.9899   -9.0266   20.4648 C   0  0  0  0  0  0
  -22.7234  -10.2152   20.3055 C   0  0  0  0  0  0
  -21.6842   -6.0752   22.5284 C   0  0  0  0  0  0
  -21.4019   -6.5658   23.8223 C   0  0  0  0  0  0
  -21.3660   -5.6802   24.9177 C   0  0  0  0  0  0
  -21.6017   -4.3059   24.7216 C   0  0  0  0  0  0
  -21.8817   -3.8153   23.4346 C   0  0  0  0  0  0
  -21.9194   -4.6977   22.3407 C   0  0  0  0  0  0
  -22.7853  -13.5273   21.1831 C   0  0  0  0  0  0
  -22.1663   -4.2173   21.0969 F   0  0  0  0  0  0
  -21.5648   -3.4541   25.7724 F   0  0  0  0  0  0
  -30.0269  -13.3739   20.4357 N   0  0  0  0  0  0
  -26.3028  -12.9368   20.3300 N   0  0  0  0  0  0
  -25.9331  -11.6512   20.5703 N   0  0  0  0  0  0
  -22.0460  -12.8285   22.0373 N   0  0  0  0  0  0
  -25.4380  -15.1881   20.4148 N   0  0  0  0  0  0
  -31.7952  -14.7525   20.0607 O   0  0  0  0  0  0
  -21.6645   -6.8876   21.4231 O   0  0  0  0  0  0
  -22.3528  -14.5596   20.6699 O   0  0  0  0  0  0
  -24.6210  -31.8679   23.2104 C   0  0  0  0  0  0
  -25.9083  -32.4812   23.8421 C   0  0  1  0  0  0
  -27.2052  -27.3647   20.0944 C   0  0  0  0  0  0
  -25.5928  -33.8609   24.2365 N   0  0  0  0  0  0
  -23.4107  -30.4964   21.5526 C   0  0  2  0  0  0
  -24.8483  -28.9629   20.1091 C   0  0  0  0  0  0
  -22.7458  -29.4653   22.4959 C   0  0  0  0  0  0
  -18.0293  -28.1362   22.8498 C   0  0  0  0  0  0
  -24.1488  -36.7300   23.2638 C   0  0  0  0  0  0
  -25.9502  -30.8106   21.3718 C   0  0  0  0  0  0
  -26.0172  -29.4439   20.7081 C   0  0  0  0  0  0
  -27.2027  -28.6594   20.6865 C   0  0  0  0  0  0
  -26.0064  -26.9190   19.4924 C   0  0  0  0  0  0
  -24.8408  -27.7026   19.4942 C   0  0  0  0  0  0
  -23.6187  -29.8416   20.1632 C   0  0  0  0  0  0
  -25.4101  -36.3101   24.0355 C   0  0  1  0  0  0
  -20.5889  -28.3653   23.1301 C   0  0  2  0  0  0
  -20.6751  -26.9387   22.5396 C   0  0  0  0  0  0
  -19.5731  -26.6378   21.5194 C   0  0  0  0  0  0
  -18.1918  -26.7914   22.1614 C   0  0  0  0  0  0
  -19.1542  -28.8821   23.2899 C   0  0  0  0  0  0
  -18.9468  -30.1422   23.8932 C   0  0  0  0  0  0
  -17.6468  -30.6572   24.0554 C   0  0  0  0  0  0
  -25.9040  -34.9473   23.5156 C   0  0  0  0  0  0
  -16.5366  -29.9074   23.6309 C   0  0  0  0  0  0
  -16.7275  -28.6475   23.0359 C   0  0  0  0  0  0
  -26.4492  -31.6608   25.0770 C   0  0  0  0  0  0
  -25.3770  -31.3737   26.1543 C   0  0  0  0  0  0
  -27.0282  -30.3035   24.6156 C   0  0  0  0  0  0
  -27.6073  -32.4339   25.7508 C   0  0  0  0  0  0
  -27.5586  -37.1795   24.8464 C   0  0  0  0  0  0
  -21.4170  -29.3040   22.3715 N   0  0  0  0  0  0
  -26.4276  -37.3794   23.9433 N   0  0  0  0  0  0
  -24.6807  -31.0734   22.1030 N   0  0  0  0  0  0
  -23.4234  -28.8162   23.2968 O   0  0  0  0  0  0
  -28.3445  -26.5591   20.1282 O   0  0  0  0  0  0
  -26.5596  -34.8918   22.4724 O   0  0  0  0  0  0
  -23.5386  -32.1431   23.7466 O   0  0  0  0  0  0
  -29.2282  -18.2777   18.3611 C   0  0  0  0  0  0
  -29.5880  -19.4715   19.0249 C   0  0  0  0  0  0
  -29.3652  -17.0255   18.9917 C   0  0  0  0  0  0
  -30.1356  -18.1506   21.0045 C   0  0  0  0  0  0
  -30.0518  -19.4346   20.3611 C   0  0  0  0  0  0
  -29.8364  -16.9353   20.3206 C   0  0  0  0  0  0
  -30.6162  -20.6564   21.0184 C   0  0  0  0  0  0
  -30.1314  -24.3328   21.5153 C   0  0  0  0  0  0
  -30.9915  -23.0668   21.5894 C   0  0  0  0  0  0
  -29.0929  -22.6416   20.2014 C   0  0  0  0  0  0
  -29.4104  -24.1888   20.1722 C   0  0  1  0  0  0
  -30.7892  -25.6855   18.7807 C   0  0  0  0  0  0
  -28.1496  -25.1137   19.9905 C   0  0  0  0  0  0
  -30.2306  -21.9804   20.9206 N   0  0  0  0  0  0
  -29.9159  -15.6352   20.9459 N   0  0  0  0  0  0
  -31.6802  -20.4231   21.7925 N   0  3  0  0  0  0
  -30.3426  -24.3603   19.0870 O   0  0  0  0  0  0
  -31.4821  -12.4680   19.1480 H   0  0  0  0  0  0
  -30.3574  -11.3616   19.8806 H   0  0  0  0  0  0
  -29.7587  -11.7388   17.4722 H   0  0  0  0  0  0
  -29.6732  -13.4577   17.7281 H   0  0  0  0  0  0
  -27.8299  -11.3092   18.8324 H   0  0  0  0  0  0
  -27.3846  -12.6251   17.7849 H   0  0  0  0  0  0
  -27.6915  -14.2571   19.5377 H   0  0  0  0  0  0
  -28.6964  -12.0295   21.3766 H   0  0  0  0  0  0
  -28.4541  -13.6823   21.8484 H   0  0  0  0  0  0
  -25.2775   -9.5750   22.4729 H   0  0  0  0  0  0
  -24.0059   -7.4636   22.7447 H   0  0  0  0  0  0
  -21.0833   -8.8788   19.8951 H   0  0  0  0  0  0
  -22.3681  -10.9692   19.6170 H   0  0  0  0  0  0
  -21.2008   -7.6143   23.9736 H   0  0  0  0  0  0
  -21.1475   -6.0517   25.9090 H   0  0  0  0  0  0
  -22.0591   -2.7622   23.2822 H   0  0  0  0  0  0
  -22.4074  -12.0016   22.4884 H   0  0  0  0  0  0
  -21.1054  -13.1323   22.2513 H   0  0  0  0  0  0
  -24.6853  -15.8562   20.5432 H   0  0  0  0  0  0
  -26.2920  -15.6173   20.0830 H   0  0  0  0  0  0
  -26.7155  -32.5477   23.1169 H   0  0  0  0  0  0
  -25.0056  -33.9792   25.0488 H   0  0  0  0  0  0
  -22.6973  -31.3146   21.4204 H   0  0  0  0  0  0
  -23.3754  -35.9623   23.3304 H   0  0  0  0  0  0
  -24.3569  -36.8902   22.2045 H   0  0  0  0  0  0
  -23.7234  -37.6514   23.6632 H   0  0  0  0  0  0
  -26.0821  -31.5785   20.6083 H   0  0  0  0  0  0
  -26.8326  -30.8524   21.9981 H   0  0  0  0  0  0
  -28.1040  -29.0314   21.1482 H   0  0  0  0  0  0
  -25.9200  -25.9582   19.0089 H   0  0  0  0  0  0
  -23.9410  -27.3262   19.0274 H   0  0  0  0  0  0
  -23.7364  -30.6246   19.4135 H   0  0  0  0  0  0
  -22.7365  -29.2753   19.8601 H   0  0  0  0  0  0
  -25.1261  -36.1960   25.0842 H   0  0  0  0  0  0
  -20.9998  -28.3207   24.1419 H   0  0  0  0  0  0
  -20.5592  -26.2290   23.3592 H   0  0  0  0  0  0
  -21.6626  -26.7355   22.1243 H   0  0  0  0  0  0
  -19.6863  -25.6292   21.1222 H   0  0  0  0  0  0
  -19.6653  -27.3195   20.6731 H   0  0  0  0  0  0
  -17.4175  -26.6677   21.4028 H   0  0  0  0  0  0
  -18.0304  -26.0051   22.9005 H   0  0  0  0  0  0
  -19.7937  -30.7209   24.2350 H   0  0  0  0  0  0
  -17.5019  -31.6258   24.5146 H   0  0  0  0  0  0
  -15.5361  -30.2982   23.7587 H   0  0  0  0  0  0
  -15.8679  -28.0777   22.7089 H   0  0  0  0  0  0
  -24.5908  -30.7117   25.7925 H   0  0  0  0  0  0
  -24.8999  -32.2892   26.5050 H   0  0  0  0  0  0
  -25.8141  -30.8881   27.0279 H   0  0  0  0  0  0
  -26.2801  -29.6839   24.1198 H   0  0  0  0  0  0
  -27.4028  -29.7241   25.4608 H   0  0  0  0  0  0
  -27.8676  -30.4351   23.9318 H   0  0  0  0  0  0
  -27.2708  -33.3644   26.2093 H   0  0  0  0  0  0
  -28.3852  -32.6910   25.0310 H   0  0  0  0  0  0
  -28.0777  -31.8473   26.5405 H   0  0  0  0  0  0
  -28.2602  -38.0098   24.7528 H   0  0  0  0  0  0
  -28.1088  -36.2637   24.6245 H   0  0  0  0  0  0
  -27.2324  -37.1406   25.8874 H   0  0  0  0  0  0
  -20.9320  -29.8856   21.7023 H   0  0  0  0  0  0
  -26.0174  -38.2872   24.1445 H   0  0  0  0  0  0
  -28.8712  -18.3097   17.3403 H   0  0  0  0  0  0
  -29.5511  -20.3996   18.4762 H   0  0  0  0  0  0
  -29.0862  -16.1382   18.4468 H   0  0  0  0  0  0
  -30.4907  -18.0846   22.0252 H   0  0  0  0  0  0
  -30.7347  -25.2349   21.5904 H   0  0  0  0  0  0
  -29.4256  -24.3571   22.3472 H   0  0  0  0  0  0
  -31.2632  -22.8432   22.6242 H   0  0  0  0  0  0
  -31.9181  -23.2302   21.0336 H   0  0  0  0  0  0
  -28.9343  -22.2703   19.1908 H   0  0  0  0  0  0
  -28.1763  -22.4484   20.7644 H   0  0  0  0  0  0
  -31.7179  -25.6256   18.2135 H   0  0  0  0  0  0
  -30.9982  -26.2950   19.6596 H   0  0  0  0  0  0
  -30.0724  -26.2207   18.1545 H   0  0  0  0  0  0
  -27.3950  -24.8097   20.7221 H   0  0  0  0  0  0
  -27.7366  -24.8819   19.0083 H   0  0  0  0  0  0
  -29.0891  -15.3671   21.4591 H   0  0  0  0  0  0
  -32.0534  -19.4886   21.8536 H   0  0  0  0  0  0
  -32.1309  -21.1495   22.3170 H   0  0  0  0  0  0
  1 25  1  0  0  0
  1 30  2  0  0  0
  1 85  1  0  0  0
  2  3  1  0  0  0
  2 25  1  0  0  0
  2 88  1  0  0  0
  2 89  1  0  0  0
  3  4  1  0  0  0
  3 90  1  0  0  0
  3 91  1  0  0  0
  4  5  1  0  0  0
  4 92  1  0  0  0
  4 93  1  0  0  0
  5  6  1  0  0  0
  5 26  1  0  0  0
  5 94  1  0  0  0
  6 25  1  0  0  0
  6 95  1  0  0  0
  6 96  1  0  0  0
  7  8  2  0  0  0
  7 26  1  0  0  0
  7 29  1  0  0  0
  8  9  1  0  0  0
  8 22  1  0  0  0
  9 10  1  0  0  0
  9 27  2  0  0  0
 10 11  2  0  0  0
 10 15  1  0  0  0
 11 12  1  0  0  0
 11 97  1  0  0  0
 12 13  2  0  0  0
 12 98  1  0  0  0
 13 14  1  0  0  0
 13 31  1  0  0  0
 14 15  2  0  0  0
 14 99  1  0  0  0
 15100  1  0  0  0
 16 17  2  0  0  0
 16 21  1  0  0  0
 16 31  1  0  0  0
 17 18  1  0  0  0
 17101  1  0  0  0
 18 19  2  0  0  0
 18102  1  0  0  0
 19 20  1  0  0  0
 19 24  1  0  0  0
 20 21  2  0  0  0
 20103  1  0  0  0
 21 23  1  0  0  0
 22 28  1  0  0  0
 22 32  2  0  0  0
 26 27  1  0  0  0
 28104  1  0  0  0
 28105  1  0  0  0
 29106  1  0  0  0
 29107  1  0  0  0
 33 34  1  0  0  0
 33 66  1  0  0  0
 33 70  2  0  0  0
 34 36  1  0  0  0
 34 59  1  0  0  0
 34108  1  0  0  0
 35 44  2  0  0  0
 35 45  1  0  0  0
 35 68  1  0  0  0
 36 56  1  0  0  0
 36109  1  0  0  0
 37 39  1  0  0  0
 37 47  1  0  0  0
 37 66  1  0  0  0
 37110  1  0  0  0
 38 43  2  0  0  0
 38 46  1  0  0  0
 38 47  1  0  0  0
 39 64  1  0  0  0
 39 67  2  0  0  0
 40 52  1  0  0  0
 40 53  2  0  0  0
 40 58  1  0  0  0
 41111  1  0  0  0
 41112  1  0  0  0
 41113  1  0  0  0
 41 48  1  0  0  0
 42 43  1  0  0  0
 42 66  1  0  0  0
 42114  1  0  0  0
 42115  1  0  0  0
 43 44  1  0  0  0
 44116  1  0  0  0
 45 46  2  0  0  0
 45117  1  0  0  0
 46118  1  0  0  0
 47119  1  0  0  0
 47120  1  0  0  0
 48 56  1  0  0  0
 48 65  1  0  0  0
 48121  1  0  0  0
 49 50  1  0  0  0
 49 53  1  0  0  0
 49 64  1  0  0  0
 49122  1  0  0  0
 50 51  1  0  0  0
 50123  1  0  0  0
 50124  1  0  0  0
 51 52  1  0  0  0
 51125  1  0  0  0
 51126  1  0  0  0
 52127  1  0  0  0
 52128  1  0  0  0
 53 54  1  0  0  0
 54 55  2  0  0  0
 54129  1  0  0  0
 55 57  1  0  0  0
 55130  1  0  0  0
 56 69  2  0  0  0
 57 58  2  0  0  0
 57131  1  0  0  0
 58132  1  0  0  0
 59 60  1  0  0  0
 59 61  1  0  0  0
 59 62  1  0  0  0
 60133  1  0  0  0
 60134  1  0  0  0
 60135  1  0  0  0
 61136  1  0  0  0
 61137  1  0  0  0
 61138  1  0  0  0
 62139  1  0  0  0
 62140  1  0  0  0
 62141  1  0  0  0
 63 65  1  0  0  0
 63142  1  0  0  0
 63143  1  0  0  0
 63144  1  0  0  0
 64145  1  0  0  0
 65146  1  0  0  0
 68 83  1  0  0  0
 71 72  2  0  0  0
 71 73  1  0  0  0
 71147  1  0  0  0
 72 75  1  0  0  0
 72148  1  0  0  0
 73 76  2  0  0  0
 73149  1  0  0  0
 74 75  2  0  0  0
 74 76  1  0  0  0
 74150  1  0  0  0
 75 77  1  0  0  0
 76 85  1  0  0  0
 77 84  1  0  0  0
 77 86  2  0  0  0
 78 79  1  0  0  0
 78 81  1  0  0  0
 78151  1  0  0  0
 78152  1  0  0  0
 79 84  1  0  0  0
 79153  1  0  0  0
 79154  1  0  0  0
 80 81  1  0  0  0
 80 84  1  0  0  0
 80155  1  0  0  0
 80156  1  0  0  0
 81 83  1  0  0  0
 81 87  1  0  0  0
 82 87  1  0  0  0
 82157  1  0  0  0
 82158  1  0  0  0
 82159  1  0  0  0
 83160  1  0  0  0
 83161  1  0  0  0
 85162  1  0  0  0
 86163  1  0  0  0
 86164  1  0  0  0
M  CHG  1  86   1
M  ISO  4   1 100  68 101  83 101  85 100
M  END
> <chiral flag>
0

> <version>
0

> <s_m_source_file>
/data/baiqing/PycharmProjects/Reinvent-master-3.2/result/LINK_invent/BTK/process_docking_weight1_custom_product_contain_oxygen_bond_distance_aromatic_linkinvent_7_9_3/rearranged_h_0149.sdf

> <i_m_source_file_index>
37

> <r_mmod_Potential_Energy-OPLS-2005>
-69.6186294555664

> <r_mmod_Stretch_Energy-OPLS-2005>
64.2706527709961

> <r_mmod_Bend_Energy-OPLS-2005>
167.447784423828

> <r_mmod_Torsional_Energy-OPLS-2005>
313.137115478516

> <r_mmod_Improper_Torsional_Energy-OPLS-2005>
6.19818687438965

> <r_mmod_Van_der_Waal_Energy-OPLS-2005>
155.601119995117

> <r_mmod_Electrostatic_Energy-OPLS-2005>
-401.830322265625

> <r_mmod_Solvation_Energy-OPLS-2005>
-406.844055175781

> <b_mmod_Minimization_Converged-OPLS-2005>
0

> <r_mmod_RMS_Derivative-OPLS-2005>
5.95783281326294

$$$$
37
                    3D
 Structure written by MMmdl.
157166  0  0  1  0            999 V2000
  -30.7343  -14.5091   20.6134 C   0  0  0  0  0  0
  -30.4193  -12.3400   19.4562 C   0  0  0  0  0  0
  -29.4982  -12.5017   18.2309 C   0  0  0  0  0  0
  -28.0326  -12.3208   18.6544 C   0  0  0  0  0  0
  -27.6572  -13.2029   19.8709 C   0  0  2  0  0  0
  -28.6907  -13.0672   21.0129 C   0  0  0  0  0  0
  -25.2598  -13.8130   20.5689 C   0  0  0  0  0  0
  -24.1857  -13.0430   20.9189 C   0  0  0  0  0  0
  -24.6397  -11.6876   20.8695 C   0  0  0  0  0  0
  -23.9056  -10.4271   21.0404 C   0  0  0  0  0  0
  -24.3616   -9.4190   21.9189 C   0  0  0  0  0  0
  -23.6287   -8.2234   22.0777 C   0  0  0  0  0  0
  -22.4270   -8.0275   21.3564 C   0  0  0  0  0  0
  -21.9902   -9.0251   20.4664 C   0  0  0  0  0  0
  -22.7224  -10.2123   20.3058 C   0  0  0  0  0  0
  -21.6842   -6.0724   22.5276 C   0  0  0  0  0  0
  -21.4012   -6.5634   23.8205 C   0  0  0  0  0  0
  -21.3666   -5.6803   24.9173 C   0  0  0  0  0  0
  -21.6044   -4.3070   24.7229 C   0  0  0  0  0  0
  -21.8811   -3.8152   23.4346 C   0  0  0  0  0  0
  -21.9189   -4.6955   22.3402 C   0  0  0  0  0  0
  -22.7879  -13.5226   21.1887 C   0  0  0  0  0  0
  -22.1658   -4.2123   21.0981 F   0  0  0  0  0  0
  -21.5632   -3.4565   25.7759 F   0  0  0  0  0  0
  -30.0272  -13.3503   20.4623 N   0  0  0  0  0  0
  -26.3007  -12.9311   20.3336 N   0  0  0  0  0  0
  -25.9302  -11.6470   20.5683 N   0  0  0  0  0  0
  -22.0527  -12.8202   22.0418 N   0  0  0  0  0  0
  -25.4381  -15.1849   20.4133 N   0  0  0  0  0  0
  -31.8456  -14.6659   20.1015 O   0  0  0  0  0  0
  -21.6637   -6.8863   21.4235 O   0  0  0  0  0  0
  -22.3573  -14.5545   20.6724 O   0  0  0  0  0  0
  -24.6173  -31.8676   23.2105 C   0  0  0  0  0  0
  -25.9060  -32.4825   23.8404 C   0  0  1  0  0  0
  -27.2282  -27.4114   20.1048 C   0  0  0  0  0  0
  -25.5876  -33.8622   24.2323 N   0  0  0  0  0  0
  -23.4077  -30.4935   21.5507 C   0  0  2  0  0  0
  -24.8526  -28.9614   20.1157 C   0  0  0  0  0  0
  -22.7424  -29.4694   22.4984 C   0  0  0  0  0  0
  -18.0279  -28.1417   22.8510 C   0  0  0  0  0  0
  -24.1471  -36.7299   23.2641 C   0  0  0  0  0  0
  -25.9419  -30.8311   21.3668 C   0  0  0  0  0  0
  -26.0190  -29.4707   20.6971 C   0  0  0  0  0  0
  -27.2147  -28.7111   20.6704 C   0  0  0  0  0  0
  -26.0443  -26.9279   19.5096 C   0  0  0  0  0  0
  -24.8599  -27.6904   19.5175 C   0  0  0  0  0  0
  -23.6142  -29.8252   20.1662 C   0  0  0  0  0  0
  -25.4093  -36.3118   24.0345 C   0  0  1  0  0  0
  -20.5874  -28.3692   23.1305 C   0  0  2  0  0  0
  -20.6721  -26.9415   22.5415 C   0  0  0  0  0  0
  -19.5706  -26.6428   21.5213 C   0  0  0  0  0  0
  -18.1907  -26.7958   22.1660 C   0  0  0  0  0  0
  -19.1516  -28.8880   23.2907 C   0  0  0  0  0  0
  -18.9435  -30.1499   23.8887 C   0  0  0  0  0  0
  -17.6421  -30.6624   24.0545 C   0  0  0  0  0  0
  -25.9034  -34.9470   23.5139 C   0  0  0  0  0  0
  -16.5317  -29.9088   23.6364 C   0  0  0  0  0  0
  -16.7243  -28.6515   23.0383 C   0  0  0  0  0  0
  -26.4488  -31.6642   25.0760 C   0  0  0  0  0  0
  -25.3745  -31.3721   26.1504 C   0  0  0  0  0  0
  -27.0315  -30.3058   24.6207 C   0  0  0  0  0  0
  -27.6073  -32.4376   25.7495 C   0  0  0  0  0  0
  -27.5578  -37.1795   24.8471 C   0  0  0  0  0  0
  -21.4149  -29.3059   22.3715 N   0  0  0  0  0  0
  -26.4292  -37.3791   23.9408 N   0  0  0  0  0  0
  -24.6719  -31.0777   22.0989 N   0  0  0  0  0  0
  -23.4169  -28.8270   23.3068 O   0  0  0  0  0  0
  -28.3679  -26.6242   20.1273 O   0  0  0  0  0  0
  -26.5621  -34.8935   22.4712 O   0  0  0  0  0  0
  -23.5362  -32.1451   23.7479 O   0  0  0  0  0  0
  -29.5705  -18.0263   20.9436 C   0  0  0  0  0  0
  -29.9629  -18.3231   22.2115 C   0  0  0  0  0  0
  -29.3533  -20.3234   20.8886 C   0  0  0  0  0  0
  -29.0259  -22.8249   20.8940 C   0  0  0  0  0  0
  -29.5293  -16.6036   20.4149 C   0  0  0  0  0  0
  -30.3359  -17.2865   23.2051 C   0  0  0  0  0  0
  -30.7711  -15.9344   22.5701 C   0  0  0  0  0  0
  -27.9506  -23.8592   18.7767 C   0  0  0  0  0  0
  -28.2425  -25.3460   20.8132 C   0  0  0  0  0  0
  -28.8046  -24.1117   20.0256 C   0  0  1  0  0  0
  -29.2131  -19.1738   20.1929 N   0  0  0  0  0  0
  -30.1433  -15.5430   21.2744 N   0  0  0  0  0  0
  -29.0516  -21.6020   20.2992 N   0  0  0  0  0  0
  -29.1920  -22.9646   22.1064 O   0  0  0  0  0  0
  -29.9585  -20.0414   22.5300 S   0  0  0  0  0  0
  -31.4678  -12.4174   19.1633 H   0  0  0  0  0  0
  -30.3137  -11.3343   19.8732 H   0  0  0  0  0  0
  -29.7570  -11.7666   17.4676 H   0  0  0  0  0  0
  -29.6392  -13.4837   17.7777 H   0  0  0  0  0  0
  -27.9020  -11.2667   18.9108 H   0  0  0  0  0  0
  -27.3669  -12.5161   17.8162 H   0  0  0  0  0  0
  -27.6858  -14.2321   19.5173 H   0  0  0  0  0  0
  -28.6793  -12.0651   21.4444 H   0  0  0  0  0  0
  -28.4256  -13.7445   21.8273 H   0  0  0  0  0  0
  -25.2769   -9.5654   22.4755 H   0  0  0  0  0  0
  -23.9985   -7.4619   22.7505 H   0  0  0  0  0  0
  -21.0842   -8.8762   19.8974 H   0  0  0  0  0  0
  -22.3700  -10.9664   19.6166 H   0  0  0  0  0  0
  -21.2002   -7.6152   23.9675 H   0  0  0  0  0  0
  -21.1516   -6.0561   25.9064 H   0  0  0  0  0  0
  -22.0588   -2.7603   23.2861 H   0  0  0  0  0  0
  -22.4177  -11.9822   22.4707 H   0  0  0  0  0  0
  -21.1162  -13.1228   22.2698 H   0  0  0  0  0  0
  -24.6777  -15.8462   20.5161 H   0  0  0  0  0  0
  -26.2968  -15.6119   20.0890 H   0  0  0  0  0  0
  -26.7117  -32.5532   23.1154 H   0  0  0  0  0  0
  -24.9897  -33.9748   25.0379 H   0  0  0  0  0  0
  -22.7005  -31.3124   21.4116 H   0  0  0  0  0  0
  -23.3761  -35.9613   23.3335 H   0  0  0  0  0  0
  -24.3545  -36.8882   22.2050 H   0  0  0  0  0  0
  -23.7221  -37.6503   23.6633 H   0  0  0  0  0  0
  -26.0779  -31.6154   20.6206 H   0  0  0  0  0  0
  -26.8198  -30.8550   22.0023 H   0  0  0  0  0  0
  -28.1209  -29.1095   21.1029 H   0  0  0  0  0  0
  -26.0311  -25.9536   19.0495 H   0  0  0  0  0  0
  -23.9526  -27.2971   19.0779 H   0  0  0  0  0  0
  -23.7175  -30.5998   19.4068 H   0  0  0  0  0  0
  -22.7427  -29.2396   19.8681 H   0  0  0  0  0  0
  -25.1284  -36.1968   25.0846 H   0  0  0  0  0  0
  -20.9951  -28.3185   24.1427 H   0  0  0  0  0  0
  -20.5580  -26.2272   23.3586 H   0  0  0  0  0  0
  -21.6571  -26.7428   22.1195 H   0  0  0  0  0  0
  -19.6810  -25.6342   21.1233 H   0  0  0  0  0  0
  -19.6642  -27.3247   20.6757 H   0  0  0  0  0  0
  -17.4126  -26.6656   21.4119 H   0  0  0  0  0  0
  -18.0419  -26.0137   22.9127 H   0  0  0  0  0  0
  -19.7898  -30.7344   24.2213 H   0  0  0  0  0  0
  -17.4967  -31.6336   24.5087 H   0  0  0  0  0  0
  -15.5299  -30.2953   23.7737 H   0  0  0  0  0  0
  -15.8660  -28.0824   22.7100 H   0  0  0  0  0  0
  -24.5896  -30.7125   25.7805 H   0  0  0  0  0  0
  -24.8976  -32.2849   26.5061 H   0  0  0  0  0  0
  -25.8084  -30.8784   27.0204 H   0  0  0  0  0  0
  -26.2852  -29.6828   24.1258 H   0  0  0  0  0  0
  -27.4010  -29.7327   25.4732 H   0  0  0  0  0  0
  -27.8747  -30.4364   23.9424 H   0  0  0  0  0  0
  -27.2696  -33.3634   26.2161 H   0  0  0  0  0  0
  -28.3795  -32.7019   25.0263 H   0  0  0  0  0  0
  -28.0841  -31.8465   26.5322 H   0  0  0  0  0  0
  -28.2635  -38.0063   24.7508 H   0  0  0  0  0  0
  -28.1047  -36.2598   24.6320 H   0  0  0  0  0  0
  -27.2285  -37.1458   25.8875 H   0  0  0  0  0  0
  -20.9305  -29.8667   21.6843 H   0  0  0  0  0  0
  -26.0204  -38.2876   24.1415 H   0  0  0  0  0  0
  -29.9963  -16.5958   19.4266 H   0  0  0  0  0  0
  -28.4946  -16.3081   20.2485 H   0  0  0  0  0  0
  -29.4727  -17.1064   23.8442 H   0  0  0  0  0  0
  -31.1169  -17.6676   23.8664 H   0  0  0  0  0  0
  -30.5971  -15.1470   23.3054 H   0  0  0  0  0  0
  -31.8560  -15.9563   22.4349 H   0  0  0  0  0  0
  -26.8902  -23.8299   19.0279 H   0  0  0  0  0  0
  -28.2043  -22.9343   18.2577 H   0  0  0  0  0  0
  -28.1072  -24.6733   18.0683 H   0  0  0  0  0  0
  -28.7758  -25.4528   21.7598 H   0  0  0  0  0  0
  -27.2081  -25.1458   21.0959 H   0  0  0  0  0  0
  -29.7993  -24.3870   19.6753 H   0  0  0  0  0  0
  -28.8446  -21.5879   19.3096 H   0  0  0  0  0  0
  1 25  1  0  0  0
  1 30  2  0  0  0
  1 82  1  0  0  0
  2  3  1  0  0  0
  2 25  1  0  0  0
  2 86  1  0  0  0
  2 87  1  0  0  0
  3  4  1  0  0  0
  3 88  1  0  0  0
  3 89  1  0  0  0
  4  5  1  0  0  0
  4 90  1  0  0  0
  4 91  1  0  0  0
  5  6  1  0  0  0
  5 26  1  0  0  0
  5 92  1  0  0  0
  6 25  1  0  0  0
  6 93  1  0  0  0
  6 94  1  0  0  0
  7  8  2  0  0  0
  7 26  1  0  0  0
  7 29  1  0  0  0
  8  9  1  0  0  0
  8 22  1  0  0  0
  9 10  1  0  0  0
  9 27  2  0  0  0
 10 11  2  0  0  0
 10 15  1  0  0  0
 11 12  1  0  0  0
 11 95  1  0  0  0
 12 13  2  0  0  0
 12 96  1  0  0  0
 13 14  1  0  0  0
 13 31  1  0  0  0
 14 15  2  0  0  0
 14 97  1  0  0  0
 15 98  1  0  0  0
 16 17  2  0  0  0
 16 21  1  0  0  0
 16 31  1  0  0  0
 17 18  1  0  0  0
 17 99  1  0  0  0
 18 19  2  0  0  0
 18100  1  0  0  0
 19 20  1  0  0  0
 19 24  1  0  0  0
 20 21  2  0  0  0
 20101  1  0  0  0
 21 23  1  0  0  0
 22 28  1  0  0  0
 22 32  2  0  0  0
 26 27  1  0  0  0
 28102  1  0  0  0
 28103  1  0  0  0
 29104  1  0  0  0
 29105  1  0  0  0
 33 34  1  0  0  0
 33 66  1  0  0  0
 33 70  2  0  0  0
 34 36  1  0  0  0
 34 59  1  0  0  0
 34106  1  0  0  0
 35 44  2  0  0  0
 35 45  1  0  0  0
 35 68  1  0  0  0
 36 56  1  0  0  0
 36107  1  0  0  0
 37 39  1  0  0  0
 37 47  1  0  0  0
 37 66  1  0  0  0
 37108  1  0  0  0
 38 43  2  0  0  0
 38 46  1  0  0  0
 38 47  1  0  0  0
 39 64  1  0  0  0
 39 67  2  0  0  0
 40 52  1  0  0  0
 40 53  2  0  0  0
 40 58  1  0  0  0
 41109  1  0  0  0
 41110  1  0  0  0
 41111  1  0  0  0
 41 48  1  0  0  0
 42 43  1  0  0  0
 42 66  1  0  0  0
 42112  1  0  0  0
 42113  1  0  0  0
 43 44  1  0  0  0
 44114  1  0  0  0
 45 46  2  0  0  0
 45115  1  0  0  0
 46116  1  0  0  0
 47117  1  0  0  0
 47118  1  0  0  0
 48 56  1  0  0  0
 48 65  1  0  0  0
 48119  1  0  0  0
 49 50  1  0  0  0
 49 53  1  0  0  0
 49 64  1  0  0  0
 49120  1  0  0  0
 50 51  1  0  0  0
 50121  1  0  0  0
 50122  1  0  0  0
 51 52  1  0  0  0
 51123  1  0  0  0
 51124  1  0  0  0
 52125  1  0  0  0
 52126  1  0  0  0
 53 54  1  0  0  0
 54 55  2  0  0  0
 54127  1  0  0  0
 55 57  1  0  0  0
 55128  1  0  0  0
 56 69  2  0  0  0
 57 58  2  0  0  0
 57129  1  0  0  0
 58130  1  0  0  0
 59 60  1  0  0  0
 59 61  1  0  0  0
 59 62  1  0  0  0
 60131  1  0  0  0
 60132  1  0  0  0
 60133  1  0  0  0
 61134  1  0  0  0
 61135  1  0  0  0
 61136  1  0  0  0
 62137  1  0  0  0
 62138  1  0  0  0
 62139  1  0  0  0
 63 65  1  0  0  0
 63140  1  0  0  0
 63141  1  0  0  0
 63142  1  0  0  0
 64143  1  0  0  0
 65144  1  0  0  0
 68 79  1  0  0  0
 71 72  2  0  0  0
 71 75  1  0  0  0
 71 81  1  0  0  0
 72 76  1  0  0  0
 72 85  1  0  0  0
 73 81  2  0  0  0
 73 83  1  0  0  0
 73 85  1  0  0  0
 74 80  1  0  0  0
 74 83  1  0  0  0
 74 84  2  0  0  0
 75 82  1  0  0  0
 75145  1  0  0  0
 75146  1  0  0  0
 76 77  1  0  0  0
 76147  1  0  0  0
 76148  1  0  0  0
 77 82  1  0  0  0
 77149  1  0  0  0
 77150  1  0  0  0
 78151  1  0  0  0
 78152  1  0  0  0
 78153  1  0  0  0
 78 80  1  0  0  0
 79 80  1  0  0  0
 79154  1  0  0  0
 79155  1  0  0  0
 80156  1  0  0  0
 83157  1  0  0  0
M  ISO  4   1 100  68 101  79 101  82 100
M  END
> <chiral flag>
0

> <version>
0

> <s_m_source_file>
/data/baiqing/PycharmProjects/Reinvent-master-3.2/result/LINK_invent/BTK/process_docking_weight1_custom_product_contain_oxygen_bond_distance_aromatic_linkinvent_7_9_3/rearranged_h_0149.sdf

> <i_m_source_file_index>
38

> <r_mmod_Potential_Energy-OPLS-2005>
15.9866199493408

> <r_mmod_Stretch_Energy-OPLS-2005>
52.8860092163086

> <r_mmod_Bend_Energy-OPLS-2005>
122.044441223145

> <r_mmod_Torsional_Energy-OPLS-2005>
325.2626953125

> <r_mmod_Improper_Torsional_Energy-OPLS-2005>
4.76423311233521

> <r_mmod_Van_der_Waal_Energy-OPLS-2005>
135.447723388672

> <r_mmod_Electrostatic_Energy-OPLS-2005>
-424.244903564453

> <r_mmod_Solvation_Energy-OPLS-2005>
-220.126449584961

> <b_mmod_Minimization_Converged-OPLS-2005>
0

> <r_mmod_RMS_Derivative-OPLS-2005>
5.74327945709229

$$$$
38
                    3D
 Structure written by MMmdl.
157166  0  0  1  0            999 V2000
  -30.5360  -14.7898   20.4688 C   0  0  0  0  0  0
  -30.4572  -12.4852   19.4671 C   0  0  0  0  0  0
  -29.5195  -12.5273   18.2365 C   0  0  0  0  0  0
  -28.0455  -12.3357   18.6500 C   0  0  0  0  0  0
  -27.6498  -13.2216   19.8601 C   0  0  2  0  0  0
  -28.6974  -13.1175   20.9916 C   0  0  0  0  0  0
  -25.2548  -13.8170   20.5691 C   0  0  0  0  0  0
  -24.1824  -13.0433   20.9209 C   0  0  0  0  0  0
  -24.6399  -11.6904   20.8746 C   0  0  0  0  0  0
  -23.9064  -10.4288   21.0408 C   0  0  0  0  0  0
  -24.3615   -9.4204   21.9184 C   0  0  0  0  0  0
  -23.6288   -8.2239   22.0753 C   0  0  0  0  0  0
  -22.4269   -8.0279   21.3545 C   0  0  0  0  0  0
  -21.9905   -9.0254   20.4648 C   0  0  0  0  0  0
  -22.7236  -10.2132   20.3058 C   0  0  0  0  0  0
  -21.6852   -6.0733   22.5279 C   0  0  0  0  0  0
  -21.4015   -6.5636   23.8211 C   0  0  0  0  0  0
  -21.3659   -5.6789   24.9173 C   0  0  0  0  0  0
  -21.6046   -4.3053   24.7224 C   0  0  0  0  0  0
  -21.8819   -3.8144   23.4344 C   0  0  0  0  0  0
  -21.9191   -4.6962   22.3402 C   0  0  0  0  0  0
  -22.7845  -13.5226   21.1863 C   0  0  0  0  0  0
  -22.1660   -4.2147   21.0980 F   0  0  0  0  0  0
  -21.5627   -3.4538   25.7736 F   0  0  0  0  0  0
  -29.9960  -13.5182   20.4242 N   0  0  0  0  0  0
  -26.2977  -12.9352   20.3305 N   0  0  0  0  0  0
  -25.9331  -11.6506   20.5758 N   0  0  0  0  0  0
  -22.0481  -12.8223   22.0420 N   0  0  0  0  0  0
  -25.4244  -15.1894   20.4084 N   0  0  0  0  0  0
  -31.6983  -14.9824   20.0942 O   0  0  0  0  0  0
  -21.6634   -6.8876   21.4240 O   0  0  0  0  0  0
  -22.3534  -14.5536   20.6713 O   0  0  0  0  0  0
  -24.6333  -31.8514   23.1952 C   0  0  0  0  0  0
  -25.9146  -32.4735   23.8312 C   0  0  1  0  0  0
  -27.2276  -27.2322   20.1354 C   0  0  0  0  0  0
  -25.5929  -33.8541   24.2233 N   0  0  0  0  0  0
  -23.4326  -30.4733   21.5378 C   0  0  2  0  0  0
  -24.8831  -28.9139   20.1104 C   0  0  0  0  0  0
  -22.7514  -29.4575   22.4875 C   0  0  0  0  0  0
  -18.0298  -28.1391   22.8466 C   0  0  0  0  0  0
  -24.1488  -36.7275   23.2641 C   0  0  0  0  0  0
  -25.9817  -30.7561   21.3797 C   0  0  0  0  0  0
  -26.0560  -29.3763   20.7199 C   0  0  0  0  0  0
  -27.2304  -28.5503   20.7159 C   0  0  0  0  0  0
  -26.0273  -26.8418   19.5003 C   0  0  0  0  0  0
  -24.8758  -27.6563   19.4877 C   0  0  0  0  0  0
  -23.6546  -29.8053   20.1554 C   0  0  0  0  0  0
  -25.4115  -36.3052   24.0322 C   0  0  1  0  0  0
  -20.5903  -28.3700   23.1252 C   0  0  2  0  0  0
  -20.6784  -26.9412   22.5405 C   0  0  0  0  0  0
  -19.5766  -26.6379   21.5203 C   0  0  0  0  0  0
  -18.1940  -26.7932   22.1607 C   0  0  0  0  0  0
  -19.1553  -28.8861   23.2855 C   0  0  0  0  0  0
  -18.9479  -30.1460   23.8879 C   0  0  0  0  0  0
  -17.6481  -30.6590   24.0555 C   0  0  0  0  0  0
  -25.9057  -34.9427   23.5079 C   0  0  0  0  0  0
  -16.5369  -29.9082   23.6336 C   0  0  0  0  0  0
  -16.7283  -28.6505   23.0340 C   0  0  0  0  0  0
  -26.4509  -31.6580   25.0720 C   0  0  0  0  0  0
  -25.3715  -31.3754   26.1435 C   0  0  0  0  0  0
  -27.0364  -30.2986   24.6238 C   0  0  0  0  0  0
  -27.6056  -32.4340   25.7492 C   0  0  0  0  0  0
  -27.5580  -37.1788   24.8461 C   0  0  0  0  0  0
  -21.4215  -29.3043   22.3633 N   0  0  0  0  0  0
  -26.4288  -37.3753   23.9413 N   0  0  0  0  0  0
  -24.7014  -31.0455   22.0936 N   0  0  0  0  0  0
  -23.4203  -28.8106   23.2974 O   0  0  0  0  0  0
  -28.3248  -26.3281   20.1918 O   0  0  0  0  0  0
  -26.5630  -34.8905   22.4648 O   0  0  0  0  0  0
  -23.5478  -32.1346   23.7233 O   0  0  0  0  0  0
  -30.1819  -18.4264   20.1465 C   0  0  0  0  0  0
  -28.3919  -17.8879   21.3253 C   0  0  0  0  0  0
  -29.4869  -17.2924   20.7539 C   0  0  0  0  0  0
  -29.4544  -19.6195   20.3767 C   0  0  0  0  0  0
  -29.5155  -21.0985   19.9789 C   0  0  0  0  0  0
  -29.0119  -23.3509   22.7949 C   0  0  0  0  0  0
  -29.8858  -24.1295   21.7988 C   0  0  0  0  0  0
  -28.5542  -22.0865   22.0450 C   0  0  0  0  0  0
  -29.3088  -23.7565   20.4292 C   0  0  2  0  0  0
  -28.1041  -24.8234   20.1187 C   0  0  0  0  0  0
  -29.0497  -22.2381   20.6705 N   0  0  0  0  0  0
  -29.6515  -15.8027   20.8261 N   0  0  0  0  0  0
  -30.1108  -21.3279   18.7986 N   0  3  0  0  0  0
  -28.3554  -19.2491   21.1054 O   0  0  0  0  0  0
  -31.4908  -12.6521   19.1593 H   0  0  0  0  0  0
  -30.4394  -11.4990   19.9332 H   0  0  0  0  0  0
  -29.8080  -11.7617   17.5152 H   0  0  0  0  0  0
  -29.6315  -13.4846   17.7250 H   0  0  0  0  0  0
  -27.9078  -11.2840   18.9034 H   0  0  0  0  0  0
  -27.3854  -12.5329   17.8045 H   0  0  0  0  0  0
  -27.6511  -14.2488   19.4959 H   0  0  0  0  0  0
  -28.7482  -12.0976   21.3759 H   0  0  0  0  0  0
  -28.4192  -13.7395   21.8438 H   0  0  0  0  0  0
  -25.2759   -9.5675   22.4757 H   0  0  0  0  0  0
  -23.9996   -7.4629   22.7472 H   0  0  0  0  0  0
  -21.0835   -8.8776   19.8954 H   0  0  0  0  0  0
  -22.3695  -10.9672   19.6168 H   0  0  0  0  0  0
  -21.2010   -7.6144   23.9717 H   0  0  0  0  0  0
  -21.1482   -6.0517   25.9076 H   0  0  0  0  0  0
  -22.0599   -2.7606   23.2846 H   0  0  0  0  0  0
  -22.4081  -11.9878   22.4808 H   0  0  0  0  0  0
  -21.1105  -13.1262   22.2636 H   0  0  0  0  0  0
  -24.6451  -15.8329   20.4939 H   0  0  0  0  0  0
  -26.2519  -15.6221   20.0188 H   0  0  0  0  0  0
  -26.7206  -32.5379   23.1046 H   0  0  0  0  0  0
  -25.0081  -33.9676   25.0381 H   0  0  0  0  0  0
  -22.7309  -31.2962   21.3882 H   0  0  0  0  0  0
  -23.3754  -35.9603   23.3292 H   0  0  0  0  0  0
  -24.3571  -36.8911   22.2056 H   0  0  0  0  0  0
  -23.7244  -37.6469   23.6682 H   0  0  0  0  0  0
  -26.1250  -31.5165   20.6111 H   0  0  0  0  0  0
  -26.8573  -30.8034   22.0161 H   0  0  0  0  0  0
  -28.1286  -28.9005   21.2046 H   0  0  0  0  0  0
  -25.9503  -25.8796   19.0173 H   0  0  0  0  0  0
  -23.9791  -27.2962   19.0029 H   0  0  0  0  0  0
  -23.7826  -30.5821   19.4006 H   0  0  0  0  0  0
  -22.7723  -29.2412   19.8463 H   0  0  0  0  0  0
  -25.1298  -36.1891   25.0815 H   0  0  0  0  0  0
  -21.0004  -28.3293   24.1364 H   0  0  0  0  0  0
  -20.5662  -26.2311   23.3615 H   0  0  0  0  0  0
  -21.6654  -26.7410   22.1214 H   0  0  0  0  0  0
  -19.6929  -25.6279   21.1249 H   0  0  0  0  0  0
  -19.6727  -27.3175   20.6724 H   0  0  0  0  0  0
  -17.4213  -26.6679   21.4005 H   0  0  0  0  0  0
  -18.0334  -26.0072   22.9002 H   0  0  0  0  0  0
  -19.7956  -30.7275   24.2245 H   0  0  0  0  0  0
  -17.5035  -31.6266   24.5161 H   0  0  0  0  0  0
  -15.5367  -30.2980   23.7677 H   0  0  0  0  0  0
  -15.8678  -28.0829   22.7056 H   0  0  0  0  0  0
  -24.5916  -30.7067   25.7778 H   0  0  0  0  0  0
  -24.8880  -32.2931   26.4799 H   0  0  0  0  0  0
  -25.8022  -30.8992   27.0254 H   0  0  0  0  0  0
  -26.2956  -29.6725   24.1251 H   0  0  0  0  0  0
  -27.4012  -29.7264   25.4780 H   0  0  0  0  0  0
  -27.8846  -30.4244   23.9505 H   0  0  0  0  0  0
  -27.2662  -33.3662   26.2027 H   0  0  0  0  0  0
  -28.3890  -32.6873   25.0334 H   0  0  0  0  0  0
  -28.0701  -31.8496   26.5447 H   0  0  0  0  0  0
  -28.2581  -38.0098   24.7505 H   0  0  0  0  0  0
  -28.1093  -36.2627   24.6289 H   0  0  0  0  0  0
  -27.2301  -37.1432   25.8864 H   0  0  0  0  0  0
  -20.9402  -29.8776   21.6848 H   0  0  0  0  0  0
  -26.0163  -38.2821   24.1431 H   0  0  0  0  0  0
  -31.0950  -18.3768   19.5712 H   0  0  0  0  0  0
  -27.5489  -17.5091   21.8883 H   0  0  0  0  0  0
  -28.1437  -23.9409   23.0921 H   0  0  0  0  0  0
  -29.5659  -23.1091   23.7022 H   0  0  0  0  0  0
  -30.9246  -23.8023   21.8641 H   0  0  0  0  0  0
  -29.8719  -25.2019   21.9977 H   0  0  0  0  0  0
  -27.4705  -21.9691   22.0554 H   0  0  0  0  0  0
  -28.9997  -21.2086   22.5113 H   0  0  0  0  0  0
  -30.0831  -23.8798   19.6732 H   0  0  0  0  0  0
  -27.2647  -24.5847   20.7736 H   0  0  0  0  0  0
  -27.7569  -24.6013   19.1098 H   0  0  0  0  0  0
  -28.8194  -15.3613   21.1881 H   0  0  0  0  0  0
  -30.4580  -20.5526   18.2543 H   0  0  0  0  0  0
  -30.2115  -22.2532   18.4142 H   0  0  0  0  0  0
  1 25  1  0  0  0
  1 30  2  0  0  0
  1 82  1  0  0  0
  2  3  1  0  0  0
  2 25  1  0  0  0
  2 85  1  0  0  0
  2 86  1  0  0  0
  3  4  1  0  0  0
  3 87  1  0  0  0
  3 88  1  0  0  0
  4  5  1  0  0  0
  4 89  1  0  0  0
  4 90  1  0  0  0
  5  6  1  0  0  0
  5 26  1  0  0  0
  5 91  1  0  0  0
  6 25  1  0  0  0
  6 92  1  0  0  0
  6 93  1  0  0  0
  7  8  2  0  0  0
  7 26  1  0  0  0
  7 29  1  0  0  0
  8  9  1  0  0  0
  8 22  1  0  0  0
  9 10  1  0  0  0
  9 27  2  0  0  0
 10 11  2  0  0  0
 10 15  1  0  0  0
 11 12  1  0  0  0
 11 94  1  0  0  0
 12 13  2  0  0  0
 12 95  1  0  0  0
 13 14  1  0  0  0
 13 31  1  0  0  0
 14 15  2  0  0  0
 14 96  1  0  0  0
 15 97  1  0  0  0
 16 17  2  0  0  0
 16 21  1  0  0  0
 16 31  1  0  0  0
 17 18  1  0  0  0
 17 98  1  0  0  0
 18 19  2  0  0  0
 18 99  1  0  0  0
 19 20  1  0  0  0
 19 24  1  0  0  0
 20 21  2  0  0  0
 20100  1  0  0  0
 21 23  1  0  0  0
 22 28  1  0  0  0
 22 32  2  0  0  0
 26 27  1  0  0  0
 28101  1  0  0  0
 28102  1  0  0  0
 29103  1  0  0  0
 29104  1  0  0  0
 33 34  1  0  0  0
 33 66  1  0  0  0
 33 70  2  0  0  0
 34 36  1  0  0  0
 34 59  1  0  0  0
 34105  1  0  0  0
 35 44  2  0  0  0
 35 45  1  0  0  0
 35 68  1  0  0  0
 36 56  1  0  0  0
 36106  1  0  0  0
 37 39  1  0  0  0
 37 47  1  0  0  0
 37 66  1  0  0  0
 37107  1  0  0  0
 38 43  2  0  0  0
 38 46  1  0  0  0
 38 47  1  0  0  0
 39 64  1  0  0  0
 39 67  2  0  0  0
 40 52  1  0  0  0
 40 53  2  0  0  0
 40 58  1  0  0  0
 41108  1  0  0  0
 41109  1  0  0  0
 41110  1  0  0  0
 41 48  1  0  0  0
 42 43  1  0  0  0
 42 66  1  0  0  0
 42111  1  0  0  0
 42112  1  0  0  0
 43 44  1  0  0  0
 44113  1  0  0  0
 45 46  2  0  0  0
 45114  1  0  0  0
 46115  1  0  0  0
 47116  1  0  0  0
 47117  1  0  0  0
 48 56  1  0  0  0
 48 65  1  0  0  0
 48118  1  0  0  0
 49 50  1  0  0  0
 49 53  1  0  0  0
 49 64  1  0  0  0
 49119  1  0  0  0
 50 51  1  0  0  0
 50120  1  0  0  0
 50121  1  0  0  0
 51 52  1  0  0  0
 51122  1  0  0  0
 51123  1  0  0  0
 52124  1  0  0  0
 52125  1  0  0  0
 53 54  1  0  0  0
 54 55  2  0  0  0
 54126  1  0  0  0
 55 57  1  0  0  0
 55127  1  0  0  0
 56 69  2  0  0  0
 57 58  2  0  0  0
 57128  1  0  0  0
 58129  1  0  0  0
 59 60  1  0  0  0
 59 61  1  0  0  0
 59 62  1  0  0  0
 60130  1  0  0  0
 60131  1  0  0  0
 60132  1  0  0  0
 61133  1  0  0  0
 61134  1  0  0  0
 61135  1  0  0  0
 62136  1  0  0  0
 62137  1  0  0  0
 62138  1  0  0  0
 63 65  1  0  0  0
 63139  1  0  0  0
 63140  1  0  0  0
 63141  1  0  0  0
 64142  1  0  0  0
 65143  1  0  0  0
 68 80  1  0  0  0
 71 73  1  0  0  0
 71 74  2  0  0  0
 71144  1  0  0  0
 72 73  2  0  0  0
 72 84  1  0  0  0
 72145  1  0  0  0
 73 82  1  0  0  0
 74 75  1  0  0  0
 74 84  1  0  0  0
 75 81  1  0  0  0
 75 83  2  0  0  0
 76 77  1  0  0  0
 76 78  1  0  0  0
 76146  1  0  0  0
 76147  1  0  0  0
 77 79  1  0  0  0
 77148  1  0  0  0
 77149  1  0  0  0
 78 81  1  0  0  0
 78150  1  0  0  0
 78151  1  0  0  0
 79 80  1  0  0  0
 79 81  1  0  0  0
 79152  1  0  0  0
 80153  1  0  0  0
 80154  1  0  0  0
 82155  1  0  0  0
 83156  1  0  0  0
 83157  1  0  0  0
M  CHG  1  83   1
M  ISO  4   1 100  68 101  80 101  82 100
M  END
> <chiral flag>
0

> <version>
0

> <s_m_source_file>
/data/baiqing/PycharmProjects/Reinvent-master-3.2/result/LINK_invent/BTK/process_docking_weight1_custom_product_contain_oxygen_bond_distance_aromatic_linkinvent_7_9_3/rearranged_h_0149.sdf

> <i_m_source_file_index>
39

> <r_mmod_Potential_Energy-OPLS-2005>
223.004852294922

> <r_mmod_Stretch_Energy-OPLS-2005>
146.222259521484

> <r_mmod_Bend_Energy-OPLS-2005>
259.422119140625

> <r_mmod_Torsional_Energy-OPLS-2005>
286.422882080078

> <r_mmod_Improper_Torsional_Energy-OPLS-2005>
4.86960601806641

> <r_mmod_Van_der_Waal_Energy-OPLS-2005>
113.853324890137

> <r_mmod_Electrostatic_Energy-OPLS-2005>
-242.818435668945

> <r_mmod_Solvation_Energy-OPLS-2005>
-450.108215332031

> <b_mmod_Minimization_Converged-OPLS-2005>
0

> <r_mmod_RMS_Derivative-OPLS-2005>
1.1110919713974

$$$$
39
                    3D
 Structure written by MMmdl.
165174  0  0  1  0            999 V2000
  -30.7001  -14.5549   20.3737 C   0  0  0  0  0  0
  -30.4196  -12.3076   19.4287 C   0  0  0  0  0  0
  -29.4625  -12.3550   18.2162 C   0  0  0  0  0  0
  -27.9901  -12.2835   18.6542 C   0  0  0  0  0  0
  -27.6475  -13.1854   19.8730 C   0  0  2  0  0  0
  -28.7189  -13.1014   20.9819 C   0  0  0  0  0  0
  -25.2598  -13.8128   20.5817 C   0  0  0  0  0  0
  -24.1809  -13.0441   20.9296 C   0  0  0  0  0  0
  -24.6332  -11.6906   20.8875 C   0  0  0  0  0  0
  -23.9007  -10.4285   21.0446 C   0  0  0  0  0  0
  -24.3581   -9.4184   21.9185 C   0  0  0  0  0  0
  -23.6284   -8.2219   22.0711 C   0  0  0  0  0  0
  -22.4274   -8.0274   21.3515 C   0  0  0  0  0  0
  -21.9913   -9.0237   20.4598 C   0  0  0  0  0  0
  -22.7213  -10.2136   20.3036 C   0  0  0  0  0  0
  -21.6847   -6.0752   22.5278 C   0  0  0  0  0  0
  -21.4002   -6.5650   23.8220 C   0  0  0  0  0  0
  -21.3667   -5.6796   24.9184 C   0  0  0  0  0  0
  -21.6058   -4.3063   24.7224 C   0  0  0  0  0  0
  -21.8816   -3.8164   23.4336 C   0  0  0  0  0  0
  -21.9186   -4.6982   22.3398 C   0  0  0  0  0  0
  -22.7826  -13.5259   21.1890 C   0  0  0  0  0  0
  -22.1653   -4.2176   21.0971 F   0  0  0  0  0  0
  -21.5638   -3.4535   25.7727 F   0  0  0  0  0  0
  -30.0212  -13.3740   20.3555 N   0  0  0  0  0  0
  -26.2989  -12.9219   20.3577 N   0  0  0  0  0  0
  -25.9275  -11.6427   20.6023 N   0  0  0  0  0  0
  -22.0427  -12.8251   22.0417 N   0  0  0  0  0  0
  -25.4449  -15.1799   20.4111 N   0  0  0  0  0  0
  -31.9281  -14.6120   20.3176 O   0  0  0  0  0  0
  -21.6628   -6.8886   21.4233 O   0  0  0  0  0  0
  -22.3535  -14.5560   20.6694 O   0  0  0  0  0  0
  -24.6120  -31.8673   23.2101 C   0  0  0  0  0  0
  -25.9028  -32.4830   23.8400 C   0  0  1  0  0  0
  -27.2231  -27.4423   20.1006 C   0  0  0  0  0  0
  -25.5958  -33.8645   24.2358 N   0  0  0  0  0  0
  -23.3967  -30.4884   21.5518 C   0  0  2  0  0  0
  -24.8389  -28.9508   20.1204 C   0  0  0  0  0  0
  -22.7383  -29.4630   22.5014 C   0  0  0  0  0  0
  -18.0247  -28.1377   22.8476 C   0  0  0  0  0  0
  -24.1460  -36.7300   23.2628 C   0  0  0  0  0  0
  -25.9225  -30.8353   21.3574 C   0  0  0  0  0  0
  -25.9993  -29.4681   20.7123 C   0  0  0  0  0  0
  -27.1970  -28.7203   20.6971 C   0  0  0  0  0  0
  -26.0499  -26.9365   19.5061 C   0  0  0  0  0  0
  -24.8586  -27.6833   19.5155 C   0  0  0  0  0  0
  -23.6006  -29.8160   20.1676 C   0  0  0  0  0  0
  -25.4089  -36.3133   24.0340 C   0  0  1  0  0  0
  -20.5839  -28.3641   23.1341 C   0  0  2  0  0  0
  -20.6760  -26.9390   22.5423 C   0  0  0  0  0  0
  -19.5729  -26.6363   21.5228 C   0  0  0  0  0  0
  -18.1899  -26.7909   22.1628 C   0  0  0  0  0  0
  -19.1505  -28.8832   23.2895 C   0  0  0  0  0  0
  -18.9444  -30.1443   23.8851 C   0  0  0  0  0  0
  -17.6460  -30.6584   24.0556 C   0  0  0  0  0  0
  -25.9036  -34.9509   23.5123 C   0  0  0  0  0  0
  -16.5336  -29.9078   23.6359 C   0  0  0  0  0  0
  -16.7247  -28.6523   23.0340 C   0  0  0  0  0  0
  -26.4484  -31.6591   25.0710 C   0  0  0  0  0  0
  -25.3792  -31.3710   26.1492 C   0  0  0  0  0  0
  -27.0321  -30.3037   24.6060 C   0  0  0  0  0  0
  -27.6048  -32.4318   25.7489 C   0  0  0  0  0  0
  -27.5557  -37.1805   24.8479 C   0  0  0  0  0  0
  -21.4114  -29.3010   22.3759 N   0  0  0  0  0  0
  -26.4255  -37.3832   23.9447 N   0  0  0  0  0  0
  -24.6627  -31.0797   22.0983 N   0  0  0  0  0  0
  -23.4169  -28.8152   23.3021 O   0  0  0  0  0  0
  -28.3873  -26.7108   20.0746 O   0  0  0  0  0  0
  -26.5553  -34.8952   22.4663 O   0  0  0  0  0  0
  -23.5336  -32.1399   23.7530 O   0  0  0  0  0  0
  -29.2250  -20.2567   19.1545 C   0  0  0  0  0  0
  -28.6559  -19.2486   19.9877 C   0  0  0  0  0  0
  -28.5702  -21.3941   19.5172 C   0  0  0  0  0  0
  -28.7201  -23.7044   18.8878 C   0  0  0  0  0  0
  -28.9129  -16.1269   17.7177 C   0  0  0  0  0  0
  -28.4875  -17.5015   18.2242 C   0  0  0  0  0  0
  -30.2491  -15.7722   18.3654 C   0  0  0  0  0  0
  -29.9037  -16.9586   20.3761 C   0  0  0  0  0  0
  -28.6854  -17.7361   19.7534 C   0  0  1  0  0  0
  -28.4904  -24.6462   17.7152 C   0  0  0  0  0  0
  -29.8985  -23.4861   21.2077 C   0  0  0  0  0  0
  -28.3275  -25.4478   20.7487 C   0  0  0  0  0  0
  -29.3072  -24.4139   20.1311 C   0  0  2  0  0  0
  -27.8753  -19.7982   20.9162 N   0  0  0  0  0  0
  -28.4377  -22.4712   18.6726 N   0  0  0  0  0  0
  -30.0135  -15.5877   19.8068 N   0  0  0  0  0  0
  -27.7651  -21.1626   20.5874 O   0  0  0  0  0  0
  -31.4513  -12.4199   19.0912 H   0  0  0  0  0  0
  -30.3593  -11.3388   19.9272 H   0  0  0  0  0  0
  -29.6791  -11.5100   17.5616 H   0  0  0  0  0  0
  -29.6113  -13.2305   17.5972 H   0  0  0  0  0  0
  -27.7963  -11.2403   18.9070 H   0  0  0  0  0  0
  -27.3311  -12.5071   17.8137 H   0  0  0  0  0  0
  -27.6459  -14.2125   19.5375 H   0  0  0  0  0  0
  -28.7238  -12.1157   21.4511 H   0  0  0  0  0  0
  -28.5118  -13.8253   21.7725 H   0  0  0  0  0  0
  -25.2722   -9.5681   22.4769 H   0  0  0  0  0  0
  -24.0024   -7.4586   22.7391 H   0  0  0  0  0  0
  -21.0883   -8.8743   19.8859 H   0  0  0  0  0  0
  -22.3681  -10.9682   19.6155 H   0  0  0  0  0  0
  -21.1973   -7.6151   23.9731 H   0  0  0  0  0  0
  -21.1498   -6.0516   25.9084 H   0  0  0  0  0  0
  -22.0584   -2.7626   23.2820 H   0  0  0  0  0  0
  -22.4071  -11.9961   22.4896 H   0  0  0  0  0  0
  -21.0972  -13.1172   22.2484 H   0  0  0  0  0  0
  -24.7027  -15.8608   20.5191 H   0  0  0  0  0  0
  -26.3170  -15.5866   20.1003 H   0  0  0  0  0  0
  -26.7083  -32.5530   23.1154 H   0  0  0  0  0  0
  -25.0339  -33.9877   25.0660 H   0  0  0  0  0  0
  -22.6811  -31.3003   21.4154 H   0  0  0  0  0  0
  -23.3741  -35.9618   23.3332 H   0  0  0  0  0  0
  -24.3515  -36.8873   22.2030 H   0  0  0  0  0  0
  -23.7191  -37.6510   23.6602 H   0  0  0  0  0  0
  -26.0240  -31.5841   20.5722 H   0  0  0  0  0  0
  -26.8166  -30.8971   21.9673 H   0  0  0  0  0  0
  -28.0943  -29.1107   21.1563 H   0  0  0  0  0  0
  -26.0509  -25.9685   19.0326 H   0  0  0  0  0  0
  -23.9697  -27.2718   19.0575 H   0  0  0  0  0  0
  -23.7011  -30.5845   19.4011 H   0  0  0  0  0  0
  -22.7263  -29.2262   19.8783 H   0  0  0  0  0  0
  -25.1247  -36.1996   25.0822 H   0  0  0  0  0  0
  -20.9897  -28.3194   24.1480 H   0  0  0  0  0  0
  -20.5704  -26.2231   23.3602 H   0  0  0  0  0  0
  -21.6633  -26.7458   22.1187 H   0  0  0  0  0  0
  -19.6902  -25.6273   21.1271 H   0  0  0  0  0  0
  -19.6692  -27.3157   20.6760 H   0  0  0  0  0  0
  -17.4181  -26.6644   21.4015 H   0  0  0  0  0  0
  -18.0287  -26.0044   22.9022 H   0  0  0  0  0  0
  -19.7944  -30.7293   24.2136 H   0  0  0  0  0  0
  -17.5043  -31.6271   24.5170 H   0  0  0  0  0  0
  -15.5348  -30.3005   23.7736 H   0  0  0  0  0  0
  -15.8629  -28.0888   22.7033 H   0  0  0  0  0  0
  -24.5932  -30.7083   25.7846 H   0  0  0  0  0  0
  -24.9051  -32.2886   26.4969 H   0  0  0  0  0  0
  -25.8178  -30.8859   27.0222 H   0  0  0  0  0  0
  -26.2857  -29.6791   24.1125 H   0  0  0  0  0  0
  -27.4116  -29.7262   25.4502 H   0  0  0  0  0  0
  -27.8677  -30.4360   23.9182 H   0  0  0  0  0  0
  -27.2632  -33.3585   26.2100 H   0  0  0  0  0  0
  -28.3835  -32.6922   25.0316 H   0  0  0  0  0  0
  -28.0722  -31.8437   26.5389 H   0  0  0  0  0  0
  -28.2594  -38.0089   24.7535 H   0  0  0  0  0  0
  -28.1035  -36.2626   24.6281 H   0  0  0  0  0  0
  -27.2290  -37.1433   25.8888 H   0  0  0  0  0  0
  -20.9250  -29.8768   21.7039 H   0  0  0  0  0  0
  -26.0147  -38.2902   24.1500 H   0  0  0  0  0  0
  -29.8542  -20.1315   18.2877 H   0  0  0  0  0  0
  -29.0030  -16.1401   16.6313 H   0  0  0  0  0  0
  -28.1504  -15.3856   17.9312 H   0  0  0  0  0  0
  -27.4578  -17.7177   17.9348 H   0  0  0  0  0  0
  -29.1003  -18.1932   17.6498 H   0  0  0  0  0  0
  -30.9715  -16.5710   18.1825 H   0  0  0  0  0  0
  -30.7128  -14.9156   17.8807 H   0  0  0  0  0  0
  -29.8152  -16.9245   21.4611 H   0  0  0  0  0  0
  -30.8265  -17.5075   20.1749 H   0  0  0  0  0  0
  -27.8036  -17.3036   20.2309 H   0  0  0  0  0  0
  -27.4395  -24.9251   17.6433 H   0  0  0  0  0  0
  -28.7732  -24.1711   16.7764 H   0  0  0  0  0  0
  -29.0869  -25.5522   17.8078 H   0  0  0  0  0  0
  -30.6070  -22.7807   20.7720 H   0  0  0  0  0  0
  -29.1290  -22.9241   21.7333 H   0  0  0  0  0  0
  -30.4381  -24.0630   21.9580 H   0  0  0  0  0  0
  -28.6133  -25.6617   21.7779 H   0  0  0  0  0  0
  -27.3224  -25.0293   20.8085 H   0  0  0  0  0  0
  -30.1645  -24.9841   19.7719 H   0  0  0  0  0  0
  1 25  1  0  0  0
  1 30  2  0  0  0
  1 86  1  0  0  0
  2  3  1  0  0  0
  2 25  1  0  0  0
  2 88  1  0  0  0
  2 89  1  0  0  0
  3  4  1  0  0  0
  3 90  1  0  0  0
  3 91  1  0  0  0
  4  5  1  0  0  0
  4 92  1  0  0  0
  4 93  1  0  0  0
  5  6  1  0  0  0
  5 26  1  0  0  0
  5 94  1  0  0  0
  6 25  1  0  0  0
  6 95  1  0  0  0
  6 96  1  0  0  0
  7  8  2  0  0  0
  7 26  1  0  0  0
  7 29  1  0  0  0
  8  9  1  0  0  0
  8 22  1  0  0  0
  9 10  1  0  0  0
  9 27  2  0  0  0
 10 11  2  0  0  0
 10 15  1  0  0  0
 11 12  1  0  0  0
 11 97  1  0  0  0
 12 13  2  0  0  0
 12 98  1  0  0  0
 13 14  1  0  0  0
 13 31  1  0  0  0
 14 15  2  0  0  0
 14 99  1  0  0  0
 15100  1  0  0  0
 16 17  2  0  0  0
 16 21  1  0  0  0
 16 31  1  0  0  0
 17 18  1  0  0  0
 17101  1  0  0  0
 18 19  2  0  0  0
 18102  1  0  0  0
 19 20  1  0  0  0
 19 24  1  0  0  0
 20 21  2  0  0  0
 20103  1  0  0  0
 21 23  1  0  0  0
 22 28  1  0  0  0
 22 32  2  0  0  0
 26 27  1  0  0  0
 28104  1  0  0  0
 28105  1  0  0  0
 29106  1  0  0  0
 29107  1  0  0  0
 33 34  1  0  0  0
 33 66  1  0  0  0
 33 70  2  0  0  0
 34 36  1  0  0  0
 34 59  1  0  0  0
 34108  1  0  0  0
 35 44  2  0  0  0
 35 45  1  0  0  0
 35 68  1  0  0  0
 36 56  1  0  0  0
 36109  1  0  0  0
 37 39  1  0  0  0
 37 47  1  0  0  0
 37 66  1  0  0  0
 37110  1  0  0  0
 38 43  2  0  0  0
 38 46  1  0  0  0
 38 47  1  0  0  0
 39 64  1  0  0  0
 39 67  2  0  0  0
 40 52  1  0  0  0
 40 53  2  0  0  0
 40 58  1  0  0  0
 41111  1  0  0  0
 41112  1  0  0  0
 41113  1  0  0  0
 41 48  1  0  0  0
 42 43  1  0  0  0
 42 66  1  0  0  0
 42114  1  0  0  0
 42115  1  0  0  0
 43 44  1  0  0  0
 44116  1  0  0  0
 45 46  2  0  0  0
 45117  1  0  0  0
 46118  1  0  0  0
 47119  1  0  0  0
 47120  1  0  0  0
 48 56  1  0  0  0
 48 65  1  0  0  0
 48121  1  0  0  0
 49 50  1  0  0  0
 49 53  1  0  0  0
 49 64  1  0  0  0
 49122  1  0  0  0
 50 51  1  0  0  0
 50123  1  0  0  0
 50124  1  0  0  0
 51 52  1  0  0  0
 51125  1  0  0  0
 51126  1  0  0  0
 52127  1  0  0  0
 52128  1  0  0  0
 53 54  1  0  0  0
 54 55  2  0  0  0
 54129  1  0  0  0
 55 57  1  0  0  0
 55130  1  0  0  0
 56 69  2  0  0  0
 57 58  2  0  0  0
 57131  1  0  0  0
 58132  1  0  0  0
 59 60  1  0  0  0
 59 61  1  0  0  0
 59 62  1  0  0  0
 60133  1  0  0  0
 60134  1  0  0  0
 60135  1  0  0  0
 61136  1  0  0  0
 61137  1  0  0  0
 61138  1  0  0  0
 62139  1  0  0  0
 62140  1  0  0  0
 62141  1  0  0  0
 63 65  1  0  0  0
 63142  1  0  0  0
 63143  1  0  0  0
 63144  1  0  0  0
 64145  1  0  0  0
 65146  1  0  0  0
 68 82  1  0  0  0
 71 72  1  0  0  0
 71 73  2  0  0  0
 71147  1  0  0  0
 72 84  2  0  0  0
 72 79  1  0  0  0
 73 85  1  0  0  0
 73 87  1  0  0  0
 74 80  1  0  0  0
 74 83  1  0  0  0
 74 85  2  0  0  0
 75 76  1  0  0  0
 75 77  1  0  0  0
 75148  1  0  0  0
 75149  1  0  0  0
 76 79  1  0  0  0
 76150  1  0  0  0
 76151  1  0  0  0
 77 86  1  0  0  0
 77152  1  0  0  0
 77153  1  0  0  0
 78 79  1  0  0  0
 78 86  1  0  0  0
 78154  1  0  0  0
 78155  1  0  0  0
 79156  1  0  0  0
 80157  1  0  0  0
 80158  1  0  0  0
 80159  1  0  0  0
 81160  1  0  0  0
 81161  1  0  0  0
 81162  1  0  0  0
 81 83  1  0  0  0
 82 83  1  0  0  0
 82163  1  0  0  0
 82164  1  0  0  0
 83165  1  0  0  0
 84 87  1  0  0  0
M  ISO  4   1 100  68 101  82 101  86 100
M  END
> <chiral flag>
0

> <version>
0

> <s_m_source_file>
/data/baiqing/PycharmProjects/Reinvent-master-3.2/result/LINK_invent/BTK/process_docking_weight1_custom_product_contain_oxygen_bond_distance_aromatic_linkinvent_7_9_3/rearranged_h_0149.sdf

> <i_m_source_file_index>
40

> <r_mmod_Potential_Energy-OPLS-2005>
260.785797119141

> <r_mmod_Stretch_Energy-OPLS-2005>
43.1896057128906

> <r_mmod_Bend_Energy-OPLS-2005>
155.113143920898

> <r_mmod_Torsional_Energy-OPLS-2005>
400.384918212891

> <r_mmod_Improper_Torsional_Energy-OPLS-2005>
32.3087310791016

> <r_mmod_Van_der_Waal_Energy-OPLS-2005>
139.798568725586

> <r_mmod_Electrostatic_Energy-OPLS-2005>
-347.104553222656

> <r_mmod_Solvation_Energy-OPLS-2005>
-203.966842651367

> <b_mmod_Minimization_Converged-OPLS-2005>
0

> <r_mmod_RMS_Derivative-OPLS-2005>
4.51382970809937

$$$$
40
                    3D
 Structure written by MMmdl.
159168  0  0  1  0            999 V2000
  -30.6108  -14.6327   20.5188 C   0  0  0  0  0  0
  -30.4471  -12.3923   19.4446 C   0  0  0  0  0  0
  -29.5093  -12.5112   18.2211 C   0  0  0  0  0  0
  -28.0317  -12.3463   18.6332 C   0  0  0  0  0  0
  -27.6568  -13.2093   19.8667 C   0  0  2  0  0  0
  -28.7027  -13.0410   20.9929 C   0  0  0  0  0  0
  -25.2579  -13.8152   20.5677 C   0  0  0  0  0  0
  -24.1837  -13.0430   20.9184 C   0  0  0  0  0  0
  -24.6395  -11.6897   20.8736 C   0  0  0  0  0  0
  -23.9059  -10.4287   21.0405 C   0  0  0  0  0  0
  -24.3612   -9.4203   21.9184 C   0  0  0  0  0  0
  -23.6288   -8.2239   22.0754 C   0  0  0  0  0  0
  -22.4270   -8.0278   21.3544 C   0  0  0  0  0  0
  -21.9904   -9.0251   20.4647 C   0  0  0  0  0  0
  -22.7232  -10.2130   20.3055 C   0  0  0  0  0  0
  -21.6851   -6.0733   22.5279 C   0  0  0  0  0  0
  -21.4013   -6.5638   23.8212 C   0  0  0  0  0  0
  -21.3659   -5.6791   24.9175 C   0  0  0  0  0  0
  -21.6044   -4.3054   24.7226 C   0  0  0  0  0  0
  -21.8820   -3.8145   23.4347 C   0  0  0  0  0  0
  -21.9192   -4.6961   22.3403 C   0  0  0  0  0  0
  -22.7860  -13.5231   21.1848 C   0  0  0  0  0  0
  -22.1661   -4.2147   21.0981 F   0  0  0  0  0  0
  -21.5629   -3.4538   25.7738 F   0  0  0  0  0  0
  -30.0204  -13.3974   20.4371 N   0  0  0  0  0  0
  -26.3005  -12.9319   20.3325 N   0  0  0  0  0  0
  -25.9323  -11.6483   20.5755 N   0  0  0  0  0  0
  -22.0498  -12.8227   22.0406 N   0  0  0  0  0  0
  -25.4295  -15.1875   20.4091 N   0  0  0  0  0  0
  -31.7641  -14.8258   20.1176 O   0  0  0  0  0  0
  -21.6636   -6.8875   21.4240 O   0  0  0  0  0  0
  -22.3551  -14.5540   20.6699 O   0  0  0  0  0  0
  -24.6257  -31.8610   23.2042 C   0  0  0  0  0  0
  -25.9108  -32.4786   23.8366 C   0  0  1  0  0  0
  -27.2242  -27.3248   20.1130 C   0  0  0  0  0  0
  -25.5927  -33.8587   24.2291 N   0  0  0  0  0  0
  -23.4188  -30.4860   21.5472 C   0  0  2  0  0  0
  -24.8645  -28.9433   20.1142 C   0  0  0  0  0  0
  -22.7472  -29.4633   22.4945 C   0  0  0  0  0  0
  -18.0286  -28.1385   22.8489 C   0  0  0  0  0  0
  -24.1488  -36.7295   23.2639 C   0  0  0  0  0  0
  -25.9605  -30.7932   21.3755 C   0  0  0  0  0  0
  -26.0345  -29.4212   20.7177 C   0  0  0  0  0  0
  -27.2177  -28.6244   20.7068 C   0  0  0  0  0  0
  -26.0303  -26.9044   19.4805 C   0  0  0  0  0  0
  -24.8642  -27.6897   19.4877 C   0  0  0  0  0  0
  -23.6332  -29.8231   20.1623 C   0  0  0  0  0  0
  -25.4113  -36.3088   24.0331 C   0  0  1  0  0  0
  -20.5886  -28.3688   23.1285 C   0  0  2  0  0  0
  -20.6775  -26.9413   22.5409 C   0  0  0  0  0  0
  -19.5750  -26.6386   21.5212 C   0  0  0  0  0  0
  -18.1931  -26.7929   22.1626 C   0  0  0  0  0  0
  -19.1538  -28.8853   23.2883 C   0  0  0  0  0  0
  -18.9461  -30.1455   23.8900 C   0  0  0  0  0  0
  -17.6461  -30.6588   24.0564 C   0  0  0  0  0  0
  -25.9050  -34.9457   23.5110 C   0  0  0  0  0  0
  -16.5353  -29.9087   23.6330 C   0  0  0  0  0  0
  -16.7273  -28.6503   23.0353 C   0  0  0  0  0  0
  -26.4495  -31.6591   25.0731 C   0  0  0  0  0  0
  -25.3732  -31.3724   26.1459 C   0  0  0  0  0  0
  -27.0337  -30.3017   24.6178 C   0  0  0  0  0  0
  -27.6056  -32.4325   25.7501 C   0  0  0  0  0  0
  -27.5579  -37.1804   24.8467 C   0  0  0  0  0  0
  -21.4186  -29.3045   22.3682 N   0  0  0  0  0  0
  -26.4292  -37.3781   23.9408 N   0  0  0  0  0  0
  -24.6872  -31.0629   22.0992 N   0  0  0  0  0  0
  -23.4199  -28.8168   23.3018 O   0  0  0  0  0  0
  -28.3496  -26.4854   20.1385 O   0  0  0  0  0  0
  -26.5615  -34.8920   22.4675 O   0  0  0  0  0  0
  -23.5422  -32.1406   23.7373 O   0  0  0  0  0  0
  -30.7392  -17.9562   20.7540 C   0  0  0  0  0  0
  -30.0498  -19.2403   20.7653 C   0  0  0  0  0  0
  -29.7413  -17.0042   20.7722 C   0  0  0  0  0  0
  -30.8044  -20.5349   20.9460 C   0  0  0  0  0  0
  -30.4480  -24.2675   21.1803 C   0  0  0  0  0  0
  -31.2808  -22.9710   21.1849 C   0  0  0  0  0  0
  -29.0750  -22.4814   20.4143 C   0  0  0  0  0  0
  -29.3508  -24.0282   20.1411 C   0  0  2  0  0  0
  -29.9072  -24.2108   18.7115 C   0  0  0  0  0  0
  -28.1269  -25.0292   20.3113 C   0  0  0  0  0  0
  -28.7373  -19.0402   20.7423 N   0  0  0  0  0  0
  -30.3779  -21.8556   20.8125 N   0  0  0  0  0  0
  -29.7787  -15.6315   20.9381 N   0  0  0  0  0  0
  -32.0807  -20.3484   21.3325 N   0  3  0  0  0  0
  -28.5373  -17.6458   20.7602 O   0  0  0  0  0  0
  -31.4856  -12.5324   19.1392 H   0  0  0  0  0  0
  -30.3949  -11.3909   19.8749 H   0  0  0  0  0  0
  -29.7726  -11.7642   17.4710 H   0  0  0  0  0  0
  -29.6488  -13.4829   17.7446 H   0  0  0  0  0  0
  -27.8674  -11.2918   18.8585 H   0  0  0  0  0  0
  -27.3765  -12.5821   17.7938 H   0  0  0  0  0  0
  -27.6799  -14.2473   19.5349 H   0  0  0  0  0  0
  -28.7156  -12.0094   21.3485 H   0  0  0  0  0  0
  -28.4439  -13.6447   21.8641 H   0  0  0  0  0  0
  -25.2759   -9.5679   22.4755 H   0  0  0  0  0  0
  -23.9998   -7.4631   22.7473 H   0  0  0  0  0  0
  -21.0835   -8.8769   19.8953 H   0  0  0  0  0  0
  -22.3691  -10.9669   19.6163 H   0  0  0  0  0  0
  -21.2004   -7.6146   23.9714 H   0  0  0  0  0  0
  -21.1480   -6.0522   25.9077 H   0  0  0  0  0  0
  -22.0600   -2.7608   23.2848 H   0  0  0  0  0  0
  -22.4107  -11.9884   22.4792 H   0  0  0  0  0  0
  -21.1118  -13.1260   22.2611 H   0  0  0  0  0  0
  -24.6592  -15.8386   20.5166 H   0  0  0  0  0  0
  -26.2725  -15.6306   20.0668 H   0  0  0  0  0  0
  -26.7175  -32.5458   23.1115 H   0  0  0  0  0  0
  -25.0076  -33.9735   25.0437 H   0  0  0  0  0  0
  -22.7124  -31.3066   21.4056 H   0  0  0  0  0  0
  -23.3751  -35.9628   23.3307 H   0  0  0  0  0  0
  -24.3579  -36.8908   22.2052 H   0  0  0  0  0  0
  -23.7241  -37.6500   23.6655 H   0  0  0  0  0  0
  -26.0921  -31.5571   20.6079 H   0  0  0  0  0  0
  -26.8412  -30.8408   22.0044 H   0  0  0  0  0  0
  -28.1165  -28.9887   21.1845 H   0  0  0  0  0  0
  -25.9637  -25.9642   18.9578 H   0  0  0  0  0  0
  -23.9704  -27.3216   19.0028 H   0  0  0  0  0  0
  -23.7531  -30.6004   19.4067 H   0  0  0  0  0  0
  -22.7531  -29.2530   19.8591 H   0  0  0  0  0  0
  -25.1292  -36.1944   25.0824 H   0  0  0  0  0  0
  -20.9979  -28.3260   24.1405 H   0  0  0  0  0  0
  -20.5678  -26.2298   23.3607 H   0  0  0  0  0  0
  -21.6643  -26.7445   22.1200 H   0  0  0  0  0  0
  -19.6912  -25.6298   21.1239 H   0  0  0  0  0  0
  -19.6687  -27.3198   20.6743 H   0  0  0  0  0  0
  -17.4200  -26.6677   21.4029 H   0  0  0  0  0  0
  -18.0333  -26.0070   22.9022 H   0  0  0  0  0  0
  -19.7937  -30.7270   24.2271 H   0  0  0  0  0  0
  -17.5016  -31.6269   24.5164 H   0  0  0  0  0  0
  -15.5353  -30.2989   23.7654 H   0  0  0  0  0  0
  -15.8674  -28.0823   22.7068 H   0  0  0  0  0  0
  -24.5910  -30.7067   25.7790 H   0  0  0  0  0  0
  -24.8917  -32.2886   26.4886 H   0  0  0  0  0  0
  -25.8061  -30.8903   27.0234 H   0  0  0  0  0  0
  -26.2908  -29.6771   24.1202 H   0  0  0  0  0  0
  -27.4039  -29.7269   25.4677 H   0  0  0  0  0  0
  -27.8777  -30.4307   23.9399 H   0  0  0  0  0  0
  -27.2667  -33.3624   26.2080 H   0  0  0  0  0  0
  -28.3865  -32.6888   25.0329 H   0  0  0  0  0  0
  -28.0725  -31.8449   26.5415 H   0  0  0  0  0  0
  -28.2601  -38.0097   24.7509 H   0  0  0  0  0  0
  -28.1070  -36.2628   24.6299 H   0  0  0  0  0  0
  -27.2297  -37.1462   25.8870 H   0  0  0  0  0  0
  -20.9361  -29.8773   21.6899 H   0  0  0  0  0  0
  -26.0176  -38.2857   24.1405 H   0  0  0  0  0  0
  -31.7986  -17.7561   20.7902 H   0  0  0  0  0  0
  -31.0542  -25.1416   20.9395 H   0  0  0  0  0  0
  -30.0194  -24.4340   22.1699 H   0  0  0  0  0  0
  -31.7266  -22.8109   22.1667 H   0  0  0  0  0  0
  -32.0869  -23.0327   20.4532 H   0  0  0  0  0  0
  -28.6563  -21.9840   19.5393 H   0  0  0  0  0  0
  -28.3682  -22.3525   21.2344 H   0  0  0  0  0  0
  -30.7622  -23.5666   18.5059 H   0  0  0  0  0  0
  -30.2275  -25.2396   18.5419 H   0  0  0  0  0  0
  -29.1466  -23.9826   17.9639 H   0  0  0  0  0  0
  -27.6929  -24.8859   21.3018 H   0  0  0  0  0  0
  -27.3785  -24.6647   19.6132 H   0  0  0  0  0  0
  -28.8932  -15.2561   21.2362 H   0  0  0  0  0  0
  -32.3968  -19.4022   21.4739 H   0  0  0  0  0  0
  -32.7221  -21.1056   21.4948 H   0  0  0  0  0  0
  1 25  1  0  0  0
  1 30  2  0  0  0
  1 83  1  0  0  0
  2  3  1  0  0  0
  2 25  1  0  0  0
  2 86  1  0  0  0
  2 87  1  0  0  0
  3  4  1  0  0  0
  3 88  1  0  0  0
  3 89  1  0  0  0
  4  5  1  0  0  0
  4 90  1  0  0  0
  4 91  1  0  0  0
  5  6  1  0  0  0
  5 26  1  0  0  0
  5 92  1  0  0  0
  6 25  1  0  0  0
  6 93  1  0  0  0
  6 94  1  0  0  0
  7  8  2  0  0  0
  7 26  1  0  0  0
  7 29  1  0  0  0
  8  9  1  0  0  0
  8 22  1  0  0  0
  9 10  1  0  0  0
  9 27  2  0  0  0
 10 11  2  0  0  0
 10 15  1  0  0  0
 11 12  1  0  0  0
 11 95  1  0  0  0
 12 13  2  0  0  0
 12 96  1  0  0  0
 13 14  1  0  0  0
 13 31  1  0  0  0
 14 15  2  0  0  0
 14 97  1  0  0  0
 15 98  1  0  0  0
 16 17  2  0  0  0
 16 21  1  0  0  0
 16 31  1  0  0  0
 17 18  1  0  0  0
 17 99  1  0  0  0
 18 19  2  0  0  0
 18100  1  0  0  0
 19 20  1  0  0  0
 19 24  1  0  0  0
 20 21  2  0  0  0
 20101  1  0  0  0
 21 23  1  0  0  0
 22 28  1  0  0  0
 22 32  2  0  0  0
 26 27  1  0  0  0
 28102  1  0  0  0
 28103  1  0  0  0
 29104  1  0  0  0
 29105  1  0  0  0
 33 34  1  0  0  0
 33 66  1  0  0  0
 33 70  2  0  0  0
 34 36  1  0  0  0
 34 59  1  0  0  0
 34106  1  0  0  0
 35 44  2  0  0  0
 35 45  1  0  0  0
 35 68  1  0  0  0
 36 56  1  0  0  0
 36107  1  0  0  0
 37 39  1  0  0  0
 37 47  1  0  0  0
 37 66  1  0  0  0
 37108  1  0  0  0
 38 43  2  0  0  0
 38 46  1  0  0  0
 38 47  1  0  0  0
 39 64  1  0  0  0
 39 67  2  0  0  0
 40 52  1  0  0  0
 40 53  2  0  0  0
 40 58  1  0  0  0
 41109  1  0  0  0
 41110  1  0  0  0
 41111  1  0  0  0
 41 48  1  0  0  0
 42 43  1  0  0  0
 42 66  1  0  0  0
 42112  1  0  0  0
 42113  1  0  0  0
 43 44  1  0  0  0
 44114  1  0  0  0
 45 46  2  0  0  0
 45115  1  0  0  0
 46116  1  0  0  0
 47117  1  0  0  0
 47118  1  0  0  0
 48 56  1  0  0  0
 48 65  1  0  0  0
 48119  1  0  0  0
 49 50  1  0  0  0
 49 53  1  0  0  0
 49 64  1  0  0  0
 49120  1  0  0  0
 50 51  1  0  0  0
 50121  1  0  0  0
 50122  1  0  0  0
 51 52  1  0  0  0
 51123  1  0  0  0
 51124  1  0  0  0
 52125  1  0  0  0
 52126  1  0  0  0
 53 54  1  0  0  0
 54 55  2  0  0  0
 54127  1  0  0  0
 55 57  1  0  0  0
 55128  1  0  0  0
 56 69  2  0  0  0
 57 58  2  0  0  0
 57129  1  0  0  0
 58130  1  0  0  0
 59 60  1  0  0  0
 59 61  1  0  0  0
 59 62  1  0  0  0
 60131  1  0  0  0
 60132  1  0  0  0
 60133  1  0  0  0
 61134  1  0  0  0
 61135  1  0  0  0
 61136  1  0  0  0
 62137  1  0  0  0
 62138  1  0  0  0
 62139  1  0  0  0
 63 65  1  0  0  0
 63140  1  0  0  0
 63141  1  0  0  0
 63142  1  0  0  0
 64143  1  0  0  0
 65144  1  0  0  0
 68 80  1  0  0  0
 71 72  1  0  0  0
 71 73  2  0  0  0
 71145  1  0  0  0
 72 74  1  0  0  0
 72 81  2  0  0  0
 73 83  1  0  0  0
 73 85  1  0  0  0
 74 82  1  0  0  0
 74 84  2  0  0  0
 75 76  1  0  0  0
 75 78  1  0  0  0
 75146  1  0  0  0
 75147  1  0  0  0
 76 82  1  0  0  0
 76148  1  0  0  0
 76149  1  0  0  0
 77 78  1  0  0  0
 77 82  1  0  0  0
 77150  1  0  0  0
 77151  1  0  0  0
 78 79  1  0  0  0
 78 80  1  0  0  0
 79152  1  0  0  0
 79153  1  0  0  0
 79154  1  0  0  0
 80155  1  0  0  0
 80156  1  0  0  0
 81 85  1  0  0  0
 83157  1  0  0  0
 84158  1  0  0  0
 84159  1  0  0  0
M  CHG  1  84   1
M  ISO  4   1 100  68 101  80 101  83 100
M  END
> <chiral flag>
0

> <version>
0

> <s_m_source_file>
/data/baiqing/PycharmProjects/Reinvent-master-3.2/result/LINK_invent/BTK/process_docking_weight1_custom_product_contain_oxygen_bond_distance_aromatic_linkinvent_7_9_3/rearranged_h_0149.sdf

> <i_m_source_file_index>
41

> <r_mmod_Potential_Energy-OPLS-2005>
-64.629768371582

> <r_mmod_Stretch_Energy-OPLS-2005>
75.3218002319336

> <r_mmod_Bend_Energy-OPLS-2005>
195.028991699219

> <r_mmod_Torsional_Energy-OPLS-2005>
296.888702392578

> <r_mmod_Improper_Torsional_Energy-OPLS-2005>
5.29663467407227

> <r_mmod_Van_der_Waal_Energy-OPLS-2005>
134.230697631836

> <r_mmod_Electrostatic_Energy-OPLS-2005>
-353.044189453125

> <r_mmod_Solvation_Energy-OPLS-2005>
-463.334838867188

> <b_mmod_Minimization_Converged-OPLS-2005>
0

> <r_mmod_RMS_Derivative-OPLS-2005>
0.116780988872051

$$$$
41
                    3D
 Structure written by MMmdl.
155163  0  0  1  0            999 V2000
  -30.6766  -14.4729   20.4849 C   0  0  0  0  0  0
  -30.4314  -12.2889   19.4085 C   0  0  0  0  0  0
  -29.4926  -12.4915   18.2008 C   0  0  0  0  0  0
  -28.0133  -12.3580   18.6157 C   0  0  0  0  0  0
  -27.6628  -13.1839   19.8801 C   0  0  2  0  0  0
  -28.7173  -12.9669   20.9917 C   0  0  0  0  0  0
  -25.2635  -13.8105   20.5711 C   0  0  0  0  0  0
  -24.1857  -13.0422   20.9180 C   0  0  0  0  0  0
  -24.6383  -11.6873   20.8773 C   0  0  0  0  0  0
  -23.9044  -10.4274   21.0431 C   0  0  0  0  0  0
  -24.3586   -9.4182   21.9196 C   0  0  0  0  0  0
  -23.6254   -8.2224   22.0754 C   0  0  0  0  0  0
  -22.4240   -8.0277   21.3539 C   0  0  0  0  0  0
  -21.9888   -9.0264   20.4649 C   0  0  0  0  0  0
  -22.7226  -10.2141   20.3070 C   0  0  0  0  0  0
  -21.6846   -6.0717   22.5267 C   0  0  0  0  0  0
  -21.4017   -6.5621   23.8201 C   0  0  0  0  0  0
  -21.3668   -5.6768   24.9157 C   0  0  0  0  0  0
  -21.6040   -4.3032   24.7207 C   0  0  0  0  0  0
  -21.8836   -3.8123   23.4331 C   0  0  0  0  0  0
  -21.9194   -4.6944   22.3385 C   0  0  0  0  0  0
  -22.7885  -13.5254   21.1800 C   0  0  0  0  0  0
  -22.1653   -4.2131   21.0962 F   0  0  0  0  0  0
  -21.5622   -3.4530   25.7727 F   0  0  0  0  0  0
  -30.0449  -13.2698   20.4292 N   0  0  0  0  0  0
  -26.3043  -12.9216   20.3432 N   0  0  0  0  0  0
  -25.9301  -11.6402   20.5812 N   0  0  0  0  0  0
  -22.0492  -12.8265   22.0356 N   0  0  0  0  0  0
  -25.4411  -15.1833   20.4160 N   0  0  0  0  0  0
  -31.8466  -14.6466   20.1312 O   0  0  0  0  0  0
  -21.6615   -6.8872   21.4231 O   0  0  0  0  0  0
  -22.3590  -14.5559   20.6645 O   0  0  0  0  0  0
  -24.6087  -31.8680   23.2110 C   0  0  0  0  0  0
  -25.8991  -32.4818   23.8387 C   0  0  1  0  0  0
  -27.2519  -27.4689   20.0818 C   0  0  0  0  0  0
  -25.5889  -33.8612   24.2334 N   0  0  0  0  0  0
  -23.3964  -30.4877   21.5494 C   0  0  2  0  0  0
  -24.8436  -28.9491   20.1144 C   0  0  0  0  0  0
  -22.7373  -29.4650   22.5006 C   0  0  0  0  0  0
  -18.0279  -28.1370   22.8485 C   0  0  0  0  0  0
  -24.1477  -36.7292   23.2635 C   0  0  0  0  0  0
  -25.9181  -30.8392   21.3588 C   0  0  0  0  0  0
  -25.9956  -29.4733   20.7116 C   0  0  0  0  0  0
  -27.1952  -28.7357   20.6985 C   0  0  0  0  0  0
  -26.0814  -26.9409   19.4894 C   0  0  0  0  0  0
  -24.8797  -27.6801   19.5042 C   0  0  0  0  0  0
  -23.6007  -29.8100   20.1658 C   0  0  0  0  0  0
  -25.4098  -36.3092   24.0343 C   0  0  1  0  0  0
  -20.5852  -28.3657   23.1310 C   0  0  2  0  0  0
  -20.6751  -26.9397   22.5403 C   0  0  0  0  0  0
  -19.5742  -26.6374   21.5183 C   0  0  0  0  0  0
  -18.1920  -26.7923   22.1597 C   0  0  0  0  0  0
  -19.1525  -28.8834   23.2894 C   0  0  0  0  0  0
  -18.9459  -30.1441   23.8908 C   0  0  0  0  0  0
  -17.6462  -30.6575   24.0565 C   0  0  0  0  0  0
  -25.9029  -34.9463   23.5132 C   0  0  0  0  0  0
  -16.5356  -29.9079   23.6321 C   0  0  0  0  0  0
  -16.7270  -28.6494   23.0347 C   0  0  0  0  0  0
  -26.4451  -31.6598   25.0696 C   0  0  0  0  0  0
  -25.3759  -31.3696   26.1488 C   0  0  0  0  0  0
  -27.0245  -30.3038   24.6021 C   0  0  0  0  0  0
  -27.6047  -32.4313   25.7434 C   0  0  0  0  0  0
  -27.5589  -37.1774   24.8457 C   0  0  0  0  0  0
  -21.4112  -29.3026   22.3722 N   0  0  0  0  0  0
  -26.4278  -37.3785   23.9438 N   0  0  0  0  0  0
  -24.6589  -31.0794   22.0992 N   0  0  0  0  0  0
  -23.4149  -28.8196   23.3046 O   0  0  0  0  0  0
  -28.4705  -26.8329   20.0951 O   0  0  0  0  0  0
  -26.5579  -34.8918   22.4684 O   0  0  0  0  0  0
  -23.5287  -32.1424   23.7519 O   0  0  0  0  0  0
  -30.7011  -17.7320   19.8790 C   0  0  0  0  0  0
  -28.7976  -16.7660   18.9081 C   0  0  0  0  0  0
  -29.7864  -16.6326   19.8497 C   0  0  0  0  0  0
  -30.4052  -18.6894   18.9295 C   0  0  0  0  0  0
  -30.5187  -23.7852   19.1918 C   0  0  0  0  0  0
  -31.7682  -23.2799   19.3370 C   0  0  0  0  0  0
  -30.0851  -25.0902   19.7400 C   0  0  0  0  0  0
  -31.7179  -20.6703   19.4220 C   0  0  0  0  0  0
  -32.2616  -21.9498   18.7747 C   0  0  0  0  0  0
  -28.6496  -25.5697   19.4602 C   0  0  0  0  0  0
  -29.8539  -15.5082   20.7199 N   0  0  0  0  0  0
  -31.0231  -19.8544   18.6170 N   0  0  0  0  0  0
  -30.8415  -25.8046   20.4129 O   0  0  0  0  0  0
  -31.9265  -20.4439   20.6178 O   0  0  0  0  0  0
  -32.7690  -23.9086   19.9800 O   0  0  0  0  0  0
  -29.0114  -18.2189   17.9870 S   0  0  0  0  0  0
  -31.4716  -12.4011   19.0957 H   0  0  0  0  0  0
  -30.3415  -11.2762   19.8046 H   0  0  0  0  0  0
  -29.7252  -11.7659   17.4218 H   0  0  0  0  0  0
  -29.6636  -13.4768   17.7621 H   0  0  0  0  0  0
  -27.8187  -11.3013   18.8027 H   0  0  0  0  0  0
  -27.3642  -12.6423   17.7874 H   0  0  0  0  0  0
  -27.6960  -14.2253   19.5848 H   0  0  0  0  0  0
  -28.6943  -11.9285   21.3303 H   0  0  0  0  0  0
  -28.5032  -13.5752   21.8720 H   0  0  0  0  0  0
  -25.2742   -9.5619   22.4765 H   0  0  0  0  0  0
  -23.9946   -7.4600   22.7467 H   0  0  0  0  0  0
  -21.0814   -8.8813   19.8946 H   0  0  0  0  0  0
  -22.3710  -10.9691   19.6172 H   0  0  0  0  0  0
  -21.2027   -7.6125   23.9719 H   0  0  0  0  0  0
  -21.1469   -6.0478   25.9059 H   0  0  0  0  0  0
  -22.0612   -2.7577   23.2846 H   0  0  0  0  0  0
  -22.4042  -11.9901   22.4747 H   0  0  0  0  0  0
  -21.1158  -13.1398   22.2605 H   0  0  0  0  0  0
  -24.6863  -15.8492   20.5466 H   0  0  0  0  0  0
  -26.3156  -15.6265   20.1743 H   0  0  0  0  0  0
  -26.7055  -32.5538   23.1150 H   0  0  0  0  0  0
  -25.0050  -33.9777   25.0485 H   0  0  0  0  0  0
  -22.6848  -31.3037   21.4082 H   0  0  0  0  0  0
  -23.3736  -35.9621   23.3275 H   0  0  0  0  0  0
  -24.3579  -36.8936   22.2055 H   0  0  0  0  0  0
  -23.7217  -37.6488   23.6652 H   0  0  0  0  0  0
  -26.0235  -31.6017   20.5865 H   0  0  0  0  0  0
  -26.8086  -30.8965   21.9723 H   0  0  0  0  0  0
  -28.0876  -29.1410   21.1549 H   0  0  0  0  0  0
  -26.0831  -25.9718   19.0114 H   0  0  0  0  0  0
  -23.9939  -27.2698   19.0392 H   0  0  0  0  0  0
  -23.6932  -30.5777   19.3967 H   0  0  0  0  0  0
  -22.7269  -29.2195   19.8823 H   0  0  0  0  0  0
  -25.1253  -36.1955   25.0831 H   0  0  0  0  0  0
  -20.9962  -28.3235   24.1423 H   0  0  0  0  0  0
  -20.5602  -26.2288   23.3592 H   0  0  0  0  0  0
  -21.6638  -26.7403   22.1245 H   0  0  0  0  0  0
  -19.6903  -25.6286   21.1201 H   0  0  0  0  0  0
  -19.6673  -27.3191   20.6717 H   0  0  0  0  0  0
  -17.4181  -26.6689   21.4000 H   0  0  0  0  0  0
  -18.0331  -26.0055   22.8987 H   0  0  0  0  0  0
  -19.7934  -30.7258   24.2282 H   0  0  0  0  0  0
  -17.5011  -31.6246   24.5185 H   0  0  0  0  0  0
  -15.5358  -30.2990   23.7622 H   0  0  0  0  0  0
  -15.8675  -28.0806   22.7063 H   0  0  0  0  0  0
  -24.5941  -30.7021   25.7860 H   0  0  0  0  0  0
  -24.8945  -32.2848   26.4950 H   0  0  0  0  0  0
  -25.8165  -30.8858   27.0219 H   0  0  0  0  0  0
  -26.2738  -29.6813   24.1132 H   0  0  0  0  0  0
  -27.4110  -29.7261   25.4428 H   0  0  0  0  0  0
  -27.8548  -30.4361   23.9082 H   0  0  0  0  0  0
  -27.2674  -33.3595   26.2063 H   0  0  0  0  0  0
  -28.3825  -32.6912   25.0237 H   0  0  0  0  0  0
  -28.0752  -31.8414   26.5310 H   0  0  0  0  0  0
  -28.2573  -38.0103   24.7565 H   0  0  0  0  0  0
  -28.1127  -36.2649   24.6181 H   0  0  0  0  0  0
  -27.2331  -37.1316   25.8865 H   0  0  0  0  0  0
  -20.9289  -29.8737   21.6924 H   0  0  0  0  0  0
  -26.0158  -38.2848   24.1491 H   0  0  0  0  0  0
  -31.5298  -17.7779   20.5739 H   0  0  0  0  0  0
  -27.9768  -16.1165   18.6423 H   0  0  0  0  0  0
  -29.7762  -23.2229   18.6441 H   0  0  0  0  0  0
  -33.3505  -21.8979   18.8271 H   0  0  0  0  0  0
  -32.0282  -21.9439   17.7086 H   0  0  0  0  0  0
  -27.9396  -24.8411   19.8497 H   0  0  0  0  0  0
  -28.5006  -25.6606   18.3840 H   0  0  0  0  0  0
  -28.9678  -15.2019   21.0884 H   0  0  0  0  0  0
  -30.8696  -20.1956   17.6769 H   0  0  0  0  0  0
  -32.4199  -24.7377   20.3008 H   0  0  0  0  0  0
  1 25  1  0  0  0
  1 30  2  0  0  0
  1 81  1  0  0  0
  2  3  1  0  0  0
  2 25  1  0  0  0
  2 87  1  0  0  0
  2 88  1  0  0  0
  3  4  1  0  0  0
  3 89  1  0  0  0
  3 90  1  0  0  0
  4  5  1  0  0  0
  4 91  1  0  0  0
  4 92  1  0  0  0
  5  6  1  0  0  0
  5 26  1  0  0  0
  5 93  1  0  0  0
  6 25  1  0  0  0
  6 94  1  0  0  0
  6 95  1  0  0  0
  7  8  2  0  0  0
  7 26  1  0  0  0
  7 29  1  0  0  0
  8  9  1  0  0  0
  8 22  1  0  0  0
  9 10  1  0  0  0
  9 27  2  0  0  0
 10 11  2  0  0  0
 10 15  1  0  0  0
 11 12  1  0  0  0
 11 96  1  0  0  0
 12 13  2  0  0  0
 12 97  1  0  0  0
 13 14  1  0  0  0
 13 31  1  0  0  0
 14 15  2  0  0  0
 14 98  1  0  0  0
 15 99  1  0  0  0
 16 17  2  0  0  0
 16 21  1  0  0  0
 16 31  1  0  0  0
 17 18  1  0  0  0
 17100  1  0  0  0
 18 19  2  0  0  0
 18101  1  0  0  0
 19 20  1  0  0  0
 19 24  1  0  0  0
 20 21  2  0  0  0
 20102  1  0  0  0
 21 23  1  0  0  0
 22 28  1  0  0  0
 22 32  2  0  0  0
 26 27  1  0  0  0
 28103  1  0  0  0
 28104  1  0  0  0
 29105  1  0  0  0
 29106  1  0  0  0
 33 34  1  0  0  0
 33 66  1  0  0  0
 33 70  2  0  0  0
 34 36  1  0  0  0
 34 59  1  0  0  0
 34107  1  0  0  0
 35 44  2  0  0  0
 35 45  1  0  0  0
 35 68  1  0  0  0
 36 56  1  0  0  0
 36108  1  0  0  0
 37 39  1  0  0  0
 37 47  1  0  0  0
 37 66  1  0  0  0
 37109  1  0  0  0
 38 43  2  0  0  0
 38 46  1  0  0  0
 38 47  1  0  0  0
 39 64  1  0  0  0
 39 67  2  0  0  0
 40 52  1  0  0  0
 40 53  2  0  0  0
 40 58  1  0  0  0
 41110  1  0  0  0
 41111  1  0  0  0
 41112  1  0  0  0
 41 48  1  0  0  0
 42 43  1  0  0  0
 42 66  1  0  0  0
 42113  1  0  0  0
 42114  1  0  0  0
 43 44  1  0  0  0
 44115  1  0  0  0
 45 46  2  0  0  0
 45116  1  0  0  0
 46117  1  0  0  0
 47118  1  0  0  0
 47119  1  0  0  0
 48 56  1  0  0  0
 48 65  1  0  0  0
 48120  1  0  0  0
 49 50  1  0  0  0
 49 53  1  0  0  0
 49 64  1  0  0  0
 49121  1  0  0  0
 50 51  1  0  0  0
 50122  1  0  0  0
 50123  1  0  0  0
 51 52  1  0  0  0
 51124  1  0  0  0
 51125  1  0  0  0
 52126  1  0  0  0
 52127  1  0  0  0
 53 54  1  0  0  0
 54 55  2  0  0  0
 54128  1  0  0  0
 55 57  1  0  0  0
 55129  1  0  0  0
 56 69  2  0  0  0
 57 58  2  0  0  0
 57130  1  0  0  0
 58131  1  0  0  0
 59 60  1  0  0  0
 59 61  1  0  0  0
 59 62  1  0  0  0
 60132  1  0  0  0
 60133  1  0  0  0
 60134  1  0  0  0
 61135  1  0  0  0
 61136  1  0  0  0
 61137  1  0  0  0
 62138  1  0  0  0
 62139  1  0  0  0
 62140  1  0  0  0
 63 65  1  0  0  0
 63141  1  0  0  0
 63142  1  0  0  0
 63143  1  0  0  0
 64144  1  0  0  0
 65145  1  0  0  0
 68 80  1  0  0  0
 71 73  1  0  0  0
 71 74  2  0  0  0
 71146  1  0  0  0
 72 73  2  0  0  0
 72 86  1  0  0  0
 72147  1  0  0  0
 73 81  1  0  0  0
 74 82  1  0  0  0
 74 86  1  0  0  0
 75 76  2  0  0  0
 75 77  1  0  0  0
 75148  1  0  0  0
 76 79  1  0  0  0
 76 85  1  0  0  0
 77 80  1  0  0  0
 77 83  2  0  0  0
 78 79  1  0  0  0
 78 82  1  0  0  0
 78 84  2  0  0  0
 79149  1  0  0  0
 79150  1  0  0  0
 80151  1  0  0  0
 80152  1  0  0  0
 81153  1  0  0  0
 82154  1  0  0  0
 85155  1  0  0  0
M  ISO  4   1 100  68 101  80 101  81 100
M  END
> <chiral flag>
0

> <version>
0

> <s_m_source_file>
/data/baiqing/PycharmProjects/Reinvent-master-3.2/result/LINK_invent/BTK/process_docking_weight1_custom_product_contain_oxygen_bond_distance_aromatic_linkinvent_7_9_3/rearranged_h_0149.sdf

> <i_m_source_file_index>
42

> <r_mmod_Potential_Energy-OPLS-2005>
-43.2603492736816

> <r_mmod_Stretch_Energy-OPLS-2005>
32.6994285583496

> <r_mmod_Bend_Energy-OPLS-2005>
112.139053344727

> <r_mmod_Torsional_Energy-OPLS-2005>
230.793975830078

> <r_mmod_Improper_Torsional_Energy-OPLS-2005>
9.19664764404297

> <r_mmod_Van_der_Waal_Energy-OPLS-2005>
135.705261230469

> <r_mmod_Electrostatic_Energy-OPLS-2005>
-304.410125732422

> <r_mmod_Solvation_Energy-OPLS-2005>
-275.159851074219

> <b_mmod_Minimization_Converged-OPLS-2005>
0

> <r_mmod_RMS_Derivative-OPLS-2005>
2.98090028762817

$$$$
42
                    3D
 Structure written by MMmdl.
155164  0  0  1  0            999 V2000
  -30.7226  -14.4979   20.5463 C   0  0  0  0  0  0
  -30.4154  -12.3204   19.4250 C   0  0  0  0  0  0
  -29.4873  -12.4841   18.2053 C   0  0  0  0  0  0
  -28.0139  -12.3109   18.6246 C   0  0  0  0  0  0
  -27.6425  -13.1807   19.8526 C   0  0  2  0  0  0
  -28.6927  -13.0469   20.9824 C   0  0  0  0  0  0
  -25.2542  -13.8068   20.5660 C   0  0  0  0  0  0
  -24.1791  -13.0392   20.9213 C   0  0  0  0  0  0
  -24.6319  -11.6860   20.8771 C   0  0  0  0  0  0
  -23.8993  -10.4272   21.0429 C   0  0  0  0  0  0
  -24.3564   -9.4195   21.9193 C   0  0  0  0  0  0
  -23.6273   -8.2216   22.0750 C   0  0  0  0  0  0
  -22.4252   -8.0254   21.3546 C   0  0  0  0  0  0
  -21.9881   -9.0215   20.4649 C   0  0  0  0  0  0
  -22.7177  -10.2110   20.3065 C   0  0  0  0  0  0
  -21.6840   -6.0712   22.5279 C   0  0  0  0  0  0
  -21.3996   -6.5624   23.8212 C   0  0  0  0  0  0
  -21.3659   -5.6779   24.9179 C   0  0  0  0  0  0
  -21.6043   -4.3043   24.7227 C   0  0  0  0  0  0
  -21.8826   -3.8134   23.4349 C   0  0  0  0  0  0
  -21.9189   -4.6948   22.3405 C   0  0  0  0  0  0
  -22.7824  -13.5224   21.1865 C   0  0  0  0  0  0
  -22.1663   -4.2141   21.0982 F   0  0  0  0  0  0
  -21.5639   -3.4522   25.7737 F   0  0  0  0  0  0
  -30.0213  -13.3340   20.4171 N   0  0  0  0  0  0
  -26.2924  -12.9174   20.3301 N   0  0  0  0  0  0
  -25.9230  -11.6376   20.5782 N   0  0  0  0  0  0
  -22.0443  -12.8252   22.0431 N   0  0  0  0  0  0
  -25.4215  -15.1778   20.3961 N   0  0  0  0  0  0
  -31.8915  -14.6043   20.1631 O   0  0  0  0  0  0
  -21.6631   -6.8848   21.4234 O   0  0  0  0  0  0
  -22.3552  -14.5540   20.6707 O   0  0  0  0  0  0
  -24.6140  -31.8679   23.2098 C   0  0  0  0  0  0
  -25.9036  -32.4820   23.8390 C   0  0  1  0  0  0
  -27.2377  -27.4380   20.1017 C   0  0  0  0  0  0
  -25.5893  -33.8617   24.2328 N   0  0  0  0  0  0
  -23.4012  -30.4909   21.5498 C   0  0  2  0  0  0
  -24.8484  -28.9554   20.1149 C   0  0  0  0  0  0
  -22.7399  -29.4669   22.4996 C   0  0  0  0  0  0
  -18.0268  -28.1392   22.8508 C   0  0  0  0  0  0
  -24.1481  -36.7304   23.2641 C   0  0  0  0  0  0
  -25.9292  -30.8357   21.3605 C   0  0  0  0  0  0
  -26.0075  -29.4694   20.7092 C   0  0  0  0  0  0
  -27.2055  -28.7201   20.6948 C   0  0  0  0  0  0
  -26.0634  -26.9404   19.4929 C   0  0  0  0  0  0
  -24.8713  -27.6899   19.5022 C   0  0  0  0  0  0
  -23.6085  -29.8197   20.1649 C   0  0  0  0  0  0
  -25.4105  -36.3114   24.0343 C   0  0  1  0  0  0
  -20.5855  -28.3676   23.1321 C   0  0  2  0  0  0
  -20.6761  -26.9417   22.5417 C   0  0  0  0  0  0
  -19.5738  -26.6401   21.5218 C   0  0  0  0  0  0
  -18.1916  -26.7935   22.1640 C   0  0  0  0  0  0
  -19.1520  -28.8849   23.2911 C   0  0  0  0  0  0
  -18.9452  -30.1452   23.8922 C   0  0  0  0  0  0
  -17.6457  -30.6599   24.0574 C   0  0  0  0  0  0
  -25.9027  -34.9477   23.5129 C   0  0  0  0  0  0
  -16.5344  -29.9105   23.6336 C   0  0  0  0  0  0
  -16.7256  -28.6522   23.0355 C   0  0  0  0  0  0
  -26.4473  -31.6594   25.0711 C   0  0  0  0  0  0
  -25.3758  -31.3698   26.1474 C   0  0  0  0  0  0
  -27.0292  -30.3037   24.6074 C   0  0  0  0  0  0
  -27.6065  -32.4304   25.7459 C   0  0  0  0  0  0
  -27.5566  -37.1818   24.8484 C   0  0  0  0  0  0
  -21.4131  -29.3037   22.3729 N   0  0  0  0  0  0
  -26.4300  -37.3787   23.9399 N   0  0  0  0  0  0
  -24.6661  -31.0790   22.0985 N   0  0  0  0  0  0
  -23.4180  -28.8213   23.3033 O   0  0  0  0  0  0
  -28.4156  -26.7186   20.1069 O   0  0  0  0  0  0
  -26.5600  -34.8931   22.4695 O   0  0  0  0  0  0
  -23.5338  -32.1420   23.7499 O   0  0  0  0  0  0
  -30.6847  -19.3417   20.9997 C   0  0  0  0  0  0
  -30.3449  -17.9511   20.9997 C   0  0  0  0  0  0
  -29.4330  -17.6373   20.0770 C   0  0  0  0  0  0
  -30.0225  -20.0381   19.9978 C   0  0  0  0  0  0
  -30.1426  -22.4391   20.3624 C   0  0  0  0  0  0
  -30.7346  -16.6967   21.7239 C   0  0  0  0  0  0
  -29.0761  -16.2141   20.0653 C   0  0  0  0  0  0
  -30.3003  -23.7737   19.6167 C   0  0  0  0  0  0
  -28.9624  -24.4698   19.2625 C   0  0  0  0  0  0
  -28.3360  -25.3128   20.3950 C   0  0  0  0  0  0
  -30.0440  -15.5849   20.9969 N   0  0  0  0  0  0
  -30.1523  -21.3314   19.6034 N   0  0  0  0  0  0
  -30.0316  -22.4257   21.5898 O   0  0  0  0  0  0
  -28.9532  -18.9737   19.0906 S   0  0  0  0  0  0
  -31.4585  -12.4141   19.1172 H   0  0  0  0  0  0
  -30.3215  -11.3215   19.8528 H   0  0  0  0  0  0
  -29.7442  -11.7530   17.4386 H   0  0  0  0  0  0
  -29.6319  -13.4658   17.7516 H   0  0  0  0  0  0
  -27.8564  -11.2568   18.8562 H   0  0  0  0  0  0
  -27.3536  -12.5378   17.7860 H   0  0  0  0  0  0
  -27.6353  -14.1938   19.4742 H   0  0  0  0  0  0
  -28.6834  -12.0361   21.3927 H   0  0  0  0  0  0
  -28.4508  -13.7098   21.8153 H   0  0  0  0  0  0
  -25.2693   -9.5688   22.4787 H   0  0  0  0  0  0
  -23.9984   -7.4601   22.7462 H   0  0  0  0  0  0
  -21.0811   -8.8711   19.8955 H   0  0  0  0  0  0
  -22.3611  -10.9651   19.6188 H   0  0  0  0  0  0
  -21.1977   -7.6128   23.9714 H   0  0  0  0  0  0
  -21.1478   -6.0507   25.9085 H   0  0  0  0  0  0
  -22.0611   -2.7599   23.2844 H   0  0  0  0  0  0
  -22.4010  -11.9915   22.4853 H   0  0  0  0  0  0
  -21.1064  -13.1318   22.2614 H   0  0  0  0  0  0
  -24.6417  -15.8204   20.4869 H   0  0  0  0  0  0
  -26.2513  -15.6162   20.0216 H   0  0  0  0  0  0
  -26.7107  -32.5545   23.1157 H   0  0  0  0  0  0
  -25.0057  -33.9772   25.0482 H   0  0  0  0  0  0
  -22.6912  -31.3084   21.4095 H   0  0  0  0  0  0
  -23.3729  -35.9654   23.3372 H   0  0  0  0  0  0
  -24.3563  -36.8837   22.2039 H   0  0  0  0  0  0
  -23.7261  -37.6543   23.6604 H   0  0  0  0  0  0
  -26.0397  -31.6021   20.5911 H   0  0  0  0  0  0
  -26.8188  -30.8908   21.9763 H   0  0  0  0  0  0
  -28.1021  -29.1157   21.1515 H   0  0  0  0  0  0
  -26.0663  -25.9777   19.0005 H   0  0  0  0  0  0
  -23.9826  -27.2904   19.0332 H   0  0  0  0  0  0
  -23.7130  -30.5929   19.4030 H   0  0  0  0  0  0
  -22.7338  -29.2350   19.8734 H   0  0  0  0  0  0
  -25.1287  -36.1981   25.0839 H   0  0  0  0  0  0
  -20.9952  -28.3241   24.1436 H   0  0  0  0  0  0
  -20.5678  -26.2284   23.3600 H   0  0  0  0  0  0
  -21.6629  -26.7469   22.1192 H   0  0  0  0  0  0
  -19.6896  -25.6317   21.1230 H   0  0  0  0  0  0
  -19.6663  -27.3233   20.6764 H   0  0  0  0  0  0
  -17.4174  -26.6676   21.4048 H   0  0  0  0  0  0
  -18.0328  -26.0076   22.9042 H   0  0  0  0  0  0
  -19.7926  -30.7263   24.2298 H   0  0  0  0  0  0
  -17.5015  -31.6281   24.5174 H   0  0  0  0  0  0
  -15.5346  -30.3023   23.7646 H   0  0  0  0  0  0
  -15.8654  -28.0852   22.7063 H   0  0  0  0  0  0
  -24.5889  -30.7097   25.7805 H   0  0  0  0  0  0
  -24.9007  -32.2859   26.4992 H   0  0  0  0  0  0
  -25.8117  -30.8797   27.0189 H   0  0  0  0  0  0
  -26.2812  -29.6792   24.1174 H   0  0  0  0  0  0
  -27.4113  -29.7278   25.4512 H   0  0  0  0  0  0
  -27.8629  -30.4352   23.9174 H   0  0  0  0  0  0
  -27.2704  -33.3606   26.2051 H   0  0  0  0  0  0
  -28.3860  -32.6855   25.0269 H   0  0  0  0  0  0
  -28.0747  -31.8418   26.5357 H   0  0  0  0  0  0
  -28.2649  -38.0048   24.7458 H   0  0  0  0  0  0
  -28.0995  -36.2584   24.6414 H   0  0  0  0  0  0
  -27.2275  -37.1591   25.8887 H   0  0  0  0  0  0
  -20.9296  -29.8754   21.6948 H   0  0  0  0  0  0
  -26.0196  -38.2873   24.1367 H   0  0  0  0  0  0
  -31.4127  -19.7631   21.6785 H   0  0  0  0  0  0
  -30.3864  -16.7174   22.7575 H   0  0  0  0  0  0
  -31.8188  -16.5760   21.7528 H   0  0  0  0  0  0
  -29.1303  -15.8203   19.0476 H   0  0  0  0  0  0
  -28.0648  -16.0963   20.4476 H   0  0  0  0  0  0
  -30.8610  -23.5879   18.6984 H   0  0  0  0  0  0
  -30.9284  -24.4436   20.2047 H   0  0  0  0  0  0
  -28.2432  -23.7148   18.9417 H   0  0  0  0  0  0
  -29.1129  -25.1016   18.3867 H   0  0  0  0  0  0
  -28.8655  -25.1373   21.3312 H   0  0  0  0  0  0
  -27.3187  -24.9700   20.5883 H   0  0  0  0  0  0
  -30.1427  -21.4903   18.6043 H   0  0  0  0  0  0
  1 25  1  0  0  0
  1 30  2  0  0  0
  1 81  1  0  0  0
  2  3  1  0  0  0
  2 25  1  0  0  0
  2 85  1  0  0  0
  2 86  1  0  0  0
  3  4  1  0  0  0
  3 87  1  0  0  0
  3 88  1  0  0  0
  4  5  1  0  0  0
  4 89  1  0  0  0
  4 90  1  0  0  0
  5  6  1  0  0  0
  5 26  1  0  0  0
  5 91  1  0  0  0
  6 25  1  0  0  0
  6 92  1  0  0  0
  6 93  1  0  0  0
  7  8  2  0  0  0
  7 26  1  0  0  0
  7 29  1  0  0  0
  8  9  1  0  0  0
  8 22  1  0  0  0
  9 10  1  0  0  0
  9 27  2  0  0  0
 10 11  2  0  0  0
 10 15  1  0  0  0
 11 12  1  0  0  0
 11 94  1  0  0  0
 12 13  2  0  0  0
 12 95  1  0  0  0
 13 14  1  0  0  0
 13 31  1  0  0  0
 14 15  2  0  0  0
 14 96  1  0  0  0
 15 97  1  0  0  0
 16 17  2  0  0  0
 16 21  1  0  0  0
 16 31  1  0  0  0
 17 18  1  0  0  0
 17 98  1  0  0  0
 18 19  2  0  0  0
 18 99  1  0  0  0
 19 20  1  0  0  0
 19 24  1  0  0  0
 20 21  2  0  0  0
 20100  1  0  0  0
 21 23  1  0  0  0
 22 28  1  0  0  0
 22 32  2  0  0  0
 26 27  1  0  0  0
 28101  1  0  0  0
 28102  1  0  0  0
 29103  1  0  0  0
 29104  1  0  0  0
 33 34  1  0  0  0
 33 66  1  0  0  0
 33 70  2  0  0  0
 34 36  1  0  0  0
 34 59  1  0  0  0
 34105  1  0  0  0
 35 44  2  0  0  0
 35 45  1  0  0  0
 35 68  1  0  0  0
 36 56  1  0  0  0
 36106  1  0  0  0
 37 39  1  0  0  0
 37 47  1  0  0  0
 37 66  1  0  0  0
 37107  1  0  0  0
 38 43  2  0  0  0
 38 46  1  0  0  0
 38 47  1  0  0  0
 39 64  1  0  0  0
 39 67  2  0  0  0
 40 52  1  0  0  0
 40 53  2  0  0  0
 40 58  1  0  0  0
 41108  1  0  0  0
 41109  1  0  0  0
 41110  1  0  0  0
 41 48  1  0  0  0
 42 43  1  0  0  0
 42 66  1  0  0  0
 42111  1  0  0  0
 42112  1  0  0  0
 43 44  1  0  0  0
 44113  1  0  0  0
 45 46  2  0  0  0
 45114  1  0  0  0
 46115  1  0  0  0
 47116  1  0  0  0
 47117  1  0  0  0
 48 56  1  0  0  0
 48 65  1  0  0  0
 48118  1  0  0  0
 49 50  1  0  0  0
 49 53  1  0  0  0
 49 64  1  0  0  0
 49119  1  0  0  0
 50 51  1  0  0  0
 50120  1  0  0  0
 50121  1  0  0  0
 51 52  1  0  0  0
 51122  1  0  0  0
 51123  1  0  0  0
 52124  1  0  0  0
 52125  1  0  0  0
 53 54  1  0  0  0
 54 55  2  0  0  0
 54126  1  0  0  0
 55 57  1  0  0  0
 55127  1  0  0  0
 56 69  2  0  0  0
 57 58  2  0  0  0
 57128  1  0  0  0
 58129  1  0  0  0
 59 60  1  0  0  0
 59 61  1  0  0  0
 59 62  1  0  0  0
 60130  1  0  0  0
 60131  1  0  0  0
 60132  1  0  0  0
 61133  1  0  0  0
 61134  1  0  0  0
 61135  1  0  0  0
 62136  1  0  0  0
 62137  1  0  0  0
 62138  1  0  0  0
 63 65  1  0  0  0
 63139  1  0  0  0
 63140  1  0  0  0
 63141  1  0  0  0
 64142  1  0  0  0
 65143  1  0  0  0
 68 80  1  0  0  0
 71 72  1  0  0  0
 71 74  2  0  0  0
 71144  1  0  0  0
 72 73  2  0  0  0
 72 76  1  0  0  0
 73 77  1  0  0  0
 73 84  1  0  0  0
 74 82  1  0  0  0
 74 84  1  0  0  0
 75 78  1  0  0  0
 75 82  1  0  0  0
 75 83  2  0  0  0
 76 81  1  0  0  0
 76145  1  0  0  0
 76146  1  0  0  0
 77 81  1  0  0  0
 77147  1  0  0  0
 77148  1  0  0  0
 78 79  1  0  0  0
 78149  1  0  0  0
 78150  1  0  0  0
 79 80  1  0  0  0
 79151  1  0  0  0
 79152  1  0  0  0
 80153  1  0  0  0
 80154  1  0  0  0
 82155  1  0  0  0
M  ISO  4   1 100  68 101  80 101  81 100
M  END
> <chiral flag>
0

> <version>
0

> <s_m_source_file>
/data/baiqing/PycharmProjects/Reinvent-master-3.2/result/LINK_invent/BTK/process_docking_weight1_custom_product_contain_oxygen_bond_distance_aromatic_linkinvent_7_9_3/rearranged_h_0149.sdf

> <i_m_source_file_index>
43

> <r_mmod_Potential_Energy-OPLS-2005>
60.321949005127

> <r_mmod_Stretch_Energy-OPLS-2005>
42.8581352233887

> <r_mmod_Bend_Energy-OPLS-2005>
179.204055786133

> <r_mmod_Torsional_Energy-OPLS-2005>
297.132171630859

> <r_mmod_Improper_Torsional_Energy-OPLS-2005>
7.74411153793335

> <r_mmod_Van_der_Waal_Energy-OPLS-2005>
128.886184692383

> <r_mmod_Electrostatic_Energy-OPLS-2005>
-386.411163330078

> <r_mmod_Solvation_Energy-OPLS-2005>
-227.837875366211

> <b_mmod_Minimization_Converged-OPLS-2005>
0

> <r_mmod_RMS_Derivative-OPLS-2005>
1.79063475131989

$$$$
43
                    3D
 Structure written by MMmdl.
156165  0  0  1  0            999 V2000
  -30.5570  -14.7778   20.4648 C   0  0  0  0  0  0
  -30.4481  -12.4759   19.4730 C   0  0  0  0  0  0
  -29.5151  -12.5138   18.2397 C   0  0  0  0  0  0
  -28.0419  -12.3258   18.6544 C   0  0  0  0  0  0
  -27.6442  -13.2237   19.8548 C   0  0  2  0  0  0
  -28.6892  -13.1386   20.9898 C   0  0  0  0  0  0
  -25.2529  -13.8174   20.5704 C   0  0  0  0  0  0
  -24.1817  -13.0437   20.9239 C   0  0  0  0  0  0
  -24.6390  -11.6911   20.8762 C   0  0  0  0  0  0
  -23.9057  -10.4293   21.0420 C   0  0  0  0  0  0
  -24.3607   -9.4207   21.9192 C   0  0  0  0  0  0
  -23.6292   -8.2236   22.0751 C   0  0  0  0  0  0
  -22.4270   -8.0278   21.3545 C   0  0  0  0  0  0
  -21.9909   -9.0252   20.4645 C   0  0  0  0  0  0
  -22.7234  -10.2137   20.3065 C   0  0  0  0  0  0
  -21.6849   -6.0742   22.5285 C   0  0  0  0  0  0
  -21.4009   -6.5645   23.8221 C   0  0  0  0  0  0
  -21.3660   -5.6795   24.9184 C   0  0  0  0  0  0
  -21.6043   -4.3056   24.7229 C   0  0  0  0  0  0
  -21.8818   -3.8156   23.4347 C   0  0  0  0  0  0
  -21.9195   -4.6974   22.3407 C   0  0  0  0  0  0
  -22.7842  -13.5230   21.1906 C   0  0  0  0  0  0
  -22.1661   -4.2162   21.0982 F   0  0  0  0  0  0
  -21.5636   -3.4537   25.7736 F   0  0  0  0  0  0
  -29.9899  -13.5197   20.4190 N   0  0  0  0  0  0
  -26.2939  -12.9361   20.3287 N   0  0  0  0  0  0
  -25.9314  -11.6513   20.5757 N   0  0  0  0  0  0
  -22.0470  -12.8206   22.0434 N   0  0  0  0  0  0
  -25.4241  -15.1895   20.4102 N   0  0  0  0  0  0
  -31.7381  -14.9278   20.1313 O   0  0  0  0  0  0
  -21.6642   -6.8874   21.4237 O   0  0  0  0  0  0
  -22.3530  -14.5545   20.6767 O   0  0  0  0  0  0
  -24.6324  -31.8536   23.1950 C   0  0  0  0  0  0
  -25.9147  -32.4737   23.8308 C   0  0  1  0  0  0
  -27.2270  -27.2416   20.1190 C   0  0  0  0  0  0
  -25.5952  -33.8542   24.2240 N   0  0  0  0  0  0
  -23.4306  -30.4724   21.5403 C   0  0  2  0  0  0
  -24.8778  -28.9163   20.1100 C   0  0  0  0  0  0
  -22.7514  -29.4581   22.4919 C   0  0  0  0  0  0
  -18.0296  -28.1384   22.8484 C   0  0  0  0  0  0
  -24.1500  -36.7265   23.2640 C   0  0  0  0  0  0
  -25.9776  -30.7579   21.3783 C   0  0  0  0  0  0
  -26.0493  -29.3785   20.7205 C   0  0  0  0  0  0
  -27.2208  -28.5521   20.7167 C   0  0  0  0  0  0
  -26.0261  -26.8514   19.4833 C   0  0  0  0  0  0
  -24.8728  -27.6615   19.4827 C   0  0  0  0  0  0
  -23.6475  -29.8025   20.1581 C   0  0  0  0  0  0
  -25.4129  -36.3053   24.0320 C   0  0  1  0  0  0
  -20.5899  -28.3690   23.1273 C   0  0  2  0  0  0
  -20.6787  -26.9408   22.5408 C   0  0  0  0  0  0
  -19.5766  -26.6385   21.5210 C   0  0  0  0  0  0
  -18.1941  -26.7928   22.1618 C   0  0  0  0  0  0
  -19.1548  -28.8860   23.2875 C   0  0  0  0  0  0
  -18.9466  -30.1460   23.8890 C   0  0  0  0  0  0
  -17.6463  -30.6587   24.0552 C   0  0  0  0  0  0
  -25.9066  -34.9427   23.5081 C   0  0  0  0  0  0
  -16.5356  -29.9071   23.6336 C   0  0  0  0  0  0
  -16.7280  -28.6490   23.0358 C   0  0  0  0  0  0
  -26.4506  -31.6569   25.0707 C   0  0  0  0  0  0
  -25.3708  -31.3717   26.1408 C   0  0  0  0  0  0
  -27.0360  -30.2984   24.6208 C   0  0  0  0  0  0
  -27.6068  -32.4306   25.7474 C   0  0  0  0  0  0
  -27.5580  -37.1787   24.8464 C   0  0  0  0  0  0
  -21.4221  -29.3024   22.3654 N   0  0  0  0  0  0
  -26.4300  -37.3749   23.9399 N   0  0  0  0  0  0
  -24.6996  -31.0470   22.0935 N   0  0  0  0  0  0
  -23.4206  -28.8137   23.3040 O   0  0  0  0  0  0
  -28.3442  -26.3677   20.1921 O   0  0  0  0  0  0
  -26.5631  -34.8909   22.4643 O   0  0  0  0  0  0
  -23.5472  -32.1369   23.7230 O   0  0  0  0  0  0
  -30.2847  -19.5781   20.3858 C   0  0  0  0  0  0
  -28.9557  -19.8053   20.0511 C   0  0  0  0  0  0
  -29.6589  -17.3038   20.4907 C   0  0  0  0  0  0
  -28.1322  -20.9617   19.5008 C   0  0  0  0  0  0
  -26.1318  -23.4407   21.0681 C   0  0  0  0  0  0
  -27.5093  -23.7437   21.6720 C   0  0  0  0  0  0
  -26.4177  -22.6445   19.7802 C   0  0  0  0  0  0
  -28.4633  -23.5679   20.4910 C   0  0  2  0  0  0
  -28.3979  -24.9643   19.6190 C   0  0  0  0  0  0
  -30.6643  -18.2007   20.6078 N   0  0  0  0  0  0
  -27.8655  -22.3236   19.8124 N   0  0  0  0  0  0
  -29.6884  -15.8320   20.7224 N   0  0  0  0  0  0
  -27.4388  -20.5348   18.4243 N   0  3  0  0  0  0
  -28.1476  -18.2018   20.1429 S   0  0  0  0  0  0
  -31.4834  -12.6307   19.1654 H   0  0  0  0  0  0
  -30.4223  -11.4941   19.9478 H   0  0  0  0  0  0
  -29.8024  -11.7398   17.5271 H   0  0  0  0  0  0
  -29.6312  -13.4660   17.7197 H   0  0  0  0  0  0
  -27.9063  -11.2769   18.9219 H   0  0  0  0  0  0
  -27.3817  -12.5110   17.8062 H   0  0  0  0  0  0
  -27.6424  -14.2455   19.4764 H   0  0  0  0  0  0
  -28.7317  -12.1277   21.3976 H   0  0  0  0  0  0
  -28.4133  -13.7864   21.8231 H   0  0  0  0  0  0
  -25.2745   -9.5696   22.4777 H   0  0  0  0  0  0
  -24.0015   -7.4622   22.7457 H   0  0  0  0  0  0
  -21.0852   -8.8774   19.8931 H   0  0  0  0  0  0
  -22.3695  -10.9686   19.6185 H   0  0  0  0  0  0
  -21.1980   -7.6152   23.9724 H   0  0  0  0  0  0
  -21.1489   -6.0527   25.9087 H   0  0  0  0  0  0
  -22.0593   -2.7618   23.2851 H   0  0  0  0  0  0
  -22.4075  -11.9857   22.4818 H   0  0  0  0  0  0
  -21.1091  -13.1249   22.2634 H   0  0  0  0  0  0
  -24.6505  -15.8388   20.5046 H   0  0  0  0  0  0
  -26.2488  -15.6163   20.0115 H   0  0  0  0  0  0
  -26.7208  -32.5378   23.1046 H   0  0  0  0  0  0
  -25.0122  -33.9682   25.0400 H   0  0  0  0  0  0
  -22.7281  -31.2946   21.3916 H   0  0  0  0  0  0
  -23.3768  -35.9589   23.3297 H   0  0  0  0  0  0
  -24.3589  -36.8894   22.2055 H   0  0  0  0  0  0
  -23.7254  -37.6465   23.6665 H   0  0  0  0  0  0
  -26.1235  -31.5184   20.6097 H   0  0  0  0  0  0
  -26.8523  -30.8040   22.0151 H   0  0  0  0  0  0
  -28.1176  -28.9026   21.2082 H   0  0  0  0  0  0
  -25.9300  -25.8941   18.9996 H   0  0  0  0  0  0
  -23.9741  -27.3016   19.0011 H   0  0  0  0  0  0
  -23.7671  -30.5758   19.3987 H   0  0  0  0  0  0
  -22.7663  -29.2316   19.8582 H   0  0  0  0  0  0
  -25.1314  -36.1894   25.0810 H   0  0  0  0  0  0
  -20.9995  -28.3267   24.1395 H   0  0  0  0  0  0
  -20.5706  -26.2289   23.3604 H   0  0  0  0  0  0
  -21.6653  -26.7447   22.1190 H   0  0  0  0  0  0
  -19.6931  -25.6298   21.1243 H   0  0  0  0  0  0
  -19.6712  -27.3191   20.6737 H   0  0  0  0  0  0
  -17.4214  -26.6680   21.4012 H   0  0  0  0  0  0
  -18.0336  -26.0064   22.9011 H   0  0  0  0  0  0
  -19.7938  -30.7281   24.2256 H   0  0  0  0  0  0
  -17.5006  -31.6262   24.5152 H   0  0  0  0  0  0
  -15.5351  -30.2960   23.7666 H   0  0  0  0  0  0
  -15.8681  -28.0796   22.7088 H   0  0  0  0  0  0
  -24.5917  -30.7036   25.7714 H   0  0  0  0  0  0
  -24.8850  -32.2877   26.4780 H   0  0  0  0  0  0
  -25.8003  -30.8925   27.0215 H   0  0  0  0  0  0
  -26.2949  -29.6726   24.1224 H   0  0  0  0  0  0
  -27.4032  -29.7252   25.4731 H   0  0  0  0  0  0
  -27.8824  -30.4253   23.9456 H   0  0  0  0  0  0
  -27.2706  -33.3635   26.2009 H   0  0  0  0  0  0
  -28.3896  -32.6818   25.0303 H   0  0  0  0  0  0
  -28.0714  -31.8442   26.5413 H   0  0  0  0  0  0
  -28.2593  -38.0089   24.7520 H   0  0  0  0  0  0
  -28.1086  -36.2620   24.6293 H   0  0  0  0  0  0
  -27.2292  -37.1441   25.8866 H   0  0  0  0  0  0
  -20.9406  -29.8724   21.6837 H   0  0  0  0  0  0
  -26.0178  -38.2821   24.1394 H   0  0  0  0  0  0
  -31.0646  -20.3264   20.4059 H   0  0  0  0  0  0
  -25.6003  -24.3623   20.8301 H   0  0  0  0  0  0
  -25.5109  -22.8772   21.7658 H   0  0  0  0  0  0
  -27.7582  -23.0321   22.4597 H   0  0  0  0  0  0
  -27.5506  -24.7417   22.1112 H   0  0  0  0  0  0
  -26.1679  -23.2096   18.8820 H   0  0  0  0  0  0
  -25.7999  -21.7465   19.7858 H   0  0  0  0  0  0
  -29.4761  -23.3770   20.8434 H   0  0  0  0  0  0
  -27.6933  -24.8576   18.7999 H   0  0  0  0  0  0
  -29.3451  -24.9769   19.0794 H   0  0  0  0  0  0
  -28.7781  -15.4725   20.9605 H   0  0  0  0  0  0
  -27.5167  -19.5768   18.1184 H   0  0  0  0  0  0
  -26.9166  -21.1693   17.8388 H   0  0  0  0  0  0
  1 25  1  0  0  0
  1 30  2  0  0  0
  1 82  1  0  0  0
  2  3  1  0  0  0
  2 25  1  0  0  0
  2 85  1  0  0  0
  2 86  1  0  0  0
  3  4  1  0  0  0
  3 87  1  0  0  0
  3 88  1  0  0  0
  4  5  1  0  0  0
  4 89  1  0  0  0
  4 90  1  0  0  0
  5  6  1  0  0  0
  5 26  1  0  0  0
  5 91  1  0  0  0
  6 25  1  0  0  0
  6 92  1  0  0  0
  6 93  1  0  0  0
  7  8  2  0  0  0
  7 26  1  0  0  0
  7 29  1  0  0  0
  8  9  1  0  0  0
  8 22  1  0  0  0
  9 10  1  0  0  0
  9 27  2  0  0  0
 10 11  2  0  0  0
 10 15  1  0  0  0
 11 12  1  0  0  0
 11 94  1  0  0  0
 12 13  2  0  0  0
 12 95  1  0  0  0
 13 14  1  0  0  0
 13 31  1  0  0  0
 14 15  2  0  0  0
 14 96  1  0  0  0
 15 97  1  0  0  0
 16 17  2  0  0  0
 16 21  1  0  0  0
 16 31  1  0  0  0
 17 18  1  0  0  0
 17 98  1  0  0  0
 18 19  2  0  0  0
 18 99  1  0  0  0
 19 20  1  0  0  0
 19 24  1  0  0  0
 20 21  2  0  0  0
 20100  1  0  0  0
 21 23  1  0  0  0
 22 28  1  0  0  0
 22 32  2  0  0  0
 26 27  1  0  0  0
 28101  1  0  0  0
 28102  1  0  0  0
 29103  1  0  0  0
 29104  1  0  0  0
 33 34  1  0  0  0
 33 66  1  0  0  0
 33 70  2  0  0  0
 34 36  1  0  0  0
 34 59  1  0  0  0
 34105  1  0  0  0
 35 44  2  0  0  0
 35 45  1  0  0  0
 35 68  1  0  0  0
 36 56  1  0  0  0
 36106  1  0  0  0
 37 39  1  0  0  0
 37 47  1  0  0  0
 37 66  1  0  0  0
 37107  1  0  0  0
 38 43  2  0  0  0
 38 46  1  0  0  0
 38 47  1  0  0  0
 39 64  1  0  0  0
 39 67  2  0  0  0
 40 52  1  0  0  0
 40 53  2  0  0  0
 40 58  1  0  0  0
 41108  1  0  0  0
 41109  1  0  0  0
 41110  1  0  0  0
 41 48  1  0  0  0
 42 43  1  0  0  0
 42 66  1  0  0  0
 42111  1  0  0  0
 42112  1  0  0  0
 43 44  1  0  0  0
 44113  1  0  0  0
 45 46  2  0  0  0
 45114  1  0  0  0
 46115  1  0  0  0
 47116  1  0  0  0
 47117  1  0  0  0
 48 56  1  0  0  0
 48 65  1  0  0  0
 48118  1  0  0  0
 49 50  1  0  0  0
 49 53  1  0  0  0
 49 64  1  0  0  0
 49119  1  0  0  0
 50 51  1  0  0  0
 50120  1  0  0  0
 50121  1  0  0  0
 51 52  1  0  0  0
 51122  1  0  0  0
 51123  1  0  0  0
 52124  1  0  0  0
 52125  1  0  0  0
 53 54  1  0  0  0
 54 55  2  0  0  0
 54126  1  0  0  0
 55 57  1  0  0  0
 55127  1  0  0  0
 56 69  2  0  0  0
 57 58  2  0  0  0
 57128  1  0  0  0
 58129  1  0  0  0
 59 60  1  0  0  0
 59 61  1  0  0  0
 59 62  1  0  0  0
 60130  1  0  0  0
 60131  1  0  0  0
 60132  1  0  0  0
 61133  1  0  0  0
 61134  1  0  0  0
 61135  1  0  0  0
 62136  1  0  0  0
 62137  1  0  0  0
 62138  1  0  0  0
 63 65  1  0  0  0
 63139  1  0  0  0
 63140  1  0  0  0
 63141  1  0  0  0
 64142  1  0  0  0
 65143  1  0  0  0
 68 79  1  0  0  0
 71 72  2  0  0  0
 71 80  1  0  0  0
 71144  1  0  0  0
 72 74  1  0  0  0
 72 84  1  0  0  0
 73 80  2  0  0  0
 73 82  1  0  0  0
 73 84  1  0  0  0
 74 81  1  0  0  0
 74 83  2  0  0  0
 75 76  1  0  0  0
 75 77  1  0  0  0
 75145  1  0  0  0
 75146  1  0  0  0
 76 78  1  0  0  0
 76147  1  0  0  0
 76148  1  0  0  0
 77 81  1  0  0  0
 77149  1  0  0  0
 77150  1  0  0  0
 78 79  1  0  0  0
 78 81  1  0  0  0
 78151  1  0  0  0
 79152  1  0  0  0
 79153  1  0  0  0
 82154  1  0  0  0
 83155  1  0  0  0
 83156  1  0  0  0
M  CHG  1  83   1
M  ISO  4   1 100  68 101  79 101  82 100
M  END
> <chiral flag>
0

> <version>
0

> <s_m_source_file>
/data/baiqing/PycharmProjects/Reinvent-master-3.2/result/LINK_invent/BTK/process_docking_weight1_custom_product_contain_oxygen_bond_distance_aromatic_linkinvent_7_9_3/rearranged_h_0149.sdf

> <i_m_source_file_index>
44

> <r_mmod_Potential_Energy-OPLS-2005>
295.032775878906

> <r_mmod_Stretch_Energy-OPLS-2005>
138.63166809082

> <r_mmod_Bend_Energy-OPLS-2005>
317.5673828125

> <r_mmod_Torsional_Energy-OPLS-2005>
334.013397216797

> <r_mmod_Improper_Torsional_Energy-OPLS-2005>
6.93514108657837

> <r_mmod_Van_der_Waal_Energy-OPLS-2005>
124.667297363281

> <r_mmod_Electrostatic_Energy-OPLS-2005>
-242.170501708984

> <r_mmod_Solvation_Energy-OPLS-2005>
-480.873199462891

> <b_mmod_Minimization_Converged-OPLS-2005>
0

> <r_mmod_RMS_Derivative-OPLS-2005>
1.48298799991608

$$$$
44
                    3D
 Structure written by MMmdl.
160168  0  0  1  0            999 V2000
  -30.5853  -14.5723   20.5720 C   0  0  0  0  0  0
  -30.4477  -12.3699   19.4118 C   0  0  0  0  0  0
  -29.4981  -12.4919   18.1964 C   0  0  0  0  0  0
  -28.0174  -12.3417   18.6077 C   0  0  0  0  0  0
  -27.6546  -13.1871   19.8560 C   0  0  2  0  0  0
  -28.6982  -12.9631   20.9719 C   0  0  0  0  0  0
  -25.2584  -13.8067   20.5529 C   0  0  0  0  0  0
  -24.1842  -13.0399   20.9156 C   0  0  0  0  0  0
  -24.6384  -11.6862   20.8756 C   0  0  0  0  0  0
  -23.9027  -10.4275   21.0433 C   0  0  0  0  0  0
  -24.3587   -9.4199   21.9216 C   0  0  0  0  0  0
  -23.6277   -8.2232   22.0776 C   0  0  0  0  0  0
  -22.4269   -8.0274   21.3553 C   0  0  0  0  0  0
  -21.9886   -9.0241   20.4659 C   0  0  0  0  0  0
  -22.7198  -10.2130   20.3069 C   0  0  0  0  0  0
  -21.6845   -6.0724   22.5282 C   0  0  0  0  0  0
  -21.4012   -6.5641   23.8207 C   0  0  0  0  0  0
  -21.3650   -5.6800   24.9178 C   0  0  0  0  0  0
  -21.6052   -4.3055   24.7232 C   0  0  0  0  0  0
  -21.8814   -3.8144   23.4347 C   0  0  0  0  0  0
  -21.9198   -4.6962   22.3411 C   0  0  0  0  0  0
  -22.7881  -13.5254   21.1816 C   0  0  0  0  0  0
  -22.1666   -4.2145   21.0983 F   0  0  0  0  0  0
  -21.5626   -3.4552   25.7744 F   0  0  0  0  0  0
  -30.0105  -13.3441   20.4248 N   0  0  0  0  0  0
  -26.2993  -12.9206   20.3237 N   0  0  0  0  0  0
  -25.9302  -11.6393   20.5751 N   0  0  0  0  0  0
  -22.0513  -12.8274   22.0365 N   0  0  0  0  0  0
  -25.4297  -15.1750   20.3675 N   0  0  0  0  0  0
  -31.7377  -14.8204   20.1956 O   0  0  0  0  0  0
  -21.6638   -6.8868   21.4239 O   0  0  0  0  0  0
  -22.3599  -14.5589   20.6691 O   0  0  0  0  0  0
  -24.6205  -31.8615   23.2044 C   0  0  0  0  0  0
  -25.9046  -32.4783   23.8402 C   0  0  1  0  0  0
  -27.2289  -27.3646   20.1097 C   0  0  0  0  0  0
  -25.5917  -33.8586   24.2337 N   0  0  0  0  0  0
  -23.4140  -30.4823   21.5480 C   0  0  2  0  0  0
  -24.8604  -28.9314   20.1227 C   0  0  0  0  0  0
  -22.7489  -29.4595   22.4969 C   0  0  0  0  0  0
  -18.0288  -28.1365   22.8456 C   0  0  0  0  0  0
  -24.1485  -36.7307   23.2657 C   0  0  0  0  0  0
  -25.9492  -30.8044   21.3647 C   0  0  0  0  0  0
  -26.0256  -29.4291   20.7218 C   0  0  0  0  0  0
  -27.2176  -28.6548   20.7031 C   0  0  0  0  0  0
  -26.0426  -26.8920   19.5144 C   0  0  0  0  0  0
  -24.8681  -27.6658   19.5133 C   0  0  0  0  0  0
  -23.6314  -29.8117   20.1667 C   0  0  0  0  0  0
  -25.4090  -36.3074   24.0358 C   0  0  1  0  0  0
  -20.5866  -28.3644   23.1292 C   0  0  2  0  0  0
  -20.6762  -26.9377   22.5372 C   0  0  0  0  0  0
  -19.5755  -26.6357   21.5175 C   0  0  0  0  0  0
  -18.1936  -26.7899   22.1590 C   0  0  0  0  0  0
  -19.1535  -28.8838   23.2860 C   0  0  0  0  0  0
  -18.9486  -30.1446   23.8862 C   0  0  0  0  0  0
  -17.6479  -30.6565   24.0551 C   0  0  0  0  0  0
  -25.9034  -34.9435   23.5124 C   0  0  0  0  0  0
  -16.5371  -29.9069   23.6332 C   0  0  0  0  0  0
  -16.7278  -28.6507   23.0301 C   0  0  0  0  0  0
  -26.4431  -31.6608   25.0777 C   0  0  0  0  0  0
  -25.3672  -31.3758   26.1542 C   0  0  0  0  0  0
  -27.0285  -30.3072   24.6143 C   0  0  0  0  0  0
  -27.6047  -32.4313   25.7497 C   0  0  0  0  0  0
  -27.5559  -37.1797   24.8470 C   0  0  0  0  0  0
  -21.4205  -29.3012   22.3745 N   0  0  0  0  0  0
  -26.4268  -37.3762   23.9430 N   0  0  0  0  0  0
  -24.6806  -31.0654   22.0976 N   0  0  0  0  0  0
  -23.4265  -28.8096   23.2965 O   0  0  0  0  0  0
  -28.3811  -26.5929   20.0735 O   0  0  0  0  0  0
  -26.5580  -34.8901   22.4675 O   0  0  0  0  0  0
  -23.5370  -32.1373   23.7388 O   0  0  0  0  0  0
  -29.5941  -19.4665   22.6302 C   0  0  0  0  0  0
  -29.8357  -18.0187   20.6881 C   0  0  0  0  0  0
  -29.6915  -17.0299   22.9371 C   0  0  0  0  0  0
  -29.6821  -19.3353   21.2274 C   0  0  0  0  0  0
  -29.5967  -18.3468   23.4833 C   0  0  0  0  0  0
  -29.8222  -16.8528   21.5222 C   0  0  0  0  0  0
  -29.5673  -15.8441   23.8417 C   0  0  0  0  0  0
  -28.4002  -24.0853   19.6234 C   0  0  0  0  0  0
  -29.0280  -21.7132   20.6220 C   0  0  0  0  0  0
  -30.7544  -15.5375   24.7459 C   0  0  0  0  0  0
  -29.4606  -22.9559   19.7923 C   0  0  0  0  0  0
  -28.3295  -25.2533   20.6529 C   0  0  0  0  0  0
  -29.4688  -18.6083   24.8547 N   0  0  0  0  0  0
  -29.6693  -20.5263   20.3971 N   0  0  0  0  0  0
  -29.6891  -15.5297   20.9393 N   0  0  0  0  0  0
  -28.5730  -15.1147   23.8807 O   0  0  0  0  0  0
  -27.6286  -24.0528   18.6567 O   0  0  0  0  0  0
  -28.1226  -21.8269   21.4536 O   0  0  0  0  0  0
  -31.4817  -12.5372   19.1044 H   0  0  0  0  0  0
  -30.4130  -11.3623   19.8251 H   0  0  0  0  0  0
  -29.7471  -11.7325   17.4536 H   0  0  0  0  0  0
  -29.6469  -13.4551   17.7070 H   0  0  0  0  0  0
  -27.8367  -11.2860   18.8135 H   0  0  0  0  0  0
  -27.3643  -12.5990   17.7741 H   0  0  0  0  0  0
  -27.6895  -14.2312   19.5475 H   0  0  0  0  0  0
  -28.7116  -11.9139   21.2718 H   0  0  0  0  0  0
  -28.4430  -13.5139   21.8770 H   0  0  0  0  0  0
  -25.2723   -9.5714   22.4796 H   0  0  0  0  0  0
  -23.9995   -7.4628   22.7506 H   0  0  0  0  0  0
  -21.0802   -8.8750   19.8967 H   0  0  0  0  0  0
  -22.3638  -10.9682   19.6188 H   0  0  0  0  0  0
  -21.1993   -7.6151   23.9708 H   0  0  0  0  0  0
  -21.1479   -6.0537   25.9075 H   0  0  0  0  0  0
  -22.0601   -2.7611   23.2858 H   0  0  0  0  0  0
  -22.4098  -11.9917   22.4724 H   0  0  0  0  0  0
  -21.1168  -13.1379   22.2610 H   0  0  0  0  0  0
  -24.6256  -15.7941   20.3520 H   0  0  0  0  0  0
  -26.2348  -15.5668   19.8944 H   0  0  0  0  0  0
  -26.7136  -32.5399   23.1191 H   0  0  0  0  0  0
  -25.0111  -33.9792   25.0520 H   0  0  0  0  0  0
  -22.7052  -31.2991   21.3992 H   0  0  0  0  0  0
  -23.3735  -35.9655   23.3292 H   0  0  0  0  0  0
  -24.3601  -36.8907   22.2075 H   0  0  0  0  0  0
  -23.7225  -37.6523   23.6649 H   0  0  0  0  0  0
  -26.0629  -31.5584   20.5838 H   0  0  0  0  0  0
  -26.8417  -30.8626   21.9777 H   0  0  0  0  0  0
  -28.1219  -29.0312   21.1606 H   0  0  0  0  0  0
  -26.0173  -25.9214   19.0426 H   0  0  0  0  0  0
  -23.9786  -27.2739   19.0407 H   0  0  0  0  0  0
  -23.7589  -30.5918   19.4152 H   0  0  0  0  0  0
  -22.7539  -29.2397   19.8599 H   0  0  0  0  0  0
  -25.1240  -36.1962   25.0855 H   0  0  0  0  0  0
  -20.9921  -28.3152   24.1426 H   0  0  0  0  0  0
  -20.5634  -26.2246   23.3554 H   0  0  0  0  0  0
  -21.6632  -26.7356   22.1182 H   0  0  0  0  0  0
  -19.6926  -25.6283   21.1210 H   0  0  0  0  0  0
  -19.6721  -27.3172   20.6709 H   0  0  0  0  0  0
  -17.4177  -26.6645   21.4015 H   0  0  0  0  0  0
  -18.0362  -26.0052   22.9008 H   0  0  0  0  0  0
  -19.7967  -30.7275   24.2190 H   0  0  0  0  0  0
  -17.5038  -31.6225   24.5173 H   0  0  0  0  0  0
  -15.5372  -30.2952   23.7694 H   0  0  0  0  0  0
  -15.8671  -28.0846   22.6978 H   0  0  0  0  0  0
  -24.5893  -30.7009   25.7903 H   0  0  0  0  0  0
  -24.8793  -32.2920   26.4905 H   0  0  0  0  0  0
  -25.8020  -30.9040   27.0367 H   0  0  0  0  0  0
  -26.2872  -29.6850   24.1116 H   0  0  0  0  0  0
  -27.4021  -29.7269   25.4583 H   0  0  0  0  0  0
  -27.8684  -30.4436   23.9325 H   0  0  0  0  0  0
  -27.2777  -33.3704   26.1993 H   0  0  0  0  0  0
  -28.3894  -32.6727   25.0301 H   0  0  0  0  0  0
  -28.0666  -31.8471   26.5463 H   0  0  0  0  0  0
  -28.2556  -38.0112   24.7487 H   0  0  0  0  0  0
  -28.1069  -36.2637   24.6298 H   0  0  0  0  0  0
  -27.2315  -37.1432   25.8889 H   0  0  0  0  0  0
  -20.9388  -29.8798   21.7022 H   0  0  0  0  0  0
  -26.0162  -38.2848   24.1428 H   0  0  0  0  0  0
  -29.5083  -20.4508   23.0694 H   0  0  0  0  0  0
  -29.9079  -17.8887   19.6171 H   0  0  0  0  0  0
  -31.4678  -16.3599   24.7387 H   0  0  0  0  0  0
  -31.2681  -14.6376   24.4158 H   0  0  0  0  0  0
  -30.4087  -15.3868   25.7701 H   0  0  0  0  0  0
  -30.3502  -23.3843   20.2570 H   0  0  0  0  0  0
  -29.7576  -22.6307   18.7963 H   0  0  0  0  0  0
  -27.4283  -25.1218   21.2500 H   0  0  0  0  0  0
  -29.1635  -25.1563   21.3507 H   0  0  0  0  0  0
  -29.3014  -19.5554   25.1837 H   0  0  0  0  0  0
  -29.1351  -17.8991   25.5011 H   0  0  0  0  0  0
  -30.2521  -20.4898   19.5720 H   0  0  0  0  0  0
  -28.7787  -15.1178   21.0793 H   0  0  0  0  0  0
  1 25  1  0  0  0
  1 30  2  0  0  0
  1 85  1  0  0  0
  2  3  1  0  0  0
  2 25  1  0  0  0
  2 89  1  0  0  0
  2 90  1  0  0  0
  3  4  1  0  0  0
  3 91  1  0  0  0
  3 92  1  0  0  0
  4  5  1  0  0  0
  4 93  1  0  0  0
  4 94  1  0  0  0
  5  6  1  0  0  0
  5 26  1  0  0  0
  5 95  1  0  0  0
  6 25  1  0  0  0
  6 96  1  0  0  0
  6 97  1  0  0  0
  7  8  2  0  0  0
  7 26  1  0  0  0
  7 29  1  0  0  0
  8  9  1  0  0  0
  8 22  1  0  0  0
  9 10  1  0  0  0
  9 27  2  0  0  0
 10 11  2  0  0  0
 10 15  1  0  0  0
 11 12  1  0  0  0
 11 98  1  0  0  0
 12 13  2  0  0  0
 12 99  1  0  0  0
 13 14  1  0  0  0
 13 31  1  0  0  0
 14 15  2  0  0  0
 14100  1  0  0  0
 15101  1  0  0  0
 16 17  2  0  0  0
 16 21  1  0  0  0
 16 31  1  0  0  0
 17 18  1  0  0  0
 17102  1  0  0  0
 18 19  2  0  0  0
 18103  1  0  0  0
 19 20  1  0  0  0
 19 24  1  0  0  0
 20 21  2  0  0  0
 20104  1  0  0  0
 21 23  1  0  0  0
 22 28  1  0  0  0
 22 32  2  0  0  0
 26 27  1  0  0  0
 28105  1  0  0  0
 28106  1  0  0  0
 29107  1  0  0  0
 29108  1  0  0  0
 33 34  1  0  0  0
 33 66  1  0  0  0
 33 70  2  0  0  0
 34 36  1  0  0  0
 34 59  1  0  0  0
 34109  1  0  0  0
 35 44  2  0  0  0
 35 45  1  0  0  0
 35 68  1  0  0  0
 36 56  1  0  0  0
 36110  1  0  0  0
 37 39  1  0  0  0
 37 47  1  0  0  0
 37 66  1  0  0  0
 37111  1  0  0  0
 38 43  2  0  0  0
 38 46  1  0  0  0
 38 47  1  0  0  0
 39 64  1  0  0  0
 39 67  2  0  0  0
 40 52  1  0  0  0
 40 53  2  0  0  0
 40 58  1  0  0  0
 41112  1  0  0  0
 41113  1  0  0  0
 41114  1  0  0  0
 41 48  1  0  0  0
 42 43  1  0  0  0
 42 66  1  0  0  0
 42115  1  0  0  0
 42116  1  0  0  0
 43 44  1  0  0  0
 44117  1  0  0  0
 45 46  2  0  0  0
 45118  1  0  0  0
 46119  1  0  0  0
 47120  1  0  0  0
 47121  1  0  0  0
 48 56  1  0  0  0
 48 65  1  0  0  0
 48122  1  0  0  0
 49 50  1  0  0  0
 49 53  1  0  0  0
 49 64  1  0  0  0
 49123  1  0  0  0
 50 51  1  0  0  0
 50124  1  0  0  0
 50125  1  0  0  0
 51 52  1  0  0  0
 51126  1  0  0  0
 51127  1  0  0  0
 52128  1  0  0  0
 52129  1  0  0  0
 53 54  1  0  0  0
 54 55  2  0  0  0
 54130  1  0  0  0
 55 57  1  0  0  0
 55131  1  0  0  0
 56 69  2  0  0  0
 57 58  2  0  0  0
 57132  1  0  0  0
 58133  1  0  0  0
 59 60  1  0  0  0
 59 61  1  0  0  0
 59 62  1  0  0  0
 60134  1  0  0  0
 60135  1  0  0  0
 60136  1  0  0  0
 61137  1  0  0  0
 61138  1  0  0  0
 61139  1  0  0  0
 62140  1  0  0  0
 62141  1  0  0  0
 62142  1  0  0  0
 63 65  1  0  0  0
 63143  1  0  0  0
 63144  1  0  0  0
 63145  1  0  0  0
 64146  1  0  0  0
 65147  1  0  0  0
 68 82  1  0  0  0
 71 74  2  0  0  0
 71 75  1  0  0  0
 71148  1  0  0  0
 72 74  1  0  0  0
 72 76  2  0  0  0
 72149  1  0  0  0
 73 75  2  0  0  0
 73 76  1  0  0  0
 73 77  1  0  0  0
 74 84  1  0  0  0
 75 83  1  0  0  0
 76 85  1  0  0  0
 77 80  1  0  0  0
 77 86  2  0  0  0
 78 81  1  0  0  0
 78 82  1  0  0  0
 78 87  2  0  0  0
 79 81  1  0  0  0
 79 84  1  0  0  0
 79 88  2  0  0  0
 80150  1  0  0  0
 80151  1  0  0  0
 80152  1  0  0  0
 81153  1  0  0  0
 81154  1  0  0  0
 82155  1  0  0  0
 82156  1  0  0  0
 83157  1  0  0  0
 83158  1  0  0  0
 84159  1  0  0  0
 85160  1  0  0  0
M  ISO  4   1 100  68 101  82 101  85 100
M  END
> <chiral flag>
0

> <version>
0

> <s_m_source_file>
/data/baiqing/PycharmProjects/Reinvent-master-3.2/result/LINK_invent/BTK/process_docking_weight1_custom_product_contain_oxygen_bond_distance_aromatic_linkinvent_7_9_3/rearranged_h_0149.sdf

> <i_m_source_file_index>
45

> <r_mmod_Potential_Energy-OPLS-2005>
208.863357543945

> <r_mmod_Stretch_Energy-OPLS-2005>
60.8314476013184

> <r_mmod_Bend_Energy-OPLS-2005>
126.12882232666

> <r_mmod_Torsional_Energy-OPLS-2005>
341.217651367188

> <r_mmod_Improper_Torsional_Energy-OPLS-2005>
11.3663425445557

> <r_mmod_Van_der_Waal_Energy-OPLS-2005>
144.935424804688

> <r_mmod_Electrostatic_Energy-OPLS-2005>
-254.430313110352

> <r_mmod_Solvation_Energy-OPLS-2005>
-253.23291015625

> <b_mmod_Minimization_Converged-OPLS-2005>
0

> <r_mmod_RMS_Derivative-OPLS-2005>
5.13751220703125

$$$$
45
                    3D
 Structure written by MMmdl.
151159  0  0  1  0            999 V2000
  -30.6486  -14.4881   20.5934 C   0  0  0  0  0  0
  -30.4463  -12.3406   19.3814 C   0  0  0  0  0  0
  -29.4884  -12.5492   18.1890 C   0  0  0  0  0  0
  -28.0085  -12.4065   18.6018 C   0  0  0  0  0  0
  -27.6688  -13.1999   19.8896 C   0  0  2  0  0  0
  -28.7178  -12.9119   20.9851 C   0  0  0  0  0  0
  -25.2615  -13.8135   20.5644 C   0  0  0  0  0  0
  -24.1850  -13.0416   20.9179 C   0  0  0  0  0  0
  -24.6409  -11.6896   20.8761 C   0  0  0  0  0  0
  -23.9058  -10.4290   21.0433 C   0  0  0  0  0  0
  -24.3604   -9.4190   21.9194 C   0  0  0  0  0  0
  -23.6284   -8.2220   22.0755 C   0  0  0  0  0  0
  -22.4256   -8.0283   21.3559 C   0  0  0  0  0  0
  -21.9901   -9.0253   20.4648 C   0  0  0  0  0  0
  -22.7233  -10.2136   20.3071 C   0  0  0  0  0  0
  -21.6847   -6.0732   22.5280 C   0  0  0  0  0  0
  -21.4010   -6.5640   23.8205 C   0  0  0  0  0  0
  -21.3655   -5.6797   24.9177 C   0  0  0  0  0  0
  -21.6042   -4.3052   24.7239 C   0  0  0  0  0  0
  -21.8810   -3.8142   23.4357 C   0  0  0  0  0  0
  -21.9185   -4.6961   22.3414 C   0  0  0  0  0  0
  -22.7873  -13.5236   21.1846 C   0  0  0  0  0  0
  -22.1655   -4.2135   21.0991 F   0  0  0  0  0  0
  -21.5629   -3.4546   25.7756 F   0  0  0  0  0  0
  -30.0484  -13.2724   20.4495 N   0  0  0  0  0  0
  -26.3063  -12.9271   20.3435 N   0  0  0  0  0  0
  -25.9333  -11.6436   20.5762 N   0  0  0  0  0  0
  -22.0499  -12.8246   22.0413 N   0  0  0  0  0  0
  -25.4355  -15.1824   20.3942 N   0  0  0  0  0  0
  -31.7564  -14.7564   20.1180 O   0  0  0  0  0  0
  -21.6627   -6.8876   21.4242 O   0  0  0  0  0  0
  -22.3560  -14.5534   20.6689 O   0  0  0  0  0  0
  -24.6152  -31.8627   23.2055 C   0  0  0  0  0  0
  -25.9041  -32.4775   23.8348 C   0  0  1  0  0  0
  -27.2532  -27.4308   20.0867 C   0  0  0  0  0  0
  -25.5895  -33.8560   24.2273 N   0  0  0  0  0  0
  -23.4026  -30.4881   21.5387 C   0  0  2  0  0  0
  -24.8527  -28.9482   20.1118 C   0  0  0  0  0  0
  -22.7415  -29.4612   22.4894 C   0  0  0  0  0  0
  -18.0270  -28.1386   22.8474 C   0  0  0  0  0  0
  -24.1470  -36.7331   23.2649 C   0  0  0  0  0  0
  -25.9319  -30.8293   21.3563 C   0  0  0  0  0  0
  -26.0072  -29.4556   20.7204 C   0  0  0  0  0  0
  -27.2029  -28.7028   20.7066 C   0  0  0  0  0  0
  -26.0743  -26.9345   19.4838 C   0  0  0  0  0  0
  -24.8846  -27.6886   19.4871 C   0  0  0  0  0  0
  -23.6190  -29.8215   20.1509 C   0  0  0  0  0  0
  -25.4096  -36.3061   24.0317 C   0  0  1  0  0  0
  -20.5861  -28.3621   23.1327 C   0  0  2  0  0  0
  -20.6722  -26.9334   22.5430 C   0  0  0  0  0  0
  -19.5723  -26.6366   21.5190 C   0  0  0  0  0  0
  -18.1908  -26.7927   22.1617 C   0  0  0  0  0  0
  -19.1521  -28.8822   23.2906 C   0  0  0  0  0  0
  -18.9446  -30.1435   23.8901 C   0  0  0  0  0  0
  -17.6446  -30.6574   24.0561 C   0  0  0  0  0  0
  -25.9029  -34.9446   23.5096 C   0  0  0  0  0  0
  -16.5330  -29.9090   23.6321 C   0  0  0  0  0  0
  -16.7262  -28.6528   23.0306 C   0  0  0  0  0  0
  -26.4514  -31.6590   25.0696 C   0  0  0  0  0  0
  -25.3860  -31.3663   26.1504 C   0  0  0  0  0  0
  -27.0356  -30.3057   24.6051 C   0  0  0  0  0  0
  -27.6085  -32.4304   25.7512 C   0  0  0  0  0  0
  -27.5558  -37.1812   24.8468 C   0  0  0  0  0  0
  -21.4125  -29.3005   22.3728 N   0  0  0  0  0  0
  -26.4259  -37.3769   23.9425 N   0  0  0  0  0  0
  -24.6678  -31.0767   22.0919 N   0  0  0  0  0  0
  -23.4202  -28.8123   23.2902 O   0  0  0  0  0  0
  -28.4650  -26.7630   20.0980 O   0  0  0  0  0  0
  -26.5581  -34.8910   22.4645 O   0  0  0  0  0  0
  -23.5357  -32.1329   23.7481 O   0  0  0  0  0  0
  -28.5324  -17.3634   21.4319 C   0  0  0  0  0  0
  -28.5373  -18.7754   21.2340 C   0  0  0  0  0  0
  -29.7027  -16.7273   21.0968 C   0  0  0  0  0  0
  -29.7266  -19.2616   20.7616 C   0  0  0  0  0  0
  -29.4131  -23.0294   20.0383 C   0  0  0  0  0  0
  -28.6734  -24.3139   20.4896 C   0  0  0  0  0  0
  -29.1530  -21.7141   20.8163 C   0  0  0  0  0  0
  -28.6683  -25.4853   19.4645 C   0  0  0  0  0  0
  -29.8736  -15.3813   21.2434 N   0  0  0  0  0  0
  -30.0697  -20.5986   20.4886 N   0  0  0  0  0  0
  -30.1985  -23.0399   19.0849 O   0  0  0  0  0  0
  -30.8556  -17.9279   20.5063 S   0  0  0  0  0  0
  -31.4710  -12.5145   19.0465 H   0  0  0  0  0  0
  -30.4134  -11.3060   19.7288 H   0  0  0  0  0  0
  -29.7216  -11.8489   17.3847 H   0  0  0  0  0  0
  -29.6461  -13.5474   17.7783 H   0  0  0  0  0  0
  -27.7917  -11.3471   18.7411 H   0  0  0  0  0  0
  -27.3652  -12.7403   17.7847 H   0  0  0  0  0  0
  -27.7314  -14.2595   19.6466 H   0  0  0  0  0  0
  -28.6979  -11.8495   21.2388 H   0  0  0  0  0  0
  -28.4673  -13.4276   21.9130 H   0  0  0  0  0  0
  -25.2739   -9.5653   22.4777 H   0  0  0  0  0  0
  -23.9986   -7.4601   22.7464 H   0  0  0  0  0  0
  -21.0825   -8.8775   19.8957 H   0  0  0  0  0  0
  -22.3681  -10.9686   19.6187 H   0  0  0  0  0  0
  -21.1998   -7.6141   23.9714 H   0  0  0  0  0  0
  -21.1490   -6.0529   25.9079 H   0  0  0  0  0  0
  -22.0596   -2.7609   23.2866 H   0  0  0  0  0  0
  -22.4104  -11.9921   22.4832 H   0  0  0  0  0  0
  -21.1123  -13.1298   22.2615 H   0  0  0  0  0  0
  -24.6619  -15.8358   20.4585 H   0  0  0  0  0  0
  -26.2662  -15.5922   19.9857 H   0  0  0  0  0  0
  -26.7098  -32.5493   23.1101 H   0  0  0  0  0  0
  -25.0037  -33.9689   25.0416 H   0  0  0  0  0  0
  -22.6851  -31.2978   21.3905 H   0  0  0  0  0  0
  -23.3664  -35.9729   23.3295 H   0  0  0  0  0  0
  -24.3565  -36.8966   22.2067 H   0  0  0  0  0  0
  -23.7278  -37.6558   23.6681 H   0  0  0  0  0  0
  -26.0330  -31.5754   20.5660 H   0  0  0  0  0  0
  -26.8269  -30.9004   21.9647 H   0  0  0  0  0  0
  -28.1004  -29.0928   21.1660 H   0  0  0  0  0  0
  -26.0560  -25.9767   18.9875 H   0  0  0  0  0  0
  -24.0101  -27.2916   18.9906 H   0  0  0  0  0  0
  -23.7480  -30.5922   19.3897 H   0  0  0  0  0  0
  -22.7445  -29.2480   19.8421 H   0  0  0  0  0  0
  -25.1263  -36.1886   25.0796 H   0  0  0  0  0  0
  -20.9968  -28.3146   24.1444 H   0  0  0  0  0  0
  -20.5529  -26.2205   23.3606 H   0  0  0  0  0  0
  -21.6606  -26.7316   22.1264 H   0  0  0  0  0  0
  -19.6838  -25.6272   21.1229 H   0  0  0  0  0  0
  -19.6689  -27.3171   20.6715 H   0  0  0  0  0  0
  -17.4146  -26.6630   21.4045 H   0  0  0  0  0  0
  -18.0322  -26.0102   22.9063 H   0  0  0  0  0  0
  -19.7920  -30.7258   24.2258 H   0  0  0  0  0  0
  -17.5005  -31.6262   24.5152 H   0  0  0  0  0  0
  -15.5336  -30.2994   23.7661 H   0  0  0  0  0  0
  -15.8659  -28.0888   22.6969 H   0  0  0  0  0  0
  -24.5963  -30.7057   25.7883 H   0  0  0  0  0  0
  -24.9186  -32.2830   26.5133 H   0  0  0  0  0  0
  -25.8357  -30.8729   27.0142 H   0  0  0  0  0  0
  -26.2866  -29.6781   24.1211 H   0  0  0  0  0  0
  -27.4252  -29.7332   25.4481 H   0  0  0  0  0  0
  -27.8641  -30.4383   23.9084 H   0  0  0  0  0  0
  -27.2645  -33.3520   26.2231 H   0  0  0  0  0  0
  -28.3919  -32.6988   25.0400 H   0  0  0  0  0  0
  -28.0737  -31.8332   26.5375 H   0  0  0  0  0  0
  -28.2562  -38.0119   24.7457 H   0  0  0  0  0  0
  -28.1041  -36.2634   24.6309 H   0  0  0  0  0  0
  -27.2288  -37.1501   25.8877 H   0  0  0  0  0  0
  -20.9204  -29.8864   21.7124 H   0  0  0  0  0  0
  -26.0104  -38.2816   24.1461 H   0  0  0  0  0  0
  -27.6510  -16.8689   21.8177 H   0  0  0  0  0  0
  -27.6684  -19.3691   21.4641 H   0  0  0  0  0  0
  -29.1607  -24.6489   21.4087 H   0  0  0  0  0  0
  -27.6470  -24.0612   20.7456 H   0  0  0  0  0  0
  -28.1224  -21.4312   20.6041 H   0  0  0  0  0  0
  -29.1942  -21.9215   21.8857 H   0  0  0  0  0  0
  -27.9973  -25.2842   18.6303 H   0  0  0  0  0  0
  -29.6551  -25.5686   19.0095 H   0  0  0  0  0  0
  -29.0758  -14.9242   21.6571 H   0  0  0  0  0  0
  -31.0245  -20.8698   20.2559 H   0  0  0  0  0  0
  1 25  1  0  0  0
  1 30  2  0  0  0
  1 79  1  0  0  0
  2  3  1  0  0  0
  2 25  1  0  0  0
  2 83  1  0  0  0
  2 84  1  0  0  0
  3  4  1  0  0  0
  3 85  1  0  0  0
  3 86  1  0  0  0
  4  5  1  0  0  0
  4 87  1  0  0  0
  4 88  1  0  0  0
  5  6  1  0  0  0
  5 26  1  0  0  0
  5 89  1  0  0  0
  6 25  1  0  0  0
  6 90  1  0  0  0
  6 91  1  0  0  0
  7  8  2  0  0  0
  7 26  1  0  0  0
  7 29  1  0  0  0
  8  9  1  0  0  0
  8 22  1  0  0  0
  9 10  1  0  0  0
  9 27  2  0  0  0
 10 11  2  0  0  0
 10 15  1  0  0  0
 11 12  1  0  0  0
 11 92  1  0  0  0
 12 13  2  0  0  0
 12 93  1  0  0  0
 13 14  1  0  0  0
 13 31  1  0  0  0
 14 15  2  0  0  0
 14 94  1  0  0  0
 15 95  1  0  0  0
 16 17  2  0  0  0
 16 21  1  0  0  0
 16 31  1  0  0  0
 17 18  1  0  0  0
 17 96  1  0  0  0
 18 19  2  0  0  0
 18 97  1  0  0  0
 19 20  1  0  0  0
 19 24  1  0  0  0
 20 21  2  0  0  0
 20 98  1  0  0  0
 21 23  1  0  0  0
 22 28  1  0  0  0
 22 32  2  0  0  0
 26 27  1  0  0  0
 28 99  1  0  0  0
 28100  1  0  0  0
 29101  1  0  0  0
 29102  1  0  0  0
 33 34  1  0  0  0
 33 66  1  0  0  0
 33 70  2  0  0  0
 34 36  1  0  0  0
 34 59  1  0  0  0
 34103  1  0  0  0
 35 44  2  0  0  0
 35 45  1  0  0  0
 35 68  1  0  0  0
 36 56  1  0  0  0
 36104  1  0  0  0
 37 39  1  0  0  0
 37 47  1  0  0  0
 37 66  1  0  0  0
 37105  1  0  0  0
 38 43  2  0  0  0
 38 46  1  0  0  0
 38 47  1  0  0  0
 39 64  1  0  0  0
 39 67  2  0  0  0
 40 52  1  0  0  0
 40 53  2  0  0  0
 40 58  1  0  0  0
 41106  1  0  0  0
 41107  1  0  0  0
 41108  1  0  0  0
 41 48  1  0  0  0
 42 43  1  0  0  0
 42 66  1  0  0  0
 42109  1  0  0  0
 42110  1  0  0  0
 43 44  1  0  0  0
 44111  1  0  0  0
 45 46  2  0  0  0
 45112  1  0  0  0
 46113  1  0  0  0
 47114  1  0  0  0
 47115  1  0  0  0
 48 56  1  0  0  0
 48 65  1  0  0  0
 48116  1  0  0  0
 49 50  1  0  0  0
 49 53  1  0  0  0
 49 64  1  0  0  0
 49117  1  0  0  0
 50 51  1  0  0  0
 50118  1  0  0  0
 50119  1  0  0  0
 51 52  1  0  0  0
 51120  1  0  0  0
 51121  1  0  0  0
 52122  1  0  0  0
 52123  1  0  0  0
 53 54  1  0  0  0
 54 55  2  0  0  0
 54124  1  0  0  0
 55 57  1  0  0  0
 55125  1  0  0  0
 56 69  2  0  0  0
 57 58  2  0  0  0
 57126  1  0  0  0
 58127  1  0  0  0
 59 60  1  0  0  0
 59 61  1  0  0  0
 59 62  1  0  0  0
 60128  1  0  0  0
 60129  1  0  0  0
 60130  1  0  0  0
 61131  1  0  0  0
 61132  1  0  0  0
 61133  1  0  0  0
 62134  1  0  0  0
 62135  1  0  0  0
 62136  1  0  0  0
 63 65  1  0  0  0
 63137  1  0  0  0
 63138  1  0  0  0
 63139  1  0  0  0
 64140  1  0  0  0
 65141  1  0  0  0
 68 78  1  0  0  0
 71 72  1  0  0  0
 71 73  2  0  0  0
 71142  1  0  0  0
 72 74  2  0  0  0
 72143  1  0  0  0
 73 79  1  0  0  0
 73 82  1  0  0  0
 74 80  1  0  0  0
 74 82  1  0  0  0
 75 76  1  0  0  0
 75 77  1  0  0  0
 75 81  2  0  0  0
 76 78  1  0  0  0
 76144  1  0  0  0
 76145  1  0  0  0
 77 80  1  0  0  0
 77146  1  0  0  0
 77147  1  0  0  0
 78148  1  0  0  0
 78149  1  0  0  0
 79150  1  0  0  0
 80151  1  0  0  0
M  ISO  4   1 100  68 101  78 101  79 100
M  END
> <chiral flag>
0

> <version>
0

> <s_m_source_file>
/data/baiqing/PycharmProjects/Reinvent-master-3.2/result/LINK_invent/BTK/process_docking_weight1_custom_product_contain_oxygen_bond_distance_aromatic_linkinvent_7_9_3/rearranged_h_0149.sdf

> <i_m_source_file_index>
46

> <r_mmod_Potential_Energy-OPLS-2005>
-63.0482864379883

> <r_mmod_Stretch_Energy-OPLS-2005>
40.772632598877

> <r_mmod_Bend_Energy-OPLS-2005>
132.722045898438

> <r_mmod_Torsional_Energy-OPLS-2005>
198.49365234375

> <r_mmod_Improper_Torsional_Energy-OPLS-2005>
5.0394401550293

> <r_mmod_Van_der_Waal_Energy-OPLS-2005>
128.283065795898

> <r_mmod_Electrostatic_Energy-OPLS-2005>
-338.845001220703

> <r_mmod_Solvation_Energy-OPLS-2005>
-244.591903686523

> <b_mmod_Minimization_Converged-OPLS-2005>
0

> <r_mmod_RMS_Derivative-OPLS-2005>
5.23187017440796

$$$$
46
                    3D
 Structure written by MMmdl.
167175  0  0  1  0            999 V2000
  -30.6206  -14.5803   20.5600 C   0  0  0  0  0  0
  -30.4479  -12.3714   19.4326 C   0  0  0  0  0  0
  -29.5082  -12.5242   18.2151 C   0  0  0  0  0  0
  -28.0287  -12.3666   18.6243 C   0  0  0  0  0  0
  -27.6636  -13.2061   19.8772 C   0  0  2  0  0  0
  -28.7067  -12.9903   20.9969 C   0  0  0  0  0  0
  -25.2597  -13.8140   20.5661 C   0  0  0  0  0  0
  -24.1850  -13.0429   20.9174 C   0  0  0  0  0  0
  -24.6403  -11.6896   20.8733 C   0  0  0  0  0  0
  -23.9062  -10.4290   21.0403 C   0  0  0  0  0  0
  -24.3616   -9.4207   21.9179 C   0  0  0  0  0  0
  -23.6293   -8.2242   22.0751 C   0  0  0  0  0  0
  -22.4275   -8.0283   21.3545 C   0  0  0  0  0  0
  -21.9909   -9.0253   20.4644 C   0  0  0  0  0  0
  -22.7235  -10.2134   20.3053 C   0  0  0  0  0  0
  -21.6852   -6.0739   22.5277 C   0  0  0  0  0  0
  -21.4014   -6.5639   23.8214 C   0  0  0  0  0  0
  -21.3659   -5.6790   24.9173 C   0  0  0  0  0  0
  -21.6046   -4.3054   24.7222 C   0  0  0  0  0  0
  -21.8820   -3.8149   23.4341 C   0  0  0  0  0  0
  -21.9194   -4.6965   22.3401 C   0  0  0  0  0  0
  -22.7875  -13.5233   21.1844 C   0  0  0  0  0  0
  -22.1662   -4.2155   21.0976 F   0  0  0  0  0  0
  -21.5631   -3.4536   25.7733 F   0  0  0  0  0  0
  -30.0308  -13.3499   20.4535 N   0  0  0  0  0  0
  -26.3038  -12.9310   20.3361 N   0  0  0  0  0  0
  -25.9333  -11.6473   20.5762 N   0  0  0  0  0  0
  -22.0510  -12.8235   22.0401 N   0  0  0  0  0  0
  -25.4304  -15.1856   20.4033 N   0  0  0  0  0  0
  -31.7352  -14.8226   20.0841 O   0  0  0  0  0  0
  -21.6640   -6.8879   21.4241 O   0  0  0  0  0  0
  -22.3561  -14.5543   20.6691 O   0  0  0  0  0  0
  -24.6211  -31.8628   23.2065 C   0  0  0  0  0  0
  -25.9082  -32.4789   23.8379 C   0  0  1  0  0  0
  -27.2315  -27.3538   20.1253 C   0  0  0  0  0  0
  -25.5912  -33.8591   24.2302 N   0  0  0  0  0  0
  -23.4133  -30.4848   21.5474 C   0  0  2  0  0  0
  -24.8620  -28.9371   20.1216 C   0  0  0  0  0  0
  -22.7447  -29.4630   22.4967 C   0  0  0  0  0  0
  -18.0277  -28.1378   22.8487 C   0  0  0  0  0  0
  -24.1489  -36.7302   23.2639 C   0  0  0  0  0  0
  -25.9504  -30.8020   21.3754 C   0  0  0  0  0  0
  -26.0256  -29.4273   20.7290 C   0  0  0  0  0  0
  -27.2131  -28.6445   20.7253 C   0  0  0  0  0  0
  -26.0554  -26.9132   19.4828 C   0  0  0  0  0  0
  -24.8748  -27.6805   19.4946 C   0  0  0  0  0  0
  -23.6285  -29.8140   20.1645 C   0  0  0  0  0  0
  -25.4112  -36.3093   24.0332 C   0  0  1  0  0  0
  -20.5873  -28.3671   23.1304 C   0  0  2  0  0  0
  -20.6771  -26.9402   22.5416 C   0  0  0  0  0  0
  -19.5749  -26.6381   21.5215 C   0  0  0  0  0  0
  -18.1924  -26.7923   22.1621 C   0  0  0  0  0  0
  -19.1528  -28.8843   23.2889 C   0  0  0  0  0  0
  -18.9454  -30.1447   23.8901 C   0  0  0  0  0  0
  -17.6456  -30.6585   24.0564 C   0  0  0  0  0  0
  -25.9046  -34.9458   23.5117 C   0  0  0  0  0  0
  -16.5346  -29.9085   23.6330 C   0  0  0  0  0  0
  -16.7265  -28.6502   23.0350 C   0  0  0  0  0  0
  -26.4493  -31.6583   25.0729 C   0  0  0  0  0  0
  -25.3743  -31.3715   26.1468 C   0  0  0  0  0  0
  -27.0337  -30.3007   24.6160 C   0  0  0  0  0  0
  -27.6053  -32.4320   25.7500 C   0  0  0  0  0  0
  -27.5583  -37.1805   24.8461 C   0  0  0  0  0  0
  -21.4167  -29.3029   22.3705 N   0  0  0  0  0  0
  -26.4294  -37.3783   23.9407 N   0  0  0  0  0  0
  -24.6797  -31.0670   22.1000 N   0  0  0  0  0  0
  -23.4185  -28.8176   23.3040 O   0  0  0  0  0  0
  -28.3922  -26.5835   20.0450 O   0  0  0  0  0  0
  -26.5617  -34.8917   22.4685 O   0  0  0  0  0  0
  -23.5385  -32.1414   23.7416 O   0  0  0  0  0  0
  -30.5119  -17.9490   20.3709 C   0  0  0  0  0  0
  -29.7158  -16.9573   21.0446 C   0  0  0  0  0  0
  -28.6741  -17.6340   21.6301 C   0  0  0  0  0  0
  -29.8653  -19.1518   20.6028 C   0  0  0  0  0  0
  -27.5167  -17.2164   22.4747 C   0  0  0  0  0  0
  -31.2566  -23.2316   21.0774 C   0  0  0  0  0  0
  -31.0005  -22.7657   18.6535 C   0  0  0  0  0  0
  -29.2728  -25.5838   21.9732 C   0  0  0  0  0  0
  -27.2249  -24.5142   21.0035 C   0  0  0  0  0  0
  -29.3879  -24.3596   19.6635 C   0  0  0  0  0  0
  -29.4133  -21.6719   20.2823 C   0  0  0  0  0  0
  -30.2095  -23.0107   19.9669 C   0  0  0  0  0  0
  -28.5385  -25.2496   20.6660 C   0  0  0  0  0  0
  -29.8433  -15.5173   21.1643 N   0  0  0  0  0  0
  -30.2511  -20.4433   20.1717 N   0  0  0  0  0  0
  -28.7504  -18.9770   21.3583 O   0  0  0  0  0  0
  -31.4865  -12.5142   19.1290 H   0  0  0  0  0  0
  -30.3916  -11.3599   19.8372 H   0  0  0  0  0  0
  -29.7642  -11.7912   17.4490 H   0  0  0  0  0  0
  -29.6569  -13.5047   17.7596 H   0  0  0  0  0  0
  -27.8496  -11.3092   18.8223 H   0  0  0  0  0  0
  -27.3777  -12.6325   17.7907 H   0  0  0  0  0  0
  -27.7029  -14.2541   19.5795 H   0  0  0  0  0  0
  -28.7104  -11.9464   21.3136 H   0  0  0  0  0  0
  -28.4447  -13.5558   21.8919 H   0  0  0  0  0  0
  -25.2760   -9.5687   22.4751 H   0  0  0  0  0  0
  -24.0008   -7.4633   22.7466 H   0  0  0  0  0  0
  -21.0843   -8.8765   19.8948 H   0  0  0  0  0  0
  -22.3687  -10.9671   19.6165 H   0  0  0  0  0  0
  -21.2002   -7.6147   23.9717 H   0  0  0  0  0  0
  -21.1482   -6.0519   25.9077 H   0  0  0  0  0  0
  -22.0603   -2.7611   23.2837 H   0  0  0  0  0  0
  -22.4119  -11.9895   22.4794 H   0  0  0  0  0  0
  -21.1127  -13.1263   22.2604 H   0  0  0  0  0  0
  -24.6559  -15.8338   20.4926 H   0  0  0  0  0  0
  -26.2732  -15.6208   20.0511 H   0  0  0  0  0  0
  -26.7151  -32.5486   23.1136 H   0  0  0  0  0  0
  -25.0052  -33.9745   25.0441 H   0  0  0  0  0  0
  -22.7044  -31.3030   21.4029 H   0  0  0  0  0  0
  -23.3748  -35.9639   23.3304 H   0  0  0  0  0  0
  -24.3580  -36.8921   22.2054 H   0  0  0  0  0  0
  -23.7248  -37.6507   23.6660 H   0  0  0  0  0  0
  -26.0761  -31.5625   20.6033 H   0  0  0  0  0  0
  -26.8332  -30.8549   22.0013 H   0  0  0  0  0  0
  -28.1144  -29.0232   21.1871 H   0  0  0  0  0  0
  -26.0522  -25.9725   18.9536 H   0  0  0  0  0  0
  -23.9871  -27.3035   19.0057 H   0  0  0  0  0  0
  -23.7477  -30.5874   19.4048 H   0  0  0  0  0  0
  -22.7504  -29.2391   19.8640 H   0  0  0  0  0  0
  -25.1292  -36.1950   25.0825 H   0  0  0  0  0  0
  -20.9956  -28.3238   24.1429 H   0  0  0  0  0  0
  -20.5679  -26.2278   23.3606 H   0  0  0  0  0  0
  -21.6642  -26.7445   22.1206 H   0  0  0  0  0  0
  -19.6913  -25.6295   21.1239 H   0  0  0  0  0  0
  -19.6694  -27.3200   20.6753 H   0  0  0  0  0  0
  -17.4199  -26.6673   21.4016 H   0  0  0  0  0  0
  -18.0318  -26.0061   22.9013 H   0  0  0  0  0  0
  -19.7930  -30.7261   24.2273 H   0  0  0  0  0  0
  -17.5011  -31.6266   24.5163 H   0  0  0  0  0  0
  -15.5347  -30.2990   23.7656 H   0  0  0  0  0  0
  -15.8660  -28.0828   22.7064 H   0  0  0  0  0  0
  -24.5893  -30.7095   25.7795 H   0  0  0  0  0  0
  -24.8973  -32.2889   26.4927 H   0  0  0  0  0  0
  -25.8076  -30.8858   27.0221 H   0  0  0  0  0  0
  -26.2908  -29.6760   24.1188 H   0  0  0  0  0  0
  -27.4047  -29.7253   25.4652 H   0  0  0  0  0  0
  -27.8770  -30.4294   23.9371 H   0  0  0  0  0  0
  -27.2648  -33.3597   26.2109 H   0  0  0  0  0  0
  -28.3849  -32.6919   25.0326 H   0  0  0  0  0  0
  -28.0744  -31.8435   26.5396 H   0  0  0  0  0  0
  -28.2594  -38.0108   24.7512 H   0  0  0  0  0  0
  -28.1083  -36.2638   24.6276 H   0  0  0  0  0  0
  -27.2302  -37.1443   25.8864 H   0  0  0  0  0  0
  -20.9340  -29.8743   21.6913 H   0  0  0  0  0  0
  -26.0176  -38.2857   24.1412 H   0  0  0  0  0  0
  -31.4189  -17.8028   19.8016 H   0  0  0  0  0  0
  -27.3766  -16.1360   22.4543 H   0  0  0  0  0  0
  -26.5940  -17.6777   22.1237 H   0  0  0  0  0  0
  -27.6681  -17.5148   23.5120 H   0  0  0  0  0  0
  -31.8007  -24.1672   20.9426 H   0  0  0  0  0  0
  -31.9959  -22.4302   21.0932 H   0  0  0  0  0  0
  -30.8043  -23.2368   22.0662 H   0  0  0  0  0  0
  -31.5626  -23.6483   18.3474 H   0  0  0  0  0  0
  -30.3298  -22.5032   17.8337 H   0  0  0  0  0  0
  -31.7405  -21.9701   18.7364 H   0  0  0  0  0  0
  -28.7430  -26.3587   22.5277 H   0  0  0  0  0  0
  -30.2792  -25.9541   21.7771 H   0  0  0  0  0  0
  -29.3403  -24.7225   22.6361 H   0  0  0  0  0  0
  -27.4275  -23.5914   21.5478 H   0  0  0  0  0  0
  -26.6765  -24.2267   20.1078 H   0  0  0  0  0  0
  -26.5692  -25.1154   21.6340 H   0  0  0  0  0  0
  -28.7486  -24.1618   18.8017 H   0  0  0  0  0  0
  -30.1275  -25.0625   19.2779 H   0  0  0  0  0  0
  -28.5760  -21.5715   19.5897 H   0  0  0  0  0  0
  -28.9780  -21.7222   21.2814 H   0  0  0  0  0  0
  -29.0588  -15.0848   21.6273 H   0  0  0  0  0  0
  -31.0932  -20.5472   19.6149 H   0  0  0  0  0  0
  1 25  1  0  0  0
  1 30  2  0  0  0
  1 84  1  0  0  0
  2  3  1  0  0  0
  2 25  1  0  0  0
  2 87  1  0  0  0
  2 88  1  0  0  0
  3  4  1  0  0  0
  3 89  1  0  0  0
  3 90  1  0  0  0
  4  5  1  0  0  0
  4 91  1  0  0  0
  4 92  1  0  0  0
  5  6  1  0  0  0
  5 26  1  0  0  0
  5 93  1  0  0  0
  6 25  1  0  0  0
  6 94  1  0  0  0
  6 95  1  0  0  0
  7  8  2  0  0  0
  7 26  1  0  0  0
  7 29  1  0  0  0
  8  9  1  0  0  0
  8 22  1  0  0  0
  9 10  1  0  0  0
  9 27  2  0  0  0
 10 11  2  0  0  0
 10 15  1  0  0  0
 11 12  1  0  0  0
 11 96  1  0  0  0
 12 13  2  0  0  0
 12 97  1  0  0  0
 13 14  1  0  0  0
 13 31  1  0  0  0
 14 15  2  0  0  0
 14 98  1  0  0  0
 15 99  1  0  0  0
 16 17  2  0  0  0
 16 21  1  0  0  0
 16 31  1  0  0  0
 17 18  1  0  0  0
 17100  1  0  0  0
 18 19  2  0  0  0
 18101  1  0  0  0
 19 20  1  0  0  0
 19 24  1  0  0  0
 20 21  2  0  0  0
 20102  1  0  0  0
 21 23  1  0  0  0
 22 28  1  0  0  0
 22 32  2  0  0  0
 26 27  1  0  0  0
 28103  1  0  0  0
 28104  1  0  0  0
 29105  1  0  0  0
 29106  1  0  0  0
 33 34  1  0  0  0
 33 66  1  0  0  0
 33 70  2  0  0  0
 34 36  1  0  0  0
 34 59  1  0  0  0
 34107  1  0  0  0
 35 44  2  0  0  0
 35 45  1  0  0  0
 35 68  1  0  0  0
 36 56  1  0  0  0
 36108  1  0  0  0
 37 39  1  0  0  0
 37 47  1  0  0  0
 37 66  1  0  0  0
 37109  1  0  0  0
 38 43  2  0  0  0
 38 46  1  0  0  0
 38 47  1  0  0  0
 39 64  1  0  0  0
 39 67  2  0  0  0
 40 52  1  0  0  0
 40 53  2  0  0  0
 40 58  1  0  0  0
 41110  1  0  0  0
 41111  1  0  0  0
 41112  1  0  0  0
 41 48  1  0  0  0
 42 43  1  0  0  0
 42 66  1  0  0  0
 42113  1  0  0  0
 42114  1  0  0  0
 43 44  1  0  0  0
 44115  1  0  0  0
 45 46  2  0  0  0
 45116  1  0  0  0
 46117  1  0  0  0
 47118  1  0  0  0
 47119  1  0  0  0
 48 56  1  0  0  0
 48 65  1  0  0  0
 48120  1  0  0  0
 49 50  1  0  0  0
 49 53  1  0  0  0
 49 64  1  0  0  0
 49121  1  0  0  0
 50 51  1  0  0  0
 50122  1  0  0  0
 50123  1  0  0  0
 51 52  1  0  0  0
 51124  1  0  0  0
 51125  1  0  0  0
 52126  1  0  0  0
 52127  1  0  0  0
 53 54  1  0  0  0
 54 55  2  0  0  0
 54128  1  0  0  0
 55 57  1  0  0  0
 55129  1  0  0  0
 56 69  2  0  0  0
 57 58  2  0  0  0
 57130  1  0  0  0
 58131  1  0  0  0
 59 60  1  0  0  0
 59 61  1  0  0  0
 59 62  1  0  0  0
 60132  1  0  0  0
 60133  1  0  0  0
 60134  1  0  0  0
 61135  1  0  0  0
 61136  1  0  0  0
 61137  1  0  0  0
 62138  1  0  0  0
 62139  1  0  0  0
 62140  1  0  0  0
 63 65  1  0  0  0
 63141  1  0  0  0
 63142  1  0  0  0
 63143  1  0  0  0
 64144  1  0  0  0
 65145  1  0  0  0
 68 83  1  0  0  0
 71 72  1  0  0  0
 71 74  2  0  0  0
 71146  1  0  0  0
 72 73  2  0  0  0
 72 84  1  0  0  0
 73 75  1  0  0  0
 73 86  1  0  0  0
 74 85  1  0  0  0
 74 86  1  0  0  0
 75147  1  0  0  0
 75148  1  0  0  0
 75149  1  0  0  0
 76150  1  0  0  0
 76151  1  0  0  0
 76152  1  0  0  0
 76 82  1  0  0  0
 77 82  1  0  0  0
 77153  1  0  0  0
 77154  1  0  0  0
 77155  1  0  0  0
 78156  1  0  0  0
 78157  1  0  0  0
 78158  1  0  0  0
 78 83  1  0  0  0
 79 83  1  0  0  0
 79159  1  0  0  0
 79160  1  0  0  0
 79161  1  0  0  0
 80 82  1  0  0  0
 80 83  1  0  0  0
 80162  1  0  0  0
 80163  1  0  0  0
 81 82  1  0  0  0
 81 85  1  0  0  0
 81164  1  0  0  0
 81165  1  0  0  0
 84166  1  0  0  0
 85167  1  0  0  0
M  ISO  4   1 100  68 101  83 101  84 100
M  END
> <chiral flag>
0

> <version>
0

> <s_m_source_file>
/data/baiqing/PycharmProjects/Reinvent-master-3.2/result/LINK_invent/BTK/process_docking_weight1_custom_product_contain_oxygen_bond_distance_aromatic_linkinvent_7_9_3/rearranged_h_0149.sdf

> <i_m_source_file_index>
47

> <r_mmod_Potential_Energy-OPLS-2005>
22.0258255004883

> <r_mmod_Stretch_Energy-OPLS-2005>
67.3842620849609

> <r_mmod_Bend_Energy-OPLS-2005>
197.149658203125

> <r_mmod_Torsional_Energy-OPLS-2005>
251.096572875977

> <r_mmod_Improper_Torsional_Energy-OPLS-2005>
3.95899748802185

> <r_mmod_Van_der_Waal_Energy-OPLS-2005>
124.18701171875

> <r_mmod_Electrostatic_Energy-OPLS-2005>
-450.400604248047

> <r_mmod_Solvation_Energy-OPLS-2005>
-200.424362182617

> <b_mmod_Minimization_Converged-OPLS-2005>
0

> <r_mmod_RMS_Derivative-OPLS-2005>
0.973658382892609

$$$$
47
                    3D
 Structure written by MMmdl.
185194  0  0  1  0            999 V2000
  -30.7614  -14.4152   20.6519 C   0  0  0  0  0  0
  -30.4207  -12.3110   19.3999 C   0  0  0  0  0  0
  -29.4884  -12.5218   18.1927 C   0  0  0  0  0  0
  -28.0130  -12.3728   18.6128 C   0  0  0  0  0  0
  -27.6641  -13.2072   19.8742 C   0  0  2  0  0  0
  -28.7075  -12.9756   20.9893 C   0  0  0  0  0  0
  -25.2606  -13.8165   20.5680 C   0  0  0  0  0  0
  -24.1857  -13.0441   20.9169 C   0  0  0  0  0  0
  -24.6413  -11.6901   20.8736 C   0  0  0  0  0  0
  -23.9069  -10.4294   21.0406 C   0  0  0  0  0  0
  -24.3621   -9.4206   21.9186 C   0  0  0  0  0  0
  -23.6292   -8.2244   22.0752 C   0  0  0  0  0  0
  -22.4273   -8.0291   21.3547 C   0  0  0  0  0  0
  -21.9913   -9.0266   20.4643 C   0  0  0  0  0  0
  -22.7247  -10.2140   20.3055 C   0  0  0  0  0  0
  -21.6847   -6.0745   22.5281 C   0  0  0  0  0  0
  -21.4011   -6.5643   23.8218 C   0  0  0  0  0  0
  -21.3661   -5.6791   24.9177 C   0  0  0  0  0  0
  -21.6043   -4.3059   24.7224 C   0  0  0  0  0  0
  -21.8820   -3.8150   23.4344 C   0  0  0  0  0  0
  -21.9191   -4.6969   22.3403 C   0  0  0  0  0  0
  -22.7882  -13.5249   21.1841 C   0  0  0  0  0  0
  -22.1659   -4.2158   21.0977 F   0  0  0  0  0  0
  -21.5631   -3.4538   25.7735 F   0  0  0  0  0  0
  -30.0410  -13.2812   20.4382 N   0  0  0  0  0  0
  -26.3046  -12.9332   20.3367 N   0  0  0  0  0  0
  -25.9339  -11.6490   20.5759 N   0  0  0  0  0  0
  -22.0507  -12.8236   22.0390 N   0  0  0  0  0  0
  -25.4340  -15.1882   20.4100 N   0  0  0  0  0  0
  -31.8375  -14.6436   20.0956 O   0  0  0  0  0  0
  -21.6633   -6.8889   21.4243 O   0  0  0  0  0  0
  -22.3577  -14.5565   20.6710 O   0  0  0  0  0  0
  -24.6161  -31.8669   23.2092 C   0  0  0  0  0  0
  -25.9049  -32.4814   23.8395 C   0  0  1  0  0  0
  -27.2306  -27.4352   20.1019 C   0  0  0  0  0  0
  -25.5938  -33.8613   24.2341 N   0  0  0  0  0  0
  -23.4035  -30.4914   21.5491 C   0  0  2  0  0  0
  -24.8499  -28.9621   20.1078 C   0  0  0  0  0  0
  -22.7418  -29.4642   22.4969 C   0  0  0  0  0  0
  -18.0270  -28.1379   22.8471 C   0  0  0  0  0  0
  -24.1488  -36.7322   23.2638 C   0  0  0  0  0  0
  -25.9315  -30.8398   21.3564 C   0  0  0  0  0  0
  -26.0106  -29.4756   20.7013 C   0  0  0  0  0  0
  -27.2068  -28.7240   20.6874 C   0  0  0  0  0  0
  -26.0626  -26.9480   19.4809 C   0  0  0  0  0  0
  -24.8714  -27.6975   19.4920 C   0  0  0  0  0  0
  -23.6108  -29.8269   20.1614 C   0  0  0  0  0  0
  -25.4111  -36.3105   24.0339 C   0  0  1  0  0  0
  -20.5861  -28.3658   23.1333 C   0  0  2  0  0  0
  -20.6774  -26.9395   22.5432 C   0  0  0  0  0  0
  -19.5760  -26.6379   21.5219 C   0  0  0  0  0  0
  -18.1928  -26.7928   22.1604 C   0  0  0  0  0  0
  -19.1521  -28.8831   23.2884 C   0  0  0  0  0  0
  -18.9456  -30.1440   23.8899 C   0  0  0  0  0  0
  -17.6455  -30.6576   24.0558 C   0  0  0  0  0  0
  -25.9039  -34.9470   23.5120 C   0  0  0  0  0  0
  -16.5343  -29.9078   23.6336 C   0  0  0  0  0  0
  -16.7267  -28.6510   23.0323 C   0  0  0  0  0  0
  -26.4471  -31.6572   25.0710 C   0  0  0  0  0  0
  -25.3743  -31.3665   26.1470 C   0  0  0  0  0  0
  -27.0307  -30.3025   24.6046 C   0  0  0  0  0  0
  -27.6058  -32.4271   25.7484 C   0  0  0  0  0  0
  -27.5577  -37.1809   24.8472 C   0  0  0  0  0  0
  -21.4140  -29.3030   22.3739 N   0  0  0  0  0  0
  -26.4294  -37.3793   23.9415 N   0  0  0  0  0  0
  -24.6689  -31.0796   22.0965 N   0  0  0  0  0  0
  -23.4197  -28.8182   23.3008 O   0  0  0  0  0  0
  -28.3611  -26.6397   20.1264 O   0  0  0  0  0  0
  -26.5576  -34.8921   22.4670 O   0  0  0  0  0  0
  -23.5356  -32.1402   23.7508 O   0  0  0  0  0  0
  -31.2315  -18.4729   20.1726 C   0  0  0  0  0  0
  -30.0672  -20.0594   21.6048 C   0  0  0  0  0  0
  -31.0098  -20.8153   19.4931 C   0  0  0  0  0  0
  -30.5388  -18.7415   21.3740 C   0  0  0  0  0  0
  -31.4805  -19.5071   19.2433 C   0  0  0  0  0  0
  -30.3021  -21.1063   20.6819 C   0  0  0  0  0  0
  -29.7717  -23.5483   20.3179 C   0  0  0  0  0  0
  -31.0284  -18.1595   23.7910 C   0  0  0  0  0  0
  -31.1241  -15.7812   23.7579 C   0  0  0  0  0  0
  -30.3696  -17.6814   22.4779 C   0  0  2  0  0  0
  -31.0073  -16.2769   22.3043 C   0  0  2  0  0  0
  -31.8831  -17.3695   16.3698 C   0  0  0  0  0  0
  -30.0779  -19.0579   16.7662 C   0  0  0  0  0  0
  -32.1636  -19.7096   15.5485 C   0  0  0  0  0  0
  -28.6904  -26.5947   22.5342 C   0  0  0  0  0  0
  -27.2738  -24.8246   21.4489 C   0  0  0  0  0  0
  -32.3449  -19.2297   18.0195 C   0  0  0  0  0  0
  -29.8180  -24.8917   21.0831 C   0  0  0  0  0  0
  -31.6057  -18.8495   16.6992 C   0  0  0  0  0  0
  -28.5108  -25.7390   21.2579 C   0  0  0  0  0  0
  -29.9504  -22.4372   21.0664 N   0  0  0  0  0  0
  -30.2440  -15.2749   21.5410 N   0  0  0  0  0  0
  -31.3218  -16.9673   24.6012 N   0  3  0  0  0  0
  -29.5802  -23.5302   19.0994 O   0  0  0  0  0  0
  -31.4641  -12.4086   19.0942 H   0  0  0  0  0  0
  -30.3211  -11.2947   19.7852 H   0  0  0  0  0  0
  -29.7258  -11.8080   17.4029 H   0  0  0  0  0  0
  -29.6528  -13.5137   17.7690 H   0  0  0  0  0  0
  -27.8294  -11.3150   18.8068 H   0  0  0  0  0  0
  -27.3563  -12.6471   17.7862 H   0  0  0  0  0  0
  -27.7141  -14.2574   19.5864 H   0  0  0  0  0  0
  -28.6844  -11.9339   21.3142 H   0  0  0  0  0  0
  -28.4587  -13.5575   21.8769 H   0  0  0  0  0  0
  -25.2768   -9.5674   22.4758 H   0  0  0  0  0  0
  -23.9999   -7.4632   22.7471 H   0  0  0  0  0  0
  -21.0847   -8.8790   19.8953 H   0  0  0  0  0  0
  -22.3717  -10.9679   19.6162 H   0  0  0  0  0  0
  -21.2002   -7.6146   23.9725 H   0  0  0  0  0  0
  -21.1481   -6.0518   25.9081 H   0  0  0  0  0  0
  -22.0598   -2.7612   23.2838 H   0  0  0  0  0  0
  -22.4097  -11.9875   22.4751 H   0  0  0  0  0  0
  -21.1135  -13.1285   22.2599 H   0  0  0  0  0  0
  -24.6707  -15.8466   20.5209 H   0  0  0  0  0  0
  -26.2922  -15.6262   20.0987 H   0  0  0  0  0  0
  -26.7126  -32.5524   23.1170 H   0  0  0  0  0  0
  -25.0166  -33.9780   25.0535 H   0  0  0  0  0  0
  -22.6925  -31.3086   21.4117 H   0  0  0  0  0  0
  -23.3729  -35.9675   23.3314 H   0  0  0  0  0  0
  -24.3590  -36.8906   22.2045 H   0  0  0  0  0  0
  -23.7242  -37.6538   23.6637 H   0  0  0  0  0  0
  -26.0435  -31.6088   20.5910 H   0  0  0  0  0  0
  -26.8195  -30.8925   21.9728 H   0  0  0  0  0  0
  -28.1022  -29.1148   21.1502 H   0  0  0  0  0  0
  -26.0694  -25.9729   19.0144 H   0  0  0  0  0  0
  -23.9795  -27.2956   19.0311 H   0  0  0  0  0  0
  -23.7172  -30.6059   19.4059 H   0  0  0  0  0  0
  -22.7349  -29.2492   19.8628 H   0  0  0  0  0  0
  -25.1268  -36.1983   25.0827 H   0  0  0  0  0  0
  -20.9947  -28.3217   24.1455 H   0  0  0  0  0  0
  -20.5712  -26.2237   23.3599 H   0  0  0  0  0  0
  -21.6639  -26.7469   22.1191 H   0  0  0  0  0  0
  -19.6936  -25.6298   21.1229 H   0  0  0  0  0  0
  -19.6723  -27.3205   20.6762 H   0  0  0  0  0  0
  -17.4211  -26.6674   21.3989 H   0  0  0  0  0  0
  -18.0305  -26.0081   22.9004 H   0  0  0  0  0  0
  -19.7931  -30.7254   24.2250 H   0  0  0  0  0  0
  -17.5018  -31.6256   24.5168 H   0  0  0  0  0  0
  -15.5348  -30.2985   23.7658 H   0  0  0  0  0  0
  -15.8661  -28.0844   22.7022 H   0  0  0  0  0  0
  -24.5948  -30.6971   25.7810 H   0  0  0  0  0  0
  -24.8915  -32.2806   26.4932 H   0  0  0  0  0  0
  -25.8126  -30.8838   27.0214 H   0  0  0  0  0  0
  -26.2850  -29.6781   24.1112 H   0  0  0  0  0  0
  -27.4109  -29.7252   25.4482 H   0  0  0  0  0  0
  -27.8656  -30.4352   23.9164 H   0  0  0  0  0  0
  -27.2705  -33.3567   26.2091 H   0  0  0  0  0  0
  -28.3871  -32.6819   25.0313 H   0  0  0  0  0  0
  -28.0713  -31.8358   26.5375 H   0  0  0  0  0  0
  -28.2597  -38.0096   24.7507 H   0  0  0  0  0  0
  -28.1048  -36.2631   24.6292 H   0  0  0  0  0  0
  -27.2309  -37.1459   25.8874 H   0  0  0  0  0  0
  -20.9308  -29.8763   21.6966 H   0  0  0  0  0  0
  -26.0174  -38.2865   24.1419 H   0  0  0  0  0  0
  -31.6213  -17.4844   19.9707 H   0  0  0  0  0  0
  -29.5539  -20.2815   22.5301 H   0  0  0  0  0  0
  -31.2447  -21.5992   18.7868 H   0  0  0  0  0  0
  -30.4105  -18.8730   24.3368 H   0  0  0  0  0  0
  -31.9811  -18.6477   23.5801 H   0  0  0  0  0  0
  -31.9326  -15.0606   23.8893 H   0  0  0  0  0  0
  -30.2007  -15.2984   24.0813 H   0  0  0  0  0  0
  -29.3008  -17.5573   22.6574 H   0  0  0  0  0  0
  -32.0228  -16.3904   21.9171 H   0  0  0  0  0  0
  -31.3909  -17.0639   15.4455 H   0  0  0  0  0  0
  -31.5279  -16.7102   17.1633 H   0  0  0  0  0  0
  -32.9504  -17.1812   16.2427 H   0  0  0  0  0  0
  -29.6024  -18.8126   15.8159 H   0  0  0  0  0  0
  -29.8237  -20.0941   16.9924 H   0  0  0  0  0  0
  -29.6158  -18.4280   17.5275 H   0  0  0  0  0  0
  -31.7042  -19.4514   14.5935 H   0  0  0  0  0  0
  -33.2408  -19.5761   15.4367 H   0  0  0  0  0  0
  -31.9831  -20.7717   15.7212 H   0  0  0  0  0  0
  -28.8781  -25.9722   23.4096 H   0  0  0  0  0  0
  -27.8031  -27.1813   22.7699 H   0  0  0  0  0  0
  -29.5301  -27.2828   22.4320 H   0  0  0  0  0  0
  -27.4445  -24.0854   22.2309 H   0  0  0  0  0  0
  -27.0302  -24.2824   20.5355 H   0  0  0  0  0  0
  -26.3870  -25.3875   21.7428 H   0  0  0  0  0  0
  -33.0747  -18.4615   18.2817 H   0  0  0  0  0  0
  -32.9538  -20.1223   17.8641 H   0  0  0  0  0  0
  -30.5871  -25.5113   20.6205 H   0  0  0  0  0  0
  -30.2201  -24.6634   22.0707 H   0  0  0  0  0  0
  -29.9201  -22.5950   22.0638 H   0  0  0  0  0  0
  -29.3213  -15.0472   21.8801 H   0  0  0  0  0  0
  -30.7067  -16.9205   25.3970 H   0  0  0  0  0  0
  -32.2703  -17.0097   24.9369 H   0  0  0  0  0  0
  1 25  1  0  0  0
  1 30  2  0  0  0
  1 92  1  0  0  0
  2  3  1  0  0  0
  2 25  1  0  0  0
  2 95  1  0  0  0
  2 96  1  0  0  0
  3  4  1  0  0  0
  3 97  1  0  0  0
  3 98  1  0  0  0
  4  5  1  0  0  0
  4 99  1  0  0  0
  4100  1  0  0  0
  5  6  1  0  0  0
  5 26  1  0  0  0
  5101  1  0  0  0
  6 25  1  0  0  0
  6102  1  0  0  0
  6103  1  0  0  0
  7  8  2  0  0  0
  7 26  1  0  0  0
  7 29  1  0  0  0
  8  9  1  0  0  0
  8 22  1  0  0  0
  9 10  1  0  0  0
  9 27  2  0  0  0
 10 11  2  0  0  0
 10 15  1  0  0  0
 11 12  1  0  0  0
 11104  1  0  0  0
 12 13  2  0  0  0
 12105  1  0  0  0
 13 14  1  0  0  0
 13 31  1  0  0  0
 14 15  2  0  0  0
 14106  1  0  0  0
 15107  1  0  0  0
 16 17  2  0  0  0
 16 21  1  0  0  0
 16 31  1  0  0  0
 17 18  1  0  0  0
 17108  1  0  0  0
 18 19  2  0  0  0
 18109  1  0  0  0
 19 20  1  0  0  0
 19 24  1  0  0  0
 20 21  2  0  0  0
 20110  1  0  0  0
 21 23  1  0  0  0
 22 28  1  0  0  0
 22 32  2  0  0  0
 26 27  1  0  0  0
 28111  1  0  0  0
 28112  1  0  0  0
 29113  1  0  0  0
 29114  1  0  0  0
 33 34  1  0  0  0
 33 66  1  0  0  0
 33 70  2  0  0  0
 34 36  1  0  0  0
 34 59  1  0  0  0
 34115  1  0  0  0
 35 44  2  0  0  0
 35 45  1  0  0  0
 35 68  1  0  0  0
 36 56  1  0  0  0
 36116  1  0  0  0
 37 39  1  0  0  0
 37 47  1  0  0  0
 37 66  1  0  0  0
 37117  1  0  0  0
 38 43  2  0  0  0
 38 46  1  0  0  0
 38 47  1  0  0  0
 39 64  1  0  0  0
 39 67  2  0  0  0
 40 52  1  0  0  0
 40 53  2  0  0  0
 40 58  1  0  0  0
 41118  1  0  0  0
 41119  1  0  0  0
 41120  1  0  0  0
 41 48  1  0  0  0
 42 43  1  0  0  0
 42 66  1  0  0  0
 42121  1  0  0  0
 42122  1  0  0  0
 43 44  1  0  0  0
 44123  1  0  0  0
 45 46  2  0  0  0
 45124  1  0  0  0
 46125  1  0  0  0
 47126  1  0  0  0
 47127  1  0  0  0
 48 56  1  0  0  0
 48 65  1  0  0  0
 48128  1  0  0  0
 49 50  1  0  0  0
 49 53  1  0  0  0
 49 64  1  0  0  0
 49129  1  0  0  0
 50 51  1  0  0  0
 50130  1  0  0  0
 50131  1  0  0  0
 51 52  1  0  0  0
 51132  1  0  0  0
 51133  1  0  0  0
 52134  1  0  0  0
 52135  1  0  0  0
 53 54  1  0  0  0
 54 55  2  0  0  0
 54136  1  0  0  0
 55 57  1  0  0  0
 55137  1  0  0  0
 56 69  2  0  0  0
 57 58  2  0  0  0
 57138  1  0  0  0
 58139  1  0  0  0
 59 60  1  0  0  0
 59 61  1  0  0  0
 59 62  1  0  0  0
 60140  1  0  0  0
 60141  1  0  0  0
 60142  1  0  0  0
 61143  1  0  0  0
 61144  1  0  0  0
 61145  1  0  0  0
 62146  1  0  0  0
 62147  1  0  0  0
 62148  1  0  0  0
 63 65  1  0  0  0
 63149  1  0  0  0
 63150  1  0  0  0
 63151  1  0  0  0
 64152  1  0  0  0
 65153  1  0  0  0
 68 90  1  0  0  0
 71 74  2  0  0  0
 71 75  1  0  0  0
 71154  1  0  0  0
 72 74  1  0  0  0
 72 76  2  0  0  0
 72155  1  0  0  0
 73 75  2  0  0  0
 73 76  1  0  0  0
 73156  1  0  0  0
 74 80  1  0  0  0
 75 87  1  0  0  0
 76 91  1  0  0  0
 77 88  1  0  0  0
 77 91  1  0  0  0
 77 94  2  0  0  0
 78 80  1  0  0  0
 78 93  1  0  0  0
 78157  1  0  0  0
 78158  1  0  0  0
 79 81  1  0  0  0
 79 93  1  0  0  0
 79159  1  0  0  0
 79160  1  0  0  0
 80 81  1  0  0  0
 80161  1  0  0  0
 81 92  1  0  0  0
 81162  1  0  0  0
 82163  1  0  0  0
 82164  1  0  0  0
 82165  1  0  0  0
 82 89  1  0  0  0
 83 89  1  0  0  0
 83166  1  0  0  0
 83167  1  0  0  0
 83168  1  0  0  0
 84 89  1  0  0  0
 84169  1  0  0  0
 84170  1  0  0  0
 84171  1  0  0  0
 85172  1  0  0  0
 85173  1  0  0  0
 85174  1  0  0  0
 85 90  1  0  0  0
 86 90  1  0  0  0
 86175  1  0  0  0
 86176  1  0  0  0
 86177  1  0  0  0
 87 89  1  0  0  0
 87178  1  0  0  0
 87179  1  0  0  0
 88 90  1  0  0  0
 88180  1  0  0  0
 88181  1  0  0  0
 91182  1  0  0  0
 92183  1  0  0  0
 93184  1  0  0  0
 93185  1  0  0  0
M  CHG  1  93   1
M  ISO  4   1 100  68 101  90 101  92 100
M  END
> <chiral flag>
0

> <version>
0

> <s_m_source_file>
/data/baiqing/PycharmProjects/Reinvent-master-3.2/result/LINK_invent/BTK/process_docking_weight1_custom_product_contain_oxygen_bond_distance_aromatic_linkinvent_7_9_3/rearranged_h_0149.sdf

> <i_m_source_file_index>
48

> <r_mmod_Potential_Energy-OPLS-2005>
-187.911743164062

> <r_mmod_Stretch_Energy-OPLS-2005>
44.9197044372559

> <r_mmod_Bend_Energy-OPLS-2005>
151.495697021484

> <r_mmod_Torsional_Energy-OPLS-2005>
303.885406494141

> <r_mmod_Improper_Torsional_Energy-OPLS-2005>
3.43150401115417

> <r_mmod_Van_der_Waal_Energy-OPLS-2005>
152.307647705078

> <r_mmod_Electrostatic_Energy-OPLS-2005>
-329.573699951172

> <r_mmod_Solvation_Energy-OPLS-2005>
-525.5947265625

> <b_mmod_Minimization_Converged-OPLS-2005>
0

> <r_mmod_RMS_Derivative-OPLS-2005>
1.91955542564392

$$$$
48
                    3D
 Structure written by MMmdl.
151159  0  0  1  0            999 V2000
  -30.7209  -14.5549   20.5004 C   0  0  0  0  0  0
  -30.4119  -12.3490   19.4393 C   0  0  0  0  0  0
  -29.4910  -12.4856   18.2111 C   0  0  0  0  0  0
  -28.0131  -12.3497   18.6263 C   0  0  0  0  0  0
  -27.6494  -13.2211   19.8587 C   0  0  2  0  0  0
  -28.6993  -13.0852   20.9840 C   0  0  0  0  0  0
  -25.2534  -13.8191   20.5687 C   0  0  0  0  0  0
  -24.1813  -13.0448   20.9212 C   0  0  0  0  0  0
  -24.6391  -11.6924   20.8763 C   0  0  0  0  0  0
  -23.9065  -10.4302   21.0417 C   0  0  0  0  0  0
  -24.3614   -9.4213   21.9194 C   0  0  0  0  0  0
  -23.6293   -8.2247   22.0756 C   0  0  0  0  0  0
  -22.4276   -8.0286   21.3544 C   0  0  0  0  0  0
  -21.9910   -9.0262   20.4645 C   0  0  0  0  0  0
  -22.7238  -10.2145   20.3062 C   0  0  0  0  0  0
  -21.6851   -6.0737   22.5278 C   0  0  0  0  0  0
  -21.4013   -6.5640   23.8213 C   0  0  0  0  0  0
  -21.3661   -5.6791   24.9176 C   0  0  0  0  0  0
  -21.6041   -4.3054   24.7225 C   0  0  0  0  0  0
  -21.8818   -3.8146   23.4346 C   0  0  0  0  0  0
  -21.9193   -4.6964   22.3402 C   0  0  0  0  0  0
  -22.7830  -13.5232   21.1861 C   0  0  0  0  0  0
  -22.1661   -4.2148   21.0981 F   0  0  0  0  0  0
  -21.5628   -3.4539   25.7740 F   0  0  0  0  0  0
  -30.0090  -13.3939   20.3984 N   0  0  0  0  0  0
  -26.2971  -12.9388   20.3334 N   0  0  0  0  0  0
  -25.9322  -11.6535   20.5789 N   0  0  0  0  0  0
  -22.0472  -12.8224   22.0414 N   0  0  0  0  0  0
  -25.4213  -15.1906   20.4043 N   0  0  0  0  0  0
  -31.9043  -14.6120   20.1735 O   0  0  0  0  0  0
  -21.6637   -6.8882   21.4243 O   0  0  0  0  0  0
  -22.3519  -14.5539   20.6709 O   0  0  0  0  0  0
  -24.6225  -31.8666   23.2099 C   0  0  0  0  0  0
  -25.9094  -32.4812   23.8410 C   0  0  1  0  0  0
  -27.2162  -27.3654   20.0951 C   0  0  0  0  0  0
  -25.5929  -33.8613   24.2334 N   0  0  0  0  0  0
  -23.4129  -30.4952   21.5522 C   0  0  2  0  0  0
  -24.8557  -28.9663   20.1095 C   0  0  0  0  0  0
  -22.7454  -29.4675   22.4961 C   0  0  0  0  0  0
  -18.0297  -28.1393   22.8510 C   0  0  0  0  0  0
  -24.1488  -36.7307   23.2638 C   0  0  0  0  0  0
  -25.9531  -30.8089   21.3775 C   0  0  0  0  0  0
  -26.0250  -29.4427   20.7159 C   0  0  0  0  0  0
  -27.2085  -28.6518   20.7064 C   0  0  0  0  0  0
  -26.0230  -26.9450   19.4543 C   0  0  0  0  0  0
  -24.8547  -27.7206   19.4715 C   0  0  0  0  0  0
  -23.6234  -29.8409   20.1635 C   0  0  0  0  0  0
  -25.4108  -36.3103   24.0339 C   0  0  1  0  0  0
  -20.5891  -28.3693   23.1297 C   0  0  2  0  0  0
  -20.6784  -26.9437   22.5397 C   0  0  0  0  0  0
  -19.5749  -26.6425   21.5207 C   0  0  0  0  0  0
  -18.1943  -26.7939   22.1651 C   0  0  0  0  0  0
  -19.1549  -28.8858   23.2901 C   0  0  0  0  0  0
  -18.9475  -30.1476   23.8888 C   0  0  0  0  0  0
  -17.6481  -30.6627   24.0531 C   0  0  0  0  0  0
  -25.9038  -34.9470   23.5129 C   0  0  0  0  0  0
  -16.5370  -29.9117   23.6317 C   0  0  0  0  0  0
  -16.7289  -28.6527   23.0355 C   0  0  0  0  0  0
  -26.4491  -31.6596   25.0754 C   0  0  0  0  0  0
  -25.3742  -31.3719   26.1491 C   0  0  0  0  0  0
  -27.0324  -30.3027   24.6171 C   0  0  0  0  0  0
  -27.6063  -32.4311   25.7521 C   0  0  0  0  0  0
  -27.5580  -37.1808   24.8466 C   0  0  0  0  0  0
  -21.4170  -29.3081   22.3709 N   0  0  0  0  0  0
  -26.4291  -37.3787   23.9409 N   0  0  0  0  0  0
  -24.6816  -31.0724   22.1030 N   0  0  0  0  0  0
  -23.4204  -28.8184   23.2993 O   0  0  0  0  0  0
  -28.3298  -26.5215   20.1460 O   0  0  0  0  0  0
  -26.5595  -34.8924   22.4689 O   0  0  0  0  0  0
  -23.5397  -32.1447   23.7448 O   0  0  0  0  0  0
  -29.3888  -18.8908   20.6340 C   0  0  0  0  0  0
  -28.8130  -20.1584   22.5019 C   0  0  0  0  0  0
  -29.1990  -20.2190   21.1898 C   0  0  0  0  0  0
  -29.1166  -17.8557   21.5209 C   0  0  0  0  0  0
  -29.0720  -24.0459   20.3591 C   0  0  0  0  0  0
  -29.0859  -16.3297   21.3755 C   0  0  0  0  0  0
  -28.5183  -22.6178   20.6799 C   0  0  0  0  0  0
  -28.0244  -25.1061   19.9132 C   0  0  0  0  0  0
  -29.3975  -21.4365   20.4684 N   0  0  0  0  0  0
  -30.0577  -15.7354   20.4503 N   0  0  0  0  0  0
  -30.2779  -24.3055   20.4397 O   0  0  0  0  0  0
  -28.6609  -18.5192   23.0716 S   0  0  0  0  0  0
  -31.4561  -12.4326   19.1326 H   0  0  0  0  0  0
  -30.3130  -11.3601   19.8889 H   0  0  0  0  0  0
  -29.7397  -11.7284   17.4662 H   0  0  0  0  0  0
  -29.6529  -13.4527   17.7320 H   0  0  0  0  0  0
  -27.8309  -11.2984   18.8487 H   0  0  0  0  0  0
  -27.3633  -12.5993   17.7871 H   0  0  0  0  0  0
  -27.6674  -14.2541   19.5132 H   0  0  0  0  0  0
  -28.7003  -12.0714   21.3862 H   0  0  0  0  0  0
  -28.4662  -13.7387   21.8230 H   0  0  0  0  0  0
  -25.2758   -9.5683   22.4773 H   0  0  0  0  0  0
  -23.9999   -7.4629   22.7467 H   0  0  0  0  0  0
  -21.0845   -8.8776   19.8944 H   0  0  0  0  0  0
  -22.3695  -10.9685   19.6169 H   0  0  0  0  0  0
  -21.2006   -7.6148   23.9715 H   0  0  0  0  0  0
  -21.1482   -6.0524   25.9077 H   0  0  0  0  0  0
  -22.0596   -2.7609   23.2849 H   0  0  0  0  0  0
  -22.4084  -11.9890   22.4816 H   0  0  0  0  0  0
  -21.1089  -13.1252   22.2613 H   0  0  0  0  0  0
  -24.6514  -15.8436   20.5021 H   0  0  0  0  0  0
  -26.2596  -15.6207   20.0366 H   0  0  0  0  0  0
  -26.7170  -32.5496   23.1171 H   0  0  0  0  0  0
  -25.0090  -33.9779   25.0487 H   0  0  0  0  0  0
  -22.7046  -31.3155   21.4158 H   0  0  0  0  0  0
  -23.3746  -35.9642   23.3300 H   0  0  0  0  0  0
  -24.3582  -36.8915   22.2049 H   0  0  0  0  0  0
  -23.7243  -37.6515   23.6649 H   0  0  0  0  0  0
  -26.0832  -31.5756   20.6123 H   0  0  0  0  0  0
  -26.8346  -30.8530   22.0047 H   0  0  0  0  0  0
  -28.1026  -29.0104   21.1977 H   0  0  0  0  0  0
  -25.9507  -26.0047   18.9295 H   0  0  0  0  0  0
  -23.9615  -27.3548   18.9840 H   0  0  0  0  0  0
  -23.7407  -30.6223   19.4115 H   0  0  0  0  0  0
  -22.7438  -29.2710   19.8594 H   0  0  0  0  0  0
  -25.1284  -36.1962   25.0830 H   0  0  0  0  0  0
  -20.9980  -28.3245   24.1415 H   0  0  0  0  0  0
  -20.5703  -26.2314   23.3589 H   0  0  0  0  0  0
  -21.6648  -26.7473   22.1171 H   0  0  0  0  0  0
  -19.6913  -25.6348   21.1205 H   0  0  0  0  0  0
  -19.6678  -27.3275   20.6772 H   0  0  0  0  0  0
  -17.4188  -26.6672   21.4078 H   0  0  0  0  0  0
  -18.0377  -26.0082   22.9055 H   0  0  0  0  0  0
  -19.7950  -30.7302   24.2226 H   0  0  0  0  0  0
  -17.5047  -31.6334   24.5083 H   0  0  0  0  0  0
  -15.5374  -30.3039   23.7614 H   0  0  0  0  0  0
  -15.8684  -28.0857   22.7060 H   0  0  0  0  0  0
  -24.5924  -30.7047   25.7842 H   0  0  0  0  0  0
  -24.8927  -32.2878   26.4928 H   0  0  0  0  0  0
  -25.8092  -30.8910   27.0262 H   0  0  0  0  0  0
  -26.2891  -29.6784   24.1194 H   0  0  0  0  0  0
  -27.4037  -29.7263   25.4654 H   0  0  0  0  0  0
  -27.8758  -30.4323   23.9383 H   0  0  0  0  0  0
  -27.2687  -33.3609   26.2113 H   0  0  0  0  0  0
  -28.3877  -32.6862   25.0352 H   0  0  0  0  0  0
  -28.0724  -31.8419   26.5427 H   0  0  0  0  0  0
  -28.2602  -38.0104   24.7513 H   0  0  0  0  0  0
  -28.1077  -36.2634   24.6293 H   0  0  0  0  0  0
  -27.2304  -37.1461   25.8873 H   0  0  0  0  0  0
  -20.9320  -29.8847   21.6976 H   0  0  0  0  0  0
  -26.0178  -38.2868   24.1394 H   0  0  0  0  0  0
  -29.6856  -18.7405   19.6055 H   0  0  0  0  0  0
  -28.6100  -20.9701   23.1891 H   0  0  0  0  0  0
  -29.2292  -15.8779   22.3586 H   0  0  0  0  0  0
  -28.0881  -16.0354   21.0540 H   0  0  0  0  0  0
  -27.6230  -22.4731   20.0733 H   0  0  0  0  0  0
  -28.1704  -22.6414   21.7123 H   0  0  0  0  0  0
  -27.1015  -24.8467   20.4337 H   0  0  0  0  0  0
  -27.8537  -24.9525   18.8477 H   0  0  0  0  0  0
  -29.7541  -21.3463   19.5189 H   0  0  0  0  0  0
  -30.6520  -16.4419   20.0447 H   0  0  0  0  0  0
  1 25  1  0  0  0
  1 30  2  0  0  0
  1 80  1  0  0  0
  2  3  1  0  0  0
  2 25  1  0  0  0
  2 83  1  0  0  0
  2 84  1  0  0  0
  3  4  1  0  0  0
  3 85  1  0  0  0
  3 86  1  0  0  0
  4  5  1  0  0  0
  4 87  1  0  0  0
  4 88  1  0  0  0
  5  6  1  0  0  0
  5 26  1  0  0  0
  5 89  1  0  0  0
  6 25  1  0  0  0
  6 90  1  0  0  0
  6 91  1  0  0  0
  7  8  2  0  0  0
  7 26  1  0  0  0
  7 29  1  0  0  0
  8  9  1  0  0  0
  8 22  1  0  0  0
  9 10  1  0  0  0
  9 27  2  0  0  0
 10 11  2  0  0  0
 10 15  1  0  0  0
 11 12  1  0  0  0
 11 92  1  0  0  0
 12 13  2  0  0  0
 12 93  1  0  0  0
 13 14  1  0  0  0
 13 31  1  0  0  0
 14 15  2  0  0  0
 14 94  1  0  0  0
 15 95  1  0  0  0
 16 17  2  0  0  0
 16 21  1  0  0  0
 16 31  1  0  0  0
 17 18  1  0  0  0
 17 96  1  0  0  0
 18 19  2  0  0  0
 18 97  1  0  0  0
 19 20  1  0  0  0
 19 24  1  0  0  0
 20 21  2  0  0  0
 20 98  1  0  0  0
 21 23  1  0  0  0
 22 28  1  0  0  0
 22 32  2  0  0  0
 26 27  1  0  0  0
 28 99  1  0  0  0
 28100  1  0  0  0
 29101  1  0  0  0
 29102  1  0  0  0
 33 34  1  0  0  0
 33 66  1  0  0  0
 33 70  2  0  0  0
 34 36  1  0  0  0
 34 59  1  0  0  0
 34103  1  0  0  0
 35 44  2  0  0  0
 35 45  1  0  0  0
 35 68  1  0  0  0
 36 56  1  0  0  0
 36104  1  0  0  0
 37 39  1  0  0  0
 37 47  1  0  0  0
 37 66  1  0  0  0
 37105  1  0  0  0
 38 43  2  0  0  0
 38 46  1  0  0  0
 38 47  1  0  0  0
 39 64  1  0  0  0
 39 67  2  0  0  0
 40 52  1  0  0  0
 40 53  2  0  0  0
 40 58  1  0  0  0
 41106  1  0  0  0
 41107  1  0  0  0
 41108  1  0  0  0
 41 48  1  0  0  0
 42 43  1  0  0  0
 42 66  1  0  0  0
 42109  1  0  0  0
 42110  1  0  0  0
 43 44  1  0  0  0
 44111  1  0  0  0
 45 46  2  0  0  0
 45112  1  0  0  0
 46113  1  0  0  0
 47114  1  0  0  0
 47115  1  0  0  0
 48 56  1  0  0  0
 48 65  1  0  0  0
 48116  1  0  0  0
 49 50  1  0  0  0
 49 53  1  0  0  0
 49 64  1  0  0  0
 49117  1  0  0  0
 50 51  1  0  0  0
 50118  1  0  0  0
 50119  1  0  0  0
 51 52  1  0  0  0
 51120  1  0  0  0
 51121  1  0  0  0
 52122  1  0  0  0
 52123  1  0  0  0
 53 54  1  0  0  0
 54 55  2  0  0  0
 54124  1  0  0  0
 55 57  1  0  0  0
 55125  1  0  0  0
 56 69  2  0  0  0
 57 58  2  0  0  0
 57126  1  0  0  0
 58127  1  0  0  0
 59 60  1  0  0  0
 59 61  1  0  0  0
 59 62  1  0  0  0
 60128  1  0  0  0
 60129  1  0  0  0
 60130  1  0  0  0
 61131  1  0  0  0
 61132  1  0  0  0
 61133  1  0  0  0
 62134  1  0  0  0
 62135  1  0  0  0
 62136  1  0  0  0
 63 65  1  0  0  0
 63137  1  0  0  0
 63138  1  0  0  0
 63139  1  0  0  0
 64140  1  0  0  0
 65141  1  0  0  0
 68 78  1  0  0  0
 71 73  1  0  0  0
 71 74  2  0  0  0
 71142  1  0  0  0
 72 73  2  0  0  0
 72 82  1  0  0  0
 72143  1  0  0  0
 73 79  1  0  0  0
 74 76  1  0  0  0
 74 82  1  0  0  0
 75 77  1  0  0  0
 75 78  1  0  0  0
 75 81  2  0  0  0
 76 80  1  0  0  0
 76144  1  0  0  0
 76145  1  0  0  0
 77 79  1  0  0  0
 77146  1  0  0  0
 77147  1  0  0  0
 78148  1  0  0  0
 78149  1  0  0  0
 79150  1  0  0  0
 80151  1  0  0  0
M  ISO  4   1 100  68 101  78 101  80 100
M  END
> <chiral flag>
0

> <version>
0

> <s_m_source_file>
/data/baiqing/PycharmProjects/Reinvent-master-3.2/result/LINK_invent/BTK/process_docking_weight1_custom_product_contain_oxygen_bond_distance_aromatic_linkinvent_7_9_3/rearranged_h_0149.sdf

> <i_m_source_file_index>
49

> <r_mmod_Potential_Energy-OPLS-2005>
-8.36001968383789

> <r_mmod_Stretch_Energy-OPLS-2005>
52.0233688354492

> <r_mmod_Bend_Energy-OPLS-2005>
137.571929931641

> <r_mmod_Torsional_Energy-OPLS-2005>
251.087905883789

> <r_mmod_Improper_Torsional_Energy-OPLS-2005>
21.849479675293

> <r_mmod_Van_der_Waal_Energy-OPLS-2005>
126.829788208008

> <r_mmod_Electrostatic_Energy-OPLS-2005>
-380.255859375

> <r_mmod_Solvation_Energy-OPLS-2005>
-253.827896118164

> <b_mmod_Minimization_Converged-OPLS-2005>
0

> <r_mmod_RMS_Derivative-OPLS-2005>
1.34203279018402

$$$$
49
                    3D
 Structure written by MMmdl.
164173  0  0  1  0            999 V2000
  -30.5442  -14.8362   20.5084 C   0  0  0  0  0  0
  -30.4154  -12.5283   19.4766 C   0  0  0  0  0  0
  -29.5029  -12.5249   18.2284 C   0  0  0  0  0  0
  -28.0353  -12.2951   18.6384 C   0  0  0  0  0  0
  -27.6148  -13.2204   19.8091 C   0  0  2  0  0  0
  -28.6409  -13.1895   20.9478 C   0  0  0  0  0  0
  -25.2417  -13.8140   20.5614 C   0  0  0  0  0  0
  -24.1720  -13.0394   20.9191 C   0  0  0  0  0  0
  -24.6333  -11.6893   20.8732 C   0  0  0  0  0  0
  -23.9064  -10.4273   21.0405 C   0  0  0  0  0  0
  -24.3633   -9.4187   21.9168 C   0  0  0  0  0  0
  -23.6300   -8.2232   22.0758 C   0  0  0  0  0  0
  -22.4279   -8.0269   21.3563 C   0  0  0  0  0  0
  -21.9908   -9.0233   20.4644 C   0  0  0  0  0  0
  -22.7248  -10.2112   20.3039 C   0  0  0  0  0  0
  -21.6846   -6.0751   22.5312 C   0  0  0  0  0  0
  -21.3997   -6.5653   23.8237 C   0  0  0  0  0  0
  -21.3649   -5.6797   24.9189 C   0  0  0  0  0  0
  -21.6066   -4.3061   24.7249 C   0  0  0  0  0  0
  -21.8806   -3.8162   23.4351 C   0  0  0  0  0  0
  -21.9180   -4.6979   22.3409 C   0  0  0  0  0  0
  -22.7741  -13.5165   21.1902 C   0  0  0  0  0  0
  -22.1646   -4.2130   21.0984 F   0  0  0  0  0  0
  -21.5653   -3.4559   25.7765 F   0  0  0  0  0  0
  -29.9282  -13.6018   20.3812 N   0  0  0  0  0  0
  -26.2780  -12.9317   20.3046 N   0  0  0  0  0  0
  -25.9232  -11.6493   20.5633 N   0  0  0  0  0  0
  -22.0427  -12.8127   22.0466 N   0  0  0  0  0  0
  -25.4134  -15.1868   20.4131 N   0  0  0  0  0  0
  -31.7575  -14.8932   20.2766 O   0  0  0  0  0  0
  -21.6646   -6.8880   21.4275 O   0  0  0  0  0  0
  -22.3404  -14.5474   20.6739 O   0  0  0  0  0  0
  -24.6422  -31.8478   23.1880 C   0  0  0  0  0  0
  -25.9231  -32.4702   23.8266 C   0  0  1  0  0  0
  -27.1724  -27.1782   20.1057 C   0  0  0  0  0  0
  -25.5998  -33.8505   24.2218 N   0  0  0  0  0  0
  -23.4359  -30.4795   21.5350 C   0  0  2  0  0  0
  -24.8627  -28.9135   20.1039 C   0  0  0  0  0  0
  -22.7532  -29.4644   22.4875 C   0  0  0  0  0  0
  -18.0343  -28.1412   22.8437 C   0  0  0  0  0  0
  -24.1499  -36.7255   23.2654 C   0  0  0  0  0  0
  -25.9857  -30.7345   21.3750 C   0  0  0  0  0  0
  -26.0446  -29.3533   20.7133 C   0  0  0  0  0  0
  -27.2012  -28.4965   20.7029 C   0  0  0  0  0  0
  -25.9603  -26.8183   19.4827 C   0  0  0  0  0  0
  -24.8274  -27.6570   19.4860 C   0  0  0  0  0  0
  -23.6455  -29.8134   20.1516 C   0  0  0  0  0  0
  -25.4133  -36.3035   24.0318 C   0  0  1  0  0  0
  -20.5942  -28.3780   23.1187 C   0  0  2  0  0  0
  -20.6858  -26.9464   22.5381 C   0  0  0  0  0  0
  -19.5786  -26.6340   21.5268 C   0  0  0  0  0  0
  -18.1950  -26.7916   22.1618 C   0  0  0  0  0  0
  -19.1596  -28.8928   23.2799 C   0  0  0  0  0  0
  -18.9497  -30.1544   23.8829 C   0  0  0  0  0  0
  -17.6479  -30.6599   24.0562 C   0  0  0  0  0  0
  -25.9078  -34.9406   23.5087 C   0  0  0  0  0  0
  -16.5387  -29.9056   23.6353 C   0  0  0  0  0  0
  -16.7327  -28.6499   23.0315 C   0  0  0  0  0  0
  -26.4557  -31.6542   25.0695 C   0  0  0  0  0  0
  -25.3776  -31.3671   26.1419 C   0  0  0  0  0  0
  -27.0415  -30.2964   24.6213 C   0  0  0  0  0  0
  -27.6099  -32.4302   25.7482 C   0  0  0  0  0  0
  -27.5574  -37.1813   24.8486 C   0  0  0  0  0  0
  -21.4252  -29.3121   22.3624 N   0  0  0  0  0  0
  -26.4301  -37.3738   23.9393 N   0  0  0  0  0  0
  -24.7076  -31.0425   22.0867 N   0  0  0  0  0  0
  -23.4253  -28.8211   23.2993 O   0  0  0  0  0  0
  -28.2483  -26.2429   20.1618 O   0  0  0  0  0  0
  -26.5660  -34.8909   22.4664 O   0  0  0  0  0  0
  -23.5590  -32.1340   23.7183 O   0  0  0  0  0  0
  -28.1100  -19.1962   22.8170 C   0  0  0  0  0  0
  -28.2620  -17.8818   23.2825 C   0  0  0  0  0  0
  -29.2490  -18.5934   20.7903 C   0  0  0  0  0  0
  -28.6765  -19.6865   21.6041 C   0  0  0  0  0  0
  -28.9298  -16.8982   22.5392 C   0  0  0  0  0  0
  -29.3701  -17.1737   21.2204 C   0  0  0  0  0  0
  -28.0281  -23.5221   20.5784 C   0  0  0  0  0  0
  -28.5824  -22.2193   20.4409 C   0  0  0  0  0  0
  -27.8672  -22.4871   23.5245 C   0  0  0  0  0  0
  -27.0031  -23.9072   21.6532 C   0  0  0  0  0  0
  -26.6399  -22.8608   22.7153 C   0  0  0  0  0  0
  -29.0132  -21.7964   22.7727 C   0  0  0  0  0  0
  -29.3701  -21.8611   19.1933 C   0  0  0  0  0  0
  -28.2110  -24.8045   19.6181 C   0  0  0  0  0  0
  -28.6294  -21.1789   21.4770 N   0  0  0  0  0  0
  -29.1293  -15.6658   23.1561 N   0  0  0  0  0  0
  -29.7971  -16.0163   20.3504 N   0  0  0  0  0  0
  -27.9437  -22.7627   24.7245 O   0  0  0  0  0  0
  -31.4586  -12.6729   19.1828 H   0  0  0  0  0  0
  -30.3767  -11.5600   19.9793 H   0  0  0  0  0  0
  -29.8210  -11.7686   17.5112 H   0  0  0  0  0  0
  -29.5917  -13.4812   17.7131 H   0  0  0  0  0  0
  -27.9370  -11.2571   18.9502 H   0  0  0  0  0  0
  -27.3591  -12.4111   17.7845 H   0  0  0  0  0  0
  -27.5966  -14.2329   19.4021 H   0  0  0  0  0  0
  -28.6996  -12.1944   21.3894 H   0  0  0  0  0  0
  -28.3037  -13.8553   21.7341 H   0  0  0  0  0  0
  -25.2800   -9.5657   22.4703 H   0  0  0  0  0  0
  -24.0009   -7.4639   22.7466 H   0  0  0  0  0  0
  -21.0846   -8.8742   19.8952 H   0  0  0  0  0  0
  -22.3715  -10.9630   19.6105 H   0  0  0  0  0  0
  -21.1964   -7.6146   23.9731 H   0  0  0  0  0  0
  -21.1490   -6.0531   25.9086 H   0  0  0  0  0  0
  -22.0587   -2.7616   23.2877 H   0  0  0  0  0  0
  -22.4088  -11.9794   22.4799 H   0  0  0  0  0  0
  -21.1042  -13.1088   22.2705 H   0  0  0  0  0  0
  -24.6523  -15.8442   20.5464 H   0  0  0  0  0  0
  -26.2956  -15.6378   20.2058 H   0  0  0  0  0  0
  -26.7298  -32.5315   23.0992 H   0  0  0  0  0  0
  -25.0062  -33.9569   25.0303 H   0  0  0  0  0  0
  -22.7423  -31.3097   21.3918 H   0  0  0  0  0  0
  -23.3725  -35.9617   23.3326 H   0  0  0  0  0  0
  -24.3574  -36.8865   22.2067 H   0  0  0  0  0  0
  -23.7296  -37.6488   23.6647 H   0  0  0  0  0  0
  -26.1493  -31.4887   20.6057 H   0  0  0  0  0  0
  -26.8530  -30.7708   22.0188 H   0  0  0  0  0  0
  -28.1101  -28.8262   21.1886 H   0  0  0  0  0  0
  -25.8182  -25.8575   19.0160 H   0  0  0  0  0  0
  -23.9119  -27.3118   19.0232 H   0  0  0  0  0  0
  -23.7710  -30.5838   19.3863 H   0  0  0  0  0  0
  -22.7520  -29.2562   19.8634 H   0  0  0  0  0  0
  -25.1332  -36.1853   25.0804 H   0  0  0  0  0  0
  -20.9994  -28.3348   24.1293 H   0  0  0  0  0  0
  -20.5811  -26.2391   23.3591 H   0  0  0  0  0  0
  -21.6729  -26.7511   22.1104 H   0  0  0  0  0  0
  -19.6977  -25.6232   21.1349 H   0  0  0  0  0  0
  -19.6632  -27.3119   20.6775 H   0  0  0  0  0  0
  -17.4278  -26.6743   21.3940 H   0  0  0  0  0  0
  -18.0261  -26.0010   22.8945 H   0  0  0  0  0  0
  -19.7909  -30.7441   24.2246 H   0  0  0  0  0  0
  -17.4961  -31.6277   24.5212 H   0  0  0  0  0  0
  -15.5378  -30.2926   23.7702 H   0  0  0  0  0  0
  -15.8767  -28.0757   22.7052 H   0  0  0  0  0  0
  -24.5950  -30.7041   25.7735 H   0  0  0  0  0  0
  -24.8971  -32.2810   26.4922 H   0  0  0  0  0  0
  -25.8112  -30.8798   27.0166 H   0  0  0  0  0  0
  -26.2996  -29.6700   24.1276 H   0  0  0  0  0  0
  -27.4131  -29.7286   25.4760 H   0  0  0  0  0  0
  -27.8851  -30.4247   23.9431 H   0  0  0  0  0  0
  -27.2689  -33.3590   26.2073 H   0  0  0  0  0  0
  -28.3883  -32.6912   25.0290 H   0  0  0  0  0  0
  -28.0773  -31.8423   26.5399 H   0  0  0  0  0  0
  -28.2666  -38.0054   24.7467 H   0  0  0  0  0  0
  -28.1015  -36.2596   24.6384 H   0  0  0  0  0  0
  -27.2280  -37.1546   25.8895 H   0  0  0  0  0  0
  -20.9365  -29.8837   21.6844 H   0  0  0  0  0  0
  -26.0169  -38.2821   24.1326 H   0  0  0  0  0  0
  -27.5757  -19.8478   23.4908 H   0  0  0  0  0  0
  -27.8542  -17.6406   24.2569 H   0  0  0  0  0  0
  -29.6393  -18.8406   19.8150 H   0  0  0  0  0  0
  -26.0833  -24.1564   21.1203 H   0  0  0  0  0  0
  -27.3227  -24.8322   22.1393 H   0  0  0  0  0  0
  -25.8698  -23.2569   23.3865 H   0  0  0  0  0  0
  -26.2209  -21.9633   22.2556 H   0  0  0  0  0  0
  -29.5111  -21.1110   23.4613 H   0  0  0  0  0  0
  -29.7627  -22.5616   22.5797 H   0  0  0  0  0  0
  -30.3936  -22.2192   19.2753 H   0  0  0  0  0  0
  -28.9227  -22.3174   18.3064 H   0  0  0  0  0  0
  -29.3866  -20.7890   19.0045 H   0  0  0  0  0  0
  -27.4807  -24.6903   18.8217 H   0  0  0  0  0  0
  -29.1630  -24.6766   19.1030 H   0  0  0  0  0  0
  -28.9345  -15.6249   24.1524 H   0  0  0  0  0  0
  -29.9960  -15.1953   22.9353 H   0  0  0  0  0  0
  -30.0103  -16.3696   19.4310 H   0  0  0  0  0  0
  1 25  1  0  0  0
  1 30  2  0  0  0
  1 87  1  0  0  0
  2  3  1  0  0  0
  2 25  1  0  0  0
  2 89  1  0  0  0
  2 90  1  0  0  0
  3  4  1  0  0  0
  3 91  1  0  0  0
  3 92  1  0  0  0
  4  5  1  0  0  0
  4 93  1  0  0  0
  4 94  1  0  0  0
  5  6  1  0  0  0
  5 26  1  0  0  0
  5 95  1  0  0  0
  6 25  1  0  0  0
  6 96  1  0  0  0
  6 97  1  0  0  0
  7  8  2  0  0  0
  7 26  1  0  0  0
  7 29  1  0  0  0
  8  9  1  0  0  0
  8 22  1  0  0  0
  9 10  1  0  0  0
  9 27  2  0  0  0
 10 11  2  0  0  0
 10 15  1  0  0  0
 11 12  1  0  0  0
 11 98  1  0  0  0
 12 13  2  0  0  0
 12 99  1  0  0  0
 13 14  1  0  0  0
 13 31  1  0  0  0
 14 15  2  0  0  0
 14100  1  0  0  0
 15101  1  0  0  0
 16 17  2  0  0  0
 16 21  1  0  0  0
 16 31  1  0  0  0
 17 18  1  0  0  0
 17102  1  0  0  0
 18 19  2  0  0  0
 18103  1  0  0  0
 19 20  1  0  0  0
 19 24  1  0  0  0
 20 21  2  0  0  0
 20104  1  0  0  0
 21 23  1  0  0  0
 22 28  1  0  0  0
 22 32  2  0  0  0
 26 27  1  0  0  0
 28105  1  0  0  0
 28106  1  0  0  0
 29107  1  0  0  0
 29108  1  0  0  0
 33 34  1  0  0  0
 33 66  1  0  0  0
 33 70  2  0  0  0
 34 36  1  0  0  0
 34 59  1  0  0  0
 34109  1  0  0  0
 35 44  2  0  0  0
 35 45  1  0  0  0
 35 68  1  0  0  0
 36 56  1  0  0  0
 36110  1  0  0  0
 37 39  1  0  0  0
 37 47  1  0  0  0
 37 66  1  0  0  0
 37111  1  0  0  0
 38 43  2  0  0  0
 38 46  1  0  0  0
 38 47  1  0  0  0
 39 64  1  0  0  0
 39 67  2  0  0  0
 40 52  1  0  0  0
 40 53  2  0  0  0
 40 58  1  0  0  0
 41112  1  0  0  0
 41113  1  0  0  0
 41114  1  0  0  0
 41 48  1  0  0  0
 42 43  1  0  0  0
 42 66  1  0  0  0
 42115  1  0  0  0
 42116  1  0  0  0
 43 44  1  0  0  0
 44117  1  0  0  0
 45 46  2  0  0  0
 45118  1  0  0  0
 46119  1  0  0  0
 47120  1  0  0  0
 47121  1  0  0  0
 48 56  1  0  0  0
 48 65  1  0  0  0
 48122  1  0  0  0
 49 50  1  0  0  0
 49 53  1  0  0  0
 49 64  1  0  0  0
 49123  1  0  0  0
 50 51  1  0  0  0
 50124  1  0  0  0
 50125  1  0  0  0
 51 52  1  0  0  0
 51126  1  0  0  0
 51127  1  0  0  0
 52128  1  0  0  0
 52129  1  0  0  0
 53 54  1  0  0  0
 54 55  2  0  0  0
 54130  1  0  0  0
 55 57  1  0  0  0
 55131  1  0  0  0
 56 69  2  0  0  0
 57 58  2  0  0  0
 57132  1  0  0  0
 58133  1  0  0  0
 59 60  1  0  0  0
 59 61  1  0  0  0
 59 62  1  0  0  0
 60134  1  0  0  0
 60135  1  0  0  0
 60136  1  0  0  0
 61137  1  0  0  0
 61138  1  0  0  0
 61139  1  0  0  0
 62140  1  0  0  0
 62141  1  0  0  0
 62142  1  0  0  0
 63 65  1  0  0  0
 63143  1  0  0  0
 63144  1  0  0  0
 63145  1  0  0  0
 64146  1  0  0  0
 65147  1  0  0  0
 68 84  1  0  0  0
 71 72  2  0  0  0
 71 74  1  0  0  0
 71148  1  0  0  0
 72 75  1  0  0  0
 72149  1  0  0  0
 73 74  2  0  0  0
 73 76  1  0  0  0
 73150  1  0  0  0
 74 85  1  0  0  0
 75 76  2  0  0  0
 75 86  1  0  0  0
 76 87  1  0  0  0
 77 78  2  0  0  0
 77 80  1  0  0  0
 77 84  1  0  0  0
 78 83  1  0  0  0
 78 85  1  0  0  0
 79 81  1  0  0  0
 79 82  1  0  0  0
 79 88  2  0  0  0
 80 81  1  0  0  0
 80151  1  0  0  0
 80152  1  0  0  0
 81153  1  0  0  0
 81154  1  0  0  0
 82 85  1  0  0  0
 82155  1  0  0  0
 82156  1  0  0  0
 83157  1  0  0  0
 83158  1  0  0  0
 83159  1  0  0  0
 84160  1  0  0  0
 84161  1  0  0  0
 86162  1  0  0  0
 86163  1  0  0  0
 87164  1  0  0  0
M  ISO  4   1 100  68 101  84 101  87 100
M  END
> <chiral flag>
0

> <version>
0

> <s_m_source_file>
/data/baiqing/PycharmProjects/Reinvent-master-3.2/result/LINK_invent/BTK/process_docking_weight1_custom_product_contain_oxygen_bond_distance_aromatic_linkinvent_7_9_3/rearranged_h_0149.sdf

> <i_m_source_file_index>
50

> <r_mmod_Potential_Energy-OPLS-2005>
417.011901855469

> <r_mmod_Stretch_Energy-OPLS-2005>
198.742065429688

> <r_mmod_Bend_Energy-OPLS-2005>
277.005462646484

> <r_mmod_Torsional_Energy-OPLS-2005>
317.267028808594

> <r_mmod_Improper_Torsional_Energy-OPLS-2005>
26.9181385040283

> <r_mmod_Van_der_Waal_Energy-OPLS-2005>
163.011642456055

> <r_mmod_Electrostatic_Energy-OPLS-2005>
-492.244415283203

> <r_mmod_Solvation_Energy-OPLS-2005>
-214.134063720703

> <b_mmod_Minimization_Converged-OPLS-2005>
0

> <r_mmod_RMS_Derivative-OPLS-2005>
7.77343082427979

$$$$
50
                    3D
 Structure written by MMmdl.
158166  0  0  1  0            999 V2000
  -30.6291  -14.5403   20.5708 C   0  0  0  0  0  0
  -30.4461  -12.3470   19.4202 C   0  0  0  0  0  0
  -29.5040  -12.5106   18.2047 C   0  0  0  0  0  0
  -28.0226  -12.3705   18.6150 C   0  0  0  0  0  0
  -27.6665  -13.2029   19.8749 C   0  0  2  0  0  0
  -28.7093  -12.9556   20.9887 C   0  0  0  0  0  0
  -25.2604  -13.8130   20.5679 C   0  0  0  0  0  0
  -24.1826  -13.0427   20.9126 C   0  0  0  0  0  0
  -24.6341  -11.6890   20.8652 C   0  0  0  0  0  0
  -23.8994  -10.4266   21.0337 C   0  0  0  0  0  0
  -24.3555   -9.4203   21.9135 C   0  0  0  0  0  0
  -23.6268   -8.2234   22.0730 C   0  0  0  0  0  0
  -22.4247   -8.0227   21.3505 C   0  0  0  0  0  0
  -21.9853   -9.0213   20.4625 C   0  0  0  0  0  0
  -22.7161  -10.2104   20.3020 C   0  0  0  0  0  0
  -21.6860   -6.0695   22.5258 C   0  0  0  0  0  0
  -21.4022   -6.5606   23.8195 C   0  0  0  0  0  0
  -21.3668   -5.6757   24.9157 C   0  0  0  0  0  0
  -21.6053   -4.3026   24.7209 C   0  0  0  0  0  0
  -21.8828   -3.8113   23.4333 C   0  0  0  0  0  0
  -21.9195   -4.6917   22.3384 C   0  0  0  0  0  0
  -22.7840  -13.5273   21.1776 C   0  0  0  0  0  0
  -22.1663   -4.2105   21.0971 F   0  0  0  0  0  0
  -21.5623   -3.4523   25.7731 F   0  0  0  0  0  0
  -30.0336  -13.3147   20.4498 N   0  0  0  0  0  0
  -26.3033  -12.9297   20.3345 N   0  0  0  0  0  0
  -25.9273  -11.6449   20.5663 N   0  0  0  0  0  0
  -22.0477  -12.8335   22.0359 N   0  0  0  0  0  0
  -25.4358  -15.1849   20.4123 N   0  0  0  0  0  0
  -31.7317  -14.7923   20.0719 O   0  0  0  0  0  0
  -21.6621   -6.8829   21.4219 O   0  0  0  0  0  0
  -22.3546  -14.5578   20.6601 O   0  0  0  0  0  0
  -24.6119  -31.8643   23.2037 C   0  0  0  0  0  0
  -25.8984  -32.4827   23.8374 C   0  0  1  0  0  0
  -27.2377  -27.3789   20.0918 C   0  0  0  0  0  0
  -25.5828  -33.8637   24.2283 N   0  0  0  0  0  0
  -23.4086  -30.4795   21.5483 C   0  0  2  0  0  0
  -24.8572  -28.9420   20.1095 C   0  0  0  0  0  0
  -22.7427  -29.4586   22.4991 C   0  0  0  0  0  0
  -18.0261  -28.1359   22.8517 C   0  0  0  0  0  0
  -24.1489  -36.7279   23.2646 C   0  0  0  0  0  0
  -25.9450  -30.8039   21.3765 C   0  0  0  0  0  0
  -26.0174  -29.4372   20.7164 C   0  0  0  0  0  0
  -27.2052  -28.6613   20.7073 C   0  0  0  0  0  0
  -26.0518  -26.9099   19.4846 C   0  0  0  0  0  0
  -24.8725  -27.6816   19.4906 C   0  0  0  0  0  0
  -23.6184  -29.8100   20.1644 C   0  0  0  0  0  0
  -25.4124  -36.3104   24.0327 C   0  0  1  0  0  0
  -20.5855  -28.3622   23.1326 C   0  0  2  0  0  0
  -20.6739  -26.9359   22.5420 C   0  0  0  0  0  0
  -19.5722  -26.6358   21.5215 C   0  0  0  0  0  0
  -18.1904  -26.7904   22.1641 C   0  0  0  0  0  0
  -19.1514  -28.8810   23.2919 C   0  0  0  0  0  0
  -18.9452  -30.1418   23.8934 C   0  0  0  0  0  0
  -17.6456  -30.6582   24.0555 C   0  0  0  0  0  0
  -25.9047  -34.9471   23.5111 C   0  0  0  0  0  0
  -16.5342  -29.9086   23.6330 C   0  0  0  0  0  0
  -16.7247  -28.6479   23.0397 C   0  0  0  0  0  0
  -26.4402  -31.6655   25.0740 C   0  0  0  0  0  0
  -25.3625  -31.3824   26.1468 C   0  0  0  0  0  0
  -27.0244  -30.3082   24.6186 C   0  0  0  0  0  0
  -27.5993  -32.4400   25.7469 C   0  0  0  0  0  0
  -27.5602  -37.1782   24.8453 C   0  0  0  0  0  0
  -21.4140  -29.2969   22.3733 N   0  0  0  0  0  0
  -26.4307  -37.3790   23.9406 N   0  0  0  0  0  0
  -24.6738  -31.0660   22.0992 N   0  0  0  0  0  0
  -23.4182  -28.8118   23.3040 O   0  0  0  0  0  0
  -28.4138  -26.6341   20.1342 O   0  0  0  0  0  0
  -26.5652  -34.8910   22.4706 O   0  0  0  0  0  0
  -23.5282  -32.1439   23.7366 O   0  0  0  0  0  0
  -29.6264  -18.9366   21.9177 C   0  0  0  0  0  0
  -29.8652  -17.5962   22.3502 C   0  0  0  0  0  0
  -29.5084  -18.9209   20.5508 C   0  0  0  0  0  0
  -29.9145  -16.8294   21.2187 C   0  0  0  0  0  0
  -29.2070  -20.0166   19.5852 C   0  0  0  0  0  0
  -29.1137  -22.8334   17.9360 C   0  0  0  0  0  0
  -30.7264  -22.8949   19.8618 C   0  0  0  0  0  0
  -28.6628  -21.4123   20.0714 C   0  0  0  0  0  0
  -28.4537  -24.0339   20.0823 C   0  0  0  0  0  0
  -28.6135  -25.4227   19.3510 C   0  0  0  0  0  0
  -29.2313  -22.7808   19.4803 C   0  0  0  0  0  0
  -29.8963  -15.4607   21.2476 N   0  0  0  0  0  0
  -29.2892  -19.7840   18.3757 O   0  0  0  0  0  0
  -29.6987  -17.6131   20.1059 O   0  0  0  0  0  0
  -31.4856  -12.4945   19.1142 H   0  0  0  0  0  0
  -30.3905  -11.3288   19.8147 H   0  0  0  0  0  0
  -29.7495  -11.7679   17.4433 H   0  0  0  0  0  0
  -29.6610  -13.4862   17.7392 H   0  0  0  0  0  0
  -27.8335  -11.3153   18.8113 H   0  0  0  0  0  0
  -27.3764  -12.6482   17.7815 H   0  0  0  0  0  0
  -27.7167  -14.2525   19.5829 H   0  0  0  0  0  0
  -28.7012  -11.9027   21.2791 H   0  0  0  0  0  0
  -28.4586  -13.4998   21.9005 H   0  0  0  0  0  0
  -25.2693   -9.5744   22.4703 H   0  0  0  0  0  0
  -23.9972   -7.4663   22.7496 H   0  0  0  0  0  0
  -21.0747   -8.8734   19.8997 H   0  0  0  0  0  0
  -22.3563  -10.9629   19.6142 H   0  0  0  0  0  0
  -21.2027   -7.6117   23.9702 H   0  0  0  0  0  0
  -21.1489   -6.0469   25.9064 H   0  0  0  0  0  0
  -22.0607   -2.7565   23.2833 H   0  0  0  0  0  0
  -22.4050  -12.0036   22.4847 H   0  0  0  0  0  0
  -21.1110  -13.1431   22.2529 H   0  0  0  0  0  0
  -24.6716  -15.8435   20.5150 H   0  0  0  0  0  0
  -26.2947  -15.6186   20.0980 H   0  0  0  0  0  0
  -26.7069  -32.5511   23.1153 H   0  0  0  0  0  0
  -24.9903  -33.9858   25.0367 H   0  0  0  0  0  0
  -22.6946  -31.2930   21.4066 H   0  0  0  0  0  0
  -23.3782  -35.9582   23.3283 H   0  0  0  0  0  0
  -24.3585  -36.8924   22.2068 H   0  0  0  0  0  0
  -23.7198  -37.6442   23.6702 H   0  0  0  0  0  0
  -26.0875  -31.5744   20.6160 H   0  0  0  0  0  0
  -26.8170  -30.8413   22.0167 H   0  0  0  0  0  0
  -28.0983  -29.0391   21.1856 H   0  0  0  0  0  0
  -26.0069  -25.9411   19.0123 H   0  0  0  0  0  0
  -23.9775  -27.2992   19.0192 H   0  0  0  0  0  0
  -23.7143  -30.5793   19.3964 H   0  0  0  0  0  0
  -22.7436  -29.2194   19.8846 H   0  0  0  0  0  0
  -25.1310  -36.1980   25.0822 H   0  0  0  0  0  0
  -20.9975  -28.3174   24.1434 H   0  0  0  0  0  0
  -20.5632  -26.2216   23.3596 H   0  0  0  0  0  0
  -21.6609  -26.7389   22.1221 H   0  0  0  0  0  0
  -19.6872  -25.6278   21.1223 H   0  0  0  0  0  0
  -19.6664  -27.3179   20.6758 H   0  0  0  0  0  0
  -17.4166  -26.6666   21.4045 H   0  0  0  0  0  0
  -18.0298  -26.0052   22.9044 H   0  0  0  0  0  0
  -19.7931  -30.7204   24.2340 H   0  0  0  0  0  0
  -17.5019  -31.6278   24.5132 H   0  0  0  0  0  0
  -15.5348  -30.3010   23.7606 H   0  0  0  0  0  0
  -15.8647  -28.0779   22.7149 H   0  0  0  0  0  0
  -24.5708  -30.7318   25.7736 H   0  0  0  0  0  0
  -24.8923  -32.3029   26.4946 H   0  0  0  0  0  0
  -25.7864  -30.8887   27.0221 H   0  0  0  0  0  0
  -26.2832  -29.6881   24.1136 H   0  0  0  0  0  0
  -27.3861  -29.7295   25.4689 H   0  0  0  0  0  0
  -27.8732  -30.4363   23.9469 H   0  0  0  0  0  0
  -27.2625  -33.3697   26.2069 H   0  0  0  0  0  0
  -28.3748  -32.6995   25.0251 H   0  0  0  0  0  0
  -28.0743  -31.8547   26.5347 H   0  0  0  0  0  0
  -28.2585  -38.0112   24.7558 H   0  0  0  0  0  0
  -28.1129  -36.2639   24.6222 H   0  0  0  0  0  0
  -27.2317  -37.1355   25.8853 H   0  0  0  0  0  0
  -20.9295  -29.8690   21.6965 H   0  0  0  0  0  0
  -26.0183  -38.2854   24.1456 H   0  0  0  0  0  0
  -29.5198  -19.8132   22.5430 H   0  0  0  0  0  0
  -29.9605  -17.2426   23.3674 H   0  0  0  0  0  0
  -29.5744  -21.9765   17.4505 H   0  0  0  0  0  0
  -29.6354  -23.6931   17.5144 H   0  0  0  0  0  0
  -28.0741  -22.8857   17.6140 H   0  0  0  0  0  0
  -31.3589  -22.2590   19.2406 H   0  0  0  0  0  0
  -30.8998  -22.6040   20.8993 H   0  0  0  0  0  0
  -31.1051  -23.9096   19.7500 H   0  0  0  0  0  0
  -28.7460  -21.4474   21.1575 H   0  0  0  0  0  0
  -27.5898  -21.3778   19.8906 H   0  0  0  0  0  0
  -27.3857  -23.8167   20.1131 H   0  0  0  0  0  0
  -28.7476  -24.1434   21.1272 H   0  0  0  0  0  0
  -28.0270  -25.4382   18.4323 H   0  0  0  0  0  0
  -29.6447  -25.4986   19.0053 H   0  0  0  0  0  0
  -29.1289  -15.0607   21.7660 H   0  0  0  0  0  0
  1 25  1  0  0  0
  1 30  2  0  0  0
  1 82  1  0  0  0
  2  3  1  0  0  0
  2 25  1  0  0  0
  2 85  1  0  0  0
  2 86  1  0  0  0
  3  4  1  0  0  0
  3 87  1  0  0  0
  3 88  1  0  0  0
  4  5  1  0  0  0
  4 89  1  0  0  0
  4 90  1  0  0  0
  5  6  1  0  0  0
  5 26  1  0  0  0
  5 91  1  0  0  0
  6 25  1  0  0  0
  6 92  1  0  0  0
  6 93  1  0  0  0
  7  8  2  0  0  0
  7 26  1  0  0  0
  7 29  1  0  0  0
  8  9  1  0  0  0
  8 22  1  0  0  0
  9 10  1  0  0  0
  9 27  2  0  0  0
 10 11  2  0  0  0
 10 15  1  0  0  0
 11 12  1  0  0  0
 11 94  1  0  0  0
 12 13  2  0  0  0
 12 95  1  0  0  0
 13 14  1  0  0  0
 13 31  1  0  0  0
 14 15  2  0  0  0
 14 96  1  0  0  0
 15 97  1  0  0  0
 16 17  2  0  0  0
 16 21  1  0  0  0
 16 31  1  0  0  0
 17 18  1  0  0  0
 17 98  1  0  0  0
 18 19  2  0  0  0
 18 99  1  0  0  0
 19 20  1  0  0  0
 19 24  1  0  0  0
 20 21  2  0  0  0
 20100  1  0  0  0
 21 23  1  0  0  0
 22 28  1  0  0  0
 22 32  2  0  0  0
 26 27  1  0  0  0
 28101  1  0  0  0
 28102  1  0  0  0
 29103  1  0  0  0
 29104  1  0  0  0
 33 34  1  0  0  0
 33 66  1  0  0  0
 33 70  2  0  0  0
 34 36  1  0  0  0
 34 59  1  0  0  0
 34105  1  0  0  0
 35 44  2  0  0  0
 35 45  1  0  0  0
 35 68  1  0  0  0
 36 56  1  0  0  0
 36106  1  0  0  0
 37 39  1  0  0  0
 37 47  1  0  0  0
 37 66  1  0  0  0
 37107  1  0  0  0
 38 43  2  0  0  0
 38 46  1  0  0  0
 38 47  1  0  0  0
 39 64  1  0  0  0
 39 67  2  0  0  0
 40 52  1  0  0  0
 40 53  2  0  0  0
 40 58  1  0  0  0
 41108  1  0  0  0
 41109  1  0  0  0
 41110  1  0  0  0
 41 48  1  0  0  0
 42 43  1  0  0  0
 42 66  1  0  0  0
 42111  1  0  0  0
 42112  1  0  0  0
 43 44  1  0  0  0
 44113  1  0  0  0
 45 46  2  0  0  0
 45114  1  0  0  0
 46115  1  0  0  0
 47116  1  0  0  0
 47117  1  0  0  0
 48 56  1  0  0  0
 48 65  1  0  0  0
 48118  1  0  0  0
 49 50  1  0  0  0
 49 53  1  0  0  0
 49 64  1  0  0  0
 49119  1  0  0  0
 50 51  1  0  0  0
 50120  1  0  0  0
 50121  1  0  0  0
 51 52  1  0  0  0
 51122  1  0  0  0
 51123  1  0  0  0
 52124  1  0  0  0
 52125  1  0  0  0
 53 54  1  0  0  0
 54 55  2  0  0  0
 54126  1  0  0  0
 55 57  1  0  0  0
 55127  1  0  0  0
 56 69  2  0  0  0
 57 58  2  0  0  0
 57128  1  0  0  0
 58129  1  0  0  0
 59 60  1  0  0  0
 59 61  1  0  0  0
 59 62  1  0  0  0
 60130  1  0  0  0
 60131  1  0  0  0
 60132  1  0  0  0
 61133  1  0  0  0
 61134  1  0  0  0
 61135  1  0  0  0
 62136  1  0  0  0
 62137  1  0  0  0
 62138  1  0  0  0
 63 65  1  0  0  0
 63139  1  0  0  0
 63140  1  0  0  0
 63141  1  0  0  0
 64142  1  0  0  0
 65143  1  0  0  0
 68 80  1  0  0  0
 71 72  1  0  0  0
 71 73  2  0  0  0
 71144  1  0  0  0
 72 74  2  0  0  0
 72145  1  0  0  0
 73 75  1  0  0  0
 73 84  1  0  0  0
 74 82  1  0  0  0
 74 84  1  0  0  0
 75 78  1  0  0  0
 75 83  2  0  0  0
 76146  1  0  0  0
 76147  1  0  0  0
 76148  1  0  0  0
 76 81  1  0  0  0
 77 81  1  0  0  0
 77149  1  0  0  0
 77150  1  0  0  0
 77151  1  0  0  0
 78 81  1  0  0  0
 78152  1  0  0  0
 78153  1  0  0  0
 79 80  1  0  0  0
 79 81  1  0  0  0
 79154  1  0  0  0
 79155  1  0  0  0
 80156  1  0  0  0
 80157  1  0  0  0
 82158  1  0  0  0
M  ISO  4   1 100  68 101  80 101  82 100
M  END
> <chiral flag>
0

> <version>
0

> <s_m_source_file>
/data/baiqing/PycharmProjects/Reinvent-master-3.2/result/LINK_invent/BTK/process_docking_weight1_custom_product_contain_oxygen_bond_distance_aromatic_linkinvent_7_9_3/rearranged_h_0149.sdf

> <i_m_source_file_index>
51

> <r_mmod_Potential_Energy-OPLS-2005>
67.7943801879883

> <r_mmod_Stretch_Energy-OPLS-2005>
60.6037368774414

> <r_mmod_Bend_Energy-OPLS-2005>
139.665863037109

> <r_mmod_Torsional_Energy-OPLS-2005>
240.454116821289

> <r_mmod_Improper_Torsional_Energy-OPLS-2005>
5.0821418762207

> <r_mmod_Van_der_Waal_Energy-OPLS-2005>
128.759826660156

> <r_mmod_Electrostatic_Energy-OPLS-2005>
-308.049713134766

> <r_mmod_Solvation_Energy-OPLS-2005>
-222.570343017578

> <b_mmod_Minimization_Converged-OPLS-2005>
0

> <r_mmod_RMS_Derivative-OPLS-2005>
4.4063196182251

$$$$
51
                    3D
 Structure written by MMmdl.
159168  0  0  1  0            999 V2000
  -30.7160  -14.3793   20.5481 C   0  0  0  0  0  0
  -30.4144  -12.2394   19.4113 C   0  0  0  0  0  0
  -29.4921  -12.4935   18.2008 C   0  0  0  0  0  0
  -28.0098  -12.3730   18.6088 C   0  0  0  0  0  0
  -27.6662  -13.1958   19.8798 C   0  0  2  0  0  0
  -28.7052  -12.9388   20.9975 C   0  0  0  0  0  0
  -25.2609  -13.8139   20.5653 C   0  0  0  0  0  0
  -24.1848  -13.0445   20.9160 C   0  0  0  0  0  0
  -24.6379  -11.6906   20.8730 C   0  0  0  0  0  0
  -23.9042  -10.4300   21.0403 C   0  0  0  0  0  0
  -24.3608   -9.4223   21.9180 C   0  0  0  0  0  0
  -23.6289   -8.2258   22.0756 C   0  0  0  0  0  0
  -22.4272   -8.0289   21.3548 C   0  0  0  0  0  0
  -21.9897   -9.0258   20.4652 C   0  0  0  0  0  0
  -22.7217  -10.2140   20.3054 C   0  0  0  0  0  0
  -21.6864   -6.0733   22.5277 C   0  0  0  0  0  0
  -21.4016   -6.5637   23.8208 C   0  0  0  0  0  0
  -21.3658   -5.6791   24.9168 C   0  0  0  0  0  0
  -21.6035   -4.3051   24.7219 C   0  0  0  0  0  0
  -21.8825   -3.8142   23.4341 C   0  0  0  0  0  0
  -21.9204   -4.6959   22.3399 C   0  0  0  0  0  0
  -22.7872  -13.5257   21.1830 C   0  0  0  0  0  0
  -22.1673   -4.2140   21.0976 F   0  0  0  0  0  0
  -21.5620   -3.4538   25.7731 F   0  0  0  0  0  0
  -30.0479  -13.2061   20.4523 N   0  0  0  0  0  0
  -26.3038  -12.9291   20.3376 N   0  0  0  0  0  0
  -25.9304  -11.6464   20.5778 N   0  0  0  0  0  0
  -22.0513  -12.8267   22.0396 N   0  0  0  0  0  0
  -25.4373  -15.1846   20.4024 N   0  0  0  0  0  0
  -31.8696  -14.5486   20.1394 O   0  0  0  0  0  0
  -21.6648   -6.8877   21.4241 O   0  0  0  0  0  0
  -22.3560  -14.5558   20.6664 O   0  0  0  0  0  0
  -24.6071  -31.8731   23.2153 C   0  0  0  0  0  0
  -25.8992  -32.4853   23.8427 C   0  0  1  0  0  0
  -27.2415  -27.5108   20.0808 C   0  0  0  0  0  0
  -25.5880  -33.8650   24.2366 N   0  0  0  0  0  0
  -23.3914  -30.4954   21.5547 C   0  0  2  0  0  0
  -24.8383  -28.9659   20.1203 C   0  0  0  0  0  0
  -22.7365  -29.4677   22.5034 C   0  0  0  0  0  0
  -18.0260  -28.1368   22.8498 C   0  0  0  0  0  0
  -24.1486  -36.7330   23.2637 C   0  0  0  0  0  0
  -25.9112  -30.8617   21.3552 C   0  0  0  0  0  0
  -25.9925  -29.4994   20.7076 C   0  0  0  0  0  0
  -27.1990  -28.7777   20.6858 C   0  0  0  0  0  0
  -26.0758  -26.9662   19.5010 C   0  0  0  0  0  0
  -24.8704  -27.6941   19.5181 C   0  0  0  0  0  0
  -23.5961  -29.8239   20.1698 C   0  0  0  0  0  0
  -25.4104  -36.3135   24.0346 C   0  0  1  0  0  0
  -20.5842  -28.3644   23.1346 C   0  0  2  0  0  0
  -20.6752  -26.9391   22.5423 C   0  0  0  0  0  0
  -19.5737  -26.6386   21.5211 C   0  0  0  0  0  0
  -18.1914  -26.7919   22.1623 C   0  0  0  0  0  0
  -19.1506  -28.8822   23.2921 C   0  0  0  0  0  0
  -18.9439  -30.1430   23.8928 C   0  0  0  0  0  0
  -17.6444  -30.6580   24.0566 C   0  0  0  0  0  0
  -25.9023  -34.9494   23.5153 C   0  0  0  0  0  0
  -16.5335  -29.9086   23.6320 C   0  0  0  0  0  0
  -16.7251  -28.6499   23.0346 C   0  0  0  0  0  0
  -26.4455  -31.6605   25.0719 C   0  0  0  0  0  0
  -25.3754  -31.3674   26.1489 C   0  0  0  0  0  0
  -27.0273  -30.3067   24.6021 C   0  0  0  0  0  0
  -27.6057  -32.4301   25.7465 C   0  0  0  0  0  0
  -27.5584  -37.1820   24.8467 C   0  0  0  0  0  0
  -21.4102  -29.3024   22.3769 N   0  0  0  0  0  0
  -26.4301  -37.3807   23.9406 N   0  0  0  0  0  0
  -24.6547  -31.0887   22.1021 N   0  0  0  0  0  0
  -23.4169  -28.8219   23.3050 O   0  0  0  0  0  0
  -28.4323  -26.8453   20.0430 O   0  0  0  0  0  0
  -26.5575  -34.8931   22.4707 O   0  0  0  0  0  0
  -23.5283  -32.1447   23.7594 O   0  0  0  0  0  0
  -29.9012  -18.1863   18.7455 C   0  0  0  0  0  0
  -30.4474  -16.9245   19.0882 C   0  0  0  0  0  0
  -28.9846  -18.4883   19.7153 C   0  0  0  0  0  0
  -29.8008  -16.5539   20.2393 C   0  0  0  0  0  0
  -28.1604  -19.6262   20.0095 C   0  0  0  0  0  0
  -28.5881  -24.4538   19.9509 C   0  0  0  0  0  0
  -30.3229  -22.6287   20.0712 C   0  0  0  0  0  0
  -30.1557  -21.1160   20.0202 C   0  0  0  0  0  0
  -27.9584  -22.0644   20.4375 C   0  0  0  0  0  0
  -29.0036  -23.1673   20.6485 C   0  0  2  0  0  0
  -28.4570  -25.6786   20.8438 C   0  0  0  0  0  0
  -28.7103  -20.8574   20.1021 N   0  0  0  0  0  0
  -29.9541  -15.4052   20.9396 N   0  0  0  0  0  0
  -26.8485  -19.4294   20.2161 N   0  3  0  0  0  0
  -28.3749  -24.4920   18.7331 O   0  0  0  0  0  0
  -28.8741  -17.4683   20.6131 O   0  0  0  0  0  0
  -31.4627  -12.3158   19.1156 H   0  0  0  0  0  0
  -30.2839  -11.2222   19.7847 H   0  0  0  0  0  0
  -29.7163  -11.7849   17.4027 H   0  0  0  0  0  0
  -29.6825  -13.4861   17.7888 H   0  0  0  0  0  0
  -27.8011  -11.3170   18.7845 H   0  0  0  0  0  0
  -27.3654  -12.6731   17.7812 H   0  0  0  0  0  0
  -27.7215  -14.2480   19.5998 H   0  0  0  0  0  0
  -28.6549  -11.9013   21.3305 H   0  0  0  0  0  0
  -28.4873  -13.5373   21.8833 H   0  0  0  0  0  0
  -25.2762   -9.5703   22.4742 H   0  0  0  0  0  0
  -24.0005   -7.4654   22.7480 H   0  0  0  0  0  0
  -21.0826   -8.8772   19.8963 H   0  0  0  0  0  0
  -22.3676  -10.9674   19.6157 H   0  0  0  0  0  0
  -21.2001   -7.6145   23.9705 H   0  0  0  0  0  0
  -21.1479   -6.0522   25.9069 H   0  0  0  0  0  0
  -22.0605   -2.7603   23.2849 H   0  0  0  0  0  0
  -22.4118  -11.9925   22.4786 H   0  0  0  0  0  0
  -21.1135  -13.1306   22.2604 H   0  0  0  0  0  0
  -24.6676  -15.8402   20.4818 H   0  0  0  0  0  0
  -26.2945  -15.6047   20.0691 H   0  0  0  0  0  0
  -26.7070  -32.5597   23.1208 H   0  0  0  0  0  0
  -25.0059  -33.9827   25.0529 H   0  0  0  0  0  0
  -22.6772  -31.3099   21.4174 H   0  0  0  0  0  0
  -23.3742  -35.9671   23.3322 H   0  0  0  0  0  0
  -24.3584  -36.8914   22.2048 H   0  0  0  0  0  0
  -23.7245  -37.6549   23.6626 H   0  0  0  0  0  0
  -26.0072  -31.6284   20.5850 H   0  0  0  0  0  0
  -26.8056  -30.9223   21.9636 H   0  0  0  0  0  0
  -28.0964  -29.1915   21.1246 H   0  0  0  0  0  0
  -26.1038  -25.9979   19.0213 H   0  0  0  0  0  0
  -23.9824  -27.2780   19.0623 H   0  0  0  0  0  0
  -23.6976  -30.5969   19.4071 H   0  0  0  0  0  0
  -22.7229  -29.2369   19.8788 H   0  0  0  0  0  0
  -25.1278  -36.2019   25.0841 H   0  0  0  0  0  0
  -20.9931  -28.3198   24.1468 H   0  0  0  0  0  0
  -20.5656  -26.2248   23.3597 H   0  0  0  0  0  0
  -21.6627  -26.7447   22.1217 H   0  0  0  0  0  0
  -19.6901  -25.6304   21.1221 H   0  0  0  0  0  0
  -19.6681  -27.3213   20.6756 H   0  0  0  0  0  0
  -17.4185  -26.6667   21.4022 H   0  0  0  0  0  0
  -18.0319  -26.0050   22.9011 H   0  0  0  0  0  0
  -19.7914  -30.7233   24.2319 H   0  0  0  0  0  0
  -17.5000  -31.6266   24.5158 H   0  0  0  0  0  0
  -15.5337  -30.3001   23.7624 H   0  0  0  0  0  0
  -15.8650  -28.0829   22.7049 H   0  0  0  0  0  0
  -24.5923  -30.7024   25.7828 H   0  0  0  0  0  0
  -24.8946  -32.2814   26.4986 H   0  0  0  0  0  0
  -25.8137  -30.8813   27.0214 H   0  0  0  0  0  0
  -26.2782  -29.6835   24.1121 H   0  0  0  0  0  0
  -27.4134  -29.7288   25.4427 H   0  0  0  0  0  0
  -27.8575  -30.4423   23.9085 H   0  0  0  0  0  0
  -27.2705  -33.3588   26.2097 H   0  0  0  0  0  0
  -28.3835  -32.6880   25.0265 H   0  0  0  0  0  0
  -28.0760  -31.8387   26.5331 H   0  0  0  0  0  0
  -28.2621  -38.0099   24.7502 H   0  0  0  0  0  0
  -28.1060  -36.2632   24.6311 H   0  0  0  0  0  0
  -27.2299  -37.1496   25.8871 H   0  0  0  0  0  0
  -20.9248  -29.8756   21.7010 H   0  0  0  0  0  0
  -26.0201  -38.2894   24.1393 H   0  0  0  0  0  0
  -30.1617  -18.8085   17.9009 H   0  0  0  0  0  0
  -31.2095  -16.3782   18.5494 H   0  0  0  0  0  0
  -30.5370  -23.0070   19.0696 H   0  0  0  0  0  0
  -31.1660  -22.9079   20.7043 H   0  0  0  0  0  0
  -30.6512  -20.6401   20.8668 H   0  0  0  0  0  0
  -30.5927  -20.7224   19.1040 H   0  0  0  0  0  0
  -27.2634  -22.2866   19.6262 H   0  0  0  0  0  0
  -27.3783  -21.9082   21.3470 H   0  0  0  0  0  0
  -29.1140  -23.3543   21.7172 H   0  0  0  0  0  0
  -29.3145  -25.7271   21.5148 H   0  0  0  0  0  0
  -27.5645  -25.5826   21.4644 H   0  0  0  0  0  0
  -29.1608  -15.1485   21.5066 H   0  0  0  0  0  0
  -26.4785  -18.4931   20.1630 H   0  0  0  0  0  0
  -26.2094  -20.1807   20.4201 H   0  0  0  0  0  0
  1 25  1  0  0  0
  1 30  2  0  0  0
  1 83  1  0  0  0
  2  3  1  0  0  0
  2 25  1  0  0  0
  2 87  1  0  0  0
  2 88  1  0  0  0
  3  4  1  0  0  0
  3 89  1  0  0  0
  3 90  1  0  0  0
  4  5  1  0  0  0
  4 91  1  0  0  0
  4 92  1  0  0  0
  5  6  1  0  0  0
  5 26  1  0  0  0
  5 93  1  0  0  0
  6 25  1  0  0  0
  6 94  1  0  0  0
  6 95  1  0  0  0
  7  8  2  0  0  0
  7 26  1  0  0  0
  7 29  1  0  0  0
  8  9  1  0  0  0
  8 22  1  0  0  0
  9 10  1  0  0  0
  9 27  2  0  0  0
 10 11  2  0  0  0
 10 15  1  0  0  0
 11 12  1  0  0  0
 11 96  1  0  0  0
 12 13  2  0  0  0
 12 97  1  0  0  0
 13 14  1  0  0  0
 13 31  1  0  0  0
 14 15  2  0  0  0
 14 98  1  0  0  0
 15 99  1  0  0  0
 16 17  2  0  0  0
 16 21  1  0  0  0
 16 31  1  0  0  0
 17 18  1  0  0  0
 17100  1  0  0  0
 18 19  2  0  0  0
 18101  1  0  0  0
 19 20  1  0  0  0
 19 24  1  0  0  0
 20 21  2  0  0  0
 20102  1  0  0  0
 21 23  1  0  0  0
 22 28  1  0  0  0
 22 32  2  0  0  0
 26 27  1  0  0  0
 28103  1  0  0  0
 28104  1  0  0  0
 29105  1  0  0  0
 29106  1  0  0  0
 33 34  1  0  0  0
 33 66  1  0  0  0
 33 70  2  0  0  0
 34 36  1  0  0  0
 34 59  1  0  0  0
 34107  1  0  0  0
 35 44  2  0  0  0
 35 45  1  0  0  0
 35 68  1  0  0  0
 36 56  1  0  0  0
 36108  1  0  0  0
 37 39  1  0  0  0
 37 47  1  0  0  0
 37 66  1  0  0  0
 37109  1  0  0  0
 38 43  2  0  0  0
 38 46  1  0  0  0
 38 47  1  0  0  0
 39 64  1  0  0  0
 39 67  2  0  0  0
 40 52  1  0  0  0
 40 53  2  0  0  0
 40 58  1  0  0  0
 41110  1  0  0  0
 41111  1  0  0  0
 41112  1  0  0  0
 41 48  1  0  0  0
 42 43  1  0  0  0
 42 66  1  0  0  0
 42113  1  0  0  0
 42114  1  0  0  0
 43 44  1  0  0  0
 44115  1  0  0  0
 45 46  2  0  0  0
 45116  1  0  0  0
 46117  1  0  0  0
 47118  1  0  0  0
 47119  1  0  0  0
 48 56  1  0  0  0
 48 65  1  0  0  0
 48120  1  0  0  0
 49 50  1  0  0  0
 49 53  1  0  0  0
 49 64  1  0  0  0
 49121  1  0  0  0
 50 51  1  0  0  0
 50122  1  0  0  0
 50123  1  0  0  0
 51 52  1  0  0  0
 51124  1  0  0  0
 51125  1  0  0  0
 52126  1  0  0  0
 52127  1  0  0  0
 53 54  1  0  0  0
 54 55  2  0  0  0
 54128  1  0  0  0
 55 57  1  0  0  0
 55129  1  0  0  0
 56 69  2  0  0  0
 57 58  2  0  0  0
 57130  1  0  0  0
 58131  1  0  0  0
 59 60  1  0  0  0
 59 61  1  0  0  0
 59 62  1  0  0  0
 60132  1  0  0  0
 60133  1  0  0  0
 60134  1  0  0  0
 61135  1  0  0  0
 61136  1  0  0  0
 61137  1  0  0  0
 62138  1  0  0  0
 62139  1  0  0  0
 62140  1  0  0  0
 63 65  1  0  0  0
 63141  1  0  0  0
 63142  1  0  0  0
 63143  1  0  0  0
 64144  1  0  0  0
 65145  1  0  0  0
 68 81  1  0  0  0
 71 72  1  0  0  0
 71 73  2  0  0  0
 71146  1  0  0  0
 72 74  2  0  0  0
 72147  1  0  0  0
 73 75  1  0  0  0
 73 86  1  0  0  0
 74 83  1  0  0  0
 74 86  1  0  0  0
 75 82  1  0  0  0
 75 84  2  0  0  0
 76 81  1  0  0  0
 76 85  2  0  0  0
 76 80  1  0  0  0
 77 78  1  0  0  0
 77 80  1  0  0  0
 77148  1  0  0  0
 77149  1  0  0  0
 78 82  1  0  0  0
 78150  1  0  0  0
 78151  1  0  0  0
 79 80  1  0  0  0
 79 82  1  0  0  0
 79152  1  0  0  0
 79153  1  0  0  0
 80154  1  0  0  0
 81155  1  0  0  0
 81156  1  0  0  0
 83157  1  0  0  0
 84158  1  0  0  0
 84159  1  0  0  0
M  CHG  1  84   1
M  ISO  4   1 100  68 101  81 101  83 100
M  END
> <chiral flag>
0

> <version>
0

> <s_m_source_file>
/data/baiqing/PycharmProjects/Reinvent-master-3.2/result/LINK_invent/BTK/process_docking_weight1_custom_product_contain_oxygen_bond_distance_aromatic_linkinvent_7_9_3/rearranged_h_0149.sdf

> <i_m_source_file_index>
52

> <r_mmod_Potential_Energy-OPLS-2005>
-118.090812683105

> <r_mmod_Stretch_Energy-OPLS-2005>
28.2768650054932

> <r_mmod_Bend_Energy-OPLS-2005>
109.010307312012

> <r_mmod_Torsional_Energy-OPLS-2005>
333.978302001953

> <r_mmod_Improper_Torsional_Energy-OPLS-2005>
7.0571494102478

> <r_mmod_Van_der_Waal_Energy-OPLS-2005>
142.665771484375

> <r_mmod_Electrostatic_Energy-OPLS-2005>
-276.489624023438

> <r_mmod_Solvation_Energy-OPLS-2005>
-474.318023681641

> <b_mmod_Minimization_Converged-OPLS-2005>
0

> <r_mmod_RMS_Derivative-OPLS-2005>
0.873139500617981

$$$$
52
                    3D
 Structure written by MMmdl.
157166  0  0  1  0            999 V2000
  -30.5774  -14.7802   20.4482 C   0  0  0  0  0  0
  -30.4458  -12.4775   19.4540 C   0  0  0  0  0  0
  -29.5117  -12.4942   18.2229 C   0  0  0  0  0  0
  -28.0418  -12.3044   18.6519 C   0  0  0  0  0  0
  -27.6389  -13.2202   19.8382 C   0  0  2  0  0  0
  -28.6883  -13.1752   20.9683 C   0  0  0  0  0  0
  -25.2542  -13.8153   20.5747 C   0  0  0  0  0  0
  -24.1801  -13.0418   20.9203 C   0  0  0  0  0  0
  -24.6366  -11.6894   20.8718 C   0  0  0  0  0  0
  -23.9023  -10.4297   21.0388 C   0  0  0  0  0  0
  -24.3572   -9.4216   21.9164 C   0  0  0  0  0  0
  -23.6269   -8.2236   22.0743 C   0  0  0  0  0  0
  -22.4248   -8.0260   21.3547 C   0  0  0  0  0  0
  -21.9869   -9.0232   20.4645 C   0  0  0  0  0  0
  -22.7189  -10.2128   20.3048 C   0  0  0  0  0  0
  -21.6858   -6.0717   22.5272 C   0  0  0  0  0  0
  -21.4016   -6.5611   23.8207 C   0  0  0  0  0  0
  -21.3677   -5.6765   24.9156 C   0  0  0  0  0  0
  -21.6035   -4.3033   24.7219 C   0  0  0  0  0  0
  -21.8816   -3.8130   23.4347 C   0  0  0  0  0  0
  -21.9208   -4.6951   22.3398 C   0  0  0  0  0  0
  -22.7827  -13.5232   21.1868 C   0  0  0  0  0  0
  -22.1671   -4.2142   21.0980 F   0  0  0  0  0  0
  -21.5641   -3.4523   25.7737 F   0  0  0  0  0  0
  -29.9769  -13.5417   20.3679 N   0  0  0  0  0  0
  -26.2930  -12.9334   20.3241 N   0  0  0  0  0  0
  -25.9286  -11.6491   20.5683 N   0  0  0  0  0  0
  -22.0453  -12.8252   22.0427 N   0  0  0  0  0  0
  -25.4235  -15.1886   20.4289 N   0  0  0  0  0  0
  -31.7948  -14.8856   20.2641 O   0  0  0  0  0  0
  -21.6631   -6.8856   21.4230 O   0  0  0  0  0  0
  -22.3541  -14.5551   20.6729 O   0  0  0  0  0  0
  -24.6307  -31.8565   23.1978 C   0  0  0  0  0  0
  -25.9133  -32.4775   23.8322 C   0  0  1  0  0  0
  -27.2177  -27.2503   20.1396 C   0  0  0  0  0  0
  -25.5943  -33.8573   24.2260 N   0  0  0  0  0  0
  -23.4300  -30.4775   21.5397 C   0  0  2  0  0  0
  -24.8787  -28.9237   20.1133 C   0  0  0  0  0  0
  -22.7491  -29.4606   22.4892 C   0  0  0  0  0  0
  -18.0299  -28.1430   22.8455 C   0  0  0  0  0  0
  -24.1497  -36.7258   23.2630 C   0  0  0  0  0  0
  -25.9764  -30.7669   21.3811 C   0  0  0  0  0  0
  -26.0511  -29.3888   20.7229 C   0  0  0  0  0  0
  -27.2242  -28.5664   20.7193 C   0  0  0  0  0  0
  -26.0227  -26.8588   19.4972 C   0  0  0  0  0  0
  -24.8710  -27.6695   19.4889 C   0  0  0  0  0  0
  -23.6510  -29.8119   20.1562 C   0  0  0  0  0  0
  -25.4134  -36.3072   24.0309 C   0  0  1  0  0  0
  -20.5895  -28.3730   23.1263 C   0  0  2  0  0  0
  -20.6788  -26.9444   22.5419 C   0  0  0  0  0  0
  -19.5788  -26.6414   21.5196 C   0  0  0  0  0  0
  -18.1958  -26.7980   22.1598 C   0  0  0  0  0  0
  -19.1546  -28.8895   23.2867 C   0  0  0  0  0  0
  -18.9474  -30.1482   23.8907 C   0  0  0  0  0  0
  -17.6479  -30.6626   24.0560 C   0  0  0  0  0  0
  -25.9055  -34.9439   23.5086 C   0  0  0  0  0  0
  -16.5368  -29.9121   23.6345 C   0  0  0  0  0  0
  -16.7286  -28.6542   23.0354 C   0  0  0  0  0  0
  -26.4515  -31.6607   25.0710 C   0  0  0  0  0  0
  -25.3710  -31.3786   26.1420 C   0  0  0  0  0  0
  -27.0337  -30.3011   24.6215 C   0  0  0  0  0  0
  -27.6124  -32.4301   25.7454 C   0  0  0  0  0  0
  -27.5602  -37.1780   24.8459 C   0  0  0  0  0  0
  -21.4195  -29.3064   22.3629 N   0  0  0  0  0  0
  -26.4315  -37.3773   23.9398 N   0  0  0  0  0  0
  -24.6971  -31.0509   22.0966 N   0  0  0  0  0  0
  -23.4173  -28.8126   23.2986 O   0  0  0  0  0  0
  -28.3167  -26.3586   20.1761 O   0  0  0  0  0  0
  -26.5617  -34.8899   22.4645 O   0  0  0  0  0  0
  -23.5455  -32.1415   23.7237 O   0  0  0  0  0  0
  -29.4438  -18.4278   20.0566 C   0  0  0  0  0  0
  -30.0457  -19.4301   22.0579 C   0  0  0  0  0  0
  -29.5489  -19.7053   20.8021 C   0  0  0  0  0  0
  -29.8727  -17.2480   20.7076 C   0  0  0  0  0  0
  -29.1617  -21.1244   20.2595 C   0  0  0  0  0  0
  -30.4286  -24.0028   22.2831 C   0  0  0  0  0  0
  -30.5495  -24.4564   20.8293 C   0  0  0  0  0  0
  -29.9678  -22.5490   22.1601 C   0  0  0  0  0  0
  -29.3165  -23.8211   20.1750 C   0  0  2  0  0  0
  -28.0957  -24.8737   20.3930 C   0  0  0  0  0  0
  -29.3442  -22.4052   20.8316 N   0  0  0  0  0  0
  -29.7442  -15.8908   20.3488 N   0  0  0  0  0  0
  -28.5908  -21.1250   19.0458 N   0  3  0  0  0  0
  -30.4640  -17.7315   22.2808 S   0  0  0  0  0  0
  -31.4816  -12.6321   19.1446 H   0  0  0  0  0  0
  -30.4173  -11.5042   19.9465 H   0  0  0  0  0  0
  -29.7986  -11.7110   17.5200 H   0  0  0  0  0  0
  -29.6225  -13.4377   17.6858 H   0  0  0  0  0  0
  -27.9212  -11.2610   18.9457 H   0  0  0  0  0  0
  -27.3736  -12.4635   17.8039 H   0  0  0  0  0  0
  -27.6213  -14.2324   19.4355 H   0  0  0  0  0  0
  -28.7371  -12.1851   21.4225 H   0  0  0  0  0  0
  -28.4233  -13.8720   21.7649 H   0  0  0  0  0  0
  -25.2723   -9.5711   22.4740 H   0  0  0  0  0  0
  -24.0008   -7.4624   22.7454 H   0  0  0  0  0  0
  -21.0807   -8.8718   19.8954 H   0  0  0  0  0  0
  -22.3616  -10.9638   19.6161 H   0  0  0  0  0  0
  -21.1987   -7.6121   23.9703 H   0  0  0  0  0  0
  -21.1505   -6.0497   25.9066 H   0  0  0  0  0  0
  -22.0593   -2.7600   23.2835 H   0  0  0  0  0  0
  -22.4062  -11.9929   22.4847 H   0  0  0  0  0  0
  -21.1061  -13.1298   22.2610 H   0  0  0  0  0  0
  -24.6580  -15.8376   20.5712 H   0  0  0  0  0  0
  -26.2826  -15.6473   20.1585 H   0  0  0  0  0  0
  -26.7177  -32.5423   23.1035 H   0  0  0  0  0  0
  -25.0102  -33.9724   25.0418 H   0  0  0  0  0  0
  -22.7268  -31.2993   21.3903 H   0  0  0  0  0  0
  -23.3787  -35.9567   23.3295 H   0  0  0  0  0  0
  -24.3584  -36.8886   22.2048 H   0  0  0  0  0  0
  -23.7226  -37.6436   23.6665 H   0  0  0  0  0  0
  -26.1195  -31.5309   20.6152 H   0  0  0  0  0  0
  -26.8502  -30.8149   22.0194 H   0  0  0  0  0  0
  -28.1245  -28.9160   21.2039 H   0  0  0  0  0  0
  -25.9513  -25.9088   18.9878 H   0  0  0  0  0  0
  -23.9734  -27.3133   19.0029 H   0  0  0  0  0  0
  -23.7793  -30.5870   19.3991 H   0  0  0  0  0  0
  -22.7708  -29.2449   19.8476 H   0  0  0  0  0  0
  -25.1327  -36.1925   25.0807 H   0  0  0  0  0  0
  -21.0011  -28.3335   24.1375 H   0  0  0  0  0  0
  -20.5701  -26.2322   23.3611 H   0  0  0  0  0  0
  -21.6659  -26.7484   22.1214 H   0  0  0  0  0  0
  -19.6938  -25.6312   21.1260 H   0  0  0  0  0  0
  -19.6761  -27.3182   20.6690 H   0  0  0  0  0  0
  -17.4229  -26.6699   21.4004 H   0  0  0  0  0  0
  -18.0372  -26.0155   22.9029 H   0  0  0  0  0  0
  -19.7937  -30.7282   24.2315 H   0  0  0  0  0  0
  -17.5034  -31.6309   24.5153 H   0  0  0  0  0  0
  -15.5373  -30.3025   23.7691 H   0  0  0  0  0  0
  -15.8673  -28.0857   22.7109 H   0  0  0  0  0  0
  -24.5884  -30.7157   25.7726 H   0  0  0  0  0  0
  -24.8889  -32.2957   26.4811 H   0  0  0  0  0  0
  -25.7988  -30.8970   27.0215 H   0  0  0  0  0  0
  -26.2905  -29.6763   24.1256 H   0  0  0  0  0  0
  -27.4011  -29.7320   25.4762 H   0  0  0  0  0  0
  -27.8800  -30.4266   23.9456 H   0  0  0  0  0  0
  -27.2838  -33.3642   26.2016 H   0  0  0  0  0  0
  -28.3942  -32.6782   25.0262 H   0  0  0  0  0  0
  -28.0774  -31.8401   26.5362 H   0  0  0  0  0  0
  -28.2625  -38.0075   24.7535 H   0  0  0  0  0  0
  -28.1097  -36.2610   24.6275 H   0  0  0  0  0  0
  -27.2296  -37.1411   25.8853 H   0  0  0  0  0  0
  -20.9388  -29.8754   21.6791 H   0  0  0  0  0  0
  -26.0194  -38.2837   24.1449 H   0  0  0  0  0  0
  -29.0375  -18.4110   19.0550 H   0  0  0  0  0  0
  -30.2277  -20.0863   22.8945 H   0  0  0  0  0  0
  -29.6840  -24.5931   22.8217 H   0  0  0  0  0  0
  -31.3742  -24.0928   22.8215 H   0  0  0  0  0  0
  -31.4597  -24.0647   20.3745 H   0  0  0  0  0  0
  -30.5915  -25.5412   20.7462 H   0  0  0  0  0  0
  -29.2943  -22.2578   22.9659 H   0  0  0  0  0  0
  -30.8617  -21.9290   22.1897 H   0  0  0  0  0  0
  -29.5058  -23.7267   19.1053 H   0  0  0  0  0  0
  -27.6952  -24.7497   21.3995 H   0  0  0  0  0  0
  -27.3086  -24.5243   19.7298 H   0  0  0  0  0  0
  -28.8231  -15.6415   20.0232 H   0  0  0  0  0  0
  -28.3891  -20.2569   18.5761 H   0  0  0  0  0  0
  -28.3113  -21.9740   18.5846 H   0  0  0  0  0  0
  1 25  1  0  0  0
  1 30  2  0  0  0
  1 82  1  0  0  0
  2  3  1  0  0  0
  2 25  1  0  0  0
  2 85  1  0  0  0
  2 86  1  0  0  0
  3  4  1  0  0  0
  3 87  1  0  0  0
  3 88  1  0  0  0
  4  5  1  0  0  0
  4 89  1  0  0  0
  4 90  1  0  0  0
  5  6  1  0  0  0
  5 26  1  0  0  0
  5 91  1  0  0  0
  6 25  1  0  0  0
  6 92  1  0  0  0
  6 93  1  0  0  0
  7  8  2  0  0  0
  7 26  1  0  0  0
  7 29  1  0  0  0
  8  9  1  0  0  0
  8 22  1  0  0  0
  9 10  1  0  0  0
  9 27  2  0  0  0
 10 11  2  0  0  0
 10 15  1  0  0  0
 11 12  1  0  0  0
 11 94  1  0  0  0
 12 13  2  0  0  0
 12 95  1  0  0  0
 13 14  1  0  0  0
 13 31  1  0  0  0
 14 15  2  0  0  0
 14 96  1  0  0  0
 15 97  1  0  0  0
 16 17  2  0  0  0
 16 21  1  0  0  0
 16 31  1  0  0  0
 17 18  1  0  0  0
 17 98  1  0  0  0
 18 19  2  0  0  0
 18 99  1  0  0  0
 19 20  1  0  0  0
 19 24  1  0  0  0
 20 21  2  0  0  0
 20100  1  0  0  0
 21 23  1  0  0  0
 22 28  1  0  0  0
 22 32  2  0  0  0
 26 27  1  0  0  0
 28101  1  0  0  0
 28102  1  0  0  0
 29103  1  0  0  0
 29104  1  0  0  0
 33 34  1  0  0  0
 33 66  1  0  0  0
 33 70  2  0  0  0
 34 36  1  0  0  0
 34 59  1  0  0  0
 34105  1  0  0  0
 35 44  2  0  0  0
 35 45  1  0  0  0
 35 68  1  0  0  0
 36 56  1  0  0  0
 36106  1  0  0  0
 37 39  1  0  0  0
 37 47  1  0  0  0
 37 66  1  0  0  0
 37107  1  0  0  0
 38 43  2  0  0  0
 38 46  1  0  0  0
 38 47  1  0  0  0
 39 64  1  0  0  0
 39 67  2  0  0  0
 40 52  1  0  0  0
 40 53  2  0  0  0
 40 58  1  0  0  0
 41108  1  0  0  0
 41109  1  0  0  0
 41110  1  0  0  0
 41 48  1  0  0  0
 42 43  1  0  0  0
 42 66  1  0  0  0
 42111  1  0  0  0
 42112  1  0  0  0
 43 44  1  0  0  0
 44113  1  0  0  0
 45 46  2  0  0  0
 45114  1  0  0  0
 46115  1  0  0  0
 47116  1  0  0  0
 47117  1  0  0  0
 48 56  1  0  0  0
 48 65  1  0  0  0
 48118  1  0  0  0
 49 50  1  0  0  0
 49 53  1  0  0  0
 49 64  1  0  0  0
 49119  1  0  0  0
 50 51  1  0  0  0
 50120  1  0  0  0
 50121  1  0  0  0
 51 52  1  0  0  0
 51122  1  0  0  0
 51123  1  0  0  0
 52124  1  0  0  0
 52125  1  0  0  0
 53 54  1  0  0  0
 54 55  2  0  0  0
 54126  1  0  0  0
 55 57  1  0  0  0
 55127  1  0  0  0
 56 69  2  0  0  0
 57 58  2  0  0  0
 57128  1  0  0  0
 58129  1  0  0  0
 59 60  1  0  0  0
 59 61  1  0  0  0
 59 62  1  0  0  0
 60130  1  0  0  0
 60131  1  0  0  0
 60132  1  0  0  0
 61133  1  0  0  0
 61134  1  0  0  0
 61135  1  0  0  0
 62136  1  0  0  0
 62137  1  0  0  0
 62138  1  0  0  0
 63 65  1  0  0  0
 63139  1  0  0  0
 63140  1  0  0  0
 63141  1  0  0  0
 64142  1  0  0  0
 65143  1  0  0  0
 68 80  1  0  0  0
 71 73  1  0  0  0
 71 74  2  0  0  0
 71144  1  0  0  0
 72 73  2  0  0  0
 72 84  1  0  0  0
 72145  1  0  0  0
 73 75  1  0  0  0
 74 82  1  0  0  0
 74 84  1  0  0  0
 75 81  1  0  0  0
 75 83  2  0  0  0
 76 77  1  0  0  0
 76 78  1  0  0  0
 76146  1  0  0  0
 76147  1  0  0  0
 77 79  1  0  0  0
 77148  1  0  0  0
 77149  1  0  0  0
 78 81  1  0  0  0
 78150  1  0  0  0
 78151  1  0  0  0
 79 80  1  0  0  0
 79 81  1  0  0  0
 79152  1  0  0  0
 80153  1  0  0  0
 80154  1  0  0  0
 82155  1  0  0  0
 83156  1  0  0  0
 83157  1  0  0  0
M  CHG  1  83   1
M  ISO  4   1 100  68 101  80 101  82 100
M  END
> <chiral flag>
0

> <version>
0

> <s_m_source_file>
/data/baiqing/PycharmProjects/Reinvent-master-3.2/result/LINK_invent/BTK/process_docking_weight1_custom_product_contain_oxygen_bond_distance_aromatic_linkinvent_7_9_3/rearranged_h_0149.sdf

> <i_m_source_file_index>
53

> <r_mmod_Potential_Energy-OPLS-2005>
189.468627929688

> <r_mmod_Stretch_Energy-OPLS-2005>
138.28791809082

> <r_mmod_Bend_Energy-OPLS-2005>
222.026184082031

> <r_mmod_Torsional_Energy-OPLS-2005>
315.663848876953

> <r_mmod_Improper_Torsional_Energy-OPLS-2005>
11.5719718933105

> <r_mmod_Van_der_Waal_Energy-OPLS-2005>
122.144599914551

> <r_mmod_Electrostatic_Energy-OPLS-2005>
-245.973419189453

> <r_mmod_Solvation_Energy-OPLS-2005>
-475.267364501953

> <b_mmod_Minimization_Converged-OPLS-2005>
0

> <r_mmod_RMS_Derivative-OPLS-2005>
3.43855619430542

$$$$
53
                    3D
 Structure written by MMmdl.
156164  0  0  1  0            999 V2000
  -30.6631  -14.5174   20.5849 C   0  0  0  0  0  0
  -30.4324  -12.3406   19.4241 C   0  0  0  0  0  0
  -29.4957  -12.5147   18.2082 C   0  0  0  0  0  0
  -28.0184  -12.3652   18.6199 C   0  0  0  0  0  0
  -27.6612  -13.2059   19.8748 C   0  0  2  0  0  0
  -28.6998  -12.9823   20.9960 C   0  0  0  0  0  0
  -25.2594  -13.8155   20.5674 C   0  0  0  0  0  0
  -24.1834  -13.0445   20.9179 C   0  0  0  0  0  0
  -24.6382  -11.6907   20.8733 C   0  0  0  0  0  0
  -23.9041  -10.4309   21.0408 C   0  0  0  0  0  0
  -24.3603   -9.4232   21.9181 C   0  0  0  0  0  0
  -23.6293   -8.2264   22.0746 C   0  0  0  0  0  0
  -22.4274   -8.0291   21.3538 C   0  0  0  0  0  0
  -21.9900   -9.0259   20.4639 C   0  0  0  0  0  0
  -22.7217  -10.2148   20.3056 C   0  0  0  0  0  0
  -21.6856   -6.0738   22.5287 C   0  0  0  0  0  0
  -21.4006   -6.5640   23.8216 C   0  0  0  0  0  0
  -21.3660   -5.6792   24.9179 C   0  0  0  0  0  0
  -21.6049   -4.3054   24.7231 C   0  0  0  0  0  0
  -21.8814   -3.8149   23.4347 C   0  0  0  0  0  0
  -21.9191   -4.6966   22.3405 C   0  0  0  0  0  0
  -22.7866  -13.5264   21.1846 C   0  0  0  0  0  0
  -22.1665   -4.2145   21.0988 F   0  0  0  0  0  0
  -21.5625   -3.4546   25.7748 F   0  0  0  0  0  0
  -30.0327  -13.3133   20.4573 N   0  0  0  0  0  0
  -26.3017  -12.9317   20.3349 N   0  0  0  0  0  0
  -25.9312  -11.6477   20.5750 N   0  0  0  0  0  0
  -22.0498  -12.8269   22.0410 N   0  0  0  0  0  0
  -25.4398  -15.1862   20.4103 N   0  0  0  0  0  0
  -31.7563  -14.7505   20.0547 O   0  0  0  0  0  0
  -21.6638   -6.8885   21.4248 O   0  0  0  0  0  0
  -22.3570  -14.5583   20.6704 O   0  0  0  0  0  0
  -24.6193  -31.8650   23.2062 C   0  0  0  0  0  0
  -25.9082  -32.4808   23.8373 C   0  0  1  0  0  0
  -27.2279  -27.3921   20.1175 C   0  0  0  0  0  0
  -25.5925  -33.8603   24.2298 N   0  0  0  0  0  0
  -23.4100  -30.4908   21.5457 C   0  0  2  0  0  0
  -24.8572  -28.9545   20.1094 C   0  0  0  0  0  0
  -22.7436  -29.4680   22.4933 C   0  0  0  0  0  0
  -18.0319  -28.1353   22.8486 C   0  0  0  0  0  0
  -24.1499  -36.7305   23.2639 C   0  0  0  0  0  0
  -25.9438  -30.8229   21.3633 C   0  0  0  0  0  0
  -26.0203  -29.4564   20.7068 C   0  0  0  0  0  0
  -27.2117  -28.6866   20.6969 C   0  0  0  0  0  0
  -26.0482  -26.9176   19.5059 C   0  0  0  0  0  0
  -24.8697  -27.6881   19.5002 C   0  0  0  0  0  0
  -23.6190  -29.8226   20.1601 C   0  0  0  0  0  0
  -25.4117  -36.3087   24.0329 C   0  0  1  0  0  0
  -20.5894  -28.3731   23.1337 C   0  0  2  0  0  0
  -20.6840  -26.9477   22.5406 C   0  0  0  0  0  0
  -19.5860  -26.6508   21.5155 C   0  0  0  0  0  0
  -18.2029  -26.7921   22.1582 C   0  0  0  0  0  0
  -19.1538  -28.8842   23.2913 C   0  0  0  0  0  0
  -18.9425  -30.1427   23.8943 C   0  0  0  0  0  0
  -17.6414  -30.6545   24.0561 C   0  0  0  0  0  0
  -25.9039  -34.9462   23.5102 C   0  0  0  0  0  0
  -16.5328  -29.9017   23.6299 C   0  0  0  0  0  0
  -16.7291  -28.6435   23.0328 C   0  0  0  0  0  0
  -26.4489  -31.6608   25.0724 C   0  0  0  0  0  0
  -25.3731  -31.3762   26.1453 C   0  0  0  0  0  0
  -27.0330  -30.3047   24.6152 C   0  0  0  0  0  0
  -27.6063  -32.4325   25.7489 C   0  0  0  0  0  0
  -27.5581  -37.1799   24.8458 C   0  0  0  0  0  0
  -21.4143  -29.3126   22.3749 N   0  0  0  0  0  0
  -26.4294  -37.3777   23.9401 N   0  0  0  0  0  0
  -24.6764  -31.0730   22.0973 N   0  0  0  0  0  0
  -23.4213  -28.8166   23.2936 O   0  0  0  0  0  0
  -28.3719  -26.6084   20.1468 O   0  0  0  0  0  0
  -26.5597  -34.8920   22.4659 O   0  0  0  0  0  0
  -23.5376  -32.1407   23.7440 O   0  0  0  0  0  0
  -29.9607  -16.8652   21.1713 C   0  0  0  0  0  0
  -29.8053  -19.2443   20.6440 C   0  0  0  0  0  0
  -27.0095  -22.3637   20.4207 C   0  0  0  0  0  0
  -28.2179  -21.9981   18.2759 C   0  0  0  0  0  0
  -28.5657  -24.1805   19.4584 C   0  0  0  0  0  0
  -29.5055  -21.9183   20.4851 C   0  0  0  0  0  0
  -28.2218  -25.2212   20.5708 C   0  0  0  0  0  0
  -28.3417  -22.6251   19.6874 C   0  0  0  0  0  0
  -29.4165  -17.5876   22.1643 N   0  0  0  0  0  0
  -29.3461  -18.9556   21.8710 N   0  0  0  0  0  0
  -29.9968  -15.4405   21.3096 N   0  0  0  0  0  0
  -29.8105  -20.5300   20.0768 N   0  0  0  0  0  0
  -30.4304  -17.8339   19.7619 S   0  0  0  0  0  0
  -31.4744  -12.4633   19.1199 H   0  0  0  0  0  0
  -30.3592  -11.3257   19.8160 H   0  0  0  0  0  0
  -29.7398  -11.7850   17.4355 H   0  0  0  0  0  0
  -29.6524  -13.4974   17.7582 H   0  0  0  0  0  0
  -27.8361  -11.3085   18.8166 H   0  0  0  0  0  0
  -27.3643  -12.6331   17.7899 H   0  0  0  0  0  0
  -27.7053  -14.2551   19.5819 H   0  0  0  0  0  0
  -28.6837  -11.9399   21.3166 H   0  0  0  0  0  0
  -28.4383  -13.5592   21.8842 H   0  0  0  0  0  0
  -25.2748   -9.5706   22.4749 H   0  0  0  0  0  0
  -23.9999   -7.4657   22.7462 H   0  0  0  0  0  0
  -21.0826   -8.8765   19.8955 H   0  0  0  0  0  0
  -22.3661  -10.9676   19.6159 H   0  0  0  0  0  0
  -21.1996   -7.6146   23.9709 H   0  0  0  0  0  0
  -21.1480   -6.0531   25.9076 H   0  0  0  0  0  0
  -22.0590   -2.7613   23.2852 H   0  0  0  0  0  0
  -22.4101  -11.9935   22.4811 H   0  0  0  0  0  0
  -21.1106  -13.1282   22.2590 H   0  0  0  0  0  0
  -24.6852  -15.8527   20.5313 H   0  0  0  0  0  0
  -26.3024  -15.6156   20.1032 H   0  0  0  0  0  0
  -26.7162  -32.5517   23.1139 H   0  0  0  0  0  0
  -25.0084  -33.9760   25.0448 H   0  0  0  0  0  0
  -22.7035  -31.3109   21.4037 H   0  0  0  0  0  0
  -23.3753  -35.9648   23.3298 H   0  0  0  0  0  0
  -24.3597  -36.8917   22.2054 H   0  0  0  0  0  0
  -23.7253  -37.6511   23.6654 H   0  0  0  0  0  0
  -26.0618  -31.5887   20.5955 H   0  0  0  0  0  0
  -26.8303  -30.8751   21.9838 H   0  0  0  0  0  0
  -28.1117  -29.0672   21.1583 H   0  0  0  0  0  0
  -26.0347  -25.9458   19.0370 H   0  0  0  0  0  0
  -23.9777  -27.2979   19.0325 H   0  0  0  0  0  0
  -23.7202  -30.5970   19.3985 H   0  0  0  0  0  0
  -22.7436  -29.2387   19.8692 H   0  0  0  0  0  0
  -25.1295  -36.1945   25.0824 H   0  0  0  0  0  0
  -20.9998  -28.3297   24.1458 H   0  0  0  0  0  0
  -20.5751  -26.2321   23.3566 H   0  0  0  0  0  0
  -21.6736  -26.7567   22.1237 H   0  0  0  0  0  0
  -19.7104  -25.6465   21.1081 H   0  0  0  0  0  0
  -19.6769  -27.3421   20.6755 H   0  0  0  0  0  0
  -18.0476  -26.0037   22.8942 H   0  0  0  0  0  0
  -17.4329  -26.6640   21.3969 H   0  0  0  0  0  0
  -19.7875  -30.7257   24.2369 H   0  0  0  0  0  0
  -17.4941  -31.6227   24.5138 H   0  0  0  0  0  0
  -15.5315  -30.2907   23.7563 H   0  0  0  0  0  0
  -15.8710  -28.0738   22.7028 H   0  0  0  0  0  0
  -24.5880  -30.7144   25.7785 H   0  0  0  0  0  0
  -24.8951  -32.2945   26.4880 H   0  0  0  0  0  0
  -25.8038  -30.8920   27.0225 H   0  0  0  0  0  0
  -26.2910  -29.6803   24.1164 H   0  0  0  0  0  0
  -27.4046  -29.7298   25.4647 H   0  0  0  0  0  0
  -27.8762  -30.4365   23.9364 H   0  0  0  0  0  0
  -27.2692  -33.3614   26.2111 H   0  0  0  0  0  0
  -28.3858  -32.6902   25.0306 H   0  0  0  0  0  0
  -28.0764  -31.8417   26.5363 H   0  0  0  0  0  0
  -28.2588  -38.0106   24.7493 H   0  0  0  0  0  0
  -28.1072  -36.2620   24.6282 H   0  0  0  0  0  0
  -27.2292  -37.1461   25.8862 H   0  0  0  0  0  0
  -20.9261  -29.8904   21.7059 H   0  0  0  0  0  0
  -26.0171  -38.2853   24.1396 H   0  0  0  0  0  0
  -26.1684  -22.8249   19.8994 H   0  0  0  0  0  0
  -27.0166  -22.7490   21.4410 H   0  0  0  0  0  0
  -26.8000  -21.2955   20.4851 H   0  0  0  0  0  0
  -27.4349  -22.4798   17.6899 H   0  0  0  0  0  0
  -27.9518  -20.9412   18.3137 H   0  0  0  0  0  0
  -29.1479  -22.0875   17.7129 H   0  0  0  0  0  0
  -29.5991  -24.3385   19.1485 H   0  0  0  0  0  0
  -27.9723  -24.4802   18.5938 H   0  0  0  0  0  0
  -29.3058  -21.9470   21.5580 H   0  0  0  0  0  0
  -30.4259  -22.4881   20.3490 H   0  0  0  0  0  0
  -28.8857  -25.0653   21.4218 H   0  0  0  0  0  0
  -27.2214  -25.0414   20.9648 H   0  0  0  0  0  0
  -29.2670  -15.0640   21.8918 H   0  0  0  0  0  0
  -30.1707  -20.4998   19.1293 H   0  0  0  0  0  0
  1 25  1  0  0  0
  1 30  2  0  0  0
  1 81  1  0  0  0
  2  3  1  0  0  0
  2 25  1  0  0  0
  2 84  1  0  0  0
  2 85  1  0  0  0
  3  4  1  0  0  0
  3 86  1  0  0  0
  3 87  1  0  0  0
  4  5  1  0  0  0
  4 88  1  0  0  0
  4 89  1  0  0  0
  5  6  1  0  0  0
  5 26  1  0  0  0
  5 90  1  0  0  0
  6 25  1  0  0  0
  6 91  1  0  0  0
  6 92  1  0  0  0
  7  8  2  0  0  0
  7 26  1  0  0  0
  7 29  1  0  0  0
  8  9  1  0  0  0
  8 22  1  0  0  0
  9 10  1  0  0  0
  9 27  2  0  0  0
 10 11  2  0  0  0
 10 15  1  0  0  0
 11 12  1  0  0  0
 11 93  1  0  0  0
 12 13  2  0  0  0
 12 94  1  0  0  0
 13 14  1  0  0  0
 13 31  1  0  0  0
 14 15  2  0  0  0
 14 95  1  0  0  0
 15 96  1  0  0  0
 16 17  2  0  0  0
 16 21  1  0  0  0
 16 31  1  0  0  0
 17 18  1  0  0  0
 17 97  1  0  0  0
 18 19  2  0  0  0
 18 98  1  0  0  0
 19 20  1  0  0  0
 19 24  1  0  0  0
 20 21  2  0  0  0
 20 99  1  0  0  0
 21 23  1  0  0  0
 22 28  1  0  0  0
 22 32  2  0  0  0
 26 27  1  0  0  0
 28100  1  0  0  0
 28101  1  0  0  0
 29102  1  0  0  0
 29103  1  0  0  0
 33 34  1  0  0  0
 33 66  1  0  0  0
 33 70  2  0  0  0
 34 36  1  0  0  0
 34 59  1  0  0  0
 34104  1  0  0  0
 35 44  2  0  0  0
 35 45  1  0  0  0
 35 68  1  0  0  0
 36 56  1  0  0  0
 36105  1  0  0  0
 37 39  1  0  0  0
 37 47  1  0  0  0
 37 66  1  0  0  0
 37106  1  0  0  0
 38 43  2  0  0  0
 38 46  1  0  0  0
 38 47  1  0  0  0
 39 64  1  0  0  0
 39 67  2  0  0  0
 40 52  1  0  0  0
 40 53  2  0  0  0
 40 58  1  0  0  0
 41107  1  0  0  0
 41108  1  0  0  0
 41109  1  0  0  0
 41 48  1  0  0  0
 42 43  1  0  0  0
 42 66  1  0  0  0
 42110  1  0  0  0
 42111  1  0  0  0
 43 44  1  0  0  0
 44112  1  0  0  0
 45 46  2  0  0  0
 45113  1  0  0  0
 46114  1  0  0  0
 47115  1  0  0  0
 47116  1  0  0  0
 48 56  1  0  0  0
 48 65  1  0  0  0
 48117  1  0  0  0
 49 50  1  0  0  0
 49 53  1  0  0  0
 49 64  1  0  0  0
 49118  1  0  0  0
 50 51  1  0  0  0
 50119  1  0  0  0
 50120  1  0  0  0
 51 52  1  0  0  0
 51121  1  0  0  0
 51122  1  0  0  0
 52123  1  0  0  0
 52124  1  0  0  0
 53 54  1  0  0  0
 54 55  2  0  0  0
 54125  1  0  0  0
 55 57  1  0  0  0
 55126  1  0  0  0
 56 69  2  0  0  0
 57 58  2  0  0  0
 57127  1  0  0  0
 58128  1  0  0  0
 59 60  1  0  0  0
 59 61  1  0  0  0
 59 62  1  0  0  0
 60129  1  0  0  0
 60130  1  0  0  0
 60131  1  0  0  0
 61132  1  0  0  0
 61133  1  0  0  0
 61134  1  0  0  0
 62135  1  0  0  0
 62136  1  0  0  0
 62137  1  0  0  0
 63 65  1  0  0  0
 63138  1  0  0  0
 63139  1  0  0  0
 63140  1  0  0  0
 64141  1  0  0  0
 65142  1  0  0  0
 68 77  1  0  0  0
 71 79  2  0  0  0
 71 81  1  0  0  0
 71 83  1  0  0  0
 72 80  2  0  0  0
 72 82  1  0  0  0
 72 83  1  0  0  0
 73143  1  0  0  0
 73144  1  0  0  0
 73145  1  0  0  0
 73 78  1  0  0  0
 74 78  1  0  0  0
 74146  1  0  0  0
 74147  1  0  0  0
 74148  1  0  0  0
 75 77  1  0  0  0
 75 78  1  0  0  0
 75149  1  0  0  0
 75150  1  0  0  0
 76 78  1  0  0  0
 76 82  1  0  0  0
 76151  1  0  0  0
 76152  1  0  0  0
 77153  1  0  0  0
 77154  1  0  0  0
 79 80  1  0  0  0
 81155  1  0  0  0
 82156  1  0  0  0
M  ISO  4   1 100  68 101  77 101  81 100
M  END
> <chiral flag>
0

> <version>
0

> <s_m_source_file>
/data/baiqing/PycharmProjects/Reinvent-master-3.2/result/LINK_invent/BTK/process_docking_weight1_custom_product_contain_oxygen_bond_distance_aromatic_linkinvent_7_9_3/rearranged_h_0149.sdf

> <i_m_source_file_index>
54

> <r_mmod_Potential_Energy-OPLS-2005>
-136.211730957031

> <r_mmod_Stretch_Energy-OPLS-2005>
48.479679107666

> <r_mmod_Bend_Energy-OPLS-2005>
121.226928710938

> <r_mmod_Torsional_Energy-OPLS-2005>
242.808288574219

> <r_mmod_Improper_Torsional_Energy-OPLS-2005>
2.99525928497314

> <r_mmod_Van_der_Waal_Energy-OPLS-2005>
128.38427734375

> <r_mmod_Electrostatic_Energy-OPLS-2005>
-478.296661376953

> <r_mmod_Solvation_Energy-OPLS-2005>
-221.777313232422

> <b_mmod_Minimization_Converged-OPLS-2005>
0

> <r_mmod_RMS_Derivative-OPLS-2005>
2.99926519393921

$$$$
54
                    3D
 Structure written by MMmdl.
160169  0  0  1  0            999 V2000
  -30.5983  -14.6398   20.5569 C   0  0  0  0  0  0
  -30.4531  -12.4099   19.4414 C   0  0  0  0  0  0
  -29.5054  -12.5271   18.2227 C   0  0  0  0  0  0
  -28.0303  -12.3560   18.6372 C   0  0  0  0  0  0
  -27.6574  -13.2084   19.8761 C   0  0  2  0  0  0
  -28.7036  -13.0269   21.0001 C   0  0  0  0  0  0
  -25.2596  -13.8145   20.5730 C   0  0  0  0  0  0
  -24.1838  -13.0436   20.9191 C   0  0  0  0  0  0
  -24.6378  -11.6902   20.8765 C   0  0  0  0  0  0
  -23.9054  -10.4304   21.0448 C   0  0  0  0  0  0
  -24.3608   -9.4211   21.9213 C   0  0  0  0  0  0
  -23.6282   -8.2249   22.0770 C   0  0  0  0  0  0
  -22.4263   -8.0302   21.3558 C   0  0  0  0  0  0
  -21.9894   -9.0284   20.4667 C   0  0  0  0  0  0
  -22.7229  -10.2163   20.3089 C   0  0  0  0  0  0
  -21.6852   -6.0759   22.5293 C   0  0  0  0  0  0
  -21.4026   -6.5661   23.8230 C   0  0  0  0  0  0
  -21.3645   -5.6803   24.9182 C   0  0  0  0  0  0
  -21.6024   -4.3066   24.7222 C   0  0  0  0  0  0
  -21.8815   -3.8164   23.4344 C   0  0  0  0  0  0
  -21.9193   -4.6985   22.3402 C   0  0  0  0  0  0
  -22.7866  -13.5275   21.1826 C   0  0  0  0  0  0
  -22.1666   -4.2165   21.0980 F   0  0  0  0  0  0
  -21.5605   -3.4542   25.7732 F   0  0  0  0  0  0
  -30.0192  -13.4004   20.4486 N   0  0  0  0  0  0
  -26.3013  -12.9299   20.3378 N   0  0  0  0  0  0
  -25.9309  -11.6462   20.5792 N   0  0  0  0  0  0
  -22.0458  -12.8323   22.0376 N   0  0  0  0  0  0
  -25.4302  -15.1872   20.4208 N   0  0  0  0  0  0
  -31.7429  -14.8492   20.1307 O   0  0  0  0  0  0
  -21.6620   -6.8909   21.4259 O   0  0  0  0  0  0
  -22.3599  -14.5589   20.6657 O   0  0  0  0  0  0
  -24.6249  -31.8630   23.2049 C   0  0  0  0  0  0
  -25.9111  -32.4798   23.8358 C   0  0  1  0  0  0
  -27.2179  -27.3394   20.1206 C   0  0  0  0  0  0
  -25.5917  -33.8593   24.2293 N   0  0  0  0  0  0
  -23.4168  -30.4906   21.5490 C   0  0  2  0  0  0
  -24.8584  -28.9510   20.1171 C   0  0  0  0  0  0
  -22.7463  -29.4653   22.4950 C   0  0  0  0  0  0
  -18.0274  -28.1336   22.8498 C   0  0  0  0  0  0
  -24.1485  -36.7309   23.2650 C   0  0  0  0  0  0
  -25.9580  -30.8042   21.3700 C   0  0  0  0  0  0
  -26.0303  -29.4343   20.7111 C   0  0  0  0  0  0
  -27.2163  -28.6442   20.6970 C   0  0  0  0  0  0
  -26.0252  -26.9098   19.4937 C   0  0  0  0  0  0
  -24.8568  -27.6908   19.5028 C   0  0  0  0  0  0
  -23.6286  -29.8331   20.1619 C   0  0  0  0  0  0
  -25.4111  -36.3110   24.0350 C   0  0  1  0  0  0
  -20.5887  -28.3663   23.1269 C   0  0  2  0  0  0
  -20.6760  -26.9377   22.5419 C   0  0  0  0  0  0
  -19.5732  -26.6356   21.5216 C   0  0  0  0  0  0
  -18.1909  -26.7895   22.1620 C   0  0  0  0  0  0
  -19.1536  -28.8819   23.2891 C   0  0  0  0  0  0
  -18.9463  -30.1417   23.8905 C   0  0  0  0  0  0
  -17.6465  -30.6565   24.0562 C   0  0  0  0  0  0
  -25.9048  -34.9470   23.5121 C   0  0  0  0  0  0
  -16.5352  -29.9065   23.6323 C   0  0  0  0  0  0
  -16.7269  -28.6475   23.0369 C   0  0  0  0  0  0
  -26.4497  -31.6598   25.0722 C   0  0  0  0  0  0
  -25.3725  -31.3753   26.1457 C   0  0  0  0  0  0
  -27.0383  -30.3039   24.6167 C   0  0  0  0  0  0
  -27.6053  -32.4340   25.7468 C   0  0  0  0  0  0
  -27.5587  -37.1808   24.8466 C   0  0  0  0  0  0
  -21.4176  -29.3040   22.3681 N   0  0  0  0  0  0
  -26.4294  -37.3801   23.9415 N   0  0  0  0  0  0
  -24.6860  -31.0679   22.0982 N   0  0  0  0  0  0
  -23.4207  -28.8174   23.3003 O   0  0  0  0  0  0
  -28.3387  -26.5020   20.1567 O   0  0  0  0  0  0
  -26.5621  -34.8941   22.4695 O   0  0  0  0  0  0
  -23.5428  -32.1407   23.7410 O   0  0  0  0  0  0
  -30.6128  -17.9437   20.5008 C   0  0  0  0  0  0
  -30.0193  -19.2379   20.8064 C   0  0  0  0  0  0
  -29.7408  -17.0017   21.0112 C   0  0  0  0  0  0
  -30.7878  -20.5180   20.5717 C   0  0  0  0  0  0
  -30.6204  -24.2654   20.5746 C   0  0  0  0  0  0
  -31.3623  -22.9363   20.3602 C   0  0  0  0  0  0
  -29.0253  -22.5087   20.5904 C   0  0  0  0  0  0
  -29.2126  -23.9879   20.0432 C   0  0  1  0  0  0
  -29.7462  -24.8589   17.8261 C   0  0  0  0  0  0
  -28.1201  -25.0665   20.4588 C   0  0  0  0  0  0
  -28.8531  -19.0566   21.4183 N   0  0  0  0  0  0
  -30.3659  -21.8439   20.4954 N   0  0  0  0  0  0
  -29.7779  -15.6178   21.0496 N   0  0  0  0  0  0
  -32.1090  -20.2960   20.4583 N   0  3  0  0  0  0
  -28.6736  -17.6650   21.5498 O   0  0  0  0  0  0
  -29.1682  -23.8261   18.6186 O   0  0  0  0  0  0
  -31.4833  -12.5795   19.1225 H   0  0  0  0  0  0
  -30.4318  -11.4020   19.8602 H   0  0  0  0  0  0
  -29.7648  -11.7871   17.4639 H   0  0  0  0  0  0
  -29.6354  -13.5040   17.7539 H   0  0  0  0  0  0
  -27.8631  -11.2985   18.8469 H   0  0  0  0  0  0
  -27.3736  -12.6077   17.8028 H   0  0  0  0  0  0
  -27.6848  -14.2498   19.5553 H   0  0  0  0  0  0
  -28.7239  -11.9869   21.3287 H   0  0  0  0  0  0
  -28.4364  -13.6037   21.8879 H   0  0  0  0  0  0
  -25.2752   -9.5667   22.4784 H   0  0  0  0  0  0
  -23.9976   -7.4642   22.7488 H   0  0  0  0  0  0
  -21.0819   -8.8838   19.8980 H   0  0  0  0  0  0
  -22.3709  -10.9727   19.6208 H   0  0  0  0  0  0
  -21.2047   -7.6168   23.9744 H   0  0  0  0  0  0
  -21.1448   -6.0527   25.9084 H   0  0  0  0  0  0
  -22.0594   -2.7623   23.2839 H   0  0  0  0  0  0
  -22.4017  -12.0010   22.4851 H   0  0  0  0  0  0
  -21.1083  -13.1431   22.2512 H   0  0  0  0  0  0
  -24.6624  -15.8384   20.5500 H   0  0  0  0  0  0
  -26.2706  -15.6340   20.0788 H   0  0  0  0  0  0
  -26.7189  -32.5480   23.1123 H   0  0  0  0  0  0
  -25.0069  -33.9717   25.0439 H   0  0  0  0  0  0
  -22.7127  -31.3134   21.4135 H   0  0  0  0  0  0
  -23.3748  -35.9640   23.3310 H   0  0  0  0  0  0
  -24.3598  -36.8920   22.2071 H   0  0  0  0  0  0
  -23.7217  -37.6510   23.6650 H   0  0  0  0  0  0
  -26.0912  -31.5680   20.6035 H   0  0  0  0  0  0
  -26.8394  -30.8464   21.9987 H   0  0  0  0  0  0
  -28.1177  -29.0202   21.1619 H   0  0  0  0  0  0
  -25.9662  -25.9620   18.9826 H   0  0  0  0  0  0
  -23.9578  -27.3100   19.0380 H   0  0  0  0  0  0
  -23.7502  -30.6146   19.4116 H   0  0  0  0  0  0
  -22.7453  -29.2697   19.8560 H   0  0  0  0  0  0
  -25.1276  -36.2008   25.0842 H   0  0  0  0  0  0
  -20.9988  -28.3224   24.1385 H   0  0  0  0  0  0
  -20.5609  -26.2279   23.3633 H   0  0  0  0  0  0
  -21.6630  -26.7349   22.1239 H   0  0  0  0  0  0
  -19.6878  -25.6264   21.1239 H   0  0  0  0  0  0
  -19.6660  -27.3164   20.6744 H   0  0  0  0  0  0
  -17.4187  -26.6669   21.4008 H   0  0  0  0  0  0
  -18.0272  -26.0006   22.8975 H   0  0  0  0  0  0
  -19.7951  -30.7220   24.2279 H   0  0  0  0  0  0
  -17.5030  -31.6251   24.5142 H   0  0  0  0  0  0
  -15.5351  -30.2978   23.7634 H   0  0  0  0  0  0
  -15.8671  -28.0795   22.7082 H   0  0  0  0  0  0
  -24.5827  -30.7198   25.7763 H   0  0  0  0  0  0
  -24.9018  -32.2951   26.4934 H   0  0  0  0  0  0
  -25.8033  -30.8849   27.0195 H   0  0  0  0  0  0
  -26.2979  -29.6744   24.1228 H   0  0  0  0  0  0
  -27.4155  -29.7345   25.4670 H   0  0  0  0  0  0
  -27.8789  -30.4368   23.9358 H   0  0  0  0  0  0
  -27.2633  -33.3602   26.2098 H   0  0  0  0  0  0
  -28.3808  -32.6973   25.0257 H   0  0  0  0  0  0
  -28.0779  -31.8446   26.5340 H   0  0  0  0  0  0
  -28.2625  -38.0089   24.7518 H   0  0  0  0  0  0
  -28.1057  -36.2629   24.6265 H   0  0  0  0  0  0
  -27.2314  -37.1433   25.8871 H   0  0  0  0  0  0
  -20.9328  -29.8844   21.6977 H   0  0  0  0  0  0
  -26.0195  -38.2887   24.1396 H   0  0  0  0  0  0
  -31.5487  -17.7355   20.0058 H   0  0  0  0  0  0
  -31.1129  -25.1093   20.0920 H   0  0  0  0  0  0
  -30.5875  -24.4973   21.6401 H   0  0  0  0  0  0
  -32.1713  -22.8391   21.0847 H   0  0  0  0  0  0
  -31.7885  -22.8989   19.3565 H   0  0  0  0  0  0
  -28.2522  -21.9659   20.0468 H   0  0  0  0  0  0
  -28.7384  -22.5281   21.6430 H   0  0  0  0  0  0
  -29.4578  -24.7216   16.7852 H   0  0  0  0  0  0
  -30.8351  -24.8208   17.8687 H   0  0  0  0  0  0
  -29.4179  -25.8532   18.1167 H   0  0  0  0  0  0
  -27.9869  -25.0117   21.5393 H   0  0  0  0  0  0
  -27.1821  -24.6963   20.0516 H   0  0  0  0  0  0
  -28.9303  -15.2234   21.4248 H   0  0  0  0  0  0
  -32.4238  -19.3465   20.5849 H   0  0  0  0  0  0
  -32.7851  -21.0175   20.2813 H   0  0  0  0  0  0
  1 25  1  0  0  0
  1 30  2  0  0  0
  1 83  1  0  0  0
  2  3  1  0  0  0
  2 25  1  0  0  0
  2 87  1  0  0  0
  2 88  1  0  0  0
  3  4  1  0  0  0
  3 89  1  0  0  0
  3 90  1  0  0  0
  4  5  1  0  0  0
  4 91  1  0  0  0
  4 92  1  0  0  0
  5  6  1  0  0  0
  5 26  1  0  0  0
  5 93  1  0  0  0
  6 25  1  0  0  0
  6 94  1  0  0  0
  6 95  1  0  0  0
  7  8  2  0  0  0
  7 26  1  0  0  0
  7 29  1  0  0  0
  8  9  1  0  0  0
  8 22  1  0  0  0
  9 10  1  0  0  0
  9 27  2  0  0  0
 10 11  2  0  0  0
 10 15  1  0  0  0
 11 12  1  0  0  0
 11 96  1  0  0  0
 12 13  2  0  0  0
 12 97  1  0  0  0
 13 14  1  0  0  0
 13 31  1  0  0  0
 14 15  2  0  0  0
 14 98  1  0  0  0
 15 99  1  0  0  0
 16 17  2  0  0  0
 16 21  1  0  0  0
 16 31  1  0  0  0
 17 18  1  0  0  0
 17100  1  0  0  0
 18 19  2  0  0  0
 18101  1  0  0  0
 19 20  1  0  0  0
 19 24  1  0  0  0
 20 21  2  0  0  0
 20102  1  0  0  0
 21 23  1  0  0  0
 22 28  1  0  0  0
 22 32  2  0  0  0
 26 27  1  0  0  0
 28103  1  0  0  0
 28104  1  0  0  0
 29105  1  0  0  0
 29106  1  0  0  0
 33 34  1  0  0  0
 33 66  1  0  0  0
 33 70  2  0  0  0
 34 36  1  0  0  0
 34 59  1  0  0  0
 34107  1  0  0  0
 35 44  2  0  0  0
 35 45  1  0  0  0
 35 68  1  0  0  0
 36 56  1  0  0  0
 36108  1  0  0  0
 37 39  1  0  0  0
 37 47  1  0  0  0
 37 66  1  0  0  0
 37109  1  0  0  0
 38 43  2  0  0  0
 38 46  1  0  0  0
 38 47  1  0  0  0
 39 64  1  0  0  0
 39 67  2  0  0  0
 40 52  1  0  0  0
 40 53  2  0  0  0
 40 58  1  0  0  0
 41110  1  0  0  0
 41111  1  0  0  0
 41112  1  0  0  0
 41 48  1  0  0  0
 42 43  1  0  0  0
 42 66  1  0  0  0
 42113  1  0  0  0
 42114  1  0  0  0
 43 44  1  0  0  0
 44115  1  0  0  0
 45 46  2  0  0  0
 45116  1  0  0  0
 46117  1  0  0  0
 47118  1  0  0  0
 47119  1  0  0  0
 48 56  1  0  0  0
 48 65  1  0  0  0
 48120  1  0  0  0
 49 50  1  0  0  0
 49 53  1  0  0  0
 49 64  1  0  0  0
 49121  1  0  0  0
 50 51  1  0  0  0
 50122  1  0  0  0
 50123  1  0  0  0
 51 52  1  0  0  0
 51124  1  0  0  0
 51125  1  0  0  0
 52126  1  0  0  0
 52127  1  0  0  0
 53 54  1  0  0  0
 54 55  2  0  0  0
 54128  1  0  0  0
 55 57  1  0  0  0
 55129  1  0  0  0
 56 69  2  0  0  0
 57 58  2  0  0  0
 57130  1  0  0  0
 58131  1  0  0  0
 59 60  1  0  0  0
 59 61  1  0  0  0
 59 62  1  0  0  0
 60132  1  0  0  0
 60133  1  0  0  0
 60134  1  0  0  0
 61135  1  0  0  0
 61136  1  0  0  0
 61137  1  0  0  0
 62138  1  0  0  0
 62139  1  0  0  0
 62140  1  0  0  0
 63 65  1  0  0  0
 63141  1  0  0  0
 63142  1  0  0  0
 63143  1  0  0  0
 64144  1  0  0  0
 65145  1  0  0  0
 68 80  1  0  0  0
 71 72  1  0  0  0
 71 73  2  0  0  0
 71146  1  0  0  0
 72 74  1  0  0  0
 72 81  2  0  0  0
 73 83  1  0  0  0
 73 85  1  0  0  0
 74 82  1  0  0  0
 74 84  2  0  0  0
 75 76  1  0  0  0
 75 78  1  0  0  0
 75147  1  0  0  0
 75148  1  0  0  0
 76 82  1  0  0  0
 76149  1  0  0  0
 76150  1  0  0  0
 77 78  1  0  0  0
 77 82  1  0  0  0
 77151  1  0  0  0
 77152  1  0  0  0
 78 80  1  0  0  0
 78 86  1  0  0  0
 79 86  1  0  0  0
 79153  1  0  0  0
 79154  1  0  0  0
 79155  1  0  0  0
 80156  1  0  0  0
 80157  1  0  0  0
 81 85  1  0  0  0
 83158  1  0  0  0
 84159  1  0  0  0
 84160  1  0  0  0
M  CHG  1  84   1
M  ISO  4   1 100  68 101  80 101  83 100
M  END
> <chiral flag>
0

> <version>
0

> <s_m_source_file>
/data/baiqing/PycharmProjects/Reinvent-master-3.2/result/LINK_invent/BTK/process_docking_weight1_custom_product_contain_oxygen_bond_distance_aromatic_linkinvent_7_9_3/rearranged_h_0149.sdf

> <i_m_source_file_index>
55

> <r_mmod_Potential_Energy-OPLS-2005>
-91.4640121459961

> <r_mmod_Stretch_Energy-OPLS-2005>
75.3681259155273

> <r_mmod_Bend_Energy-OPLS-2005>
214.760848999023

> <r_mmod_Torsional_Energy-OPLS-2005>
284.733306884766

> <r_mmod_Improper_Torsional_Energy-OPLS-2005>
3.91663122177124

> <r_mmod_Van_der_Waal_Energy-OPLS-2005>
138.644424438477

> <r_mmod_Electrostatic_Energy-OPLS-2005>
-391.838439941406

> <r_mmod_Solvation_Energy-OPLS-2005>
-461.373260498047

> <b_mmod_Minimization_Converged-OPLS-2005>
0

> <r_mmod_RMS_Derivative-OPLS-2005>
4.20609378814697

$$$$
55
                    3D
 Structure written by MMmdl.
155163  0  0  1  0            999 V2000
  -30.5548  -14.7672   20.5420 C   0  0  0  0  0  0
  -30.4744  -12.4919   19.4608 C   0  0  0  0  0  0
  -29.5272  -12.5449   18.2359 C   0  0  0  0  0  0
  -28.0463  -12.3592   18.6374 C   0  0  0  0  0  0
  -27.6593  -13.2126   19.8738 C   0  0  2  0  0  0
  -28.7106  -13.0299   20.9897 C   0  0  0  0  0  0
  -25.2617  -13.8128   20.5732 C   0  0  0  0  0  0
  -24.1870  -13.0426   20.9204 C   0  0  0  0  0  0
  -24.6418  -11.6887   20.8774 C   0  0  0  0  0  0
  -23.9064  -10.4288   21.0452 C   0  0  0  0  0  0
  -24.3606   -9.4208   21.9237 C   0  0  0  0  0  0
  -23.6301   -8.2233   22.0782 C   0  0  0  0  0  0
  -22.4283   -8.0285   21.3566 C   0  0  0  0  0  0
  -21.9915   -9.0255   20.4668 C   0  0  0  0  0  0
  -22.7235  -10.2144   20.3094 C   0  0  0  0  0  0
  -21.6825   -6.0743   22.5286 C   0  0  0  0  0  0
  -21.3995   -6.5644   23.8225 C   0  0  0  0  0  0
  -21.3665   -5.6793   24.9184 C   0  0  0  0  0  0
  -21.6053   -4.3063   24.7228 C   0  0  0  0  0  0
  -21.8822   -3.8148   23.4354 C   0  0  0  0  0  0
  -21.9191   -4.6971   22.3404 C   0  0  0  0  0  0
  -22.7892  -13.5256   21.1846 C   0  0  0  0  0  0
  -22.1665   -4.2159   21.0981 F   0  0  0  0  0  0
  -21.5639   -3.4540   25.7741 F   0  0  0  0  0  0
  -30.0076  -13.4925   20.4524 N   0  0  0  0  0  0
  -26.3044  -12.9309   20.3387 N   0  0  0  0  0  0
  -25.9356  -11.6465   20.5776 N   0  0  0  0  0  0
  -22.0474  -12.8294   22.0381 N   0  0  0  0  0  0
  -25.4372  -15.1846   20.4142 N   0  0  0  0  0  0
  -31.6902  -14.9596   20.0953 O   0  0  0  0  0  0
  -21.6641   -6.8888   21.4253 O   0  0  0  0  0  0
  -22.3628  -14.5586   20.6683 O   0  0  0  0  0  0
  -24.6334  -31.8571   23.1996 C   0  0  0  0  0  0
  -25.9153  -32.4759   23.8346 C   0  0  1  0  0  0
  -27.2304  -27.2606   20.1156 C   0  0  0  0  0  0
  -25.5936  -33.8544   24.2281 N   0  0  0  0  0  0
  -23.4312  -30.4780   21.5457 C   0  0  2  0  0  0
  -24.8746  -28.9271   20.1155 C   0  0  0  0  0  0
  -22.7529  -29.4596   22.4937 C   0  0  0  0  0  0
  -18.0293  -28.1421   22.8514 C   0  0  0  0  0  0
  -24.1458  -36.7222   23.2650 C   0  0  0  0  0  0
  -25.9799  -30.7657   21.3816 C   0  0  0  0  0  0
  -26.0517  -29.3925   20.7128 C   0  0  0  0  0  0
  -27.2295  -28.5752   20.6997 C   0  0  0  0  0  0
  -26.0146  -26.8655   19.5023 C   0  0  0  0  0  0
  -24.8616  -27.6690   19.5024 C   0  0  0  0  0  0
  -23.6470  -29.8144   20.1623 C   0  0  0  0  0  0
  -25.4099  -36.3063   24.0364 C   0  0  1  0  0  0
  -20.5903  -28.3711   23.1276 C   0  0  2  0  0  0
  -20.6756  -26.9422   22.5417 C   0  0  0  0  0  0
  -19.5714  -26.6412   21.5223 C   0  0  0  0  0  0
  -18.1903  -26.7976   22.1641 C   0  0  0  0  0  0
  -19.1555  -28.8891   23.2888 C   0  0  0  0  0  0
  -18.9487  -30.1490   23.8915 C   0  0  0  0  0  0
  -17.6484  -30.6631   24.0578 C   0  0  0  0  0  0
  -25.9058  -34.9442   23.5131 C   0  0  0  0  0  0
  -16.5370  -29.9134   23.6343 C   0  0  0  0  0  0
  -16.7279  -28.6533   23.0406 C   0  0  0  0  0  0
  -26.4519  -31.6584   25.0743 C   0  0  0  0  0  0
  -25.3733  -31.3735   26.1472 C   0  0  0  0  0  0
  -27.0400  -30.3011   24.6253 C   0  0  0  0  0  0
  -27.6097  -32.4334   25.7500 C   0  0  0  0  0  0
  -27.5558  -37.1769   24.8495 C   0  0  0  0  0  0
  -21.4242  -29.3047   22.3681 N   0  0  0  0  0  0
  -26.4260  -37.3774   23.9450 N   0  0  0  0  0  0
  -24.7006  -31.0537   22.0964 N   0  0  0  0  0  0
  -23.4220  -28.8155   23.3055 O   0  0  0  0  0  0
  -28.3376  -26.3679   20.1784 O   0  0  0  0  0  0
  -26.5643  -34.8926   22.4708 O   0  0  0  0  0  0
  -23.5482  -32.1394   23.7293 O   0  0  0  0  0  0
  -30.6573  -20.9063   21.0018 C   0  0  0  0  0  0
  -30.9153  -19.4823   21.2387 C   0  0  0  0  0  0
  -29.9187  -18.6229   20.7701 C   0  0  0  0  0  0
  -29.4633  -21.2353   20.3881 C   0  0  0  0  0  0
  -29.5094  -17.2350   21.1567 C   0  0  0  0  0  0
  -29.6666  -15.8427   21.1383 C   0  0  0  0  0  0
  -32.1187  -19.0906   21.9873 C   0  0  0  0  0  0
  -29.1171  -23.7941   20.3822 C   0  0  0  0  0  0
  -32.3810  -17.6103   22.2272 C   0  0  0  0  0  0
  -28.3919  -24.9022   18.1899 C   0  0  0  0  0  0
  -28.1961  -24.9338   19.7203 C   0  0  2  0  0  0
  -28.8780  -22.4668   20.0465 N   0  0  0  0  0  0
  -32.9473  -19.8919   22.4325 O   0  0  0  0  0  0
  -30.0006  -24.1164   21.1814 O   0  0  0  0  0  0
  -28.6760  -19.6755   20.0295 S   0  0  0  0  0  0
  -31.4988  -12.6871   19.1400 H   0  0  0  0  0  0
  -30.4897  -11.4945   19.9009 H   0  0  0  0  0  0
  -29.8172  -11.7929   17.5022 H   0  0  0  0  0  0
  -29.6446  -13.5098   17.7410 H   0  0  0  0  0  0
  -27.8812  -11.3022   18.8548 H   0  0  0  0  0  0
  -27.3966  -12.6031   17.7953 H   0  0  0  0  0  0
  -27.6814  -14.2539   19.5523 H   0  0  0  0  0  0
  -28.7751  -11.9751   21.2605 H   0  0  0  0  0  0
  -28.4163  -13.5116   21.9198 H   0  0  0  0  0  0
  -25.2726   -9.5695   22.4854 H   0  0  0  0  0  0
  -23.9992   -7.4618   22.7509 H   0  0  0  0  0  0
  -21.0838   -8.8804   19.8971 H   0  0  0  0  0  0
  -22.3703  -10.9721   19.6232 H   0  0  0  0  0  0
  -21.1978   -7.6143   23.9732 H   0  0  0  0  0  0
  -21.1493   -6.0519   25.9093 H   0  0  0  0  0  0
  -22.0603   -2.7608   23.2841 H   0  0  0  0  0  0
  -22.3935  -11.9890   22.4757 H   0  0  0  0  0  0
  -21.1150  -13.1497   22.2594 H   0  0  0  0  0  0
  -24.6727  -15.8434   20.5117 H   0  0  0  0  0  0
  -26.2968  -15.6192   20.1009 H   0  0  0  0  0  0
  -26.7221  -32.5418   23.1094 H   0  0  0  0  0  0
  -25.0109  -33.9652   25.0447 H   0  0  0  0  0  0
  -22.7251  -31.3003   21.4031 H   0  0  0  0  0  0
  -23.3754  -35.9508   23.3350 H   0  0  0  0  0  0
  -24.3524  -36.8786   22.2041 H   0  0  0  0  0  0
  -23.7148  -37.6418   23.6630 H   0  0  0  0  0  0
  -26.1350  -31.5312   20.6199 H   0  0  0  0  0  0
  -26.8485  -30.8002   22.0278 H   0  0  0  0  0  0
  -28.1348  -28.9361   21.1673 H   0  0  0  0  0  0
  -25.8987  -25.9040   19.0304 H   0  0  0  0  0  0
  -23.9545  -27.2979   19.0461 H   0  0  0  0  0  0
  -23.7727  -30.5892   19.4045 H   0  0  0  0  0  0
  -22.7644  -29.2480   19.8587 H   0  0  0  0  0  0
  -25.1259  -36.1930   25.0850 H   0  0  0  0  0  0
  -20.9980  -28.3276   24.1403 H   0  0  0  0  0  0
  -20.5628  -26.2319   23.3631 H   0  0  0  0  0  0
  -21.6628  -26.7436   22.1219 H   0  0  0  0  0  0
  -19.6846  -25.6324   21.1253 H   0  0  0  0  0  0
  -19.6652  -27.3222   20.6752 H   0  0  0  0  0  0
  -17.4169  -26.6763   21.4046 H   0  0  0  0  0  0
  -18.0286  -26.0130   22.9041 H   0  0  0  0  0  0
  -19.7965  -30.7296   24.2293 H   0  0  0  0  0  0
  -17.5055  -31.6311   24.5184 H   0  0  0  0  0  0
  -15.5379  -30.3052   23.7672 H   0  0  0  0  0  0
  -15.8674  -28.0837   22.7170 H   0  0  0  0  0  0
  -24.5956  -30.7030   25.7811 H   0  0  0  0  0  0
  -24.8868  -32.2881   26.4854 H   0  0  0  0  0  0
  -25.8052  -30.8975   27.0284 H   0  0  0  0  0  0
  -26.3008  -29.6725   24.1290 H   0  0  0  0  0  0
  -27.4099  -29.7323   25.4785 H   0  0  0  0  0  0
  -27.8862  -30.4307   23.9518 H   0  0  0  0  0  0
  -27.2762  -33.3691   26.2008 H   0  0  0  0  0  0
  -28.3935  -32.6795   25.0323 H   0  0  0  0  0  0
  -28.0735  -31.8496   26.5462 H   0  0  0  0  0  0
  -28.2646  -38.0009   24.7558 H   0  0  0  0  0  0
  -28.1010  -36.2564   24.6342 H   0  0  0  0  0  0
  -27.2297  -37.1437   25.8905 H   0  0  0  0  0  0
  -20.9443  -29.8765   21.6877 H   0  0  0  0  0  0
  -26.0167  -38.2852   24.1472 H   0  0  0  0  0  0
  -31.3662  -21.6494   21.3432 H   0  0  0  0  0  0
  -28.6658  -17.4154   21.8120 H   0  0  0  0  0  0
  -28.8992  -15.4370   21.7670 H   0  0  0  0  0  0
  -32.2402  -17.0617   21.3004 H   0  0  0  0  0  0
  -31.7033  -17.2176   22.9851 H   0  0  0  0  0  0
  -33.4041  -17.4467   22.5639 H   0  0  0  0  0  0
  -28.2579  -23.8992   17.7839 H   0  0  0  0  0  0
  -29.3947  -25.2348   17.9176 H   0  0  0  0  0  0
  -27.6860  -25.5493   17.6726 H   0  0  0  0  0  0
  -27.1971  -24.5811   19.9698 H   0  0  0  0  0  0
  -28.0900  -22.3729   19.4212 H   0  0  0  0  0  0
  1 25  1  0  0  0
  1 30  2  0  0  0
  1 76  1  0  0  0
  2  3  1  0  0  0
  2 25  1  0  0  0
  2 86  1  0  0  0
  2 87  1  0  0  0
  3  4  1  0  0  0
  3 88  1  0  0  0
  3 89  1  0  0  0
  4  5  1  0  0  0
  4 90  1  0  0  0
  4 91  1  0  0  0
  5  6  1  0  0  0
  5 26  1  0  0  0
  5 92  1  0  0  0
  6 25  1  0  0  0
  6 93  1  0  0  0
  6 94  1  0  0  0
  7  8  2  0  0  0
  7 26  1  0  0  0
  7 29  1  0  0  0
  8  9  1  0  0  0
  8 22  1  0  0  0
  9 10  1  0  0  0
  9 27  2  0  0  0
 10 11  2  0  0  0
 10 15  1  0  0  0
 11 12  1  0  0  0
 11 95  1  0  0  0
 12 13  2  0  0  0
 12 96  1  0  0  0
 13 14  1  0  0  0
 13 31  1  0  0  0
 14 15  2  0  0  0
 14 97  1  0  0  0
 15 98  1  0  0  0
 16 17  2  0  0  0
 16 21  1  0  0  0
 16 31  1  0  0  0
 17 18  1  0  0  0
 17 99  1  0  0  0
 18 19  2  0  0  0
 18100  1  0  0  0
 19 20  1  0  0  0
 19 24  1  0  0  0
 20 21  2  0  0  0
 20101  1  0  0  0
 21 23  1  0  0  0
 22 28  1  0  0  0
 22 32  2  0  0  0
 26 27  1  0  0  0
 28102  1  0  0  0
 28103  1  0  0  0
 29104  1  0  0  0
 29105  1  0  0  0
 33 34  1  0  0  0
 33 66  1  0  0  0
 33 70  2  0  0  0
 34 36  1  0  0  0
 34 59  1  0  0  0
 34106  1  0  0  0
 35 44  2  0  0  0
 35 45  1  0  0  0
 35 68  1  0  0  0
 36 56  1  0  0  0
 36107  1  0  0  0
 37 39  1  0  0  0
 37 47  1  0  0  0
 37 66  1  0  0  0
 37108  1  0  0  0
 38 43  2  0  0  0
 38 46  1  0  0  0
 38 47  1  0  0  0
 39 64  1  0  0  0
 39 67  2  0  0  0
 40 52  1  0  0  0
 40 53  2  0  0  0
 40 58  1  0  0  0
 41109  1  0  0  0
 41110  1  0  0  0
 41111  1  0  0  0
 41 48  1  0  0  0
 42 43  1  0  0  0
 42 66  1  0  0  0
 42112  1  0  0  0
 42113  1  0  0  0
 43 44  1  0  0  0
 44114  1  0  0  0
 45 46  2  0  0  0
 45115  1  0  0  0
 46116  1  0  0  0
 47117  1  0  0  0
 47118  1  0  0  0
 48 56  1  0  0  0
 48 65  1  0  0  0
 48119  1  0  0  0
 49 50  1  0  0  0
 49 53  1  0  0  0
 49 64  1  0  0  0
 49120  1  0  0  0
 50 51  1  0  0  0
 50121  1  0  0  0
 50122  1  0  0  0
 51 52  1  0  0  0
 51123  1  0  0  0
 51124  1  0  0  0
 52125  1  0  0  0
 52126  1  0  0  0
 53 54  1  0  0  0
 54 55  2  0  0  0
 54127  1  0  0  0
 55 57  1  0  0  0
 55128  1  0  0  0
 56 69  2  0  0  0
 57 58  2  0  0  0
 57129  1  0  0  0
 58130  1  0  0  0
 59 60  1  0  0  0
 59 61  1  0  0  0
 59 62  1  0  0  0
 60131  1  0  0  0
 60132  1  0  0  0
 60133  1  0  0  0
 61134  1  0  0  0
 61135  1  0  0  0
 61136  1  0  0  0
 62137  1  0  0  0
 62138  1  0  0  0
 62139  1  0  0  0
 63 65  1  0  0  0
 63140  1  0  0  0
 63141  1  0  0  0
 63142  1  0  0  0
 64143  1  0  0  0
 65144  1  0  0  0
 68 81  1  0  0  0
 71 72  1  0  0  0
 71 74  2  0  0  0
 71145  1  0  0  0
 72 73  2  0  0  0
 72 77  1  0  0  0
 73 75  1  0  0  0
 73 85  1  0  0  0
 74 82  1  0  0  0
 74 85  1  0  0  0
 75 76  2  0  0  0
 75146  1  0  0  0
 76147  1  0  0  0
 77 79  1  0  0  0
 77 83  2  0  0  0
 78 81  1  0  0  0
 78 82  1  0  0  0
 78 84  2  0  0  0
 79148  1  0  0  0
 79149  1  0  0  0
 79150  1  0  0  0
 80151  1  0  0  0
 80152  1  0  0  0
 80153  1  0  0  0
 80 81  1  0  0  0
 81154  1  0  0  0
 82155  1  0  0  0
M  ISO  4   1 100  68 101  76 100  81 101
M  END
> <chiral flag>
0

> <version>
0

> <s_m_source_file>
/data/baiqing/PycharmProjects/Reinvent-master-3.2/result/LINK_invent/BTK/process_docking_weight1_custom_product_contain_oxygen_bond_distance_aromatic_linkinvent_7_9_3/rearranged_h_0149.sdf

> <i_m_source_file_index>
56

> <r_mmod_Potential_Energy-OPLS-2005>
275.976135253906

> <r_mmod_Stretch_Energy-OPLS-2005>
123.071357727051

> <r_mmod_Bend_Energy-OPLS-2005>
280.305114746094

> <r_mmod_Torsional_Energy-OPLS-2005>
240.652404785156

> <r_mmod_Improper_Torsional_Energy-OPLS-2005>
6.24992609024048

> <r_mmod_Van_der_Waal_Energy-OPLS-2005>
134.088012695312

> <r_mmod_Electrostatic_Energy-OPLS-2005>
-354.068481445312

> <r_mmod_Solvation_Energy-OPLS-2005>
-241.77880859375

> <b_mmod_Minimization_Converged-OPLS-2005>
0

> <r_mmod_RMS_Derivative-OPLS-2005>
3.89960789680481

$$$$
56
                    3D
 Structure written by MMmdl.
147155  0  0  1  0            999 V2000
  -30.5801  -14.7278   20.4603 C   0  0  0  0  0  0
  -30.4450  -12.4407   19.4608 C   0  0  0  0  0  0
  -29.5115  -12.5022   18.2296 C   0  0  0  0  0  0
  -28.0370  -12.3242   18.6453 C   0  0  0  0  0  0
  -27.6459  -13.2174   19.8519 C   0  0  2  0  0  0
  -28.6930  -13.1195   20.9843 C   0  0  0  0  0  0
  -25.2537  -13.8163   20.5673 C   0  0  0  0  0  0
  -24.1819  -13.0429   20.9210 C   0  0  0  0  0  0
  -24.6394  -11.6904   20.8755 C   0  0  0  0  0  0
  -23.9061  -10.4288   21.0415 C   0  0  0  0  0  0
  -24.3616   -9.4202   21.9190 C   0  0  0  0  0  0
  -23.6291   -8.2238   22.0758 C   0  0  0  0  0  0
  -22.4272   -8.0280   21.3546 C   0  0  0  0  0  0
  -21.9909   -9.0254   20.4649 C   0  0  0  0  0  0
  -22.7237  -10.2132   20.3060 C   0  0  0  0  0  0
  -21.6849   -6.0736   22.5280 C   0  0  0  0  0  0
  -21.4012   -6.5639   23.8212 C   0  0  0  0  0  0
  -21.3658   -5.6791   24.9175 C   0  0  0  0  0  0
  -21.6045   -4.3055   24.7225 C   0  0  0  0  0  0
  -21.8819   -3.8146   23.4346 C   0  0  0  0  0  0
  -21.9192   -4.6963   22.3402 C   0  0  0  0  0  0
  -22.7842  -13.5224   21.1865 C   0  0  0  0  0  0
  -22.1661   -4.2149   21.0979 F   0  0  0  0  0  0
  -21.5629   -3.4539   25.7737 F   0  0  0  0  0  0
  -29.9972  -13.4823   20.4094 N   0  0  0  0  0  0
  -26.2953  -12.9343   20.3268 N   0  0  0  0  0  0
  -25.9316  -11.6504   20.5752 N   0  0  0  0  0  0
  -22.0481  -12.8220   22.0422 N   0  0  0  0  0  0
  -25.4218  -15.1888   20.4049 N   0  0  0  0  0  0
  -31.7688  -14.8717   20.1528 O   0  0  0  0  0  0
  -21.6638   -6.8877   21.4243 O   0  0  0  0  0  0
  -22.3533  -14.5532   20.6711 O   0  0  0  0  0  0
  -24.6282  -31.8559   23.1978 C   0  0  0  0  0  0
  -25.9112  -32.4761   23.8325 C   0  0  1  0  0  0
  -27.2303  -27.2873   20.1352 C   0  0  0  0  0  0
  -25.5916  -33.8565   24.2258 N   0  0  0  0  0  0
  -23.4254  -30.4755   21.5402 C   0  0  2  0  0  0
  -24.8747  -28.9173   20.1174 C   0  0  0  0  0  0
  -22.7488  -29.4601   22.4919 C   0  0  0  0  0  0
  -18.0290  -28.1389   22.8490 C   0  0  0  0  0  0
  -24.1486  -36.7281   23.2639 C   0  0  0  0  0  0
  -25.9673  -30.7787   21.3710 C   0  0  0  0  0  0
  -26.0446  -29.3996   20.7192 C   0  0  0  0  0  0
  -27.2280  -28.5986   20.7116 C   0  0  0  0  0  0
  -26.0389  -26.8560   19.5169 C   0  0  0  0  0  0
  -24.8745  -27.6517   19.5062 C   0  0  0  0  0  0
  -23.6441  -29.8022   20.1590 C   0  0  0  0  0  0
  -25.4114  -36.3074   24.0329 C   0  0  1  0  0  0
  -20.5892  -28.3692   23.1279 C   0  0  2  0  0  0
  -20.6777  -26.9412   22.5413 C   0  0  0  0  0  0
  -19.5750  -26.6385   21.5218 C   0  0  0  0  0  0
  -18.1930  -26.7937   22.1624 C   0  0  0  0  0  0
  -19.1544  -28.8860   23.2880 C   0  0  0  0  0  0
  -18.9467  -30.1464   23.8894 C   0  0  0  0  0  0
  -17.6464  -30.6594   24.0567 C   0  0  0  0  0  0
  -25.9050  -34.9446   23.5099 C   0  0  0  0  0  0
  -16.5356  -29.9094   23.6334 C   0  0  0  0  0  0
  -16.7277  -28.6510   23.0353 C   0  0  0  0  0  0
  -26.4496  -31.6580   25.0703 C   0  0  0  0  0  0
  -25.3723  -31.3736   26.1425 C   0  0  0  0  0  0
  -27.0334  -30.3002   24.6159 C   0  0  0  0  0  0
  -27.6055  -32.4315   25.7476 C   0  0  0  0  0  0
  -27.5581  -37.1794   24.8467 C   0  0  0  0  0  0
  -21.4200  -29.3037   22.3669 N   0  0  0  0  0  0
  -26.4291  -37.3769   23.9413 N   0  0  0  0  0  0
  -24.6929  -31.0546   22.0936 N   0  0  0  0  0  0
  -23.4199  -28.8146   23.3013 O   0  0  0  0  0  0
  -28.3448  -26.4312   20.1235 O   0  0  0  0  0  0
  -26.5618  -34.8922   22.4667 O   0  0  0  0  0  0
  -23.5439  -32.1364   23.7291 O   0  0  0  0  0  0
  -30.6256  -19.4307   20.7172 C   0  0  0  0  0  0
  -29.3847  -19.8123   20.2283 C   0  0  0  0  0  0
  -29.8025  -17.2552   20.5079 C   0  0  0  0  0  0
  -29.0674  -22.4459   20.3692 C   0  0  0  0  0  0
  -28.8570  -21.1679   19.8588 C   0  0  0  0  0  0
  -28.5700  -23.8044   19.7996 C   0  0  0  0  0  0
  -28.2141  -25.0611   20.7148 C   0  0  0  0  0  0
  -30.8547  -18.0230   20.8476 N   0  0  0  0  0  0
  -29.7108  -15.7875   20.6414 N   0  0  0  0  0  0
  -28.4474  -23.9709   18.5813 O   0  0  0  0  0  0
  -28.0779  -21.0566   18.7724 O   0  0  0  0  0  0
  -28.4362  -18.3121   20.0055 S   0  0  0  0  0  0
  -31.4827  -12.5846   19.1546 H   0  0  0  0  0  0
  -30.4041  -11.4561   19.9300 H   0  0  0  0  0  0
  -29.7907  -11.7347   17.5065 H   0  0  0  0  0  0
  -29.6354  -13.4596   17.7212 H   0  0  0  0  0  0
  -27.8932  -11.2742   18.9040 H   0  0  0  0  0  0
  -27.3780  -12.5197   17.7986 H   0  0  0  0  0  0
  -27.6459  -14.2412   19.4783 H   0  0  0  0  0  0
  -28.7269  -12.1078   21.3922 H   0  0  0  0  0  0
  -28.4292  -13.7715   21.8189 H   0  0  0  0  0  0
  -25.2762   -9.5674   22.4763 H   0  0  0  0  0  0
  -23.9998   -7.4626   22.7474 H   0  0  0  0  0  0
  -21.0840   -8.8770   19.8953 H   0  0  0  0  0  0
  -22.3697  -10.9671   19.6168 H   0  0  0  0  0  0
  -21.2003   -7.6147   23.9715 H   0  0  0  0  0  0
  -21.1481   -6.0523   25.9077 H   0  0  0  0  0  0
  -22.0599   -2.7610   23.2844 H   0  0  0  0  0  0
  -22.4087  -11.9873   22.4802 H   0  0  0  0  0  0
  -21.1104  -13.1256   22.2639 H   0  0  0  0  0  0
  -24.6418  -15.8302   20.5013 H   0  0  0  0  0  0
  -26.2418  -15.6269   20.0079 H   0  0  0  0  0  0
  -26.7175  -32.5426   23.1069 H   0  0  0  0  0  0
  -25.0079  -33.9704   25.0415 H   0  0  0  0  0  0
  -22.7215  -31.2970   21.3907 H   0  0  0  0  0  0
  -23.3754  -35.9604   23.3298 H   0  0  0  0  0  0
  -24.3582  -36.8903   22.2055 H   0  0  0  0  0  0
  -23.7231  -37.6481   23.6662 H   0  0  0  0  0  0
  -26.0970  -31.5379   20.5987 H   0  0  0  0  0  0
  -26.8489  -30.8344   21.9980 H   0  0  0  0  0  0
  -28.1299  -28.9693   21.1788 H   0  0  0  0  0  0
  -26.0083  -25.8854   19.0422 H   0  0  0  0  0  0
  -23.9778  -27.2769   19.0321 H   0  0  0  0  0  0
  -23.7688  -30.5746   19.3994 H   0  0  0  0  0  0
  -22.7637  -29.2320   19.8561 H   0  0  0  0  0  0
  -25.1298  -36.1920   25.0822 H   0  0  0  0  0  0
  -20.9988  -28.3264   24.1396 H   0  0  0  0  0  0
  -20.5677  -26.2299   23.3614 H   0  0  0  0  0  0
  -21.6645  -26.7436   22.1204 H   0  0  0  0  0  0
  -19.6908  -25.6294   21.1246 H   0  0  0  0  0  0
  -19.6693  -27.3198   20.6753 H   0  0  0  0  0  0
  -17.4204  -26.6688   21.4022 H   0  0  0  0  0  0
  -18.0323  -26.0088   22.9027 H   0  0  0  0  0  0
  -19.7943  -30.7287   24.2254 H   0  0  0  0  0  0
  -17.5022  -31.6274   24.5166 H   0  0  0  0  0  0
  -15.5356  -30.2992   23.7669 H   0  0  0  0  0  0
  -15.8677  -28.0837   22.7056 H   0  0  0  0  0  0
  -24.5904  -30.7075   25.7761 H   0  0  0  0  0  0
  -24.8907  -32.2910   26.4816 H   0  0  0  0  0  0
  -25.8043  -30.8943   27.0216 H   0  0  0  0  0  0
  -26.2906  -29.6753   24.1188 H   0  0  0  0  0  0
  -27.4037  -29.7258   25.4658 H   0  0  0  0  0  0
  -27.8769  -30.4288   23.9377 H   0  0  0  0  0  0
  -27.2672  -33.3624   26.2038 H   0  0  0  0  0  0
  -28.3878  -32.6857   25.0312 H   0  0  0  0  0  0
  -28.0703  -31.8444   26.5405 H   0  0  0  0  0  0
  -28.2593  -38.0094   24.7521 H   0  0  0  0  0  0
  -28.1081  -36.2631   24.6281 H   0  0  0  0  0  0
  -27.2304  -37.1426   25.8869 H   0  0  0  0  0  0
  -20.9379  -29.8765   21.6882 H   0  0  0  0  0  0
  -26.0170  -38.2839   24.1426 H   0  0  0  0  0  0
  -31.4404  -20.1007   20.9533 H   0  0  0  0  0  0
  -29.6754  -22.5292   21.2581 H   0  0  0  0  0  0
  -28.8574  -25.0221   21.5935 H   0  0  0  0  0  0
  -27.1983  -24.9220   21.0859 H   0  0  0  0  0  0
  -28.7655  -15.4658   20.7680 H   0  0  0  0  0  0
  -28.0656  -20.1413   18.5195 H   0  0  0  0  0  0
  1 25  1  0  0  0
  1 30  2  0  0  0
  1 79  1  0  0  0
  2  3  1  0  0  0
  2 25  1  0  0  0
  2 83  1  0  0  0
  2 84  1  0  0  0
  3  4  1  0  0  0
  3 85  1  0  0  0
  3 86  1  0  0  0
  4  5  1  0  0  0
  4 87  1  0  0  0
  4 88  1  0  0  0
  5  6  1  0  0  0
  5 26  1  0  0  0
  5 89  1  0  0  0
  6 25  1  0  0  0
  6 90  1  0  0  0
  6 91  1  0  0  0
  7  8  2  0  0  0
  7 26  1  0  0  0
  7 29  1  0  0  0
  8  9  1  0  0  0
  8 22  1  0  0  0
  9 10  1  0  0  0
  9 27  2  0  0  0
 10 11  2  0  0  0
 10 15  1  0  0  0
 11 12  1  0  0  0
 11 92  1  0  0  0
 12 13  2  0  0  0
 12 93  1  0  0  0
 13 14  1  0  0  0
 13 31  1  0  0  0
 14 15  2  0  0  0
 14 94  1  0  0  0
 15 95  1  0  0  0
 16 17  2  0  0  0
 16 21  1  0  0  0
 16 31  1  0  0  0
 17 18  1  0  0  0
 17 96  1  0  0  0
 18 19  2  0  0  0
 18 97  1  0  0  0
 19 20  1  0  0  0
 19 24  1  0  0  0
 20 21  2  0  0  0
 20 98  1  0  0  0
 21 23  1  0  0  0
 22 28  1  0  0  0
 22 32  2  0  0  0
 26 27  1  0  0  0
 28 99  1  0  0  0
 28100  1  0  0  0
 29101  1  0  0  0
 29102  1  0  0  0
 33 34  1  0  0  0
 33 66  1  0  0  0
 33 70  2  0  0  0
 34 36  1  0  0  0
 34 59  1  0  0  0
 34103  1  0  0  0
 35 44  2  0  0  0
 35 45  1  0  0  0
 35 68  1  0  0  0
 36 56  1  0  0  0
 36104  1  0  0  0
 37 39  1  0  0  0
 37 47  1  0  0  0
 37 66  1  0  0  0
 37105  1  0  0  0
 38 43  2  0  0  0
 38 46  1  0  0  0
 38 47  1  0  0  0
 39 64  1  0  0  0
 39 67  2  0  0  0
 40 52  1  0  0  0
 40 53  2  0  0  0
 40 58  1  0  0  0
 41106  1  0  0  0
 41107  1  0  0  0
 41108  1  0  0  0
 41 48  1  0  0  0
 42 43  1  0  0  0
 42 66  1  0  0  0
 42109  1  0  0  0
 42110  1  0  0  0
 43 44  1  0  0  0
 44111  1  0  0  0
 45 46  2  0  0  0
 45112  1  0  0  0
 46113  1  0  0  0
 47114  1  0  0  0
 47115  1  0  0  0
 48 56  1  0  0  0
 48 65  1  0  0  0
 48116  1  0  0  0
 49 50  1  0  0  0
 49 53  1  0  0  0
 49 64  1  0  0  0
 49117  1  0  0  0
 50 51  1  0  0  0
 50118  1  0  0  0
 50119  1  0  0  0
 51 52  1  0  0  0
 51120  1  0  0  0
 51121  1  0  0  0
 52122  1  0  0  0
 52123  1  0  0  0
 53 54  1  0  0  0
 54 55  2  0  0  0
 54124  1  0  0  0
 55 57  1  0  0  0
 55125  1  0  0  0
 56 69  2  0  0  0
 57 58  2  0  0  0
 57126  1  0  0  0
 58127  1  0  0  0
 59 60  1  0  0  0
 59 61  1  0  0  0
 59 62  1  0  0  0
 60128  1  0  0  0
 60129  1  0  0  0
 60130  1  0  0  0
 61131  1  0  0  0
 61132  1  0  0  0
 61133  1  0  0  0
 62134  1  0  0  0
 62135  1  0  0  0
 62136  1  0  0  0
 63 65  1  0  0  0
 63137  1  0  0  0
 63138  1  0  0  0
 63139  1  0  0  0
 64140  1  0  0  0
 65141  1  0  0  0
 68 77  1  0  0  0
 71 72  2  0  0  0
 71 78  1  0  0  0
 71142  1  0  0  0
 72 75  1  0  0  0
 72 82  1  0  0  0
 73 78  2  0  0  0
 73 79  1  0  0  0
 73 82  1  0  0  0
 74 75  2  0  0  0
 74 76  1  0  0  0
 74143  1  0  0  0
 75 81  1  0  0  0
 76 77  1  0  0  0
 76 80  2  0  0  0
 77144  1  0  0  0
 77145  1  0  0  0
 79146  1  0  0  0
 81147  1  0  0  0
M  ISO  4   1 100  68 101  77 101  79 100
M  END
> <chiral flag>
0

> <version>
0

> <s_m_source_file>
/data/baiqing/PycharmProjects/Reinvent-master-3.2/result/LINK_invent/BTK/process_docking_weight1_custom_product_contain_oxygen_bond_distance_aromatic_linkinvent_7_9_3/rearranged_h_0149.sdf

> <i_m_source_file_index>
57

> <r_mmod_Potential_Energy-OPLS-2005>
104.13752746582

> <r_mmod_Stretch_Energy-OPLS-2005>
103.987037658691

> <r_mmod_Bend_Energy-OPLS-2005>
154.063751220703

> <r_mmod_Torsional_Energy-OPLS-2005>
241.390930175781

> <r_mmod_Improper_Torsional_Energy-OPLS-2005>
6.60107564926147

> <r_mmod_Van_der_Waal_Energy-OPLS-2005>
114.805953979492

> <r_mmod_Electrostatic_Energy-OPLS-2005>
-321.964172363281

> <r_mmod_Solvation_Energy-OPLS-2005>
-267.012115478516

> <b_mmod_Minimization_Converged-OPLS-2005>
0

> <r_mmod_RMS_Derivative-OPLS-2005>
0.923817932605743

$$$$
57
                    3D
 Structure written by MMmdl.
163172  0  0  1  0            999 V2000
  -30.6107  -14.5704   20.5086 C   0  0  0  0  0  0
  -30.4228  -12.3533   19.4310 C   0  0  0  0  0  0
  -29.4981  -12.5344   18.2077 C   0  0  0  0  0  0
  -28.0129  -12.3931   18.6071 C   0  0  0  0  0  0
  -27.6519  -13.2166   19.8733 C   0  0  2  0  0  0
  -28.6927  -13.0059   20.9959 C   0  0  0  0  0  0
  -25.2535  -13.8150   20.5698 C   0  0  0  0  0  0
  -24.1805  -13.0424   20.9155 C   0  0  0  0  0  0
  -24.6372  -11.6894   20.8695 C   0  0  0  0  0  0
  -23.9045  -10.4278   21.0376 C   0  0  0  0  0  0
  -24.3598   -9.4198   21.9165 C   0  0  0  0  0  0
  -23.6279   -8.2234   22.0744 C   0  0  0  0  0  0
  -22.4262   -8.0254   21.3528 C   0  0  0  0  0  0
  -21.9892   -9.0232   20.4639 C   0  0  0  0  0  0
  -22.7211  -10.2113   20.3041 C   0  0  0  0  0  0
  -21.6857   -6.0721   22.5273 C   0  0  0  0  0  0
  -21.4020   -6.5636   23.8201 C   0  0  0  0  0  0
  -21.3669   -5.6794   24.9170 C   0  0  0  0  0  0
  -21.6044   -4.3057   24.7230 C   0  0  0  0  0  0
  -21.8829   -3.8133   23.4362 C   0  0  0  0  0  0
  -21.9194   -4.6945   22.3408 C   0  0  0  0  0  0
  -22.7820  -13.5204   21.1839 C   0  0  0  0  0  0
  -22.1670   -4.2116   21.0987 F   0  0  0  0  0  0
  -21.5612   -3.4565   25.7762 F   0  0  0  0  0  0
  -30.0131  -13.3437   20.4456 N   0  0  0  0  0  0
  -26.2959  -12.9351   20.3322 N   0  0  0  0  0  0
  -25.9297  -11.6493   20.5695 N   0  0  0  0  0  0
  -22.0482  -12.8177   22.0386 N   0  0  0  0  0  0
  -25.4266  -15.1892   20.4199 N   0  0  0  0  0  0
  -31.7620  -14.7494   20.0930 O   0  0  0  0  0  0
  -21.6624   -6.8855   21.4224 O   0  0  0  0  0  0
  -22.3497  -14.5530   20.6701 O   0  0  0  0  0  0
  -24.6204  -31.8644   23.2023 C   0  0  0  0  0  0
  -25.9104  -32.4757   23.8325 C   0  0  1  0  0  0
  -27.2100  -27.3486   20.1185 C   0  0  0  0  0  0
  -25.5973  -33.8563   24.2279 N   0  0  0  0  0  0
  -23.4078  -30.4893   21.5466 C   0  0  2  0  0  0
  -24.8476  -28.9421   20.1131 C   0  0  0  0  0  0
  -22.7432  -29.4658   22.4957 C   0  0  0  0  0  0
  -18.0295  -28.1366   22.8462 C   0  0  0  0  0  0
  -24.1511  -36.7290   23.2634 C   0  0  0  0  0  0
  -25.9420  -30.8056   21.3623 C   0  0  0  0  0  0
  -26.0158  -29.4343   20.7079 C   0  0  0  0  0  0
  -27.2002  -28.6512   20.6964 C   0  0  0  0  0  0
  -26.0178  -26.8925   19.5128 C   0  0  0  0  0  0
  -24.8489  -27.6748   19.5099 C   0  0  0  0  0  0
  -23.6170  -29.8210   20.1622 C   0  0  0  0  0  0
  -25.4133  -36.3066   24.0312 C   0  0  1  0  0  0
  -20.5883  -28.3704   23.1275 C   0  0  2  0  0  0
  -20.6788  -26.9430   22.5426 C   0  0  0  0  0  0
  -19.5776  -26.6381   21.5211 C   0  0  0  0  0  0
  -18.1938  -26.7914   22.1588 C   0  0  0  0  0  0
  -19.1540  -28.8850   23.2860 C   0  0  0  0  0  0
  -18.9473  -30.1449   23.8874 C   0  0  0  0  0  0
  -17.6484  -30.6571   24.0568 C   0  0  0  0  0  0
  -25.9092  -34.9437   23.5093 C   0  0  0  0  0  0
  -16.5368  -29.9080   23.6332 C   0  0  0  0  0  0
  -16.7289  -28.6497   23.0336 C   0  0  0  0  0  0
  -26.4530  -31.6506   25.0660 C   0  0  0  0  0  0
  -25.3806  -31.3576   26.1406 C   0  0  0  0  0  0
  -27.0369  -30.2942   24.6033 C   0  0  0  0  0  0
  -27.6103  -32.4237   25.7414 C   0  0  0  0  0  0
  -27.5579  -37.1788   24.8475 C   0  0  0  0  0  0
  -21.4163  -29.3050   22.3653 N   0  0  0  0  0  0
  -26.4298  -37.3768   23.9401 N   0  0  0  0  0  0
  -24.6756  -31.0704   22.0941 N   0  0  0  0  0  0
  -23.4176  -28.8218   23.3042 O   0  0  0  0  0  0
  -28.3618  -26.5660   20.1787 O   0  0  0  0  0  0
  -26.5673  -34.8912   22.4663 O   0  0  0  0  0  0
  -23.5407  -32.1435   23.7417 O   0  0  0  0  0  0
  -30.2780  -17.3906   19.2346 C   0  0  0  0  0  0
  -29.3756  -18.0511   21.3590 C   0  0  0  0  0  0
  -30.2677  -18.7528   18.8722 C   0  0  0  0  0  0
  -29.8432  -16.9987   20.5178 C   0  0  0  0  0  0
  -29.4379  -19.4166   20.9221 C   0  0  0  0  0  0
  -29.2825  -20.5558   21.8840 C   0  0  0  0  0  0
  -28.6180  -24.2444   22.1423 C   0  0  0  0  0  0
  -28.8477  -22.8503   22.7543 C   0  0  0  0  0  0
  -28.5370  -22.5727   20.3827 C   0  0  0  0  0  0
  -27.9995  -24.0161   20.7557 C   0  0  1  0  0  0
  -25.8304  -23.1686   21.6001 C   0  0  0  0  0  0
  -28.3923  -25.1649   19.7366 C   0  0  0  0  0  0
  -29.8847  -19.7522   19.6969 N   0  0  0  0  0  0
  -28.8798  -21.8645   21.6511 N   0  0  0  0  0  0
  -29.8196  -15.6040   20.9272 N   0  0  0  0  0  0
  -29.6349  -20.2274   23.1407 N   0  3  0  0  0  0
  -26.5620  -24.0655   20.7682 O   0  0  0  0  0  0
  -31.4678  -12.4652   19.1357 H   0  0  0  0  0  0
  -30.3289  -11.3413   19.8293 H   0  0  0  0  0  0
  -29.7486  -11.8141   17.4279 H   0  0  0  0  0  0
  -29.6617  -13.5214   17.7715 H   0  0  0  0  0  0
  -27.8062  -11.3348   18.7741 H   0  0  0  0  0  0
  -27.3759  -12.6968   17.7736 H   0  0  0  0  0  0
  -27.6850  -14.2658   19.5775 H   0  0  0  0  0  0
  -28.6793  -11.9642   21.3280 H   0  0  0  0  0  0
  -28.4523  -13.5984   21.8808 H   0  0  0  0  0  0
  -25.2758   -9.5694   22.4700 H   0  0  0  0  0  0
  -24.0022   -7.4646   22.7471 H   0  0  0  0  0  0
  -21.0820   -8.8730   19.8948 H   0  0  0  0  0  0
  -22.3668  -10.9632   19.6127 H   0  0  0  0  0  0
  -21.2018   -7.6150   23.9711 H   0  0  0  0  0  0
  -21.1473   -6.0516   25.9069 H   0  0  0  0  0  0
  -22.0597   -2.7589   23.2879 H   0  0  0  0  0  0
  -22.4150  -11.9879   22.4797 H   0  0  0  0  0  0
  -21.1080  -13.1138   22.2582 H   0  0  0  0  0  0
  -24.6601  -15.8432   20.5386 H   0  0  0  0  0  0
  -26.2801  -15.6352   20.1100 H   0  0  0  0  0  0
  -26.7115  -32.5429   23.1019 H   0  0  0  0  0  0
  -25.0122  -33.9706   25.0416 H   0  0  0  0  0  0
  -22.6998  -31.3096   21.4068 H   0  0  0  0  0  0
  -23.3766  -35.9634   23.3317 H   0  0  0  0  0  0
  -24.3585  -36.8908   22.2049 H   0  0  0  0  0  0
  -23.7282  -37.6494   23.6667 H   0  0  0  0  0  0
  -26.0731  -31.5688   20.5940 H   0  0  0  0  0  0
  -26.8202  -30.8514   21.9900 H   0  0  0  0  0  0
  -28.1025  -29.0327   21.1553 H   0  0  0  0  0  0
  -25.9460  -25.9165   19.0597 H   0  0  0  0  0  0
  -23.9492  -27.2801   19.0592 H   0  0  0  0  0  0
  -23.7361  -30.5961   19.4050 H   0  0  0  0  0  0
  -22.7350  -29.2521   19.8626 H   0  0  0  0  0  0
  -25.1303  -36.1893   25.0800 H   0  0  0  0  0  0
  -20.9973  -28.3310   24.1407 H   0  0  0  0  0  0
  -20.5719  -26.2337   23.3639 H   0  0  0  0  0  0
  -21.6652  -26.7495   22.1199 H   0  0  0  0  0  0
  -19.6975  -25.6309   21.1220 H   0  0  0  0  0  0
  -19.6673  -27.3212   20.6760 H   0  0  0  0  0  0
  -17.4234  -26.6693   21.3970 H   0  0  0  0  0  0
  -18.0317  -26.0028   22.8969 H   0  0  0  0  0  0
  -19.7969  -30.7267   24.2197 H   0  0  0  0  0  0
  -17.5062  -31.6242   24.5199 H   0  0  0  0  0  0
  -15.5378  -30.2986   23.7661 H   0  0  0  0  0  0
  -15.8685  -28.0827   22.7040 H   0  0  0  0  0  0
  -24.6071  -30.6814   25.7733 H   0  0  0  0  0  0
  -24.8913  -32.2716   26.4802 H   0  0  0  0  0  0
  -25.8204  -30.8807   27.0172 H   0  0  0  0  0  0
  -26.2886  -29.6633   24.1228 H   0  0  0  0  0  0
  -27.4294  -29.7206   25.4437 H   0  0  0  0  0  0
  -27.8652  -30.4229   23.9064 H   0  0  0  0  0  0
  -27.2745  -33.3565   26.1938 H   0  0  0  0  0  0
  -28.3942  -32.6715   25.0258 H   0  0  0  0  0  0
  -28.0735  -31.8392   26.5374 H   0  0  0  0  0  0
  -28.2597  -38.0086   24.7540 H   0  0  0  0  0  0
  -28.1056  -36.2619   24.6266 H   0  0  0  0  0  0
  -27.2316  -37.1439   25.8884 H   0  0  0  0  0  0
  -20.9369  -29.8725   21.6794 H   0  0  0  0  0  0
  -26.0170  -38.2819   24.1419 H   0  0  0  0  0  0
  -30.6221  -16.6599   18.5160 H   0  0  0  0  0  0
  -29.0260  -17.8253   22.3563 H   0  0  0  0  0  0
  -30.6022  -19.0542   17.8909 H   0  0  0  0  0  0
  -29.5747  -24.7633   22.0604 H   0  0  0  0  0  0
  -27.9837  -24.8723   22.7683 H   0  0  0  0  0  0
  -28.0468  -22.5855   23.4466 H   0  0  0  0  0  0
  -29.7828  -22.8370   23.3151 H   0  0  0  0  0  0
  -29.4576  -22.6537   19.8060 H   0  0  0  0  0  0
  -27.8265  -22.0066   19.7800 H   0  0  0  0  0  0
  -24.7624  -23.3785   21.5174 H   0  0  0  0  0  0
  -26.0813  -23.2866   22.6542 H   0  0  0  0  0  0
  -25.9790  -22.1280   21.3114 H   0  0  0  0  0  0
  -29.4380  -24.9989   19.4760 H   0  0  0  0  0  0
  -27.8707  -25.0319   18.7890 H   0  0  0  0  0  0
  -28.9879  -15.3179   21.4233 H   0  0  0  0  0  0
  -29.9916  -19.2940   23.2855 H   0  0  0  0  0  0
  -29.6603  -20.8798   23.9062 H   0  0  0  0  0  0
  1 25  1  0  0  0
  1 30  2  0  0  0
  1 85  1  0  0  0
  2  3  1  0  0  0
  2 25  1  0  0  0
  2 88  1  0  0  0
  2 89  1  0  0  0
  3  4  1  0  0  0
  3 90  1  0  0  0
  3 91  1  0  0  0
  4  5  1  0  0  0
  4 92  1  0  0  0
  4 93  1  0  0  0
  5  6  1  0  0  0
  5 26  1  0  0  0
  5 94  1  0  0  0
  6 25  1  0  0  0
  6 95  1  0  0  0
  6 96  1  0  0  0
  7  8  2  0  0  0
  7 26  1  0  0  0
  7 29  1  0  0  0
  8  9  1  0  0  0
  8 22  1  0  0  0
  9 10  1  0  0  0
  9 27  2  0  0  0
 10 11  2  0  0  0
 10 15  1  0  0  0
 11 12  1  0  0  0
 11 97  1  0  0  0
 12 13  2  0  0  0
 12 98  1  0  0  0
 13 14  1  0  0  0
 13 31  1  0  0  0
 14 15  2  0  0  0
 14 99  1  0  0  0
 15100  1  0  0  0
 16 17  2  0  0  0
 16 21  1  0  0  0
 16 31  1  0  0  0
 17 18  1  0  0  0
 17101  1  0  0  0
 18 19  2  0  0  0
 18102  1  0  0  0
 19 20  1  0  0  0
 19 24  1  0  0  0
 20 21  2  0  0  0
 20103  1  0  0  0
 21 23  1  0  0  0
 22 28  1  0  0  0
 22 32  2  0  0  0
 26 27  1  0  0  0
 28104  1  0  0  0
 28105  1  0  0  0
 29106  1  0  0  0
 29107  1  0  0  0
 33 34  1  0  0  0
 33 66  1  0  0  0
 33 70  2  0  0  0
 34 36  1  0  0  0
 34 59  1  0  0  0
 34108  1  0  0  0
 35 44  2  0  0  0
 35 45  1  0  0  0
 35 68  1  0  0  0
 36 56  1  0  0  0
 36109  1  0  0  0
 37 39  1  0  0  0
 37 47  1  0  0  0
 37 66  1  0  0  0
 37110  1  0  0  0
 38 43  2  0  0  0
 38 46  1  0  0  0
 38 47  1  0  0  0
 39 64  1  0  0  0
 39 67  2  0  0  0
 40 52  1  0  0  0
 40 53  2  0  0  0
 40 58  1  0  0  0
 41111  1  0  0  0
 41112  1  0  0  0
 41113  1  0  0  0
 41 48  1  0  0  0
 42 43  1  0  0  0
 42 66  1  0  0  0
 42114  1  0  0  0
 42115  1  0  0  0
 43 44  1  0  0  0
 44116  1  0  0  0
 45 46  2  0  0  0
 45117  1  0  0  0
 46118  1  0  0  0
 47119  1  0  0  0
 47120  1  0  0  0
 48 56  1  0  0  0
 48 65  1  0  0  0
 48121  1  0  0  0
 49 50  1  0  0  0
 49 53  1  0  0  0
 49 64  1  0  0  0
 49122  1  0  0  0
 50 51  1  0  0  0
 50123  1  0  0  0
 50124  1  0  0  0
 51 52  1  0  0  0
 51125  1  0  0  0
 51126  1  0  0  0
 52127  1  0  0  0
 52128  1  0  0  0
 53 54  1  0  0  0
 54 55  2  0  0  0
 54129  1  0  0  0
 55 57  1  0  0  0
 55130  1  0  0  0
 56 69  2  0  0  0
 57 58  2  0  0  0
 57131  1  0  0  0
 58132  1  0  0  0
 59 60  1  0  0  0
 59 61  1  0  0  0
 59 62  1  0  0  0
 60133  1  0  0  0
 60134  1  0  0  0
 60135  1  0  0  0
 61136  1  0  0  0
 61137  1  0  0  0
 61138  1  0  0  0
 62139  1  0  0  0
 62140  1  0  0  0
 62141  1  0  0  0
 63 65  1  0  0  0
 63142  1  0  0  0
 63143  1  0  0  0
 63144  1  0  0  0
 64145  1  0  0  0
 65146  1  0  0  0
 68 82  1  0  0  0
 71 73  2  0  0  0
 71 74  1  0  0  0
 71147  1  0  0  0
 72 74  2  0  0  0
 72 75  1  0  0  0
 72148  1  0  0  0
 73 83  1  0  0  0
 73149  1  0  0  0
 74 85  1  0  0  0
 75 76  1  0  0  0
 75 83  2  0  0  0
 76 84  1  0  0  0
 76 86  2  0  0  0
 77 78  1  0  0  0
 77 80  1  0  0  0
 77150  1  0  0  0
 77151  1  0  0  0
 78 84  1  0  0  0
 78152  1  0  0  0
 78153  1  0  0  0
 79 80  1  0  0  0
 79 84  1  0  0  0
 79154  1  0  0  0
 79155  1  0  0  0
 80 82  1  0  0  0
 80 87  1  0  0  0
 81 87  1  0  0  0
 81156  1  0  0  0
 81157  1  0  0  0
 81158  1  0  0  0
 82159  1  0  0  0
 82160  1  0  0  0
 85161  1  0  0  0
 86162  1  0  0  0
 86163  1  0  0  0
M  CHG  1  86   1
M  ISO  4   1 100  68 101  82 101  85 100
M  END
> <chiral flag>
0

> <version>
0

> <s_m_source_file>
/data/baiqing/PycharmProjects/Reinvent-master-3.2/result/LINK_invent/BTK/process_docking_weight1_custom_product_contain_oxygen_bond_distance_aromatic_linkinvent_7_9_3/rearranged_h_0149.sdf

> <i_m_source_file_index>
58

> <r_mmod_Potential_Energy-OPLS-2005>
-176.385864257812

> <r_mmod_Stretch_Energy-OPLS-2005>
67.2680053710938

> <r_mmod_Bend_Energy-OPLS-2005>
172.128707885742

> <r_mmod_Torsional_Energy-OPLS-2005>
313.522583007812

> <r_mmod_Improper_Torsional_Energy-OPLS-2005>
5.84836053848267

> <r_mmod_Van_der_Waal_Energy-OPLS-2005>
156.708938598633

> <r_mmod_Electrostatic_Energy-OPLS-2005>
-455.100189208984

> <r_mmod_Solvation_Energy-OPLS-2005>
-468.529388427734

> <b_mmod_Minimization_Converged-OPLS-2005>
0

> <r_mmod_RMS_Derivative-OPLS-2005>
3.77429461479187

$$$$
58
                    3D
 Structure written by MMmdl.
159168  0  0  1  0            999 V2000
  -30.5398  -14.7988   20.4681 C   0  0  0  0  0  0
  -30.4563  -12.4906   19.4681 C   0  0  0  0  0  0
  -29.5196  -12.5186   18.2367 C   0  0  0  0  0  0
  -28.0463  -12.3255   18.6518 C   0  0  0  0  0  0
  -27.6464  -13.2206   19.8535 C   0  0  2  0  0  0
  -28.6935  -13.1350   20.9863 C   0  0  0  0  0  0
  -25.2542  -13.8159   20.5681 C   0  0  0  0  0  0
  -24.1819  -13.0424   20.9197 C   0  0  0  0  0  0
  -24.6394  -11.6897   20.8741 C   0  0  0  0  0  0
  -23.9062  -10.4284   21.0409 C   0  0  0  0  0  0
  -24.3614   -9.4200   21.9187 C   0  0  0  0  0  0
  -23.6288   -8.2237   22.0756 C   0  0  0  0  0  0
  -22.4271   -8.0276   21.3544 C   0  0  0  0  0  0
  -21.9906   -9.0250   20.4649 C   0  0  0  0  0  0
  -22.7234  -10.2129   20.3058 C   0  0  0  0  0  0
  -21.6851   -6.0732   22.5278 C   0  0  0  0  0  0
  -21.4014   -6.5638   23.8210 C   0  0  0  0  0  0
  -21.3659   -5.6791   24.9173 C   0  0  0  0  0  0
  -21.6044   -4.3053   24.7225 C   0  0  0  0  0  0
  -21.8819   -3.8144   23.4346 C   0  0  0  0  0  0
  -21.9193   -4.6961   22.3403 C   0  0  0  0  0  0
  -22.7843  -13.5222   21.1858 C   0  0  0  0  0  0
  -22.1662   -4.2147   21.0980 F   0  0  0  0  0  0
  -21.5629   -3.4537   25.7737 F   0  0  0  0  0  0
  -29.9900  -13.5317   20.4133 N   0  0  0  0  0  0
  -26.2959  -12.9341   20.3274 N   0  0  0  0  0  0
  -25.9322  -11.6498   20.5742 N   0  0  0  0  0  0
  -22.0484  -12.8219   22.0417 N   0  0  0  0  0  0
  -25.4238  -15.1883   20.4098 N   0  0  0  0  0  0
  -31.7175  -14.9744   20.1351 O   0  0  0  0  0  0
  -21.6635   -6.8874   21.4240 O   0  0  0  0  0  0
  -22.3534  -14.5530   20.6704 O   0  0  0  0  0  0
  -24.6354  -31.8521   23.1951 C   0  0  0  0  0  0
  -25.9161  -32.4739   23.8312 C   0  0  1  0  0  0
  -27.2233  -27.2235   20.1343 C   0  0  0  0  0  0
  -25.5942  -33.8542   24.2235 N   0  0  0  0  0  0
  -23.4344  -30.4736   21.5399 C   0  0  2  0  0  0
  -24.8821  -28.9130   20.1140 C   0  0  0  0  0  0
  -22.7524  -29.4589   22.4900 C   0  0  0  0  0  0
  -18.0296  -28.1393   22.8479 C   0  0  0  0  0  0
  -24.1490  -36.7273   23.2641 C   0  0  0  0  0  0
  -25.9840  -30.7533   21.3806 C   0  0  0  0  0  0
  -26.0568  -29.3722   20.7227 C   0  0  0  0  0  0
  -27.2299  -28.5430   20.7159 C   0  0  0  0  0  0
  -26.0205  -26.8424   19.4975 C   0  0  0  0  0  0
  -24.8716  -27.6578   19.4896 C   0  0  0  0  0  0
  -23.6554  -29.8053   20.1580 C   0  0  0  0  0  0
  -25.4120  -36.3060   24.0323 C   0  0  1  0  0  0
  -20.5902  -28.3709   23.1259 C   0  0  2  0  0  0
  -20.6782  -26.9421   22.5409 C   0  0  0  0  0  0
  -19.5759  -26.6385   21.5212 C   0  0  0  0  0  0
  -18.1939  -26.7934   22.1623 C   0  0  0  0  0  0
  -19.1550  -28.8867   23.2863 C   0  0  0  0  0  0
  -18.9469  -30.1465   23.8885 C   0  0  0  0  0  0
  -17.6469  -30.6592   24.0562 C   0  0  0  0  0  0
  -25.9063  -34.9431   23.5084 C   0  0  0  0  0  0
  -16.5359  -29.9087   23.6334 C   0  0  0  0  0  0
  -16.7283  -28.6506   23.0354 C   0  0  0  0  0  0
  -26.4510  -31.6579   25.0719 C   0  0  0  0  0  0
  -25.3717  -31.3747   26.1430 C   0  0  0  0  0  0
  -27.0363  -30.2989   24.6240 C   0  0  0  0  0  0
  -27.6059  -32.4325   25.7494 C   0  0  0  0  0  0
  -27.5579  -37.1793   24.8464 C   0  0  0  0  0  0
  -21.4226  -29.3049   22.3643 N   0  0  0  0  0  0
  -26.4291  -37.3764   23.9407 N   0  0  0  0  0  0
  -24.7039  -31.0450   22.0946 N   0  0  0  0  0  0
  -23.4205  -28.8131   23.3016 O   0  0  0  0  0  0
  -28.3206  -26.3158   20.1676 O   0  0  0  0  0  0
  -26.5638  -34.8912   22.4655 O   0  0  0  0  0  0
  -23.5493  -32.1360   23.7222 O   0  0  0  0  0  0
  -29.9428  -18.3359   20.0750 C   0  0  0  0  0  0
  -29.2999  -19.5585   20.6055 C   0  0  0  0  0  0
  -29.5992  -17.2348   20.8843 C   0  0  0  0  0  0
  -28.6057  -19.0659   21.6847 C   0  0  0  0  0  0
  -29.2552  -21.0084   20.0204 C   0  0  0  0  0  0
  -30.1103  -23.6180   22.4330 C   0  0  0  0  0  0
  -30.4461  -24.2129   21.0589 C   0  0  0  0  0  0
  -29.3408  -22.3173   22.1450 C   0  0  0  0  0  0
  -29.3136  -23.7170   20.1545 C   0  0  2  0  0  0
  -28.0926  -24.8083   20.2552 C   0  0  0  0  0  0
  -29.1751  -22.2565   20.6860 N   0  0  0  0  0  0
  -27.6985  -19.7276   22.4978 N   0  0  0  0  0  0
  -29.6348  -15.8306   20.7088 N   0  0  0  0  0  0
  -29.3015  -21.0674   18.6791 N   0  3  0  0  0  0
  -28.7739  -17.7150   21.8697 O   0  0  0  0  0  0
  -31.4892  -12.6585   19.1588 H   0  0  0  0  0  0
  -30.4410  -11.5090   19.9446 H   0  0  0  0  0  0
  -29.8114  -11.7464   17.5235 H   0  0  0  0  0  0
  -29.6290  -13.4713   17.7161 H   0  0  0  0  0  0
  -27.9134  -11.2759   18.9167 H   0  0  0  0  0  0
  -27.3857  -12.5103   17.8039 H   0  0  0  0  0  0
  -27.6419  -14.2430   19.4760 H   0  0  0  0  0  0
  -28.7459  -12.1220   21.3883 H   0  0  0  0  0  0
  -28.4145  -13.7743   21.8255 H   0  0  0  0  0  0
  -25.2762   -9.5678   22.4757 H   0  0  0  0  0  0
  -23.9998   -7.4630   22.7475 H   0  0  0  0  0  0
  -21.0835   -8.8767   19.8957 H   0  0  0  0  0  0
  -22.3691  -10.9667   19.6165 H   0  0  0  0  0  0
  -21.2006   -7.6146   23.9712 H   0  0  0  0  0  0
  -21.1482   -6.0522   25.9076 H   0  0  0  0  0  0
  -22.0600   -2.7606   23.2845 H   0  0  0  0  0  0
  -22.4099  -11.9881   22.4806 H   0  0  0  0  0  0
  -21.1104  -13.1249   22.2624 H   0  0  0  0  0  0
  -24.6522  -15.8372   20.5213 H   0  0  0  0  0  0
  -26.2616  -15.6312   20.0556 H   0  0  0  0  0  0
  -26.7226  -32.5373   23.1048 H   0  0  0  0  0  0
  -25.0077  -33.9672   25.0374 H   0  0  0  0  0  0
  -22.7329  -31.2969   21.3907 H   0  0  0  0  0  0
  -23.3757  -35.9601   23.3299 H   0  0  0  0  0  0
  -24.3582  -36.8904   22.2057 H   0  0  0  0  0  0
  -23.7238  -37.6469   23.6672 H   0  0  0  0  0  0
  -26.1279  -31.5123   20.6106 H   0  0  0  0  0  0
  -26.8592  -30.8023   22.0168 H   0  0  0  0  0  0
  -28.1298  -28.8936   21.2014 H   0  0  0  0  0  0
  -25.9337  -25.8922   18.9957 H   0  0  0  0  0  0
  -23.9738  -27.3022   19.0029 H   0  0  0  0  0  0
  -23.7852  -30.5804   19.4017 H   0  0  0  0  0  0
  -22.7723  -29.2420   19.8510 H   0  0  0  0  0  0
  -25.1306  -36.1902   25.0816 H   0  0  0  0  0  0
  -20.9992  -28.3290   24.1381 H   0  0  0  0  0  0
  -20.5679  -26.2320   23.3619 H   0  0  0  0  0  0
  -21.6650  -26.7441   22.1205 H   0  0  0  0  0  0
  -19.6921  -25.6293   21.1251 H   0  0  0  0  0  0
  -19.6698  -27.3187   20.6735 H   0  0  0  0  0  0
  -17.4210  -26.6678   21.4024 H   0  0  0  0  0  0
  -18.0340  -26.0081   22.9025 H   0  0  0  0  0  0
  -19.7944  -30.7282   24.2251 H   0  0  0  0  0  0
  -17.5024  -31.6272   24.5165 H   0  0  0  0  0  0
  -15.5360  -30.2986   23.7667 H   0  0  0  0  0  0
  -15.8683  -28.0823   22.7077 H   0  0  0  0  0  0
  -24.5901  -30.7086   25.7757 H   0  0  0  0  0  0
  -24.8893  -32.2920   26.4817 H   0  0  0  0  0  0
  -25.8019  -30.8952   27.0231 H   0  0  0  0  0  0
  -26.2959  -29.6726   24.1248 H   0  0  0  0  0  0
  -27.4009  -29.7269   25.4782 H   0  0  0  0  0  0
  -27.8852  -30.4249   23.9517 H   0  0  0  0  0  0
  -27.2671  -33.3638   26.2045 H   0  0  0  0  0  0
  -28.3883  -32.6866   25.0331 H   0  0  0  0  0  0
  -28.0711  -31.8465   26.5431 H   0  0  0  0  0  0
  -28.2596  -38.0091   24.7515 H   0  0  0  0  0  0
  -28.1077  -36.2623   24.6289 H   0  0  0  0  0  0
  -27.2297  -37.1438   25.8867 H   0  0  0  0  0  0
  -20.9421  -29.8768   21.6838 H   0  0  0  0  0  0
  -26.0167  -38.2835   24.1413 H   0  0  0  0  0  0
  -30.5237  -18.2673   19.1670 H   0  0  0  0  0  0
  -29.4785  -24.3016   23.0017 H   0  0  0  0  0  0
  -31.0106  -23.4392   23.0220 H   0  0  0  0  0  0
  -31.4017  -23.8285   20.6991 H   0  0  0  0  0  0
  -30.5280  -25.2997   21.0947 H   0  0  0  0  0  0
  -28.3719  -22.3157   22.6434 H   0  0  0  0  0  0
  -29.9117  -21.4584   22.4964 H   0  0  0  0  0  0
  -29.6734  -23.6994   19.1263 H   0  0  0  0  0  0
  -27.5387  -24.6218   21.1760 H   0  0  0  0  0  0
  -27.4179  -24.5198   19.4530 H   0  0  0  0  0  0
  -27.2223  -20.5769   22.2200 H   0  0  0  0  0  0
  -27.1517  -19.2001   23.1709 H   0  0  0  0  0  0
  -28.7599  -15.4108   20.9809 H   0  0  0  0  0  0
  -29.3373  -20.2182   18.1361 H   0  0  0  0  0  0
  -29.2735  -21.9396   18.1753 H   0  0  0  0  0  0
  1 25  1  0  0  0
  1 30  2  0  0  0
  1 83  1  0  0  0
  2  3  1  0  0  0
  2 25  1  0  0  0
  2 86  1  0  0  0
  2 87  1  0  0  0
  3  4  1  0  0  0
  3 88  1  0  0  0
  3 89  1  0  0  0
  4  5  1  0  0  0
  4 90  1  0  0  0
  4 91  1  0  0  0
  5  6  1  0  0  0
  5 26  1  0  0  0
  5 92  1  0  0  0
  6 25  1  0  0  0
  6 93  1  0  0  0
  6 94  1  0  0  0
  7  8  2  0  0  0
  7 26  1  0  0  0
  7 29  1  0  0  0
  8  9  1  0  0  0
  8 22  1  0  0  0
  9 10  1  0  0  0
  9 27  2  0  0  0
 10 11  2  0  0  0
 10 15  1  0  0  0
 11 12  1  0  0  0
 11 95  1  0  0  0
 12 13  2  0  0  0
 12 96  1  0  0  0
 13 14  1  0  0  0
 13 31  1  0  0  0
 14 15  2  0  0  0
 14 97  1  0  0  0
 15 98  1  0  0  0
 16 17  2  0  0  0
 16 21  1  0  0  0
 16 31  1  0  0  0
 17 18  1  0  0  0
 17 99  1  0  0  0
 18 19  2  0  0  0
 18100  1  0  0  0
 19 20  1  0  0  0
 19 24  1  0  0  0
 20 21  2  0  0  0
 20101  1  0  0  0
 21 23  1  0  0  0
 22 28  1  0  0  0
 22 32  2  0  0  0
 26 27  1  0  0  0
 28102  1  0  0  0
 28103  1  0  0  0
 29104  1  0  0  0
 29105  1  0  0  0
 33 34  1  0  0  0
 33 66  1  0  0  0
 33 70  2  0  0  0
 34 36  1  0  0  0
 34 59  1  0  0  0
 34106  1  0  0  0
 35 44  2  0  0  0
 35 45  1  0  0  0
 35 68  1  0  0  0
 36 56  1  0  0  0
 36107  1  0  0  0
 37 39  1  0  0  0
 37 47  1  0  0  0
 37 66  1  0  0  0
 37108  1  0  0  0
 38 43  2  0  0  0
 38 46  1  0  0  0
 38 47  1  0  0  0
 39 64  1  0  0  0
 39 67  2  0  0  0
 40 52  1  0  0  0
 40 53  2  0  0  0
 40 58  1  0  0  0
 41109  1  0  0  0
 41110  1  0  0  0
 41111  1  0  0  0
 41 48  1  0  0  0
 42 43  1  0  0  0
 42 66  1  0  0  0
 42112  1  0  0  0
 42113  1  0  0  0
 43 44  1  0  0  0
 44114  1  0  0  0
 45 46  2  0  0  0
 45115  1  0  0  0
 46116  1  0  0  0
 47117  1  0  0  0
 47118  1  0  0  0
 48 56  1  0  0  0
 48 65  1  0  0  0
 48119  1  0  0  0
 49 50  1  0  0  0
 49 53  1  0  0  0
 49 64  1  0  0  0
 49120  1  0  0  0
 50 51  1  0  0  0
 50121  1  0  0  0
 50122  1  0  0  0
 51 52  1  0  0  0
 51123  1  0  0  0
 51124  1  0  0  0
 52125  1  0  0  0
 52126  1  0  0  0
 53 54  1  0  0  0
 54 55  2  0  0  0
 54127  1  0  0  0
 55 57  1  0  0  0
 55128  1  0  0  0
 56 69  2  0  0  0
 57 58  2  0  0  0
 57129  1  0  0  0
 58130  1  0  0  0
 59 60  1  0  0  0
 59 61  1  0  0  0
 59 62  1  0  0  0
 60131  1  0  0  0
 60132  1  0  0  0
 60133  1  0  0  0
 61134  1  0  0  0
 61135  1  0  0  0
 61136  1  0  0  0
 62137  1  0  0  0
 62138  1  0  0  0
 62139  1  0  0  0
 63 65  1  0  0  0
 63140  1  0  0  0
 63141  1  0  0  0
 63142  1  0  0  0
 64143  1  0  0  0
 65144  1  0  0  0
 68 80  1  0  0  0
 71 72  1  0  0  0
 71 73  2  0  0  0
 71145  1  0  0  0
 72 74  2  0  0  0
 72 75  1  0  0  0
 73 83  1  0  0  0
 73 85  1  0  0  0
 74 82  1  0  0  0
 74 85  1  0  0  0
 75 81  1  0  0  0
 75 84  2  0  0  0
 76 77  1  0  0  0
 76 78  1  0  0  0
 76146  1  0  0  0
 76147  1  0  0  0
 77 79  1  0  0  0
 77148  1  0  0  0
 77149  1  0  0  0
 78 81  1  0  0  0
 78150  1  0  0  0
 78151  1  0  0  0
 79 80  1  0  0  0
 79 81  1  0  0  0
 79152  1  0  0  0
 80153  1  0  0  0
 80154  1  0  0  0
 82155  1  0  0  0
 82156  1  0  0  0
 83157  1  0  0  0
 84158  1  0  0  0
 84159  1  0  0  0
M  CHG  1  84   1
M  ISO  4   1 100  68 101  80 101  83 100
M  END
> <chiral flag>
0

> <version>
0

> <s_m_source_file>
/data/baiqing/PycharmProjects/Reinvent-master-3.2/result/LINK_invent/BTK/process_docking_weight1_custom_product_contain_oxygen_bond_distance_aromatic_linkinvent_7_9_3/rearranged_h_0149.sdf

> <i_m_source_file_index>
59

> <r_mmod_Potential_Energy-OPLS-2005>
292.567321777344

> <r_mmod_Stretch_Energy-OPLS-2005>
151.307403564453

> <r_mmod_Bend_Energy-OPLS-2005>
275.626068115234

> <r_mmod_Torsional_Energy-OPLS-2005>
312.358642578125

> <r_mmod_Improper_Torsional_Energy-OPLS-2005>
11.243390083313

> <r_mmod_Van_der_Waal_Energy-OPLS-2005>
115.751159667969

> <r_mmod_Electrostatic_Energy-OPLS-2005>
-225.764114379883

> <r_mmod_Solvation_Energy-OPLS-2005>
-456.959289550781

> <b_mmod_Minimization_Converged-OPLS-2005>
0

> <r_mmod_RMS_Derivative-OPLS-2005>
0.362746953964233

$$$$
59
                    3D
 Structure written by MMmdl.
152161  0  0  1  0            999 V2000
  -30.5601  -14.8870   20.4184 C   0  0  0  0  0  0
  -30.4369  -12.5418   19.4985 C   0  0  0  0  0  0
  -29.5200  -12.5290   18.2536 C   0  0  0  0  0  0
  -28.0493  -12.3290   18.6656 C   0  0  0  0  0  0
  -27.6360  -13.2451   19.8475 C   0  0  2  0  0  0
  -28.6779  -13.2364   20.9873 C   0  0  0  0  0  0
  -25.2482  -13.8225   20.5716 C   0  0  0  0  0  0
  -24.1789  -13.0449   20.9220 C   0  0  0  0  0  0
  -24.6396  -11.6933   20.8742 C   0  0  0  0  0  0
  -23.9076  -10.4301   21.0399 C   0  0  0  0  0  0
  -24.3626   -9.4216   21.9179 C   0  0  0  0  0  0
  -23.6302   -8.2250   22.0752 C   0  0  0  0  0  0
  -22.4282   -8.0288   21.3543 C   0  0  0  0  0  0
  -21.9920   -9.0261   20.4644 C   0  0  0  0  0  0
  -22.7247  -10.2141   20.3052 C   0  0  0  0  0  0
  -21.6863   -6.0740   22.5278 C   0  0  0  0  0  0
  -21.4019   -6.5641   23.8210 C   0  0  0  0  0  0
  -21.3664   -5.6789   24.9172 C   0  0  0  0  0  0
  -21.6044   -4.3052   24.7228 C   0  0  0  0  0  0
  -21.8821   -3.8148   23.4346 C   0  0  0  0  0  0
  -21.9198   -4.6965   22.3400 C   0  0  0  0  0  0
  -22.7805  -13.5213   21.1881 C   0  0  0  0  0  0
  -22.1664   -4.2147   21.0980 F   0  0  0  0  0  0
  -21.5633   -3.4537   25.7741 F   0  0  0  0  0  0
  -29.9652  -13.6301   20.3996 N   0  0  0  0  0  0
  -26.2915  -12.9449   20.3279 N   0  0  0  0  0  0
  -25.9329  -11.6578   20.5742 N   0  0  0  0  0  0
  -22.0460  -12.8189   22.0437 N   0  0  0  0  0  0
  -25.4159  -15.1954   20.4139 N   0  0  0  0  0  0
  -31.7525  -14.9553   20.0998 O   0  0  0  0  0  0
  -21.6651   -6.8883   21.4237 O   0  0  0  0  0  0
  -22.3473  -14.5518   20.6733 O   0  0  0  0  0  0
  -24.6413  -31.8476   23.1915 C   0  0  0  0  0  0
  -25.9202  -32.4711   23.8295 C   0  0  1  0  0  0
  -27.2159  -27.1647   20.1209 C   0  0  0  0  0  0
  -25.5964  -33.8518   24.2209 N   0  0  0  0  0  0
  -23.4428  -30.4699   21.5369 C   0  0  2  0  0  0
  -24.8904  -28.9092   20.1039 C   0  0  0  0  0  0
  -22.7557  -29.4568   22.4862 C   0  0  0  0  0  0
  -18.0302  -28.1391   22.8477 C   0  0  0  0  0  0
  -24.1495  -36.7259   23.2640 C   0  0  0  0  0  0
  -25.9988  -30.7273   21.3895 C   0  0  0  0  0  0
  -26.0671  -29.3444   20.7236 C   0  0  0  0  0  0
  -27.2260  -28.4841   20.7245 C   0  0  0  0  0  0
  -26.0041  -26.8250   19.4741 C   0  0  0  0  0  0
  -24.8698  -27.6611   19.4692 C   0  0  0  0  0  0
  -23.6664  -29.8073   20.1533 C   0  0  0  0  0  0
  -25.4127  -36.3039   24.0312 C   0  0  1  0  0  0
  -20.5915  -28.3717   23.1234 C   0  0  2  0  0  0
  -20.6791  -26.9420   22.5401 C   0  0  0  0  0  0
  -19.5768  -26.6380   21.5210 C   0  0  0  0  0  0
  -18.1948  -26.7931   22.1620 C   0  0  0  0  0  0
  -19.1558  -28.8873   23.2849 C   0  0  0  0  0  0
  -18.9478  -30.1472   23.8870 C   0  0  0  0  0  0
  -17.6474  -30.6592   24.0557 C   0  0  0  0  0  0
  -25.9077  -34.9414   23.5065 C   0  0  0  0  0  0
  -16.5365  -29.9083   23.6333 C   0  0  0  0  0  0
  -16.7288  -28.6502   23.0353 C   0  0  0  0  0  0
  -26.4525  -31.6571   25.0731 C   0  0  0  0  0  0
  -25.3707  -31.3761   26.1423 C   0  0  0  0  0  0
  -27.0384  -30.2967   24.6304 C   0  0  0  0  0  0
  -27.6053  -32.4332   25.7521 C   0  0  0  0  0  0
  -27.5577  -37.1791   24.8462 C   0  0  0  0  0  0
  -21.4252  -29.3051   22.3610 N   0  0  0  0  0  0
  -26.4290  -37.3751   23.9404 N   0  0  0  0  0  0
  -24.7140  -31.0348   22.0945 N   0  0  0  0  0  0
  -23.4210  -28.8105   23.2999 O   0  0  0  0  0  0
  -28.2709  -26.1903   20.2470 O   0  0  0  0  0  0
  -26.5654  -34.8898   22.4638 O   0  0  0  0  0  0
  -23.5540  -32.1349   23.7145 O   0  0  0  0  0  0
  -30.7196  -19.7538   19.3629 C   0  0  0  0  0  0
  -29.6595  -19.9520   20.2183 C   0  0  0  0  0  0
  -30.0051  -17.5104   20.3073 C   0  0  0  0  0  0
  -27.9517  -22.0136   20.0345 C   0  0  0  0  0  0
  -29.9129  -22.5716   20.5778 C   0  0  0  0  0  0
  -28.8190  -23.2950   19.7140 C   0  0  0  0  0  0
  -29.4409  -25.4666   18.3855 C   0  0  0  0  0  0
  -28.4205  -24.9130   19.3981 C   0  0  2  0  0  0
  -29.2650  -18.6254   20.7221 N   0  0  0  0  0  0
  -29.1112  -21.3001   20.6570 N   0  0  0  0  0  0
  -29.7847  -16.0467   20.6440 N   0  0  0  0  0  0
  -31.2559  -18.0726   19.2011 S   0  0  0  0  0  0
  -31.4758  -12.6783   19.1943 H   0  0  0  0  0  0
  -30.4034  -11.5797   20.0118 H   0  0  0  0  0  0
  -29.8276  -11.7435   17.5620 H   0  0  0  0  0  0
  -29.6249  -13.4699   17.7116 H   0  0  0  0  0  0
  -27.9266  -11.2836   18.9507 H   0  0  0  0  0  0
  -27.3914  -12.4915   17.8112 H   0  0  0  0  0  0
  -27.6115  -14.2561   19.4401 H   0  0  0  0  0  0
  -28.7463  -12.2499   21.4480 H   0  0  0  0  0  0
  -28.3869  -13.9256   21.7817 H   0  0  0  0  0  0
  -25.2773   -9.5697   22.4748 H   0  0  0  0  0  0
  -24.0020   -7.4643   22.7466 H   0  0  0  0  0  0
  -21.0858   -8.8780   19.8944 H   0  0  0  0  0  0
  -22.3710  -10.9679   19.6159 H   0  0  0  0  0  0
  -21.2010   -7.6149   23.9712 H   0  0  0  0  0  0
  -21.1483   -6.0523   25.9072 H   0  0  0  0  0  0
  -22.0596   -2.7611   23.2850 H   0  0  0  0  0  0
  -22.4095  -11.9853   22.4821 H   0  0  0  0  0  0
  -21.1069  -13.1189   22.2647 H   0  0  0  0  0  0
  -24.6475  -15.8476   20.5269 H   0  0  0  0  0  0
  -26.2587  -15.6376   20.0700 H   0  0  0  0  0  0
  -26.7264  -32.5315   23.1020 H   0  0  0  0  0  0
  -25.0099  -33.9653   25.0348 H   0  0  0  0  0  0
  -22.7440  -31.2957   21.3873 H   0  0  0  0  0  0
  -23.3760  -35.9589   23.3293 H   0  0  0  0  0  0
  -24.3576  -36.8901   22.2055 H   0  0  0  0  0  0
  -23.7247  -37.6451   23.6682 H   0  0  0  0  0  0
  -26.1555  -31.4877   20.6231 H   0  0  0  0  0  0
  -26.8694  -30.7715   22.0325 H   0  0  0  0  0  0
  -28.1189  -28.8093   21.2395 H   0  0  0  0  0  0
  -25.8517  -25.8671   19.0083 H   0  0  0  0  0  0
  -23.9654  -27.3168   18.9870 H   0  0  0  0  0  0
  -23.8013  -30.5863   19.4022 H   0  0  0  0  0  0
  -22.7823  -29.2494   19.8398 H   0  0  0  0  0  0
  -25.1314  -36.1872   25.0805 H   0  0  0  0  0  0
  -21.0006  -28.3311   24.1355 H   0  0  0  0  0  0
  -20.5686  -26.2333   23.3621 H   0  0  0  0  0  0
  -21.6658  -26.7433   22.1197 H   0  0  0  0  0  0
  -19.6928  -25.6284   21.1258 H   0  0  0  0  0  0
  -19.6704  -27.3173   20.6726 H   0  0  0  0  0  0
  -17.4214  -26.6673   21.4025 H   0  0  0  0  0  0
  -18.0349  -26.0080   22.9023 H   0  0  0  0  0  0
  -19.7955  -30.7298   24.2226 H   0  0  0  0  0  0
  -17.5027  -31.6267   24.5167 H   0  0  0  0  0  0
  -15.5366  -30.2975   23.7672 H   0  0  0  0  0  0
  -15.8690  -28.0815   22.7071 H   0  0  0  0  0  0
  -24.5890  -30.7104   25.7740 H   0  0  0  0  0  0
  -24.8891  -32.2946   26.4788 H   0  0  0  0  0  0
  -25.7989  -30.8972   27.0237 H   0  0  0  0  0  0
  -26.3001  -29.6695   24.1292 H   0  0  0  0  0  0
  -27.3974  -29.7258   25.4878 H   0  0  0  0  0  0
  -27.8919  -30.4199   23.9633 H   0  0  0  0  0  0
  -27.2644  -33.3645   26.2051 H   0  0  0  0  0  0
  -28.3894  -32.6872   25.0377 H   0  0  0  0  0  0
  -28.0684  -31.8489   26.5481 H   0  0  0  0  0  0
  -28.2580  -38.0101   24.7506 H   0  0  0  0  0  0
  -28.1087  -36.2627   24.6291 H   0  0  0  0  0  0
  -27.2290  -37.1435   25.8863 H   0  0  0  0  0  0
  -20.9454  -29.8776   21.6802 H   0  0  0  0  0  0
  -26.0155  -38.2817   24.1409 H   0  0  0  0  0  0
  -31.2670  -20.5119   18.8205 H   0  0  0  0  0  0
  -27.5533  -21.5158   19.1486 H   0  0  0  0  0  0
  -27.1630  -22.2091   20.7626 H   0  0  0  0  0  0
  -30.0416  -23.0315   21.5584 H   0  0  0  0  0  0
  -30.8730  -22.4728   20.0691 H   0  0  0  0  0  0
  -29.1445  -22.9910   18.7176 H   0  0  0  0  0  0
  -29.5762  -24.8059   17.5283 H   0  0  0  0  0  0
  -30.4147  -25.6121   18.8535 H   0  0  0  0  0  0
  -29.1215  -26.4303   17.9859 H   0  0  0  0  0  0
  -27.5162  -24.8087   18.8121 H   0  0  0  0  0  0
  -28.8678  -15.8467   21.0090 H   0  0  0  0  0  0
  1 25  1  0  0  0
  1 30  2  0  0  0
  1 81  1  0  0  0
  2  3  1  0  0  0
  2 25  1  0  0  0
  2 83  1  0  0  0
  2 84  1  0  0  0
  3  4  1  0  0  0
  3 85  1  0  0  0
  3 86  1  0  0  0
  4  5  1  0  0  0
  4 87  1  0  0  0
  4 88  1  0  0  0
  5  6  1  0  0  0
  5 26  1  0  0  0
  5 89  1  0  0  0
  6 25  1  0  0  0
  6 90  1  0  0  0
  6 91  1  0  0  0
  7  8  2  0  0  0
  7 26  1  0  0  0
  7 29  1  0  0  0
  8  9  1  0  0  0
  8 22  1  0  0  0
  9 10  1  0  0  0
  9 27  2  0  0  0
 10 11  2  0  0  0
 10 15  1  0  0  0
 11 12  1  0  0  0
 11 92  1  0  0  0
 12 13  2  0  0  0
 12 93  1  0  0  0
 13 14  1  0  0  0
 13 31  1  0  0  0
 14 15  2  0  0  0
 14 94  1  0  0  0
 15 95  1  0  0  0
 16 17  2  0  0  0
 16 21  1  0  0  0
 16 31  1  0  0  0
 17 18  1  0  0  0
 17 96  1  0  0  0
 18 19  2  0  0  0
 18 97  1  0  0  0
 19 20  1  0  0  0
 19 24  1  0  0  0
 20 21  2  0  0  0
 20 98  1  0  0  0
 21 23  1  0  0  0
 22 28  1  0  0  0
 22 32  2  0  0  0
 26 27  1  0  0  0
 28 99  1  0  0  0
 28100  1  0  0  0
 29101  1  0  0  0
 29102  1  0  0  0
 33 34  1  0  0  0
 33 66  1  0  0  0
 33 70  2  0  0  0
 34 36  1  0  0  0
 34 59  1  0  0  0
 34103  1  0  0  0
 35 44  2  0  0  0
 35 45  1  0  0  0
 35 68  1  0  0  0
 36 56  1  0  0  0
 36104  1  0  0  0
 37 39  1  0  0  0
 37 47  1  0  0  0
 37 66  1  0  0  0
 37105  1  0  0  0
 38 43  2  0  0  0
 38 46  1  0  0  0
 38 47  1  0  0  0
 39 64  1  0  0  0
 39 67  2  0  0  0
 40 52  1  0  0  0
 40 53  2  0  0  0
 40 58  1  0  0  0
 41106  1  0  0  0
 41107  1  0  0  0
 41108  1  0  0  0
 41 48  1  0  0  0
 42 43  1  0  0  0
 42 66  1  0  0  0
 42109  1  0  0  0
 42110  1  0  0  0
 43 44  1  0  0  0
 44111  1  0  0  0
 45 46  2  0  0  0
 45112  1  0  0  0
 46113  1  0  0  0
 47114  1  0  0  0
 47115  1  0  0  0
 48 56  1  0  0  0
 48 65  1  0  0  0
 48116  1  0  0  0
 49 50  1  0  0  0
 49 53  1  0  0  0
 49 64  1  0  0  0
 49117  1  0  0  0
 50 51  1  0  0  0
 50118  1  0  0  0
 50119  1  0  0  0
 51 52  1  0  0  0
 51120  1  0  0  0
 51121  1  0  0  0
 52122  1  0  0  0
 52123  1  0  0  0
 53 54  1  0  0  0
 54 55  2  0  0  0
 54124  1  0  0  0
 55 57  1  0  0  0
 55125  1  0  0  0
 56 69  2  0  0  0
 57 58  2  0  0  0
 57126  1  0  0  0
 58127  1  0  0  0
 59 60  1  0  0  0
 59 61  1  0  0  0
 59 62  1  0  0  0
 60128  1  0  0  0
 60129  1  0  0  0
 60130  1  0  0  0
 61131  1  0  0  0
 61132  1  0  0  0
 61133  1  0  0  0
 62134  1  0  0  0
 62135  1  0  0  0
 62136  1  0  0  0
 63 65  1  0  0  0
 63137  1  0  0  0
 63138  1  0  0  0
 63139  1  0  0  0
 64140  1  0  0  0
 65141  1  0  0  0
 68 78  1  0  0  0
 71 72  2  0  0  0
 71 82  1  0  0  0
 71142  1  0  0  0
 72 79  1  0  0  0
 72 80  1  0  0  0
 73 79  2  0  0  0
 73 81  1  0  0  0
 73 82  1  0  0  0
 74 80  1  0  0  0
 74143  1  0  0  0
 74144  1  0  0  0
 74 76  1  0  0  0
 75 76  1  0  0  0
 75 80  1  0  0  0
 75145  1  0  0  0
 75146  1  0  0  0
 76 78  1  0  0  0
 76147  1  0  0  0
 77148  1  0  0  0
 77149  1  0  0  0
 77150  1  0  0  0
 77 78  1  0  0  0
 78151  1  0  0  0
 81152  1  0  0  0
M  ISO  4   1 100  68 101  78 101  81 100
M  END
> <chiral flag>
0

> <version>
0

> <s_m_source_file>
/data/baiqing/PycharmProjects/Reinvent-master-3.2/result/LINK_invent/BTK/process_docking_weight1_custom_product_contain_oxygen_bond_distance_aromatic_linkinvent_7_9_3/rearranged_h_0149.sdf

> <i_m_source_file_index>
60

> <r_mmod_Potential_Energy-OPLS-2005>
390.517608642578

> <r_mmod_Stretch_Energy-OPLS-2005>
202.198135375977

> <r_mmod_Bend_Energy-OPLS-2005>
330.108245849609

> <r_mmod_Torsional_Energy-OPLS-2005>
263.946868896484

> <r_mmod_Improper_Torsional_Energy-OPLS-2005>
11.0977001190186

> <r_mmod_Van_der_Waal_Energy-OPLS-2005>
119.666191101074

> <r_mmod_Electrostatic_Energy-OPLS-2005>
-452.526672363281

> <r_mmod_Solvation_Energy-OPLS-2005>
-244.200714111328

> <b_mmod_Minimization_Converged-OPLS-2005>
0

> <r_mmod_RMS_Derivative-OPLS-2005>
1.13570022583008

$$$$
60
                    3D
 Structure written by MMmdl.
160169  0  0  1  0            999 V2000
  -30.4898  -15.0278   20.4132 C   0  0  0  0  0  0
  -30.4401  -12.6335   19.5272 C   0  0  0  0  0  0
  -29.5341  -12.5691   18.2735 C   0  0  0  0  0  0
  -28.0670  -12.3364   18.6778 C   0  0  0  0  0  0
  -27.6298  -13.2586   19.8442 C   0  0  2  0  0  0
  -28.6647  -13.2932   20.9904 C   0  0  0  0  0  0
  -25.2452  -13.8240   20.5692 C   0  0  0  0  0  0
  -24.1773  -13.0445   20.9200 C   0  0  0  0  0  0
  -24.6407  -11.6927   20.8728 C   0  0  0  0  0  0
  -23.9097  -10.4290   21.0383 C   0  0  0  0  0  0
  -24.3641   -9.4210   21.9172 C   0  0  0  0  0  0
  -23.6308   -8.2253   22.0763 C   0  0  0  0  0  0
  -22.4287   -8.0289   21.3545 C   0  0  0  0  0  0
  -21.9922   -9.0262   20.4651 C   0  0  0  0  0  0
  -22.7256  -10.2129   20.3045 C   0  0  0  0  0  0
  -21.6861   -6.0737   22.5279 C   0  0  0  0  0  0
  -21.4020   -6.5637   23.8215 C   0  0  0  0  0  0
  -21.3665   -5.6786   24.9176 C   0  0  0  0  0  0
  -21.6046   -4.3047   24.7224 C   0  0  0  0  0  0
  -21.8820   -3.8142   23.4344 C   0  0  0  0  0  0
  -21.9200   -4.6962   22.3402 C   0  0  0  0  0  0
  -22.7791  -13.5201   21.1856 C   0  0  0  0  0  0
  -22.1657   -4.2146   21.0978 F   0  0  0  0  0  0
  -21.5640   -3.4534   25.7738 F   0  0  0  0  0  0
  -29.9403  -13.7353   20.4105 N   0  0  0  0  0  0
  -26.2884  -12.9476   20.3235 N   0  0  0  0  0  0
  -25.9342  -11.6593   20.5706 N   0  0  0  0  0  0
  -22.0443  -12.8192   22.0420 N   0  0  0  0  0  0
  -25.4127  -15.1972   20.4131 N   0  0  0  0  0  0
  -31.6724  -15.1042   20.0513 O   0  0  0  0  0  0
  -21.6653   -6.8884   21.4241 O   0  0  0  0  0  0
  -22.3454  -14.5497   20.6688 O   0  0  0  0  0  0
  -24.6484  -31.8386   23.1856 C   0  0  0  0  0  0
  -25.9230  -32.4676   23.8262 C   0  0  1  0  0  0
  -27.2046  -27.0606   20.1808 C   0  0  0  0  0  0
  -25.5962  -33.8485   24.2186 N   0  0  0  0  0  0
  -23.4569  -30.4563   21.5304 C   0  0  2  0  0  0
  -24.9087  -28.8729   20.1142 C   0  0  0  0  0  0
  -22.7598  -29.4512   22.4822 C   0  0  0  0  0  0
  -18.0308  -28.1408   22.8474 C   0  0  0  0  0  0
  -24.1494  -36.7245   23.2642 C   0  0  0  0  0  0
  -26.0170  -30.6891   21.3968 C   0  0  0  0  0  0
  -26.0855  -29.2894   20.7494 C   0  0  0  0  0  0
  -27.2339  -28.3996   20.7679 C   0  0  0  0  0  0
  -26.0204  -26.7857   19.4647 C   0  0  0  0  0  0
  -24.8939  -27.6372   19.4524 C   0  0  0  0  0  0
  -23.6889  -29.7835   20.1512 C   0  0  0  0  0  0
  -25.4131  -36.3034   24.0317 C   0  0  1  0  0  0
  -20.5929  -28.3742   23.1220 C   0  0  2  0  0  0
  -20.6795  -26.9435   22.5416 C   0  0  0  0  0  0
  -19.5768  -26.6383   21.5222 C   0  0  0  0  0  0
  -18.1943  -26.7939   22.1626 C   0  0  0  0  0  0
  -19.1569  -28.8893   23.2841 C   0  0  0  0  0  0
  -18.9478  -30.1484   23.8872 C   0  0  0  0  0  0
  -17.6475  -30.6605   24.0552 C   0  0  0  0  0  0
  -25.9080  -34.9400   23.5060 C   0  0  0  0  0  0
  -16.5365  -29.9097   23.6340 C   0  0  0  0  0  0
  -16.7288  -28.6522   23.0348 C   0  0  0  0  0  0
  -26.4530  -31.6560   25.0720 C   0  0  0  0  0  0
  -25.3698  -31.3758   26.1404 C   0  0  0  0  0  0
  -27.0390  -30.2946   24.6340 C   0  0  0  0  0  0
  -27.6068  -32.4304   25.7518 C   0  0  0  0  0  0
  -27.5580  -37.1789   24.8465 C   0  0  0  0  0  0
  -21.4281  -29.3059   22.3586 N   0  0  0  0  0  0
  -26.4291  -37.3754   23.9407 N   0  0  0  0  0  0
  -24.7277  -31.0195   22.0916 N   0  0  0  0  0  0
  -23.4224  -28.8053   23.2987 O   0  0  0  0  0  0
  -28.2353  -26.0265   20.2042 O   0  0  0  0  0  0
  -26.5666  -34.8900   22.4644 O   0  0  0  0  0  0
  -23.5581  -32.1272   23.7045 O   0  0  0  0  0  0
  -30.0964  -18.2468   19.1075 C   0  0  0  0  0  0
  -29.7342  -19.5969   19.0631 C   0  0  0  0  0  0
  -29.6990  -17.7091   20.3682 C   0  0  0  0  0  0
  -29.3651  -20.8600   15.8227 C   0  0  0  0  0  0
  -30.4461  -20.0741   16.5709 C   0  0  0  0  0  0
  -28.4981  -20.7175   17.0739 C   0  0  0  0  0  0
  -29.7894  -20.5193   17.8885 C   0  0  0  0  0  0
  -26.5821  -24.1676   20.9568 C   0  0  0  0  0  0
  -28.7854  -23.0496   20.0842 C   0  0  0  0  0  0
  -28.5758  -21.4612   20.7309 C   0  0  0  0  0  0
  -28.0531  -24.5030   20.6612 C   0  0  1  0  0  0
  -29.1586  -18.8149   21.0469 N   0  0  0  0  0  0
  -29.2047  -20.0374   20.2843 N   0  0  0  0  0  0
  -29.7083  -16.1943   20.7282 N   0  0  0  0  0  0
  -31.4782  -12.7873   19.2295 H   0  0  0  0  0  0
  -30.4258  -11.6781   20.0554 H   0  0  0  0  0  0
  -29.8693  -11.7833   17.5951 H   0  0  0  0  0  0
  -29.6136  -13.5065   17.7203 H   0  0  0  0  0  0
  -27.9659  -11.2920   18.9757 H   0  0  0  0  0  0
  -27.4134  -12.4762   17.8157 H   0  0  0  0  0  0
  -27.5883  -14.2623   19.4208 H   0  0  0  0  0  0
  -28.7638  -12.3104   21.4535 H   0  0  0  0  0  0
  -28.3423  -13.9736   21.7785 H   0  0  0  0  0  0
  -25.2787   -9.5692   22.4747 H   0  0  0  0  0  0
  -24.0022   -7.4649   22.7478 H   0  0  0  0  0  0
  -21.0860   -8.8769   19.8947 H   0  0  0  0  0  0
  -22.3715  -10.9671   19.6154 H   0  0  0  0  0  0
  -21.2001   -7.6146   23.9714 H   0  0  0  0  0  0
  -21.1489   -6.0518   25.9081 H   0  0  0  0  0  0
  -22.0595   -2.7602   23.2845 H   0  0  0  0  0  0
  -22.4050  -11.9867   22.4835 H   0  0  0  0  0  0
  -21.1055  -13.1216   22.2609 H   0  0  0  0  0  0
  -24.6421  -15.8498   20.5129 H   0  0  0  0  0  0
  -26.2633  -15.6363   20.0833 H   0  0  0  0  0  0
  -26.7291  -32.5265   23.0976 H   0  0  0  0  0  0
  -25.0081  -33.9599   25.0314 H   0  0  0  0  0  0
  -22.7632  -31.2837   21.3704 H   0  0  0  0  0  0
  -23.3773  -35.9559   23.3279 H   0  0  0  0  0  0
  -24.3585  -36.8901   22.2064 H   0  0  0  0  0  0
  -23.7223  -37.6423   23.6688 H   0  0  0  0  0  0
  -26.1732  -31.4332   20.6145 H   0  0  0  0  0  0
  -26.8862  -30.7510   22.0393 H   0  0  0  0  0  0
  -28.1264  -28.7127   21.2916 H   0  0  0  0  0  0
  -25.9428  -25.8571   18.9192 H   0  0  0  0  0  0
  -24.0066  -27.3241   18.9203 H   0  0  0  0  0  0
  -23.8331  -30.5530   19.3921 H   0  0  0  0  0  0
  -22.8032  -29.2288   19.8384 H   0  0  0  0  0  0
  -25.1323  -36.1861   25.0809 H   0  0  0  0  0  0
  -21.0014  -28.3334   24.1342 H   0  0  0  0  0  0
  -20.5694  -26.2349   23.3641 H   0  0  0  0  0  0
  -21.6651  -26.7443   22.1199 H   0  0  0  0  0  0
  -19.6923  -25.6284   21.1272 H   0  0  0  0  0  0
  -19.6703  -27.3179   20.6734 H   0  0  0  0  0  0
  -17.4214  -26.6675   21.4023 H   0  0  0  0  0  0
  -18.0340  -26.0094   22.9037 H   0  0  0  0  0  0
  -19.7954  -30.7301   24.2230 H   0  0  0  0  0  0
  -17.5031  -31.6278   24.5157 H   0  0  0  0  0  0
  -15.5366  -30.2984   23.7697 H   0  0  0  0  0  0
  -15.8678  -28.0838   22.7068 H   0  0  0  0  0  0
  -24.5911  -30.7069   25.7724 H   0  0  0  0  0  0
  -24.8842  -32.2933   26.4742 H   0  0  0  0  0  0
  -25.7971  -30.9000   27.0241 H   0  0  0  0  0  0
  -26.3014  -29.6662   24.1334 H   0  0  0  0  0  0
  -27.3954  -29.7270   25.4948 H   0  0  0  0  0  0
  -27.8949  -30.4167   23.9696 H   0  0  0  0  0  0
  -27.2698  -33.3647   26.2022 H   0  0  0  0  0  0
  -28.3940  -32.6778   25.0382 H   0  0  0  0  0  0
  -28.0652  -31.8444   26.5498 H   0  0  0  0  0  0
  -28.2590  -38.0095   24.7525 H   0  0  0  0  0  0
  -28.1084  -36.2626   24.6278 H   0  0  0  0  0  0
  -27.2291  -37.1417   25.8865 H   0  0  0  0  0  0
  -20.9500  -29.8789   21.6765 H   0  0  0  0  0  0
  -26.0152  -38.2819   24.1409 H   0  0  0  0  0  0
  -30.5154  -17.6865   18.2842 H   0  0  0  0  0  0
  -28.9660  -20.3736   14.9324 H   0  0  0  0  0  0
  -29.6492  -21.8957   15.6280 H   0  0  0  0  0  0
  -31.4645  -20.4376   16.4272 H   0  0  0  0  0  0
  -30.3769  -19.0008   16.3900 H   0  0  0  0  0  0
  -27.8734  -19.8211   17.0485 H   0  0  0  0  0  0
  -27.9091  -21.5984   17.3323 H   0  0  0  0  0  0
  -30.2023  -21.4847   18.1848 H   0  0  0  0  0  0
  -26.0855  -24.9571   21.5207 H   0  0  0  0  0  0
  -26.5092  -23.2695   21.5689 H   0  0  0  0  0  0
  -26.0202  -23.9716   20.0453 H   0  0  0  0  0  0
  -28.5060  -22.9924   19.0342 H   0  0  0  0  0  0
  -29.8602  -23.2332   20.0753 H   0  0  0  0  0  0
  -27.4993  -21.2902   20.7140 H   0  0  0  0  0  0
  -28.8025  -21.5517   21.7920 H   0  0  0  0  0  0
  -28.4919  -24.5749   21.6562 H   0  0  0  0  0  0
  -28.8847  -15.9346   21.2490 H   0  0  0  0  0  0
  1 25  1  0  0  0
  1 30  2  0  0  0
  1 84  1  0  0  0
  2  3  1  0  0  0
  2 25  1  0  0  0
  2 85  1  0  0  0
  2 86  1  0  0  0
  3  4  1  0  0  0
  3 87  1  0  0  0
  3 88  1  0  0  0
  4  5  1  0  0  0
  4 89  1  0  0  0
  4 90  1  0  0  0
  5  6  1  0  0  0
  5 26  1  0  0  0
  5 91  1  0  0  0
  6 25  1  0  0  0
  6 92  1  0  0  0
  6 93  1  0  0  0
  7  8  2  0  0  0
  7 26  1  0  0  0
  7 29  1  0  0  0
  8  9  1  0  0  0
  8 22  1  0  0  0
  9 10  1  0  0  0
  9 27  2  0  0  0
 10 11  2  0  0  0
 10 15  1  0  0  0
 11 12  1  0  0  0
 11 94  1  0  0  0
 12 13  2  0  0  0
 12 95  1  0  0  0
 13 14  1  0  0  0
 13 31  1  0  0  0
 14 15  2  0  0  0
 14 96  1  0  0  0
 15 97  1  0  0  0
 16 17  2  0  0  0
 16 21  1  0  0  0
 16 31  1  0  0  0
 17 18  1  0  0  0
 17 98  1  0  0  0
 18 19  2  0  0  0
 18 99  1  0  0  0
 19 20  1  0  0  0
 19 24  1  0  0  0
 20 21  2  0  0  0
 20100  1  0  0  0
 21 23  1  0  0  0
 22 28  1  0  0  0
 22 32  2  0  0  0
 26 27  1  0  0  0
 28101  1  0  0  0
 28102  1  0  0  0
 29103  1  0  0  0
 29104  1  0  0  0
 33 34  1  0  0  0
 33 66  1  0  0  0
 33 70  2  0  0  0
 34 36  1  0  0  0
 34 59  1  0  0  0
 34105  1  0  0  0
 35 44  2  0  0  0
 35 45  1  0  0  0
 35 68  1  0  0  0
 36 56  1  0  0  0
 36106  1  0  0  0
 37 39  1  0  0  0
 37 47  1  0  0  0
 37 66  1  0  0  0
 37107  1  0  0  0
 38 43  2  0  0  0
 38 46  1  0  0  0
 38 47  1  0  0  0
 39 64  1  0  0  0
 39 67  2  0  0  0
 40 52  1  0  0  0
 40 53  2  0  0  0
 40 58  1  0  0  0
 41108  1  0  0  0
 41109  1  0  0  0
 41110  1  0  0  0
 41 48  1  0  0  0
 42 43  1  0  0  0
 42 66  1  0  0  0
 42111  1  0  0  0
 42112  1  0  0  0
 43 44  1  0  0  0
 44113  1  0  0  0
 45 46  2  0  0  0
 45114  1  0  0  0
 46115  1  0  0  0
 47116  1  0  0  0
 47117  1  0  0  0
 48 56  1  0  0  0
 48 65  1  0  0  0
 48118  1  0  0  0
 49 50  1  0  0  0
 49 53  1  0  0  0
 49 64  1  0  0  0
 49119  1  0  0  0
 50 51  1  0  0  0
 50120  1  0  0  0
 50121  1  0  0  0
 51 52  1  0  0  0
 51122  1  0  0  0
 51123  1  0  0  0
 52124  1  0  0  0
 52125  1  0  0  0
 53 54  1  0  0  0
 54 55  2  0  0  0
 54126  1  0  0  0
 55 57  1  0  0  0
 55127  1  0  0  0
 56 69  2  0  0  0
 57 58  2  0  0  0
 57128  1  0  0  0
 58129  1  0  0  0
 59 60  1  0  0  0
 59 61  1  0  0  0
 59 62  1  0  0  0
 60130  1  0  0  0
 60131  1  0  0  0
 60132  1  0  0  0
 61133  1  0  0  0
 61134  1  0  0  0
 61135  1  0  0  0
 62136  1  0  0  0
 62137  1  0  0  0
 62138  1  0  0  0
 63 65  1  0  0  0
 63139  1  0  0  0
 63140  1  0  0  0
 63141  1  0  0  0
 64142  1  0  0  0
 65143  1  0  0  0
 68 81  1  0  0  0
 71 72  2  0  0  0
 71 73  1  0  0  0
 71144  1  0  0  0
 72 83  1  0  0  0
 72 77  1  0  0  0
 73 82  2  0  0  0
 73 84  1  0  0  0
 74 75  1  0  0  0
 74 76  1  0  0  0
 74145  1  0  0  0
 74146  1  0  0  0
 75 77  1  0  0  0
 75147  1  0  0  0
 75148  1  0  0  0
 76 77  1  0  0  0
 76149  1  0  0  0
 76150  1  0  0  0
 77151  1  0  0  0
 78152  1  0  0  0
 78153  1  0  0  0
 78154  1  0  0  0
 78 81  1  0  0  0
 79 80  1  0  0  0
 79 81  1  0  0  0
 79155  1  0  0  0
 79156  1  0  0  0
 80 83  1  0  0  0
 80157  1  0  0  0
 80158  1  0  0  0
 81159  1  0  0  0
 82 83  1  0  0  0
 84160  1  0  0  0
M  ISO  4   1 100  68 101  81 101  84 100
M  END
> <chiral flag>
0

> <version>
0

> <s_m_source_file>
/data/baiqing/PycharmProjects/Reinvent-master-3.2/result/LINK_invent/BTK/process_docking_weight1_custom_product_contain_oxygen_bond_distance_aromatic_linkinvent_7_9_3/rearranged_h_0149.sdf

> <i_m_source_file_index>
61

> <r_mmod_Potential_Energy-OPLS-2005>
705.832397460938

> <r_mmod_Stretch_Energy-OPLS-2005>
342.369903564453

> <r_mmod_Bend_Energy-OPLS-2005>
338.211669921875

> <r_mmod_Torsional_Energy-OPLS-2005>
282.420501708984

> <r_mmod_Improper_Torsional_Energy-OPLS-2005>
4.46586894989014

> <r_mmod_Van_der_Waal_Energy-OPLS-2005>
108.168083190918

> <r_mmod_Electrostatic_Energy-OPLS-2005>
-410.111145019531

> <r_mmod_Solvation_Energy-OPLS-2005>
-215.833053588867

> <b_mmod_Minimization_Converged-OPLS-2005>
0

> <r_mmod_RMS_Derivative-OPLS-2005>
2.54685497283936

$$$$
61
                    3D
 Structure written by MMmdl.
155164  0  0  1  0            999 V2000
  -30.6534  -14.7634   20.4779 C   0  0  0  0  0  0
  -30.4214  -12.4806   19.4660 C   0  0  0  0  0  0
  -29.4999  -12.5030   18.2295 C   0  0  0  0  0  0
  -28.0315  -12.3202   18.6546 C   0  0  0  0  0  0
  -27.6340  -13.2384   19.8415 C   0  0  2  0  0  0
  -28.6831  -13.2168   20.9734 C   0  0  0  0  0  0
  -25.2480  -13.8208   20.5712 C   0  0  0  0  0  0
  -24.1784  -13.0439   20.9220 C   0  0  0  0  0  0
  -24.6387  -11.6921   20.8756 C   0  0  0  0  0  0
  -23.9068  -10.4295   21.0410 C   0  0  0  0  0  0
  -24.3619   -9.4209   21.9185 C   0  0  0  0  0  0
  -23.6295   -8.2244   22.0756 C   0  0  0  0  0  0
  -22.4277   -8.0281   21.3546 C   0  0  0  0  0  0
  -21.9918   -9.0251   20.4646 C   0  0  0  0  0  0
  -22.7244  -10.2130   20.3056 C   0  0  0  0  0  0
  -21.6853   -6.0735   22.5274 C   0  0  0  0  0  0
  -21.4017   -6.5639   23.8206 C   0  0  0  0  0  0
  -21.3660   -5.6791   24.9169 C   0  0  0  0  0  0
  -21.6043   -4.3054   24.7222 C   0  0  0  0  0  0
  -21.8820   -3.8145   23.4343 C   0  0  0  0  0  0
  -21.9195   -4.6963   22.3398 C   0  0  0  0  0  0
  -22.7805  -13.5215   21.1870 C   0  0  0  0  0  0
  -22.1662   -4.2147   21.0975 F   0  0  0  0  0  0
  -21.5630   -3.4540   25.7736 F   0  0  0  0  0  0
  -29.9729  -13.5681   20.3701 N   0  0  0  0  0  0
  -26.2909  -12.9428   20.3281 N   0  0  0  0  0  0
  -25.9320  -11.6560   20.5764 N   0  0  0  0  0  0
  -22.0454  -12.8196   22.0420 N   0  0  0  0  0  0
  -25.4156  -15.1935   20.4134 N   0  0  0  0  0  0
  -31.8491  -14.7858   20.1715 O   0  0  0  0  0  0
  -21.6642   -6.8875   21.4235 O   0  0  0  0  0  0
  -22.3486  -14.5519   20.6714 O   0  0  0  0  0  0
  -24.6327  -31.8528   23.1953 C   0  0  0  0  0  0
  -25.9143  -32.4738   23.8306 C   0  0  1  0  0  0
  -27.2170  -27.2424   20.1386 C   0  0  0  0  0  0
  -25.5930  -33.8540   24.2226 N   0  0  0  0  0  0
  -23.4311  -30.4739   21.5394 C   0  0  2  0  0  0
  -24.8794  -28.9161   20.1121 C   0  0  0  0  0  0
  -22.7515  -29.4589   22.4903 C   0  0  0  0  0  0
  -18.0288  -28.1396   22.8476 C   0  0  0  0  0  0
  -24.1491  -36.7282   23.2638 C   0  0  0  0  0  0
  -25.9778  -30.7620   21.3766 C   0  0  0  0  0  0
  -26.0520  -29.3809   20.7223 C   0  0  0  0  0  0
  -27.2269  -28.5579   20.7208 C   0  0  0  0  0  0
  -26.0257  -26.8516   19.4938 C   0  0  0  0  0  0
  -24.8716  -27.6605   19.4852 C   0  0  0  0  0  0
  -23.6510  -29.8055   20.1568 C   0  0  0  0  0  0
  -25.4119  -36.3059   24.0318 C   0  0  1  0  0  0
  -20.5897  -28.3705   23.1266 C   0  0  2  0  0  0
  -20.6778  -26.9421   22.5410 C   0  0  0  0  0  0
  -19.5751  -26.6389   21.5215 C   0  0  0  0  0  0
  -18.1927  -26.7934   22.1624 C   0  0  0  0  0  0
  -19.1545  -28.8862   23.2858 C   0  0  0  0  0  0
  -18.9471  -30.1465   23.8879 C   0  0  0  0  0  0
  -17.6467  -30.6587   24.0563 C   0  0  0  0  0  0
  -25.9061  -34.9431   23.5075 C   0  0  0  0  0  0
  -16.5357  -29.9086   23.6333 C   0  0  0  0  0  0
  -16.7273  -28.6517   23.0340 C   0  0  0  0  0  0
  -26.4504  -31.6569   25.0711 C   0  0  0  0  0  0
  -25.3713  -31.3739   26.1425 C   0  0  0  0  0  0
  -27.0351  -30.2977   24.6215 C   0  0  0  0  0  0
  -27.6052  -32.4322   25.7493 C   0  0  0  0  0  0
  -27.5580  -37.1781   24.8453 C   0  0  0  0  0  0
  -21.4218  -29.3046   22.3653 N   0  0  0  0  0  0
  -26.4285  -37.3766   23.9412 N   0  0  0  0  0  0
  -24.6998  -31.0482   22.0933 N   0  0  0  0  0  0
  -23.4204  -28.8128   23.3007 O   0  0  0  0  0  0
  -28.2970  -26.3253   20.1576 O   0  0  0  0  0  0
  -26.5645  -34.8914   22.4655 O   0  0  0  0  0  0
  -23.5475  -32.1350   23.7239 O   0  0  0  0  0  0
  -31.5454  -17.0166   22.2039 C   0  0  0  0  0  0
  -30.2345  -18.7040   21.1645 C   0  0  0  0  0  0
  -30.5398  -17.2218   21.2764 C   0  0  0  0  0  0
  -31.0503  -19.4052   21.9880 C   0  0  0  0  0  0
  -29.6210  -22.6363   20.9515 C   0  0  0  0  0  0
  -29.3817  -19.8665   20.5006 C   0  0  0  0  0  0
  -30.9154  -20.8712   22.0171 C   0  0  0  0  0  0
  -28.0544  -24.9255   20.6903 C   0  0  0  0  0  0
  -28.6126  -23.5040   20.0587 C   0  0  2  0  0  0
  -29.8467  -21.2376   21.0634 N   0  0  0  0  0  0
  -29.9768  -15.9721   20.6903 N   0  0  0  0  0  0
  -27.5117  -22.6727   19.5241 N   0  3  0  0  0  0
  -30.3336  -23.3727   21.6434 O   0  0  0  0  0  0
  -32.1670  -18.4718   22.9159 S   0  0  0  0  0  0
  -31.4613  -12.5915   19.1543 H   0  0  0  0  0  0
  -30.3648  -11.5161   19.9731 H   0  0  0  0  0  0
  -29.7868  -11.7177   17.5285 H   0  0  0  0  0  0
  -29.6150  -13.4487   17.6975 H   0  0  0  0  0  0
  -27.9025  -11.2747   18.9379 H   0  0  0  0  0  0
  -27.3665  -12.4869   17.8062 H   0  0  0  0  0  0
  -27.6148  -14.2511   19.4381 H   0  0  0  0  0  0
  -28.7326  -12.2349   21.4462 H   0  0  0  0  0  0
  -28.4167  -13.9264   21.7583 H   0  0  0  0  0  0
  -25.2761   -9.5685   22.4762 H   0  0  0  0  0  0
  -24.0000   -7.4637   22.7481 H   0  0  0  0  0  0
  -21.0848   -8.8768   19.8950 H   0  0  0  0  0  0
  -22.3700  -10.9667   19.6166 H   0  0  0  0  0  0
  -21.2008   -7.6147   23.9705 H   0  0  0  0  0  0
  -21.1483   -6.0524   25.9068 H   0  0  0  0  0  0
  -22.0601   -2.7609   23.2842 H   0  0  0  0  0  0
  -22.4083  -11.9855   22.4796 H   0  0  0  0  0  0
  -21.1065  -13.1201   22.2628 H   0  0  0  0  0  0
  -24.6471  -15.8456   20.5285 H   0  0  0  0  0  0
  -26.2615  -15.6359   20.0781 H   0  0  0  0  0  0
  -26.7203  -32.5382   23.1043 H   0  0  0  0  0  0
  -25.0064  -33.9678   25.0360 H   0  0  0  0  0  0
  -22.7287  -31.2959   21.3900 H   0  0  0  0  0  0
  -23.3749  -35.9612   23.3289 H   0  0  0  0  0  0
  -24.3577  -36.8928   22.2052 H   0  0  0  0  0  0
  -23.7251  -37.6482   23.6680 H   0  0  0  0  0  0
  -26.1155  -31.5207   20.6043 H   0  0  0  0  0  0
  -26.8551  -30.8140   22.0095 H   0  0  0  0  0  0
  -28.1259  -28.9079   21.2089 H   0  0  0  0  0  0
  -25.9734  -25.8928   18.9987 H   0  0  0  0  0  0
  -23.9766  -27.3020   18.9967 H   0  0  0  0  0  0
  -23.7770  -30.5799   19.3991 H   0  0  0  0  0  0
  -22.7691  -29.2392   19.8524 H   0  0  0  0  0  0
  -25.1292  -36.1895   25.0806 H   0  0  0  0  0  0
  -20.9971  -28.3291   24.1391 H   0  0  0  0  0  0
  -20.5691  -26.2313   23.3617 H   0  0  0  0  0  0
  -21.6643  -26.7457   22.1196 H   0  0  0  0  0  0
  -19.6928  -25.6304   21.1243 H   0  0  0  0  0  0
  -19.6698  -27.3195   20.6744 H   0  0  0  0  0  0
  -17.4205  -26.6677   21.4019 H   0  0  0  0  0  0
  -18.0327  -26.0085   22.9029 H   0  0  0  0  0  0
  -19.7951  -30.7276   24.2244 H   0  0  0  0  0  0
  -17.5029  -31.6267   24.5164 H   0  0  0  0  0  0
  -15.5355  -30.2977   23.7677 H   0  0  0  0  0  0
  -15.8683  -28.0829   22.7050 H   0  0  0  0  0  0
  -24.5905  -30.7072   25.7761 H   0  0  0  0  0  0
  -24.8891  -32.2915   26.4803 H   0  0  0  0  0  0
  -25.8020  -30.8962   27.0231 H   0  0  0  0  0  0
  -26.2941  -29.6719   24.1237 H   0  0  0  0  0  0
  -27.4013  -29.7255   25.4747 H   0  0  0  0  0  0
  -27.8822  -30.4237   23.9471 H   0  0  0  0  0  0
  -27.2656  -33.3640   26.2022 H   0  0  0  0  0  0
  -28.3886  -32.6847   25.0340 H   0  0  0  0  0  0
  -28.0678  -31.8476   26.5451 H   0  0  0  0  0  0
  -28.2551  -38.0120   24.7535 H   0  0  0  0  0  0
  -28.1120  -36.2649   24.6225 H   0  0  0  0  0  0
  -27.2301  -37.1356   25.8855 H   0  0  0  0  0  0
  -20.9415  -29.8788   21.6869 H   0  0  0  0  0  0
  -26.0156  -38.2827   24.1457 H   0  0  0  0  0  0
  -31.9842  -16.0821   22.5357 H   0  0  0  0  0  0
  -28.3202  -19.7271   20.7052 H   0  0  0  0  0  0
  -29.5074  -19.8590   19.4184 H   0  0  0  0  0  0
  -31.8671  -21.3295   21.7370 H   0  0  0  0  0  0
  -30.6691  -21.2012   23.0288 H   0  0  0  0  0  0
  -28.4201  -24.9887   21.7152 H   0  0  0  0  0  0
  -26.9831  -24.8026   20.8497 H   0  0  0  0  0  0
  -29.2078  -23.7882   19.1906 H   0  0  0  0  0  0
  -28.9735  -15.9422   20.5894 H   0  0  0  0  0  0
  -26.9308  -22.3169   20.2643 H   0  0  0  0  0  0
  -27.8775  -21.8959   19.0026 H   0  0  0  0  0  0
  -26.9349  -23.2062   18.8973 H   0  0  0  0  0  0
  1 25  1  0  0  0
  1 30  2  0  0  0
  1 81  1  0  0  0
  2  3  1  0  0  0
  2 25  1  0  0  0
  2 85  1  0  0  0
  2 86  1  0  0  0
  3  4  1  0  0  0
  3 87  1  0  0  0
  3 88  1  0  0  0
  4  5  1  0  0  0
  4 89  1  0  0  0
  4 90  1  0  0  0
  5  6  1  0  0  0
  5 26  1  0  0  0
  5 91  1  0  0  0
  6 25  1  0  0  0
  6 92  1  0  0  0
  6 93  1  0  0  0
  7  8  2  0  0  0
  7 26  1  0  0  0
  7 29  1  0  0  0
  8  9  1  0  0  0
  8 22  1  0  0  0
  9 10  1  0  0  0
  9 27  2  0  0  0
 10 11  2  0  0  0
 10 15  1  0  0  0
 11 12  1  0  0  0
 11 94  1  0  0  0
 12 13  2  0  0  0
 12 95  1  0  0  0
 13 14  1  0  0  0
 13 31  1  0  0  0
 14 15  2  0  0  0
 14 96  1  0  0  0
 15 97  1  0  0  0
 16 17  2  0  0  0
 16 21  1  0  0  0
 16 31  1  0  0  0
 17 18  1  0  0  0
 17 98  1  0  0  0
 18 19  2  0  0  0
 18 99  1  0  0  0
 19 20  1  0  0  0
 19 24  1  0  0  0
 20 21  2  0  0  0
 20100  1  0  0  0
 21 23  1  0  0  0
 22 28  1  0  0  0
 22 32  2  0  0  0
 26 27  1  0  0  0
 28101  1  0  0  0
 28102  1  0  0  0
 29103  1  0  0  0
 29104  1  0  0  0
 33 34  1  0  0  0
 33 66  1  0  0  0
 33 70  2  0  0  0
 34 36  1  0  0  0
 34 59  1  0  0  0
 34105  1  0  0  0
 35 44  2  0  0  0
 35 45  1  0  0  0
 35 68  1  0  0  0
 36 56  1  0  0  0
 36106  1  0  0  0
 37 39  1  0  0  0
 37 47  1  0  0  0
 37 66  1  0  0  0
 37107  1  0  0  0
 38 43  2  0  0  0
 38 46  1  0  0  0
 38 47  1  0  0  0
 39 64  1  0  0  0
 39 67  2  0  0  0
 40 52  1  0  0  0
 40 53  2  0  0  0
 40 58  1  0  0  0
 41108  1  0  0  0
 41109  1  0  0  0
 41110  1  0  0  0
 41 48  1  0  0  0
 42 43  1  0  0  0
 42 66  1  0  0  0
 42111  1  0  0  0
 42112  1  0  0  0
 43 44  1  0  0  0
 44113  1  0  0  0
 45 46  2  0  0  0
 45114  1  0  0  0
 46115  1  0  0  0
 47116  1  0  0  0
 47117  1  0  0  0
 48 56  1  0  0  0
 48 65  1  0  0  0
 48118  1  0  0  0
 49 50  1  0  0  0
 49 53  1  0  0  0
 49 64  1  0  0  0
 49119  1  0  0  0
 50 51  1  0  0  0
 50120  1  0  0  0
 50121  1  0  0  0
 51 52  1  0  0  0
 51122  1  0  0  0
 51123  1  0  0  0
 52124  1  0  0  0
 52125  1  0  0  0
 53 54  1  0  0  0
 54 55  2  0  0  0
 54126  1  0  0  0
 55 57  1  0  0  0
 55127  1  0  0  0
 56 69  2  0  0  0
 57 58  2  0  0  0
 57128  1  0  0  0
 58129  1  0  0  0
 59 60  1  0  0  0
 59 61  1  0  0  0
 59 62  1  0  0  0
 60130  1  0  0  0
 60131  1  0  0  0
 60132  1  0  0  0
 61133  1  0  0  0
 61134  1  0  0  0
 61135  1  0  0  0
 62136  1  0  0  0
 62137  1  0  0  0
 62138  1  0  0  0
 63 65  1  0  0  0
 63139  1  0  0  0
 63140  1  0  0  0
 63141  1  0  0  0
 64142  1  0  0  0
 65143  1  0  0  0
 68 78  1  0  0  0
 71 73  2  0  0  0
 71 84  1  0  0  0
 71144  1  0  0  0
 72 73  1  0  0  0
 72 74  2  0  0  0
 72 76  1  0  0  0
 73 81  1  0  0  0
 74 77  1  0  0  0
 74 84  1  0  0  0
 75 79  1  0  0  0
 75 80  1  0  0  0
 75 83  2  0  0  0
 76 80  1  0  0  0
 76145  1  0  0  0
 76146  1  0  0  0
 77 80  1  0  0  0
 77147  1  0  0  0
 77148  1  0  0  0
 78 79  1  0  0  0
 78149  1  0  0  0
 78150  1  0  0  0
 79 82  1  0  0  0
 79151  1  0  0  0
 81152  1  0  0  0
 82153  1  0  0  0
 82154  1  0  0  0
 82155  1  0  0  0
M  CHG  1  82   1
M  ISO  4   1 100  68 101  78 101  81 100
M  END
> <chiral flag>
0

> <version>
0

> <s_m_source_file>
/data/baiqing/PycharmProjects/Reinvent-master-3.2/result/LINK_invent/BTK/process_docking_weight1_custom_product_contain_oxygen_bond_distance_aromatic_linkinvent_7_9_3/rearranged_h_0149.sdf

> <i_m_source_file_index>
62

> <r_mmod_Potential_Energy-OPLS-2005>
82.8427658081055

> <r_mmod_Stretch_Energy-OPLS-2005>
164.758102416992

> <r_mmod_Bend_Energy-OPLS-2005>
343.075714111328

> <r_mmod_Torsional_Energy-OPLS-2005>
252.704254150391

> <r_mmod_Improper_Torsional_Energy-OPLS-2005>
5.47883462905884

> <r_mmod_Van_der_Waal_Energy-OPLS-2005>
130.673095703125

> <r_mmod_Electrostatic_Energy-OPLS-2005>
-349.405822753906

> <r_mmod_Solvation_Energy-OPLS-2005>
-562.111877441406

> <b_mmod_Minimization_Converged-OPLS-2005>
0

> <r_mmod_RMS_Derivative-OPLS-2005>
1.24455964565277

$$$$
62
                    3D
 Structure written by MMmdl.
152160  0  0  1  0            999 V2000
  -30.6557  -14.5246   20.5505 C   0  0  0  0  0  0
  -30.4353  -12.3313   19.4315 C   0  0  0  0  0  0
  -29.5029  -12.5093   18.2130 C   0  0  0  0  0  0
  -28.0234  -12.3609   18.6238 C   0  0  0  0  0  0
  -27.6625  -13.2040   19.8761 C   0  0  2  0  0  0
  -28.7044  -12.9898   20.9979 C   0  0  0  0  0  0
  -25.2600  -13.8157   20.5676 C   0  0  0  0  0  0
  -24.1848  -13.0441   20.9179 C   0  0  0  0  0  0
  -24.6397  -11.6907   20.8736 C   0  0  0  0  0  0
  -23.9062  -10.4294   21.0413 C   0  0  0  0  0  0
  -24.3613   -9.4207   21.9190 C   0  0  0  0  0  0
  -23.6290   -8.2245   22.0755 C   0  0  0  0  0  0
  -22.4273   -8.0286   21.3545 C   0  0  0  0  0  0
  -21.9911   -9.0260   20.4649 C   0  0  0  0  0  0
  -22.7238  -10.2139   20.3062 C   0  0  0  0  0  0
  -21.6852   -6.0741   22.5284 C   0  0  0  0  0  0
  -21.4012   -6.5640   23.8216 C   0  0  0  0  0  0
  -21.3655   -5.6792   24.9178 C   0  0  0  0  0  0
  -21.6045   -4.3056   24.7227 C   0  0  0  0  0  0
  -21.8817   -3.8150   23.4346 C   0  0  0  0  0  0
  -21.9191   -4.6968   22.3405 C   0  0  0  0  0  0
  -22.7874  -13.5250   21.1844 C   0  0  0  0  0  0
  -22.1660   -4.2157   21.0982 F   0  0  0  0  0  0
  -21.5628   -3.4538   25.7737 F   0  0  0  0  0  0
  -30.0324  -13.3161   20.4489 N   0  0  0  0  0  0
  -26.3031  -12.9315   20.3367 N   0  0  0  0  0  0
  -25.9324  -11.6478   20.5766 N   0  0  0  0  0  0
  -22.0500  -12.8250   22.0393 N   0  0  0  0  0  0
  -25.4341  -15.1870   20.4067 N   0  0  0  0  0  0
  -31.7928  -14.7217   20.1089 O   0  0  0  0  0  0
  -21.6638   -6.8884   21.4245 O   0  0  0  0  0  0
  -22.3567  -14.5560   20.6697 O   0  0  0  0  0  0
  -24.6159  -31.8670   23.2085 C   0  0  0  0  0  0
  -25.9033  -32.4821   23.8394 C   0  0  1  0  0  0
  -27.2350  -27.4096   20.1160 C   0  0  0  0  0  0
  -25.5898  -33.8623   24.2333 N   0  0  0  0  0  0
  -23.4069  -30.4891   21.5484 C   0  0  2  0  0  0
  -24.8561  -28.9476   20.1192 C   0  0  0  0  0  0
  -22.7418  -29.4658   22.4979 C   0  0  0  0  0  0
  -18.0282  -28.1385   22.8504 C   0  0  0  0  0  0
  -24.1490  -36.7306   23.2636 C   0  0  0  0  0  0
  -25.9368  -30.8258   21.3656 C   0  0  0  0  0  0
  -26.0163  -29.4546   20.7198 C   0  0  0  0  0  0
  -27.2107  -28.6935   20.7159 C   0  0  0  0  0  0
  -26.0621  -26.9219   19.5067 C   0  0  0  0  0  0
  -24.8742  -27.6804   19.5100 C   0  0  0  0  0  0
  -23.6190  -29.8184   20.1643 C   0  0  0  0  0  0
  -25.4111  -36.3112   24.0346 C   0  0  1  0  0  0
  -20.5871  -28.3673   23.1322 C   0  0  2  0  0  0
  -20.6769  -26.9410   22.5423 C   0  0  0  0  0  0
  -19.5740  -26.6395   21.5222 C   0  0  0  0  0  0
  -18.1924  -26.7933   22.1634 C   0  0  0  0  0  0
  -19.1528  -28.8846   23.2912 C   0  0  0  0  0  0
  -18.9455  -30.1451   23.8922 C   0  0  0  0  0  0
  -17.6456  -30.6594   24.0577 C   0  0  0  0  0  0
  -25.9039  -34.9475   23.5135 C   0  0  0  0  0  0
  -16.5354  -29.9097   23.6330 C   0  0  0  0  0  0
  -16.7271  -28.6508   23.0358 C   0  0  0  0  0  0
  -26.4454  -31.6601   25.0726 C   0  0  0  0  0  0
  -25.3725  -31.3703   26.1479 C   0  0  0  0  0  0
  -27.0275  -30.3049   24.6086 C   0  0  0  0  0  0
  -27.6043  -32.4310   25.7474 C   0  0  0  0  0  0
  -27.5585  -37.1807   24.8466 C   0  0  0  0  0  0
  -21.4144  -29.3042   22.3717 N   0  0  0  0  0  0
  -26.4292  -37.3802   23.9419 N   0  0  0  0  0  0
  -24.6713  -31.0756   22.0993 N   0  0  0  0  0  0
  -23.4176  -28.8207   23.3038 O   0  0  0  0  0  0
  -28.3837  -26.6450   20.0746 O   0  0  0  0  0  0
  -26.5600  -34.8920   22.4694 O   0  0  0  0  0  0
  -23.5343  -32.1426   23.7470 O   0  0  0  0  0  0
  -30.6733  -19.0819   20.3893 C   0  0  0  0  0  0
  -30.9911  -17.6813   20.4464 C   0  0  0  0  0  0
  -29.3867  -19.3821   20.7687 C   0  0  0  0  0  0
  -29.9559  -16.8772   20.8738 C   0  0  0  0  0  0
  -28.6821  -20.6878   20.8261 C   0  0  0  0  0  0
  -29.0189  -23.2060   20.0990 C   0  0  0  0  0  0
  -29.5157  -21.9877   20.9261 C   0  0  0  0  0  0
  -27.9850  -24.1800   20.7121 C   0  0  0  0  0  0
  -28.4955  -25.6116   21.0791 C   0  0  0  0  0  0
  -27.4169  -20.7544   20.8721 N   0  0  0  0  0  0
  -29.8775  -15.5181   21.0451 N   0  0  0  0  0  0
  -29.4713  -23.4168   18.9688 O   0  0  0  0  0  0
  -28.5611  -17.8925   21.2165 S   0  0  0  0  0  0
  -31.4783  -12.4489   19.1315 H   0  0  0  0  0  0
  -30.3536  -11.3208   19.8346 H   0  0  0  0  0  0
  -29.7509  -11.7807   17.4397 H   0  0  0  0  0  0
  -29.6632  -13.4928   17.7678 H   0  0  0  0  0  0
  -27.8407  -11.3048   18.8263 H   0  0  0  0  0  0
  -27.3725  -12.6268   17.7901 H   0  0  0  0  0  0
  -27.7037  -14.2507   19.5741 H   0  0  0  0  0  0
  -28.6912  -11.9522   21.3345 H   0  0  0  0  0  0
  -28.4585  -13.5797   21.8818 H   0  0  0  0  0  0
  -25.2760   -9.5683   22.4762 H   0  0  0  0  0  0
  -24.0001   -7.4634   22.7472 H   0  0  0  0  0  0
  -21.0844   -8.8780   19.8953 H   0  0  0  0  0  0
  -22.3700  -10.9680   19.6168 H   0  0  0  0  0  0
  -21.2004   -7.6148   23.9722 H   0  0  0  0  0  0
  -21.1479   -6.0522   25.9080 H   0  0  0  0  0  0
  -22.0598   -2.7617   23.2844 H   0  0  0  0  0  0
  -22.4086  -11.9892   22.4775 H   0  0  0  0  0  0
  -21.1125  -13.1300   22.2606 H   0  0  0  0  0  0
  -24.6672  -15.8430   20.5082 H   0  0  0  0  0  0
  -26.2846  -15.6214   20.0717 H   0  0  0  0  0  0
  -26.7109  -32.5539   23.1163 H   0  0  0  0  0  0
  -25.0078  -33.9787   25.0498 H   0  0  0  0  0  0
  -22.6971  -31.3065   21.4068 H   0  0  0  0  0  0
  -23.3762  -35.9631   23.3314 H   0  0  0  0  0  0
  -24.3589  -36.8910   22.2051 H   0  0  0  0  0  0
  -23.7225  -37.6507   23.6635 H   0  0  0  0  0  0
  -26.0505  -31.5872   20.5927 H   0  0  0  0  0  0
  -26.8234  -30.8842   21.9847 H   0  0  0  0  0  0
  -28.1071  -29.0842   21.1773 H   0  0  0  0  0  0
  -26.0693  -25.9558   19.0237 H   0  0  0  0  0  0
  -23.9840  -27.2849   19.0400 H   0  0  0  0  0  0
  -23.7314  -30.5917   19.4034 H   0  0  0  0  0  0
  -22.7419  -29.2399   19.8678 H   0  0  0  0  0  0
  -25.1288  -36.1982   25.0842 H   0  0  0  0  0  0
  -20.9984  -28.3237   24.1430 H   0  0  0  0  0  0
  -20.5697  -26.2273   23.3608 H   0  0  0  0  0  0
  -21.6639  -26.7462   22.1203 H   0  0  0  0  0  0
  -19.6902  -25.6307   21.1246 H   0  0  0  0  0  0
  -19.6685  -27.3208   20.6758 H   0  0  0  0  0  0
  -17.4204  -26.6712   21.4027 H   0  0  0  0  0  0
  -18.0313  -26.0062   22.9019 H   0  0  0  0  0  0
  -19.7927  -30.7266   24.2305 H   0  0  0  0  0  0
  -17.5009  -31.6276   24.5171 H   0  0  0  0  0  0
  -15.5351  -30.3015   23.7613 H   0  0  0  0  0  0
  -15.8674  -28.0830   22.7067 H   0  0  0  0  0  0
  -24.5900  -30.7043   25.7819 H   0  0  0  0  0  0
  -24.8907  -32.2855   26.4935 H   0  0  0  0  0  0
  -25.8096  -30.8870   27.0230 H   0  0  0  0  0  0
  -26.2808  -29.6828   24.1132 H   0  0  0  0  0  0
  -27.4046  -29.7264   25.4529 H   0  0  0  0  0  0
  -27.8650  -30.4390   23.9233 H   0  0  0  0  0  0
  -27.2683  -33.3614   26.2065 H   0  0  0  0  0  0
  -28.3832  -32.6866   25.0276 H   0  0  0  0  0  0
  -28.0722  -31.8417   26.5371 H   0  0  0  0  0  0
  -28.2604  -38.0100   24.7532 H   0  0  0  0  0  0
  -28.1080  -36.2639   24.6278 H   0  0  0  0  0  0
  -27.2309  -37.1454   25.8867 H   0  0  0  0  0  0
  -20.9298  -29.8753   21.6940 H   0  0  0  0  0  0
  -26.0190  -38.2886   24.1421 H   0  0  0  0  0  0
  -31.4031  -19.8081   20.0619 H   0  0  0  0  0  0
  -31.9726  -17.3262   20.1642 H   0  0  0  0  0  0
  -30.5404  -21.7817   20.6223 H   0  0  0  0  0  0
  -29.5692  -22.2832   21.9735 H   0  0  0  0  0  0
  -27.6263  -23.7051   21.6257 H   0  0  0  0  0  0
  -27.1194  -24.2388   20.0549 H   0  0  0  0  0  0
  -29.5466  -25.5517   21.3650 H   0  0  0  0  0  0
  -27.9824  -25.9406   21.9847 H   0  0  0  0  0  0
  -26.9902  -19.8348   20.8313 H   0  0  0  0  0  0
  -28.9996  -15.1858   21.4147 H   0  0  0  0  0  0
  1 25  1  0  0  0
  1 30  2  0  0  0
  1 81  1  0  0  0
  2  3  1  0  0  0
  2 25  1  0  0  0
  2 84  1  0  0  0
  2 85  1  0  0  0
  3  4  1  0  0  0
  3 86  1  0  0  0
  3 87  1  0  0  0
  4  5  1  0  0  0
  4 88  1  0  0  0
  4 89  1  0  0  0
  5  6  1  0  0  0
  5 26  1  0  0  0
  5 90  1  0  0  0
  6 25  1  0  0  0
  6 91  1  0  0  0
  6 92  1  0  0  0
  7  8  2  0  0  0
  7 26  1  0  0  0
  7 29  1  0  0  0
  8  9  1  0  0  0
  8 22  1  0  0  0
  9 10  1  0  0  0
  9 27  2  0  0  0
 10 11  2  0  0  0
 10 15  1  0  0  0
 11 12  1  0  0  0
 11 93  1  0  0  0
 12 13  2  0  0  0
 12 94  1  0  0  0
 13 14  1  0  0  0
 13 31  1  0  0  0
 14 15  2  0  0  0
 14 95  1  0  0  0
 15 96  1  0  0  0
 16 17  2  0  0  0
 16 21  1  0  0  0
 16 31  1  0  0  0
 17 18  1  0  0  0
 17 97  1  0  0  0
 18 19  2  0  0  0
 18 98  1  0  0  0
 19 20  1  0  0  0
 19 24  1  0  0  0
 20 21  2  0  0  0
 20 99  1  0  0  0
 21 23  1  0  0  0
 22 28  1  0  0  0
 22 32  2  0  0  0
 26 27  1  0  0  0
 28100  1  0  0  0
 28101  1  0  0  0
 29102  1  0  0  0
 29103  1  0  0  0
 33 34  1  0  0  0
 33 66  1  0  0  0
 33 70  2  0  0  0
 34 36  1  0  0  0
 34 59  1  0  0  0
 34104  1  0  0  0
 35 44  2  0  0  0
 35 45  1  0  0  0
 35 68  1  0  0  0
 36 56  1  0  0  0
 36105  1  0  0  0
 37 39  1  0  0  0
 37 47  1  0  0  0
 37 66  1  0  0  0
 37106  1  0  0  0
 38 43  2  0  0  0
 38 46  1  0  0  0
 38 47  1  0  0  0
 39 64  1  0  0  0
 39 67  2  0  0  0
 40 52  1  0  0  0
 40 53  2  0  0  0
 40 58  1  0  0  0
 41107  1  0  0  0
 41108  1  0  0  0
 41109  1  0  0  0
 41 48  1  0  0  0
 42 43  1  0  0  0
 42 66  1  0  0  0
 42110  1  0  0  0
 42111  1  0  0  0
 43 44  1  0  0  0
 44112  1  0  0  0
 45 46  2  0  0  0
 45113  1  0  0  0
 46114  1  0  0  0
 47115  1  0  0  0
 47116  1  0  0  0
 48 56  1  0  0  0
 48 65  1  0  0  0
 48117  1  0  0  0
 49 50  1  0  0  0
 49 53  1  0  0  0
 49 64  1  0  0  0
 49118  1  0  0  0
 50 51  1  0  0  0
 50119  1  0  0  0
 50120  1  0  0  0
 51 52  1  0  0  0
 51121  1  0  0  0
 51122  1  0  0  0
 52123  1  0  0  0
 52124  1  0  0  0
 53 54  1  0  0  0
 54 55  2  0  0  0
 54125  1  0  0  0
 55 57  1  0  0  0
 55126  1  0  0  0
 56 69  2  0  0  0
 57 58  2  0  0  0
 57127  1  0  0  0
 58128  1  0  0  0
 59 60  1  0  0  0
 59 61  1  0  0  0
 59 62  1  0  0  0
 60129  1  0  0  0
 60130  1  0  0  0
 60131  1  0  0  0
 61132  1  0  0  0
 61133  1  0  0  0
 61134  1  0  0  0
 62135  1  0  0  0
 62136  1  0  0  0
 62137  1  0  0  0
 63 65  1  0  0  0
 63138  1  0  0  0
 63139  1  0  0  0
 63140  1  0  0  0
 64141  1  0  0  0
 65142  1  0  0  0
 68 79  1  0  0  0
 71 72  1  0  0  0
 71 73  2  0  0  0
 71143  1  0  0  0
 72 74  2  0  0  0
 72144  1  0  0  0
 73 75  1  0  0  0
 73 83  1  0  0  0
 74 81  1  0  0  0
 74 83  1  0  0  0
 75 77  1  0  0  0
 75 80  2  0  0  0
 76 77  1  0  0  0
 76 78  1  0  0  0
 76 82  2  0  0  0
 77145  1  0  0  0
 77146  1  0  0  0
 78 79  1  0  0  0
 78147  1  0  0  0
 78148  1  0  0  0
 79149  1  0  0  0
 79150  1  0  0  0
 80151  1  0  0  0
 81152  1  0  0  0
M  ISO  4   1 100  68 101  79 101  81 100
M  END
> <chiral flag>
0

> <version>
0

> <s_m_source_file>
/data/baiqing/PycharmProjects/Reinvent-master-3.2/result/LINK_invent/BTK/process_docking_weight1_custom_product_contain_oxygen_bond_distance_aromatic_linkinvent_7_9_3/rearranged_h_0149.sdf

> <i_m_source_file_index>
63

> <r_mmod_Potential_Energy-OPLS-2005>
-62.7517890930176

> <r_mmod_Stretch_Energy-OPLS-2005>
43.2195205688477

> <r_mmod_Bend_Energy-OPLS-2005>
113.198883056641

> <r_mmod_Torsional_Energy-OPLS-2005>
241.590835571289

> <r_mmod_Improper_Torsional_Energy-OPLS-2005>
4.43120050430298

> <r_mmod_Van_der_Waal_Energy-OPLS-2005>
124.273750305176

> <r_mmod_Electrostatic_Energy-OPLS-2005>
-375.760314941406

> <r_mmod_Solvation_Energy-OPLS-2005>
-231.160247802734

> <b_mmod_Minimization_Converged-OPLS-2005>
0

> <r_mmod_RMS_Derivative-OPLS-2005>
1.35254621505737

$$$$
63
                    3D
 Structure written by MMmdl.
157166  0  0  1  0            999 V2000
  -30.6905  -14.5177   20.5390 C   0  0  0  0  0  0
  -30.4259  -12.3214   19.4408 C   0  0  0  0  0  0
  -29.5018  -12.4965   18.2167 C   0  0  0  0  0  0
  -28.0220  -12.3558   18.6255 C   0  0  0  0  0  0
  -27.6595  -13.2103   19.8697 C   0  0  2  0  0  0
  -28.7021  -13.0243   20.9972 C   0  0  0  0  0  0
  -25.2584  -13.8166   20.5682 C   0  0  0  0  0  0
  -24.1840  -13.0440   20.9183 C   0  0  0  0  0  0
  -24.6395  -11.6908   20.8734 C   0  0  0  0  0  0
  -23.9059  -10.4294   21.0403 C   0  0  0  0  0  0
  -24.3611   -9.4209   21.9183 C   0  0  0  0  0  0
  -23.6286   -8.2243   22.0752 C   0  0  0  0  0  0
  -22.4269   -8.0280   21.3542 C   0  0  0  0  0  0
  -21.9903   -9.0255   20.4646 C   0  0  0  0  0  0
  -22.7229  -10.2136   20.3054 C   0  0  0  0  0  0
  -21.6853   -6.0734   22.5276 C   0  0  0  0  0  0
  -21.4018   -6.5637   23.8211 C   0  0  0  0  0  0
  -21.3659   -5.6790   24.9172 C   0  0  0  0  0  0
  -21.6042   -4.3052   24.7221 C   0  0  0  0  0  0
  -21.8821   -3.8143   23.4343 C   0  0  0  0  0  0
  -21.9194   -4.6961   22.3400 C   0  0  0  0  0  0
  -22.7863  -13.5239   21.1843 C   0  0  0  0  0  0
  -22.1662   -4.2146   21.0976 F   0  0  0  0  0  0
  -21.5626   -3.4533   25.7735 F   0  0  0  0  0  0
  -30.0317  -13.3268   20.4423 N   0  0  0  0  0  0
  -26.3017  -12.9340   20.3342 N   0  0  0  0  0  0
  -25.9325  -11.6499   20.5763 N   0  0  0  0  0  0
  -22.0501  -12.8235   22.0401 N   0  0  0  0  0  0
  -25.4308  -15.1884   20.4083 N   0  0  0  0  0  0
  -31.8436  -14.6607   20.1216 O   0  0  0  0  0  0
  -21.6637   -6.8874   21.4236 O   0  0  0  0  0  0
  -22.3552  -14.5548   20.6690 O   0  0  0  0  0  0
  -24.6203  -31.8673   23.2119 C   0  0  0  0  0  0
  -25.9083  -32.4819   23.8413 C   0  0  1  0  0  0
  -27.2178  -27.3856   20.0925 C   0  0  0  0  0  0
  -25.5925  -33.8618   24.2335 N   0  0  0  0  0  0
  -23.4091  -30.4969   21.5539 C   0  0  2  0  0  0
  -24.8516  -28.9716   20.1095 C   0  0  0  0  0  0
  -22.7441  -29.4664   22.4966 C   0  0  0  0  0  0
  -18.0281  -28.1377   22.8492 C   0  0  0  0  0  0
  -24.1490  -36.7312   23.2637 C   0  0  0  0  0  0
  -25.9478  -30.8151   21.3788 C   0  0  0  0  0  0
  -26.0191  -29.4513   20.7164 C   0  0  0  0  0  0
  -27.2036  -28.6662   20.7091 C   0  0  0  0  0  0
  -26.0278  -26.9609   19.4457 C   0  0  0  0  0  0
  -24.8540  -27.7270   19.4701 C   0  0  0  0  0  0
  -23.6186  -29.8438   20.1647 C   0  0  0  0  0  0
  -25.4111  -36.3110   24.0337 C   0  0  1  0  0  0
  -20.5878  -28.3676   23.1296 C   0  0  2  0  0  0
  -20.6772  -26.9407   22.5407 C   0  0  0  0  0  0
  -19.5746  -26.6383   21.5211 C   0  0  0  0  0  0
  -18.1927  -26.7923   22.1627 C   0  0  0  0  0  0
  -19.1533  -28.8842   23.2892 C   0  0  0  0  0  0
  -18.9459  -30.1448   23.8903 C   0  0  0  0  0  0
  -17.6460  -30.6583   24.0565 C   0  0  0  0  0  0
  -25.9042  -34.9473   23.5130 C   0  0  0  0  0  0
  -16.5350  -29.9084   23.6326 C   0  0  0  0  0  0
  -16.7269  -28.6500   23.0348 C   0  0  0  0  0  0
  -26.4483  -31.6605   25.0756 C   0  0  0  0  0  0
  -25.3735  -31.3738   26.1497 C   0  0  0  0  0  0
  -27.0315  -30.3032   24.6180 C   0  0  0  0  0  0
  -27.6054  -32.4331   25.7511 C   0  0  0  0  0  0
  -27.5581  -37.1817   24.8466 C   0  0  0  0  0  0
  -21.4163  -29.3045   22.3700 N   0  0  0  0  0  0
  -26.4299  -37.3791   23.9402 N   0  0  0  0  0  0
  -24.6774  -31.0744   22.1048 N   0  0  0  0  0  0
  -23.4197  -28.8184   23.3004 O   0  0  0  0  0  0
  -28.3457  -26.5638   20.1494 O   0  0  0  0  0  0
  -26.5595  -34.8922   22.4686 O   0  0  0  0  0  0
  -23.5383  -32.1447   23.7482 O   0  0  0  0  0  0
  -29.2166  -17.8739   20.7463 C   0  0  0  0  0  0
  -29.9064  -19.0516   20.3025 C   0  0  0  0  0  0
  -30.1737  -16.8904   20.7410 C   0  0  0  0  0  0
  -28.7358  -22.7943   20.3245 C   0  0  0  0  0  0
  -29.1181  -24.0985   20.2688 C   0  0  0  0  0  0
  -30.5442  -24.5223   20.5748 C   0  0  0  0  0  0
  -31.3432  -23.3866   21.2495 C   0  0  0  0  0  0
  -31.0884  -22.0099   20.5945 C   0  0  0  0  0  0
  -29.3213  -20.4006   19.8606 C   0  0  0  0  0  0
  -28.1195  -25.1691   19.7972 C   0  0  0  0  0  0
  -31.2018  -18.7850   20.1408 N   0  0  0  0  0  0
  -29.9414  -15.5623   20.9620 N   0  0  0  0  0  0
  -29.6504  -21.6323   20.6530 N   0  3  2  0  0  0
  -31.3833  -17.4190   20.4157 O   0  0  0  0  0  0
  -31.4719  -12.4130   19.1429 H   0  0  0  0  0  0
  -30.3245  -11.3186   19.8584 H   0  0  0  0  0  0
  -29.7479  -11.7590   17.4514 H   0  0  0  0  0  0
  -29.6682  -13.4751   17.7638 H   0  0  0  0  0  0
  -27.8383  -11.3017   18.8358 H   0  0  0  0  0  0
  -27.3730  -12.6147   17.7878 H   0  0  0  0  0  0
  -27.6925  -14.2524   19.5510 H   0  0  0  0  0  0
  -28.6834  -11.9977   21.3662 H   0  0  0  0  0  0
  -28.4619  -13.6484   21.8591 H   0  0  0  0  0  0
  -25.2760   -9.5680   22.4754 H   0  0  0  0  0  0
  -23.9995   -7.4634   22.7471 H   0  0  0  0  0  0
  -21.0832   -8.8771   19.8957 H   0  0  0  0  0  0
  -22.3685  -10.9672   19.6160 H   0  0  0  0  0  0
  -21.2013   -7.6148   23.9715 H   0  0  0  0  0  0
  -21.1480   -6.0519   25.9076 H   0  0  0  0  0  0
  -22.0600   -2.7603   23.2848 H   0  0  0  0  0  0
  -22.4105  -11.9894   22.4795 H   0  0  0  0  0  0
  -21.1126  -13.1274   22.2614 H   0  0  0  0  0  0
  -24.6602  -15.8408   20.5051 H   0  0  0  0  0  0
  -26.2723  -15.6222   20.0512 H   0  0  0  0  0  0
  -26.7151  -32.5507   23.1168 H   0  0  0  0  0  0
  -25.0090  -33.9779   25.0491 H   0  0  0  0  0  0
  -22.7001  -31.3167   21.4202 H   0  0  0  0  0  0
  -23.3742  -35.9657   23.3323 H   0  0  0  0  0  0
  -24.3578  -36.8899   22.2045 H   0  0  0  0  0  0
  -23.7256  -37.6533   23.6631 H   0  0  0  0  0  0
  -26.0790  -31.5844   20.6166 H   0  0  0  0  0  0
  -26.8290  -30.8553   22.0071 H   0  0  0  0  0  0
  -28.0970  -29.0272   21.1996 H   0  0  0  0  0  0
  -25.9591  -26.0269   18.9091 H   0  0  0  0  0  0
  -23.9618  -27.3585   18.9824 H   0  0  0  0  0  0
  -23.7338  -30.6260   19.4136 H   0  0  0  0  0  0
  -22.7396  -29.2727   19.8606 H   0  0  0  0  0  0
  -25.1290  -36.1980   25.0831 H   0  0  0  0  0  0
  -20.9975  -28.3245   24.1414 H   0  0  0  0  0  0
  -20.5678  -26.2286   23.3600 H   0  0  0  0  0  0
  -21.6642  -26.7444   22.1199 H   0  0  0  0  0  0
  -19.6907  -25.6297   21.1232 H   0  0  0  0  0  0
  -19.6679  -27.3199   20.6746 H   0  0  0  0  0  0
  -17.4195  -26.6670   21.4029 H   0  0  0  0  0  0
  -18.0330  -26.0061   22.9021 H   0  0  0  0  0  0
  -19.7935  -30.7263   24.2275 H   0  0  0  0  0  0
  -17.5014  -31.6263   24.5167 H   0  0  0  0  0  0
  -15.5352  -30.2989   23.7644 H   0  0  0  0  0  0
  -15.8669  -28.0821   22.7059 H   0  0  0  0  0  0
  -24.5899  -30.7090   25.7840 H   0  0  0  0  0  0
  -24.8938  -32.2908   26.4934 H   0  0  0  0  0  0
  -25.8078  -30.8914   27.0264 H   0  0  0  0  0  0
  -26.2882  -29.6799   24.1195 H   0  0  0  0  0  0
  -27.4012  -29.7269   25.4671 H   0  0  0  0  0  0
  -27.8755  -30.4322   23.9399 H   0  0  0  0  0  0
  -27.2667  -33.3616   26.2119 H   0  0  0  0  0  0
  -28.3842  -32.6921   25.0325 H   0  0  0  0  0  0
  -28.0748  -31.8444   26.5402 H   0  0  0  0  0  0
  -28.2622  -38.0092   24.7490 H   0  0  0  0  0  0
  -28.1057  -36.2625   24.6326 H   0  0  0  0  0  0
  -27.2296  -37.1506   25.8869 H   0  0  0  0  0  0
  -20.9321  -29.8793   21.6946 H   0  0  0  0  0  0
  -26.0192  -38.2877   24.1381 H   0  0  0  0  0  0
  -28.1585  -17.7586   20.9349 H   0  0  0  0  0  0
  -27.7264  -22.4891   20.0850 H   0  0  0  0  0  0
  -30.5368  -25.4037   21.2178 H   0  0  0  0  0  0
  -31.0194  -24.8176   19.6381 H   0  0  0  0  0  0
  -31.0745  -23.3340   22.3058 H   0  0  0  0  0  0
  -32.4081  -23.6211   21.2226 H   0  0  0  0  0  0
  -31.6929  -21.2535   21.0953 H   0  0  0  0  0  0
  -31.4188  -22.0387   19.5551 H   0  0  0  0  0  0
  -28.2368  -20.2926   19.8526 H   0  0  0  0  0  0
  -29.5880  -20.5841   18.8193 H   0  0  0  0  0  0
  -27.1659  -24.8279   20.2040 H   0  0  0  0  0  0
  -28.0611  -25.0989   18.7098 H   0  0  0  0  0  0
  -29.0191  -15.3228   21.2842 H   0  0  0  0  0  0
  -29.4712  -21.3676   21.6095 H   0  0  0  0  0  0
  1 25  1  0  0  0
  1 30  2  0  0  0
  1 82  1  0  0  0
  2  3  1  0  0  0
  2 25  1  0  0  0
  2 85  1  0  0  0
  2 86  1  0  0  0
  3  4  1  0  0  0
  3 87  1  0  0  0
  3 88  1  0  0  0
  4  5  1  0  0  0
  4 89  1  0  0  0
  4 90  1  0  0  0
  5  6  1  0  0  0
  5 26  1  0  0  0
  5 91  1  0  0  0
  6 25  1  0  0  0
  6 92  1  0  0  0
  6 93  1  0  0  0
  7  8  2  0  0  0
  7 26  1  0  0  0
  7 29  1  0  0  0
  8  9  1  0  0  0
  8 22  1  0  0  0
  9 10  1  0  0  0
  9 27  2  0  0  0
 10 11  2  0  0  0
 10 15  1  0  0  0
 11 12  1  0  0  0
 11 94  1  0  0  0
 12 13  2  0  0  0
 12 95  1  0  0  0
 13 14  1  0  0  0
 13 31  1  0  0  0
 14 15  2  0  0  0
 14 96  1  0  0  0
 15 97  1  0  0  0
 16 17  2  0  0  0
 16 21  1  0  0  0
 16 31  1  0  0  0
 17 18  1  0  0  0
 17 98  1  0  0  0
 18 19  2  0  0  0
 18 99  1  0  0  0
 19 20  1  0  0  0
 19 24  1  0  0  0
 20 21  2  0  0  0
 20100  1  0  0  0
 21 23  1  0  0  0
 22 28  1  0  0  0
 22 32  2  0  0  0
 26 27  1  0  0  0
 28101  1  0  0  0
 28102  1  0  0  0
 29103  1  0  0  0
 29104  1  0  0  0
 33 34  1  0  0  0
 33 66  1  0  0  0
 33 70  2  0  0  0
 34 36  1  0  0  0
 34 59  1  0  0  0
 34105  1  0  0  0
 35 44  2  0  0  0
 35 45  1  0  0  0
 35 68  1  0  0  0
 36 56  1  0  0  0
 36106  1  0  0  0
 37 39  1  0  0  0
 37 47  1  0  0  0
 37 66  1  0  0  0
 37107  1  0  0  0
 38 43  2  0  0  0
 38 46  1  0  0  0
 38 47  1  0  0  0
 39 64  1  0  0  0
 39 67  2  0  0  0
 40 52  1  0  0  0
 40 53  2  0  0  0
 40 58  1  0  0  0
 41108  1  0  0  0
 41109  1  0  0  0
 41110  1  0  0  0
 41 48  1  0  0  0
 42 43  1  0  0  0
 42 66  1  0  0  0
 42111  1  0  0  0
 42112  1  0  0  0
 43 44  1  0  0  0
 44113  1  0  0  0
 45 46  2  0  0  0
 45114  1  0  0  0
 46115  1  0  0  0
 47116  1  0  0  0
 47117  1  0  0  0
 48 56  1  0  0  0
 48 65  1  0  0  0
 48118  1  0  0  0
 49 50  1  0  0  0
 49 53  1  0  0  0
 49 64  1  0  0  0
 49119  1  0  0  0
 50 51  1  0  0  0
 50120  1  0  0  0
 50121  1  0  0  0
 51 52  1  0  0  0
 51122  1  0  0  0
 51123  1  0  0  0
 52124  1  0  0  0
 52125  1  0  0  0
 53 54  1  0  0  0
 54 55  2  0  0  0
 54126  1  0  0  0
 55 57  1  0  0  0
 55127  1  0  0  0
 56 69  2  0  0  0
 57 58  2  0  0  0
 57128  1  0  0  0
 58129  1  0  0  0
 59 60  1  0  0  0
 59 61  1  0  0  0
 59 62  1  0  0  0
 60130  1  0  0  0
 60131  1  0  0  0
 60132  1  0  0  0
 61133  1  0  0  0
 61134  1  0  0  0
 61135  1  0  0  0
 62136  1  0  0  0
 62137  1  0  0  0
 62138  1  0  0  0
 63 65  1  0  0  0
 63139  1  0  0  0
 63140  1  0  0  0
 63141  1  0  0  0
 64142  1  0  0  0
 65143  1  0  0  0
 68 80  1  0  0  0
 71 72  1  0  0  0
 71 73  2  0  0  0
 71144  1  0  0  0
 72 79  1  0  0  0
 72 81  2  0  0  0
 73 82  1  0  0  0
 73 84  1  0  0  0
 74 75  2  0  0  0
 74 83  1  0  0  0
 74145  1  0  0  0
 75 76  1  0  0  0
 75 80  1  0  0  0
 76 77  1  0  0  0
 76146  1  0  0  0
 76147  1  0  0  0
 77 78  1  0  0  0
 77148  1  0  0  0
 77149  1  0  0  0
 78 83  1  0  0  0
 78150  1  0  0  0
 78151  1  0  0  0
 79152  1  0  0  0
 79153  1  0  0  0
 79 83  1  0  0  0
 80154  1  0  0  0
 80155  1  0  0  0
 81 84  1  0  0  0
 82156  1  0  0  0
 83157  1  0  0  0
M  CHG  1  83   1
M  ISO  4   1 100  68 101  80 101  82 100
M  END
> <chiral flag>
0

> <version>
0

> <s_m_source_file>
/data/baiqing/PycharmProjects/Reinvent-master-3.2/result/LINK_invent/BTK/process_docking_weight1_custom_product_contain_oxygen_bond_distance_aromatic_linkinvent_7_9_3/rearranged_h_0149.sdf

> <i_m_source_file_index>
64

> <r_mmod_Potential_Energy-OPLS-2005>
-275.112243652344

> <r_mmod_Stretch_Energy-OPLS-2005>
46.640266418457

> <r_mmod_Bend_Energy-OPLS-2005>
121.137878417969

> <r_mmod_Torsional_Energy-OPLS-2005>
215.753677368164

> <r_mmod_Improper_Torsional_Energy-OPLS-2005>
5.31203413009644

> <r_mmod_Van_der_Waal_Energy-OPLS-2005>
148.333847045898

> <r_mmod_Electrostatic_Energy-OPLS-2005>
-346.787384033203

> <r_mmod_Solvation_Energy-OPLS-2005>
-490.089813232422

> <b_mmod_Minimization_Converged-OPLS-2005>
0

> <r_mmod_RMS_Derivative-OPLS-2005>
0.642561674118042

$$$$
64
                    3D
 Structure written by MMmdl.
161170  0  0  1  0            999 V2000
  -30.6533  -14.5716   20.5339 C   0  0  0  0  0  0
  -30.4375  -12.3542   19.4509 C   0  0  0  0  0  0
  -29.5110  -12.5022   18.2237 C   0  0  0  0  0  0
  -28.0296  -12.3564   18.6286 C   0  0  0  0  0  0
  -27.6607  -13.2102   19.8727 C   0  0  2  0  0  0
  -28.7029  -13.0289   21.0001 C   0  0  0  0  0  0
  -25.2606  -13.8171   20.5734 C   0  0  0  0  0  0
  -24.1845  -13.0441   20.9176 C   0  0  0  0  0  0
  -24.6406  -11.6906   20.8735 C   0  0  0  0  0  0
  -23.9065  -10.4293   21.0419 C   0  0  0  0  0  0
  -24.3611   -9.4196   21.9183 C   0  0  0  0  0  0
  -23.6286   -8.2238   22.0750 C   0  0  0  0  0  0
  -22.4272   -8.0274   21.3530 C   0  0  0  0  0  0
  -21.9910   -9.0258   20.4649 C   0  0  0  0  0  0
  -22.7237  -10.2136   20.3066 C   0  0  0  0  0  0
  -21.6848   -6.0731   22.5271 C   0  0  0  0  0  0
  -21.4017   -6.5648   23.8209 C   0  0  0  0  0  0
  -21.3657   -5.6786   24.9157 C   0  0  0  0  0  0
  -21.6045   -4.3052   24.7216 C   0  0  0  0  0  0
  -21.8822   -3.8140   23.4335 C   0  0  0  0  0  0
  -21.9196   -4.6963   22.3399 C   0  0  0  0  0  0
  -22.7872  -13.5236   21.1829 C   0  0  0  0  0  0
  -22.1668   -4.2149   21.0976 F   0  0  0  0  0  0
  -21.5617   -3.4534   25.7727 F   0  0  0  0  0  0
  -30.0291  -13.3577   20.4502 N   0  0  0  0  0  0
  -26.3024  -12.9338   20.3357 N   0  0  0  0  0  0
  -25.9328  -11.6500   20.5751 N   0  0  0  0  0  0
  -22.0503  -12.8256   22.0400 N   0  0  0  0  0  0
  -25.4355  -15.1894   20.4248 N   0  0  0  0  0  0
  -31.7856  -14.7625   20.0815 O   0  0  0  0  0  0
  -21.6631   -6.8876   21.4234 O   0  0  0  0  0  0
  -22.3572  -14.5538   20.6660 O   0  0  0  0  0  0
  -24.6210  -31.8617   23.2036 C   0  0  0  0  0  0
  -25.9081  -32.4776   23.8352 C   0  0  1  0  0  0
  -27.2446  -27.3764   20.0950 C   0  0  0  0  0  0
  -25.5922  -33.8578   24.2280 N   0  0  0  0  0  0
  -23.4118  -30.4845   21.5436 C   0  0  2  0  0  0
  -24.8600  -28.9401   20.1116 C   0  0  0  0  0  0
  -22.7435  -29.4637   22.4932 C   0  0  0  0  0  0
  -18.0283  -28.1381   22.8479 C   0  0  0  0  0  0
  -24.1488  -36.7309   23.2632 C   0  0  0  0  0  0
  -25.9459  -30.8100   21.3637 C   0  0  0  0  0  0
  -26.0216  -29.4388   20.7108 C   0  0  0  0  0  0
  -27.2110  -28.6641   20.6993 C   0  0  0  0  0  0
  -26.0531  -26.8999   19.5018 C   0  0  0  0  0  0
  -24.8734  -27.6721   19.5055 C   0  0  0  0  0  0
  -23.6243  -29.8142   20.1594 C   0  0  0  0  0  0
  -25.4107  -36.3078   24.0324 C   0  0  1  0  0  0
  -20.5874  -28.3681   23.1280 C   0  0  2  0  0  0
  -20.6763  -26.9406   22.5405 C   0  0  0  0  0  0
  -19.5748  -26.6378   21.5201 C   0  0  0  0  0  0
  -18.1930  -26.7917   22.1619 C   0  0  0  0  0  0
  -19.1530  -28.8848   23.2880 C   0  0  0  0  0  0
  -18.9464  -30.1448   23.8897 C   0  0  0  0  0  0
  -17.6464  -30.6586   24.0567 C   0  0  0  0  0  0
  -25.9045  -34.9448   23.5100 C   0  0  0  0  0  0
  -16.5353  -29.9088   23.6324 C   0  0  0  0  0  0
  -16.7272  -28.6508   23.0340 C   0  0  0  0  0  0
  -26.4490  -31.6573   25.0699 C   0  0  0  0  0  0
  -25.3760  -31.3748   26.1467 C   0  0  0  0  0  0
  -27.0300  -30.2989   24.6116 C   0  0  0  0  0  0
  -27.6068  -32.4293   25.7452 C   0  0  0  0  0  0
  -27.5586  -37.1787   24.8449 C   0  0  0  0  0  0
  -21.4157  -29.3045   22.3679 N   0  0  0  0  0  0
  -26.4280  -37.3777   23.9425 N   0  0  0  0  0  0
  -24.6781  -31.0673   22.0957 N   0  0  0  0  0  0
  -23.4184  -28.8186   23.3001 O   0  0  0  0  0  0
  -28.4244  -26.6355   20.1423 O   0  0  0  0  0  0
  -26.5609  -34.8915   22.4662 O   0  0  0  0  0  0
  -23.5388  -32.1390   23.7397 O   0  0  0  0  0  0
  -30.4379  -18.1126   20.7987 C   0  0  0  0  0  0
  -28.7026  -17.2257   19.6592 C   0  0  0  0  0  0
  -29.7212  -16.9027   20.5103 C   0  0  0  0  0  0
  -29.8438  -19.1536   20.1000 C   0  0  0  0  0  0
  -30.2144  -20.5516   19.8164 C   0  0  0  0  0  0
  -27.6459  -23.1893   20.4941 C   0  0  0  0  0  0
  -28.2332  -21.7971   20.8467 C   0  0  0  0  0  0
  -29.8607  -23.0583   19.6097 C   0  0  0  0  0  0
  -28.8708  -24.0846   20.2405 C   0  0  1  0  0  0
  -27.9596  -19.2670   18.4041 C   0  0  0  0  0  0
  -28.6300  -25.3985   19.3993 C   0  0  0  0  0  0
  -28.7997  -18.5829   19.3710 N   0  0  0  0  0  0
  -29.4931  -21.6954   20.0920 N   0  0  0  0  0  0
  -29.9106  -15.5813   21.0601 N   0  0  0  0  0  0
  -31.3867  -20.6817   19.1772 N   0  3  0  0  0  0
  -31.4807  -12.4687   19.1537 H   0  0  0  0  0  0
  -30.3559  -11.3526   19.8770 H   0  0  0  0  0  0
  -29.7691  -11.7560   17.4706 H   0  0  0  0  0  0
  -29.6697  -13.4754   17.7536 H   0  0  0  0  0  0
  -27.8494  -11.3008   18.8395 H   0  0  0  0  0  0
  -27.3831  -12.6140   17.7894 H   0  0  0  0  0  0
  -27.6899  -14.2516   19.5551 H   0  0  0  0  0  0
  -28.6967  -11.9995   21.3632 H   0  0  0  0  0  0
  -28.4494  -13.6444   21.8640 H   0  0  0  0  0  0
  -25.2769   -9.5651   22.4754 H   0  0  0  0  0  0
  -23.9979   -7.4629   22.7477 H   0  0  0  0  0  0
  -21.0835   -8.8788   19.8967 H   0  0  0  0  0  0
  -22.3704  -10.9681   19.6177 H   0  0  0  0  0  0
  -21.2021   -7.6153   23.9722 H   0  0  0  0  0  0
  -21.1474   -6.0508   25.9066 H   0  0  0  0  0  0
  -22.0610   -2.7604   23.2836 H   0  0  0  0  0  0
  -22.4096  -11.9909   22.4791 H   0  0  0  0  0  0
  -21.1125  -13.1315   22.2619 H   0  0  0  0  0  0
  -24.6786  -15.8494   20.5651 H   0  0  0  0  0  0
  -26.3074  -15.6336   20.1742 H   0  0  0  0  0  0
  -26.7149  -32.5467   23.1112 H   0  0  0  0  0  0
  -25.0069  -33.9726   25.0421 H   0  0  0  0  0  0
  -22.7040  -31.3036   21.3990 H   0  0  0  0  0  0
  -23.3736  -35.9650   23.3248 H   0  0  0  0  0  0
  -24.3606  -36.8977   22.2061 H   0  0  0  0  0  0
  -23.7239  -37.6496   23.6686 H   0  0  0  0  0  0
  -26.0620  -31.5730   20.5924 H   0  0  0  0  0  0
  -26.8332  -30.8660   21.9829 H   0  0  0  0  0  0
  -28.1069  -29.0482   21.1667 H   0  0  0  0  0  0
  -25.9975  -25.9220   19.0496 H   0  0  0  0  0  0
  -23.9764  -27.2758   19.0497 H   0  0  0  0  0  0
  -23.7384  -30.5889   19.4002 H   0  0  0  0  0  0
  -22.7462  -29.2398   19.8596 H   0  0  0  0  0  0
  -25.1274  -36.1923   25.0810 H   0  0  0  0  0  0
  -20.9976  -28.3266   24.1397 H   0  0  0  0  0  0
  -20.5651  -26.2301   23.3607 H   0  0  0  0  0  0
  -21.6636  -26.7429   22.1215 H   0  0  0  0  0  0
  -19.6913  -25.6291   21.1227 H   0  0  0  0  0  0
  -19.6684  -27.3187   20.6733 H   0  0  0  0  0  0
  -17.4191  -26.6654   21.4031 H   0  0  0  0  0  0
  -18.0347  -26.0063   22.9026 H   0  0  0  0  0  0
  -19.7946  -30.7260   24.2267 H   0  0  0  0  0  0
  -17.5025  -31.6262   24.5176 H   0  0  0  0  0  0
  -15.5356  -30.3001   23.7646 H   0  0  0  0  0  0
  -15.8669  -28.0840   22.7035 H   0  0  0  0  0  0
  -24.5857  -30.7172   25.7830 H   0  0  0  0  0  0
  -24.9055  -32.2947   26.4951 H   0  0  0  0  0  0
  -25.8109  -30.8874   27.0200 H   0  0  0  0  0  0
  -26.2839  -29.6735   24.1191 H   0  0  0  0  0  0
  -27.4058  -29.7251   25.4598 H   0  0  0  0  0  0
  -27.8689  -30.4265   23.9267 H   0  0  0  0  0  0
  -27.2691  -33.3598   26.2028 H   0  0  0  0  0  0
  -28.3884  -32.6836   25.0280 H   0  0  0  0  0  0
  -28.0715  -31.8403   26.5369 H   0  0  0  0  0  0
  -28.2556  -38.0126   24.7542 H   0  0  0  0  0  0
  -28.1118  -36.2660   24.6192 H   0  0  0  0  0  0
  -27.2319  -37.1338   25.8849 H   0  0  0  0  0  0
  -20.9319  -29.8792   21.6919 H   0  0  0  0  0  0
  -26.0144  -38.2833   24.1473 H   0  0  0  0  0  0
  -31.3086  -18.2164   21.4314 H   0  0  0  0  0  0
  -27.9383  -16.6198   19.1929 H   0  0  0  0  0  0
  -27.0245  -23.5868   21.2969 H   0  0  0  0  0  0
  -27.0216  -23.1134   19.6025 H   0  0  0  0  0  0
  -27.5417  -20.9891   20.6172 H   0  0  0  0  0  0
  -28.4681  -21.7405   21.9099 H   0  0  0  0  0  0
  -30.8891  -23.3041   19.8770 H   0  0  0  0  0  0
  -29.7881  -23.0664   18.5220 H   0  0  0  0  0  0
  -29.2945  -24.3846   21.1999 H   0  0  0  0  0  0
  -27.7278  -18.5973   17.5737 H   0  0  0  0  0  0
  -28.4688  -20.1450   18.0043 H   0  0  0  0  0  0
  -27.0246  -19.5729   18.8734 H   0  0  0  0  0  0
  -27.9070  -25.2279   18.6045 H   0  0  0  0  0  0
  -29.5560  -25.5865   18.8542 H   0  0  0  0  0  0
  -29.0853  -15.2058   21.5006 H   0  0  0  0  0  0
  -31.8972  -19.8527   18.9126 H   0  0  0  0  0  0
  -31.7688  -21.5756   18.9143 H   0  0  0  0  0  0
  1 25  1  0  0  0
  1 30  2  0  0  0
  1 84  1  0  0  0
  2  3  1  0  0  0
  2 25  1  0  0  0
  2 86  1  0  0  0
  2 87  1  0  0  0
  3  4  1  0  0  0
  3 88  1  0  0  0
  3 89  1  0  0  0
  4  5  1  0  0  0
  4 90  1  0  0  0
  4 91  1  0  0  0
  5  6  1  0  0  0
  5 26  1  0  0  0
  5 92  1  0  0  0
  6 25  1  0  0  0
  6 93  1  0  0  0
  6 94  1  0  0  0
  7  8  2  0  0  0
  7 26  1  0  0  0
  7 29  1  0  0  0
  8  9  1  0  0  0
  8 22  1  0  0  0
  9 10  1  0  0  0
  9 27  2  0  0  0
 10 11  2  0  0  0
 10 15  1  0  0  0
 11 12  1  0  0  0
 11 95  1  0  0  0
 12 13  2  0  0  0
 12 96  1  0  0  0
 13 14  1  0  0  0
 13 31  1  0  0  0
 14 15  2  0  0  0
 14 97  1  0  0  0
 15 98  1  0  0  0
 16 17  2  0  0  0
 16 21  1  0  0  0
 16 31  1  0  0  0
 17 18  1  0  0  0
 17 99  1  0  0  0
 18 19  2  0  0  0
 18100  1  0  0  0
 19 20  1  0  0  0
 19 24  1  0  0  0
 20 21  2  0  0  0
 20101  1  0  0  0
 21 23  1  0  0  0
 22 28  1  0  0  0
 22 32  2  0  0  0
 26 27  1  0  0  0
 28102  1  0  0  0
 28103  1  0  0  0
 29104  1  0  0  0
 29105  1  0  0  0
 33 34  1  0  0  0
 33 66  1  0  0  0
 33 70  2  0  0  0
 34 36  1  0  0  0
 34 59  1  0  0  0
 34106  1  0  0  0
 35 44  2  0  0  0
 35 45  1  0  0  0
 35 68  1  0  0  0
 36 56  1  0  0  0
 36107  1  0  0  0
 37 39  1  0  0  0
 37 47  1  0  0  0
 37 66  1  0  0  0
 37108  1  0  0  0
 38 43  2  0  0  0
 38 46  1  0  0  0
 38 47  1  0  0  0
 39 64  1  0  0  0
 39 67  2  0  0  0
 40 52  1  0  0  0
 40 53  2  0  0  0
 40 58  1  0  0  0
 41109  1  0  0  0
 41110  1  0  0  0
 41111  1  0  0  0
 41 48  1  0  0  0
 42 43  1  0  0  0
 42 66  1  0  0  0
 42112  1  0  0  0
 42113  1  0  0  0
 43 44  1  0  0  0
 44114  1  0  0  0
 45 46  2  0  0  0
 45115  1  0  0  0
 46116  1  0  0  0
 47117  1  0  0  0
 47118  1  0  0  0
 48 56  1  0  0  0
 48 65  1  0  0  0
 48119  1  0  0  0
 49 50  1  0  0  0
 49 53  1  0  0  0
 49 64  1  0  0  0
 49120  1  0  0  0
 50 51  1  0  0  0
 50121  1  0  0  0
 50122  1  0  0  0
 51 52  1  0  0  0
 51123  1  0  0  0
 51124  1  0  0  0
 52125  1  0  0  0
 52126  1  0  0  0
 53 54  1  0  0  0
 54 55  2  0  0  0
 54127  1  0  0  0
 55 57  1  0  0  0
 55128  1  0  0  0
 56 69  2  0  0  0
 57 58  2  0  0  0
 57129  1  0  0  0
 58130  1  0  0  0
 59 60  1  0  0  0
 59 61  1  0  0  0
 59 62  1  0  0  0
 60131  1  0  0  0
 60132  1  0  0  0
 60133  1  0  0  0
 61134  1  0  0  0
 61135  1  0  0  0
 61136  1  0  0  0
 62137  1  0  0  0
 62138  1  0  0  0
 62139  1  0  0  0
 63 65  1  0  0  0
 63140  1  0  0  0
 63141  1  0  0  0
 63142  1  0  0  0
 64143  1  0  0  0
 65144  1  0  0  0
 68 81  1  0  0  0
 71 73  1  0  0  0
 71 74  2  0  0  0
 71145  1  0  0  0
 72 73  2  0  0  0
 72 82  1  0  0  0
 72146  1  0  0  0
 73 84  1  0  0  0
 74 75  1  0  0  0
 74 82  1  0  0  0
 75 83  1  0  0  0
 75 85  2  0  0  0
 76 77  1  0  0  0
 76 79  1  0  0  0
 76147  1  0  0  0
 76148  1  0  0  0
 77 83  1  0  0  0
 77149  1  0  0  0
 77150  1  0  0  0
 78 79  1  0  0  0
 78 83  1  0  0  0
 78151  1  0  0  0
 78152  1  0  0  0
 79 81  1  0  0  0
 79153  1  0  0  0
 80 82  1  0  0  0
 80154  1  0  0  0
 80155  1  0  0  0
 80156  1  0  0  0
 81157  1  0  0  0
 81158  1  0  0  0
 84159  1  0  0  0
 85160  1  0  0  0
 85161  1  0  0  0
M  CHG  1  85   1
M  ISO  4   1 100  68 101  81 101  84 100
M  END
> <chiral flag>
0

> <version>
0

> <s_m_source_file>
/data/baiqing/PycharmProjects/Reinvent-master-3.2/result/LINK_invent/BTK/process_docking_weight1_custom_product_contain_oxygen_bond_distance_aromatic_linkinvent_7_9_3/rearranged_h_0149.sdf

> <i_m_source_file_index>
65

> <r_mmod_Potential_Energy-OPLS-2005>
11.2018394470215

> <r_mmod_Stretch_Energy-OPLS-2005>
53.6353073120117

> <r_mmod_Bend_Energy-OPLS-2005>
170.900665283203

> <r_mmod_Torsional_Energy-OPLS-2005>
329.658203125

> <r_mmod_Improper_Torsional_Energy-OPLS-2005>
6.98246240615845

> <r_mmod_Van_der_Waal_Energy-OPLS-2005>
112.451522827148

> <r_mmod_Electrostatic_Energy-OPLS-2005>
-237.57389831543

> <r_mmod_Solvation_Energy-OPLS-2005>
-451.524169921875

> <b_mmod_Minimization_Converged-OPLS-2005>
0

> <r_mmod_RMS_Derivative-OPLS-2005>
2.54934406280518

$$$$
65
                    3D
 Structure written by MMmdl.
151159  0  0  1  0            999 V2000
  -30.5707  -14.7181   20.5063 C   0  0  0  0  0  0
  -30.4539  -12.4450   19.4595 C   0  0  0  0  0  0
  -29.5159  -12.5243   18.2318 C   0  0  0  0  0  0
  -28.0400  -12.3451   18.6432 C   0  0  0  0  0  0
  -27.6549  -13.2176   19.8667 C   0  0  2  0  0  0
  -28.7006  -13.0767   20.9959 C   0  0  0  0  0  0
  -25.2562  -13.8161   20.5667 C   0  0  0  0  0  0
  -24.1833  -13.0431   20.9190 C   0  0  0  0  0  0
  -24.6405  -11.6903   20.8743 C   0  0  0  0  0  0
  -23.9070  -10.4289   21.0408 C   0  0  0  0  0  0
  -24.3619   -9.4203   21.9185 C   0  0  0  0  0  0
  -23.6291   -8.2241   22.0755 C   0  0  0  0  0  0
  -22.4273   -8.0281   21.3545 C   0  0  0  0  0  0
  -21.9911   -9.0256   20.4648 C   0  0  0  0  0  0
  -22.7242  -10.2133   20.3058 C   0  0  0  0  0  0
  -21.6852   -6.0735   22.5279 C   0  0  0  0  0  0
  -21.4015   -6.5640   23.8212 C   0  0  0  0  0  0
  -21.3658   -5.6793   24.9174 C   0  0  0  0  0  0
  -21.6044   -4.3056   24.7225 C   0  0  0  0  0  0
  -21.8819   -3.8147   23.4347 C   0  0  0  0  0  0
  -21.9192   -4.6963   22.3402 C   0  0  0  0  0  0
  -22.7855  -13.5227   21.1852 C   0  0  0  0  0  0
  -22.1660   -4.2149   21.0980 F   0  0  0  0  0  0
  -21.5628   -3.4539   25.7738 F   0  0  0  0  0  0
  -30.0096  -13.4617   20.4382 N   0  0  0  0  0  0
  -26.3000  -12.9345   20.3329 N   0  0  0  0  0  0
  -25.9337  -11.6501   20.5767 N   0  0  0  0  0  0
  -22.0498  -12.8222   22.0411 N   0  0  0  0  0  0
  -25.4255  -15.1876   20.4031 N   0  0  0  0  0  0
  -31.7141  -14.9257   20.0858 O   0  0  0  0  0  0
  -21.6638   -6.8878   21.4241 O   0  0  0  0  0  0
  -22.3539  -14.5532   20.6698 O   0  0  0  0  0  0
  -24.6305  -31.8560   23.1992 C   0  0  0  0  0  0
  -25.9132  -32.4761   23.8337 C   0  0  1  0  0  0
  -27.2248  -27.2734   20.1303 C   0  0  0  0  0  0
  -25.5929  -33.8563   24.2260 N   0  0  0  0  0  0
  -23.4275  -30.4782   21.5425 C   0  0  2  0  0  0
  -24.8767  -28.9264   20.1126 C   0  0  0  0  0  0
  -22.7501  -29.4603   22.4918 C   0  0  0  0  0  0
  -18.0292  -28.1388   22.8485 C   0  0  0  0  0  0
  -24.1490  -36.7287   23.2640 C   0  0  0  0  0  0
  -25.9729  -30.7725   21.3784 C   0  0  0  0  0  0
  -26.0481  -29.3955   20.7217 C   0  0  0  0  0  0
  -27.2270  -28.5825   20.7180 C   0  0  0  0  0  0
  -26.0340  -26.8751   19.4832 C   0  0  0  0  0  0
  -24.8744  -27.6735   19.4818 C   0  0  0  0  0  0
  -23.6464  -29.8116   20.1592 C   0  0  0  0  0  0
  -25.4116  -36.3073   24.0326 C   0  0  1  0  0  0
  -20.5895  -28.3697   23.1272 C   0  0  2  0  0  0
  -20.6780  -26.9415   22.5409 C   0  0  0  0  0  0
  -19.5755  -26.6384   21.5213 C   0  0  0  0  0  0
  -18.1935  -26.7929   22.1626 C   0  0  0  0  0  0
  -19.1545  -28.8860   23.2873 C   0  0  0  0  0  0
  -18.9465  -30.1460   23.8891 C   0  0  0  0  0  0
  -17.6464  -30.6589   24.0562 C   0  0  0  0  0  0
  -25.9055  -34.9443   23.5096 C   0  0  0  0  0  0
  -16.5355  -29.9085   23.6331 C   0  0  0  0  0  0
  -16.7278  -28.6503   23.0352 C   0  0  0  0  0  0
  -26.4501  -31.6584   25.0724 C   0  0  0  0  0  0
  -25.3723  -31.3733   26.1442 C   0  0  0  0  0  0
  -27.0352  -30.3001   24.6209 C   0  0  0  0  0  0
  -27.6052  -32.4327   25.7500 C   0  0  0  0  0  0
  -27.5578  -37.1801   24.8466 C   0  0  0  0  0  0
  -21.4209  -29.3045   22.3662 N   0  0  0  0  0  0
  -26.4293  -37.3770   23.9405 N   0  0  0  0  0  0
  -24.6959  -31.0531   22.0965 N   0  0  0  0  0  0
  -23.4203  -28.8142   23.3015 O   0  0  0  0  0  0
  -28.3137  -26.3744   20.1619 O   0  0  0  0  0  0
  -26.5627  -34.8916   22.4665 O   0  0  0  0  0  0
  -23.5456  -32.1376   23.7291 O   0  0  0  0  0  0
  -28.6419  -19.2220   21.5556 C   0  0  0  0  0  0
  -28.7190  -17.7895   21.7549 C   0  0  0  0  0  0
  -29.4787  -19.7435   20.6001 C   0  0  0  0  0  0
  -29.6251  -17.1080   20.9573 C   0  0  0  0  0  0
  -29.0064  -23.7747   20.1560 C   0  0  0  0  0  0
  -27.8516  -17.0951   22.7658 C   0  0  0  0  0  0
  -28.7282  -22.2699   20.6435 C   0  0  0  0  0  0
  -28.0102  -24.9573   20.5696 C   0  0  0  0  0  0
  -29.7335  -15.7070   20.9792 N   0  0  0  0  0  0
  -29.6128  -21.1256   20.1769 N   0  0  0  0  0  0
  -29.9948  -24.0056   19.4505 O   0  0  0  0  0  0
  -30.4241  -18.3555   19.9435 S   0  0  0  0  0  0
  -31.4896  -12.6017   19.1531 H   0  0  0  0  0  0
  -30.4222  -11.4500   19.9060 H   0  0  0  0  0  0
  -29.7931  -11.7683   17.4959 H   0  0  0  0  0  0
  -29.6410  -13.4896   17.7385 H   0  0  0  0  0  0
  -27.8887  -11.2916   18.8809 H   0  0  0  0  0  0
  -27.3827  -12.5634   17.8007 H   0  0  0  0  0  0
  -27.6698  -14.2524   19.5239 H   0  0  0  0  0  0
  -28.7336  -12.0485   21.3594 H   0  0  0  0  0  0
  -28.4267  -13.6816   21.8615 H   0  0  0  0  0  0
  -25.2765   -9.5676   22.4758 H   0  0  0  0  0  0
  -23.9999   -7.4631   22.7474 H   0  0  0  0  0  0
  -21.0842   -8.8777   19.8954 H   0  0  0  0  0  0
  -22.3703  -10.9673   19.6167 H   0  0  0  0  0  0
  -21.2008   -7.6148   23.9715 H   0  0  0  0  0  0
  -21.1481   -6.0524   25.9076 H   0  0  0  0  0  0
  -22.0599   -2.7610   23.2847 H   0  0  0  0  0  0
  -22.4114  -11.9882   22.4796 H   0  0  0  0  0  0
  -21.1118  -13.1250   22.2620 H   0  0  0  0  0  0
  -24.6525  -15.8371   20.4974 H   0  0  0  0  0  0
  -26.2655  -15.6233   20.0444 H   0  0  0  0  0  0
  -26.7200  -32.5418   23.1081 H   0  0  0  0  0  0
  -25.0069  -33.9701   25.0401 H   0  0  0  0  0  0
  -22.7235  -31.3000   21.3961 H   0  0  0  0  0  0
  -23.3750  -35.9622   23.3306 H   0  0  0  0  0  0
  -24.3577  -36.8906   22.2053 H   0  0  0  0  0  0
  -23.7247  -37.6491   23.6662 H   0  0  0  0  0  0
  -26.1100  -31.5332   20.6086 H   0  0  0  0  0  0
  -26.8508  -30.8225   22.0109 H   0  0  0  0  0  0
  -28.1240  -28.9373   21.2060 H   0  0  0  0  0  0
  -25.9821  -25.9259   18.9707 H   0  0  0  0  0  0
  -23.9811  -27.3126   18.9906 H   0  0  0  0  0  0
  -23.7702  -30.5875   19.4029 H   0  0  0  0  0  0
  -22.7655  -29.2437   19.8543 H   0  0  0  0  0  0
  -25.1300  -36.1922   25.0819 H   0  0  0  0  0  0
  -20.9987  -28.3275   24.1392 H   0  0  0  0  0  0
  -20.5681  -26.2307   23.3613 H   0  0  0  0  0  0
  -21.6647  -26.7441   22.1201 H   0  0  0  0  0  0
  -19.6916  -25.6294   21.1246 H   0  0  0  0  0  0
  -19.6692  -27.3192   20.6741 H   0  0  0  0  0  0
  -17.4204  -26.6674   21.4030 H   0  0  0  0  0  0
  -18.0338  -26.0074   22.9025 H   0  0  0  0  0  0
  -19.7941  -30.7279   24.2258 H   0  0  0  0  0  0
  -17.5018  -31.6268   24.5165 H   0  0  0  0  0  0
  -15.5356  -30.2985   23.7659 H   0  0  0  0  0  0
  -15.8679  -28.0821   22.7069 H   0  0  0  0  0  0
  -24.5903  -30.7076   25.7769 H   0  0  0  0  0  0
  -24.8907  -32.2902   26.4850 H   0  0  0  0  0  0
  -25.8037  -30.8922   27.0229 H   0  0  0  0  0  0
  -26.2940  -29.6746   24.1221 H   0  0  0  0  0  0
  -27.4023  -29.7266   25.4730 H   0  0  0  0  0  0
  -27.8820  -30.4278   23.9461 H   0  0  0  0  0  0
  -27.2655  -33.3630   26.2065 H   0  0  0  0  0  0
  -28.3869  -32.6883   25.0335 H   0  0  0  0  0  0
  -28.0712  -31.8461   26.5427 H   0  0  0  0  0  0
  -28.2600  -38.0093   24.7502 H   0  0  0  0  0  0
  -28.1069  -36.2623   24.6308 H   0  0  0  0  0  0
  -27.2293  -37.1469   25.8869 H   0  0  0  0  0  0
  -20.9395  -29.8767   21.6866 H   0  0  0  0  0  0
  -26.0173  -38.2846   24.1398 H   0  0  0  0  0  0
  -27.9534  -19.8211   22.1342 H   0  0  0  0  0  0
  -27.2501  -17.8026   23.3369 H   0  0  0  0  0  0
  -28.4506  -16.5318   23.4818 H   0  0  0  0  0  0
  -27.1624  -16.3984   22.2897 H   0  0  0  0  0  0
  -27.7000  -22.0338   20.3669 H   0  0  0  0  0  0
  -28.7438  -22.2859   21.7338 H   0  0  0  0  0  0
  -27.9418  -24.9469   21.6574 H   0  0  0  0  0  0
  -27.0270  -24.6516   20.2191 H   0  0  0  0  0  0
  -28.9270  -15.2748   21.4020 H   0  0  0  0  0  0
  -30.2782  -21.3852   19.4499 H   0  0  0  0  0  0
  1 25  1  0  0  0
  1 30  2  0  0  0
  1 79  1  0  0  0
  2  3  1  0  0  0
  2 25  1  0  0  0
  2 83  1  0  0  0
  2 84  1  0  0  0
  3  4  1  0  0  0
  3 85  1  0  0  0
  3 86  1  0  0  0
  4  5  1  0  0  0
  4 87  1  0  0  0
  4 88  1  0  0  0
  5  6  1  0  0  0
  5 26  1  0  0  0
  5 89  1  0  0  0
  6 25  1  0  0  0
  6 90  1  0  0  0
  6 91  1  0  0  0
  7  8  2  0  0  0
  7 26  1  0  0  0
  7 29  1  0  0  0
  8  9  1  0  0  0
  8 22  1  0  0  0
  9 10  1  0  0  0
  9 27  2  0  0  0
 10 11  2  0  0  0
 10 15  1  0  0  0
 11 12  1  0  0  0
 11 92  1  0  0  0
 12 13  2  0  0  0
 12 93  1  0  0  0
 13 14  1  0  0  0
 13 31  1  0  0  0
 14 15  2  0  0  0
 14 94  1  0  0  0
 15 95  1  0  0  0
 16 17  2  0  0  0
 16 21  1  0  0  0
 16 31  1  0  0  0
 17 18  1  0  0  0
 17 96  1  0  0  0
 18 19  2  0  0  0
 18 97  1  0  0  0
 19 20  1  0  0  0
 19 24  1  0  0  0
 20 21  2  0  0  0
 20 98  1  0  0  0
 21 23  1  0  0  0
 22 28  1  0  0  0
 22 32  2  0  0  0
 26 27  1  0  0  0
 28 99  1  0  0  0
 28100  1  0  0  0
 29101  1  0  0  0
 29102  1  0  0  0
 33 34  1  0  0  0
 33 66  1  0  0  0
 33 70  2  0  0  0
 34 36  1  0  0  0
 34 59  1  0  0  0
 34103  1  0  0  0
 35 44  2  0  0  0
 35 45  1  0  0  0
 35 68  1  0  0  0
 36 56  1  0  0  0
 36104  1  0  0  0
 37 39  1  0  0  0
 37 47  1  0  0  0
 37 66  1  0  0  0
 37105  1  0  0  0
 38 43  2  0  0  0
 38 46  1  0  0  0
 38 47  1  0  0  0
 39 64  1  0  0  0
 39 67  2  0  0  0
 40 52  1  0  0  0
 40 53  2  0  0  0
 40 58  1  0  0  0
 41106  1  0  0  0
 41107  1  0  0  0
 41108  1  0  0  0
 41 48  1  0  0  0
 42 43  1  0  0  0
 42 66  1  0  0  0
 42109  1  0  0  0
 42110  1  0  0  0
 43 44  1  0  0  0
 44111  1  0  0  0
 45 46  2  0  0  0
 45112  1  0  0  0
 46113  1  0  0  0
 47114  1  0  0  0
 47115  1  0  0  0
 48 56  1  0  0  0
 48 65  1  0  0  0
 48116  1  0  0  0
 49 50  1  0  0  0
 49 53  1  0  0  0
 49 64  1  0  0  0
 49117  1  0  0  0
 50 51  1  0  0  0
 50118  1  0  0  0
 50119  1  0  0  0
 51 52  1  0  0  0
 51120  1  0  0  0
 51121  1  0  0  0
 52122  1  0  0  0
 52123  1  0  0  0
 53 54  1  0  0  0
 54 55  2  0  0  0
 54124  1  0  0  0
 55 57  1  0  0  0
 55125  1  0  0  0
 56 69  2  0  0  0
 57 58  2  0  0  0
 57126  1  0  0  0
 58127  1  0  0  0
 59 60  1  0  0  0
 59 61  1  0  0  0
 59 62  1  0  0  0
 60128  1  0  0  0
 60129  1  0  0  0
 60130  1  0  0  0
 61131  1  0  0  0
 61132  1  0  0  0
 61133  1  0  0  0
 62134  1  0  0  0
 62135  1  0  0  0
 62136  1  0  0  0
 63 65  1  0  0  0
 63137  1  0  0  0
 63138  1  0  0  0
 63139  1  0  0  0
 64140  1  0  0  0
 65141  1  0  0  0
 68 78  1  0  0  0
 71 72  1  0  0  0
 71 73  2  0  0  0
 71142  1  0  0  0
 72 74  2  0  0  0
 72 76  1  0  0  0
 73 80  1  0  0  0
 73 82  1  0  0  0
 74 79  1  0  0  0
 74 82  1  0  0  0
 75 77  1  0  0  0
 75 78  1  0  0  0
 75 81  2  0  0  0
 76143  1  0  0  0
 76144  1  0  0  0
 76145  1  0  0  0
 77 80  1  0  0  0
 77146  1  0  0  0
 77147  1  0  0  0
 78148  1  0  0  0
 78149  1  0  0  0
 79150  1  0  0  0
 80151  1  0  0  0
M  ISO  4   1 100  68 101  78 101  79 100
M  END
> <chiral flag>
0

> <version>
0

> <s_m_source_file>
/data/baiqing/PycharmProjects/Reinvent-master-3.2/result/LINK_invent/BTK/process_docking_weight1_custom_product_contain_oxygen_bond_distance_aromatic_linkinvent_7_9_3/rearranged_h_0149.sdf

> <i_m_source_file_index>
66

> <r_mmod_Potential_Energy-OPLS-2005>
154.999465942383

> <r_mmod_Stretch_Energy-OPLS-2005>
107.462417602539

> <r_mmod_Bend_Energy-OPLS-2005>
184.648620605469

> <r_mmod_Torsional_Energy-OPLS-2005>
214.381607055664

> <r_mmod_Improper_Torsional_Energy-OPLS-2005>
3.13650631904602

> <r_mmod_Van_der_Waal_Energy-OPLS-2005>
114.514999389648

> <r_mmod_Electrostatic_Energy-OPLS-2005>
-294.170013427734

> <r_mmod_Solvation_Energy-OPLS-2005>
-250.985305786133

> <b_mmod_Minimization_Converged-OPLS-2005>
0

> <r_mmod_RMS_Derivative-OPLS-2005>
0.129898428916931

$$$$
66
                    3D
 Structure written by MMmdl.
162170  0  0  1  0            999 V2000
  -30.7215  -14.3978   20.6449 C   0  0  0  0  0  0
  -30.4227  -12.2895   19.4017 C   0  0  0  0  0  0
  -29.4879  -12.5289   18.1991 C   0  0  0  0  0  0
  -28.0116  -12.3744   18.6112 C   0  0  0  0  0  0
  -27.6667  -13.1894   19.8833 C   0  0  2  0  0  0
  -28.7040  -12.9286   20.9995 C   0  0  0  0  0  0
  -25.2621  -13.8110   20.5688 C   0  0  0  0  0  0
  -24.1848  -13.0414   20.9159 C   0  0  0  0  0  0
  -24.6384  -11.6878   20.8730 C   0  0  0  0  0  0
  -23.9046  -10.4285   21.0411 C   0  0  0  0  0  0
  -24.3605   -9.4205   21.9192 C   0  0  0  0  0  0
  -23.6280   -8.2244   22.0757 C   0  0  0  0  0  0
  -22.4270   -8.0279   21.3540 C   0  0  0  0  0  0
  -21.9895   -9.0263   20.4653 C   0  0  0  0  0  0
  -22.7219  -10.2140   20.3060 C   0  0  0  0  0  0
  -21.6848   -6.0734   22.5277 C   0  0  0  0  0  0
  -21.4016   -6.5646   23.8214 C   0  0  0  0  0  0
  -21.3658   -5.6796   24.9175 C   0  0  0  0  0  0
  -21.6033   -4.3054   24.7223 C   0  0  0  0  0  0
  -21.8819   -3.8148   23.4348 C   0  0  0  0  0  0
  -21.9196   -4.6964   22.3400 C   0  0  0  0  0  0
  -22.7889  -13.5243   21.1826 C   0  0  0  0  0  0
  -22.1658   -4.2152   21.0976 F   0  0  0  0  0  0
  -21.5630   -3.4538   25.7735 F   0  0  0  0  0  0
  -30.0496  -13.2296   20.4693 N   0  0  0  0  0  0
  -26.3042  -12.9252   20.3391 N   0  0  0  0  0  0
  -25.9301  -11.6428   20.5765 N   0  0  0  0  0  0
  -22.0524  -12.8263   22.0395 N   0  0  0  0  0  0
  -25.4362  -15.1830   20.4160 N   0  0  0  0  0  0
  -31.7681  -14.6805   20.0493 O   0  0  0  0  0  0
  -21.6636   -6.8877   21.4237 O   0  0  0  0  0  0
  -22.3581  -14.5554   20.6664 O   0  0  0  0  0  0
  -24.6099  -31.8706   23.2116 C   0  0  0  0  0  0
  -25.9013  -32.4834   23.8403 C   0  0  1  0  0  0
  -27.2410  -27.4658   20.0877 C   0  0  0  0  0  0
  -25.5884  -33.8632   24.2337 N   0  0  0  0  0  0
  -23.3956  -30.4927   21.5516 C   0  0  2  0  0  0
  -24.8412  -28.9571   20.1155 C   0  0  0  0  0  0
  -22.7379  -29.4670   22.5014 C   0  0  0  0  0  0
  -18.0271  -28.1376   22.8497 C   0  0  0  0  0  0
  -24.1489  -36.7324   23.2637 C   0  0  0  0  0  0
  -25.9193  -30.8430   21.3596 C   0  0  0  0  0  0
  -25.9958  -29.4777   20.7110 C   0  0  0  0  0  0
  -27.1930  -28.7359   20.6983 C   0  0  0  0  0  0
  -26.0685  -26.9459   19.4920 C   0  0  0  0  0  0
  -24.8704  -27.6885   19.5076 C   0  0  0  0  0  0
  -23.6008  -29.8202   20.1665 C   0  0  0  0  0  0
  -25.4109  -36.3122   24.0339 C   0  0  1  0  0  0
  -20.5855  -28.3654   23.1334 C   0  0  2  0  0  0
  -20.6760  -26.9397   22.5419 C   0  0  0  0  0  0
  -19.5740  -26.6388   21.5213 C   0  0  0  0  0  0
  -18.1919  -26.7925   22.1624 C   0  0  0  0  0  0
  -19.1519  -28.8831   23.2913 C   0  0  0  0  0  0
  -18.9448  -30.1439   23.8922 C   0  0  0  0  0  0
  -17.6450  -30.6580   24.0571 C   0  0  0  0  0  0
  -25.9028  -34.9483   23.5136 C   0  0  0  0  0  0
  -16.5344  -29.9084   23.6322 C   0  0  0  0  0  0
  -16.7261  -28.6502   23.0344 C   0  0  0  0  0  0
  -26.4454  -31.6605   25.0718 C   0  0  0  0  0  0
  -25.3727  -31.3707   26.1472 C   0  0  0  0  0  0
  -27.0273  -30.3056   24.6061 C   0  0  0  0  0  0
  -27.6051  -32.4310   25.7460 C   0  0  0  0  0  0
  -27.5586  -37.1814   24.8464 C   0  0  0  0  0  0
  -21.4116  -29.3026   22.3742 N   0  0  0  0  0  0
  -26.4302  -37.3799   23.9402 N   0  0  0  0  0  0
  -24.6598  -31.0831   22.1000 N   0  0  0  0  0  0
  -23.4168  -28.8220   23.3048 O   0  0  0  0  0  0
  -28.4507  -26.8131   20.1049 O   0  0  0  0  0  0
  -26.5592  -34.8929   22.4698 O   0  0  0  0  0  0
  -23.5302  -32.1449   23.7530 O   0  0  0  0  0  0
  -30.3172  -17.6900   21.7080 C   0  0  0  0  0  0
  -29.7063  -18.8720   21.1723 C   0  0  0  0  0  0
  -29.8340  -16.5136   21.1900 C   0  0  0  0  0  0
  -28.7255  -18.5571   20.2566 C   0  0  0  0  0  0
  -29.2586  -22.4214   20.5719 C   0  0  0  0  0  0
  -30.9311  -25.9915   20.5188 C   0  0  0  0  0  0
  -30.1731  -20.2514   21.5883 C   0  0  0  0  0  0
  -29.1046  -21.3703   21.6669 C   0  0  0  0  0  0
  -29.9102  -23.7354   21.0178 C   0  0  0  0  0  0
  -28.5554  -25.4704   19.6442 C   0  0  0  0  0  0
  -29.9709  -24.9041   19.9880 C   0  0  1  0  0  0
  -28.9152  -22.1914   19.3733 N   0  0  0  0  0  0
  -27.8540  -19.3743   19.5531 N   0  0  0  0  0  0
  -30.1675  -15.2433   21.5242 N   0  0  0  0  0  0
  -30.5915  -24.4651   18.7903 O   0  0  0  0  0  0
  -28.5958  -16.8433   20.0101 S   0  0  0  0  0  0
  -31.4655  -12.3985   19.0968 H   0  0  0  0  0  0
  -30.3253  -11.2644   19.7607 H   0  0  0  0  0  0
  -29.7235  -11.8337   17.3923 H   0  0  0  0  0  0
  -29.6533  -13.5309   17.7993 H   0  0  0  0  0  0
  -27.8205  -11.3149   18.7862 H   0  0  0  0  0  0
  -27.3605  -12.6700   17.7876 H   0  0  0  0  0  0
  -27.7217  -14.2388   19.6043 H   0  0  0  0  0  0
  -28.6700  -11.8822   21.3071 H   0  0  0  0  0  0
  -28.4457  -13.4921   21.8961 H   0  0  0  0  0  0
  -25.2759   -9.5679   22.4754 H   0  0  0  0  0  0
  -23.9989   -7.4639   22.7475 H   0  0  0  0  0  0
  -21.0826   -8.8791   19.8964 H   0  0  0  0  0  0
  -22.3688  -10.9687   19.6169 H   0  0  0  0  0  0
  -21.2008   -7.6154   23.9713 H   0  0  0  0  0  0
  -21.1474   -6.0531   25.9078 H   0  0  0  0  0  0
  -22.0597   -2.7607   23.2849 H   0  0  0  0  0  0
  -22.4122  -11.9914   22.4776 H   0  0  0  0  0  0
  -21.1153  -13.1308   22.2613 H   0  0  0  0  0  0
  -24.6754  -15.8409   20.5437 H   0  0  0  0  0  0
  -26.2999  -15.6262   20.1306 H   0  0  0  0  0  0
  -26.7081  -32.5554   23.1169 H   0  0  0  0  0  0
  -25.0048  -33.9804   25.0489 H   0  0  0  0  0  0
  -22.6832  -31.3083   21.4129 H   0  0  0  0  0  0
  -23.3744  -35.9666   23.3322 H   0  0  0  0  0  0
  -24.3580  -36.8910   22.2046 H   0  0  0  0  0  0
  -23.7250  -37.6540   23.6631 H   0  0  0  0  0  0
  -26.0242  -31.6075   20.5887 H   0  0  0  0  0  0
  -26.8104  -30.9007   21.9728 H   0  0  0  0  0  0
  -28.0864  -29.1363   21.1573 H   0  0  0  0  0  0
  -26.0642  -25.9807   19.0068 H   0  0  0  0  0  0
  -23.9812  -27.2816   19.0462 H   0  0  0  0  0  0
  -23.7024  -30.5933   19.4039 H   0  0  0  0  0  0
  -22.7261  -29.2354   19.8756 H   0  0  0  0  0  0
  -25.1285  -36.2000   25.0833 H   0  0  0  0  0  0
  -20.9950  -28.3218   24.1453 H   0  0  0  0  0  0
  -20.5669  -26.2261   23.3599 H   0  0  0  0  0  0
  -21.6632  -26.7446   22.1208 H   0  0  0  0  0  0
  -19.6900  -25.6306   21.1226 H   0  0  0  0  0  0
  -19.6682  -27.3217   20.6758 H   0  0  0  0  0  0
  -17.4188  -26.6680   21.4027 H   0  0  0  0  0  0
  -18.0321  -26.0063   22.9015 H   0  0  0  0  0  0
  -19.7922  -30.7251   24.2303 H   0  0  0  0  0  0
  -17.5004  -31.6262   24.5167 H   0  0  0  0  0  0
  -15.5346  -30.2994   23.7628 H   0  0  0  0  0  0
  -15.8662  -28.0829   22.7041 H   0  0  0  0  0  0
  -24.5895  -30.7061   25.7803 H   0  0  0  0  0  0
  -24.8922  -32.2864   26.4932 H   0  0  0  0  0  0
  -25.8084  -30.8861   27.0219 H   0  0  0  0  0  0
  -26.2803  -29.6829   24.1125 H   0  0  0  0  0  0
  -27.4070  -29.7279   25.4497 H   0  0  0  0  0  0
  -27.8626  -30.4391   23.9182 H   0  0  0  0  0  0
  -27.2695  -33.3596   26.2089 H   0  0  0  0  0  0
  -28.3826  -32.6889   25.0257 H   0  0  0  0  0  0
  -28.0759  -31.8400   26.5325 H   0  0  0  0  0  0
  -28.2618  -38.0097   24.7497 H   0  0  0  0  0  0
  -28.1067  -36.2629   24.6313 H   0  0  0  0  0  0
  -27.2300  -37.1490   25.8867 H   0  0  0  0  0  0
  -20.9270  -29.8745   21.6965 H   0  0  0  0  0  0
  -26.0202  -38.2885   24.1387 H   0  0  0  0  0  0
  -31.0964  -17.7488   22.4550 H   0  0  0  0  0  0
  -30.5851  -26.3923   21.4722 H   0  0  0  0  0  0
  -31.0202  -26.8289   19.8254 H   0  0  0  0  0  0
  -31.9346  -25.5980   20.6855 H   0  0  0  0  0  0
  -30.9962  -20.5584   20.9422 H   0  0  0  0  0  0
  -30.6291  -20.1755   22.5772 H   0  0  0  0  0  0
  -28.0891  -20.9758   21.6849 H   0  0  0  0  0  0
  -29.2113  -21.8722   22.6295 H   0  0  0  0  0  0
  -30.9207  -23.4911   21.3491 H   0  0  0  0  0  0
  -29.3898  -24.0902   21.9094 H   0  0  0  0  0  0
  -27.7771  -24.8601   20.1048 H   0  0  0  0  0  0
  -28.3741  -25.4554   18.5678 H   0  0  0  0  0  0
  -28.5644  -21.2390   19.2549 H   0  0  0  0  0  0
  -27.4289  -20.1185   20.0941 H   0  0  0  0  0  0
  -27.1300  -18.8826   19.0375 H   0  0  0  0  0  0
  -29.4770  -14.7802   22.0972 H   0  0  0  0  0  0
  -30.1107  -23.6756   18.5370 H   0  0  0  0  0  0
  1 25  1  0  0  0
  1 30  2  0  0  0
  1 84  1  0  0  0
  2  3  1  0  0  0
  2 25  1  0  0  0
  2 87  1  0  0  0
  2 88  1  0  0  0
  3  4  1  0  0  0
  3 89  1  0  0  0
  3 90  1  0  0  0
  4  5  1  0  0  0
  4 91  1  0  0  0
  4 92  1  0  0  0
  5  6  1  0  0  0
  5 26  1  0  0  0
  5 93  1  0  0  0
  6 25  1  0  0  0
  6 94  1  0  0  0
  6 95  1  0  0  0
  7  8  2  0  0  0
  7 26  1  0  0  0
  7 29  1  0  0  0
  8  9  1  0  0  0
  8 22  1  0  0  0
  9 10  1  0  0  0
  9 27  2  0  0  0
 10 11  2  0  0  0
 10 15  1  0  0  0
 11 12  1  0  0  0
 11 96  1  0  0  0
 12 13  2  0  0  0
 12 97  1  0  0  0
 13 14  1  0  0  0
 13 31  1  0  0  0
 14 15  2  0  0  0
 14 98  1  0  0  0
 15 99  1  0  0  0
 16 17  2  0  0  0
 16 21  1  0  0  0
 16 31  1  0  0  0
 17 18  1  0  0  0
 17100  1  0  0  0
 18 19  2  0  0  0
 18101  1  0  0  0
 19 20  1  0  0  0
 19 24  1  0  0  0
 20 21  2  0  0  0
 20102  1  0  0  0
 21 23  1  0  0  0
 22 28  1  0  0  0
 22 32  2  0  0  0
 26 27  1  0  0  0
 28103  1  0  0  0
 28104  1  0  0  0
 29105  1  0  0  0
 29106  1  0  0  0
 33 34  1  0  0  0
 33 66  1  0  0  0
 33 70  2  0  0  0
 34 36  1  0  0  0
 34 59  1  0  0  0
 34107  1  0  0  0
 35 44  2  0  0  0
 35 45  1  0  0  0
 35 68  1  0  0  0
 36 56  1  0  0  0
 36108  1  0  0  0
 37 39  1  0  0  0
 37 47  1  0  0  0
 37 66  1  0  0  0
 37109  1  0  0  0
 38 43  2  0  0  0
 38 46  1  0  0  0
 38 47  1  0  0  0
 39 64  1  0  0  0
 39 67  2  0  0  0
 40 52  1  0  0  0
 40 53  2  0  0  0
 40 58  1  0  0  0
 41110  1  0  0  0
 41111  1  0  0  0
 41112  1  0  0  0
 41 48  1  0  0  0
 42 43  1  0  0  0
 42 66  1  0  0  0
 42113  1  0  0  0
 42114  1  0  0  0
 43 44  1  0  0  0
 44115  1  0  0  0
 45 46  2  0  0  0
 45116  1  0  0  0
 46117  1  0  0  0
 47118  1  0  0  0
 47119  1  0  0  0
 48 56  1  0  0  0
 48 65  1  0  0  0
 48120  1  0  0  0
 49 50  1  0  0  0
 49 53  1  0  0  0
 49 64  1  0  0  0
 49121  1  0  0  0
 50 51  1  0  0  0
 50122  1  0  0  0
 50123  1  0  0  0
 51 52  1  0  0  0
 51124  1  0  0  0
 51125  1  0  0  0
 52126  1  0  0  0
 52127  1  0  0  0
 53 54  1  0  0  0
 54 55  2  0  0  0
 54128  1  0  0  0
 55 57  1  0  0  0
 55129  1  0  0  0
 56 69  2  0  0  0
 57 58  2  0  0  0
 57130  1  0  0  0
 58131  1  0  0  0
 59 60  1  0  0  0
 59 61  1  0  0  0
 59 62  1  0  0  0
 60132  1  0  0  0
 60133  1  0  0  0
 60134  1  0  0  0
 61135  1  0  0  0
 61136  1  0  0  0
 61137  1  0  0  0
 62138  1  0  0  0
 62139  1  0  0  0
 62140  1  0  0  0
 63 65  1  0  0  0
 63141  1  0  0  0
 63142  1  0  0  0
 63143  1  0  0  0
 64144  1  0  0  0
 65145  1  0  0  0
 68 80  1  0  0  0
 71 72  1  0  0  0
 71 73  2  0  0  0
 71146  1  0  0  0
 72 74  2  0  0  0
 72 77  1  0  0  0
 73 84  1  0  0  0
 73 86  1  0  0  0
 74 83  1  0  0  0
 74 86  1  0  0  0
 75 78  1  0  0  0
 75 79  1  0  0  0
 75 82  2  0  0  0
 76147  1  0  0  0
 76148  1  0  0  0
 76149  1  0  0  0
 76 81  1  0  0  0
 77 78  1  0  0  0
 77150  1  0  0  0
 77151  1  0  0  0
 78152  1  0  0  0
 78153  1  0  0  0
 79 81  1  0  0  0
 79154  1  0  0  0
 79155  1  0  0  0
 80 81  1  0  0  0
 80156  1  0  0  0
 80157  1  0  0  0
 81 85  1  0  0  0
 82158  1  0  0  0
 83159  1  0  0  0
 83160  1  0  0  0
 84161  1  0  0  0
 85162  1  0  0  0
M  ISO  4   1 100  68 101  80 101  84 100
M  END
> <chiral flag>
0

> <version>
0

> <s_m_source_file>
/data/baiqing/PycharmProjects/Reinvent-master-3.2/result/LINK_invent/BTK/process_docking_weight1_custom_product_contain_oxygen_bond_distance_aromatic_linkinvent_7_9_3/rearranged_h_0149.sdf

> <i_m_source_file_index>
67

> <r_mmod_Potential_Energy-OPLS-2005>
-23.7071495056152

> <r_mmod_Stretch_Energy-OPLS-2005>
35.1341781616211

> <r_mmod_Bend_Energy-OPLS-2005>
114.935981750488

> <r_mmod_Torsional_Energy-OPLS-2005>
265.735900878906

> <r_mmod_Improper_Torsional_Energy-OPLS-2005>
10.9671039581299

> <r_mmod_Van_der_Waal_Energy-OPLS-2005>
145.61540222168

> <r_mmod_Electrostatic_Energy-OPLS-2005>
-375.789184570312

> <r_mmod_Solvation_Energy-OPLS-2005>
-228.881393432617

> <b_mmod_Minimization_Converged-OPLS-2005>
0

> <r_mmod_RMS_Derivative-OPLS-2005>
1.56900954246521

$$$$
67
                    3D
 Structure written by MMmdl.
154162  0  0  1  0            999 V2000
  -30.6614  -14.5832   20.5085 C   0  0  0  0  0  0
  -30.4214  -12.3599   19.4616 C   0  0  0  0  0  0
  -29.5044  -12.4859   18.2267 C   0  0  0  0  0  0
  -28.0244  -12.3296   18.6343 C   0  0  0  0  0  0
  -27.6437  -13.2117   19.8561 C   0  0  2  0  0  0
  -28.6811  -13.0769   20.9915 C   0  0  0  0  0  0
  -25.2496  -13.8156   20.5659 C   0  0  0  0  0  0
  -24.1772  -13.0433   20.9205 C   0  0  0  0  0  0
  -24.6334  -11.6913   20.8750 C   0  0  0  0  0  0
  -23.9010  -10.4292   21.0395 C   0  0  0  0  0  0
  -24.3579   -9.4216   21.9172 C   0  0  0  0  0  0
  -23.6266   -8.2244   22.0762 C   0  0  0  0  0  0
  -22.4248   -8.0272   21.3545 C   0  0  0  0  0  0
  -21.9865   -9.0237   20.4648 C   0  0  0  0  0  0
  -22.7183  -10.2118   20.3045 C   0  0  0  0  0  0
  -21.6847   -6.0711   22.5282 C   0  0  0  0  0  0
  -21.4016   -6.5619   23.8219 C   0  0  0  0  0  0
  -21.3661   -5.6773   24.9178 C   0  0  0  0  0  0
  -21.6051   -4.3041   24.7230 C   0  0  0  0  0  0
  -21.8818   -3.8129   23.4353 C   0  0  0  0  0  0
  -21.9194   -4.6939   22.3404 C   0  0  0  0  0  0
  -22.7786  -13.5247   21.1858 C   0  0  0  0  0  0
  -22.1658   -4.2122   21.0979 F   0  0  0  0  0  0
  -21.5627   -3.4530   25.7742 F   0  0  0  0  0  0
  -29.9933  -13.3964   20.4205 N   0  0  0  0  0  0
  -26.2903  -12.9332   20.3246 N   0  0  0  0  0  0
  -25.9257  -11.6489   20.5723 N   0  0  0  0  0  0
  -22.0424  -12.8254   22.0434 N   0  0  0  0  0  0
  -25.4153  -15.1869   20.4014 N   0  0  0  0  0  0
  -31.8501  -14.6704   20.2014 O   0  0  0  0  0  0
  -21.6638   -6.8851   21.4238 O   0  0  0  0  0  0
  -22.3477  -14.5540   20.6690 O   0  0  0  0  0  0
  -24.6172  -31.8618   23.2040 C   0  0  0  0  0  0
  -25.9054  -32.4792   23.8369 C   0  0  1  0  0  0
  -27.2287  -27.3759   20.1305 C   0  0  0  0  0  0
  -25.5904  -33.8591   24.2302 N   0  0  0  0  0  0
  -23.4104  -30.4804   21.5447 C   0  0  2  0  0  0
  -24.8629  -28.9366   20.1185 C   0  0  0  0  0  0
  -22.7451  -29.4599   22.4944 C   0  0  0  0  0  0
  -18.0275  -28.1340   22.8477 C   0  0  0  0  0  0
  -24.1487  -36.7303   23.2628 C   0  0  0  0  0  0
  -25.9418  -30.8154   21.3633 C   0  0  0  0  0  0
  -26.0223  -29.4432   20.7178 C   0  0  0  0  0  0
  -27.2137  -28.6716   20.7148 C   0  0  0  0  0  0
  -26.0558  -26.8974   19.5173 C   0  0  0  0  0  0
  -24.8767  -27.6672   19.5132 C   0  0  0  0  0  0
  -23.6275  -29.8080   20.1609 C   0  0  0  0  0  0
  -25.4109  -36.3095   24.0330 C   0  0  1  0  0  0
  -20.5877  -28.3610   23.1284 C   0  0  2  0  0  0
  -20.6769  -26.9328   22.5374 C   0  0  0  0  0  0
  -19.5739  -26.6335   21.5182 C   0  0  0  0  0  0
  -18.1914  -26.7885   22.1591 C   0  0  0  0  0  0
  -19.1523  -28.8798   23.2876 C   0  0  0  0  0  0
  -18.9464  -30.1407   23.8901 C   0  0  0  0  0  0
  -17.6475  -30.6548   24.0563 C   0  0  0  0  0  0
  -25.9026  -34.9463   23.5112 C   0  0  0  0  0  0
  -16.5358  -29.9046   23.6325 C   0  0  0  0  0  0
  -16.7268  -28.6464   23.0338 C   0  0  0  0  0  0
  -26.4487  -31.6581   25.0698 C   0  0  0  0  0  0
  -25.3723  -31.3754   26.1422 C   0  0  0  0  0  0
  -27.0338  -30.3026   24.6097 C   0  0  0  0  0  0
  -27.6060  -32.4317   25.7474 C   0  0  0  0  0  0
  -27.5585  -37.1800   24.8460 C   0  0  0  0  0  0
  -21.4157  -29.3008   22.3728 N   0  0  0  0  0  0
  -26.4290  -37.3777   23.9401 N   0  0  0  0  0  0
  -24.6746  -31.0680   22.0965 N   0  0  0  0  0  0
  -23.4216  -28.8112   23.2969 O   0  0  0  0  0  0
  -28.3743  -26.5953   20.1272 O   0  0  0  0  0  0
  -26.5570  -34.8915   22.4659 O   0  0  0  0  0  0
  -23.5355  -32.1388   23.7408 O   0  0  0  0  0  0
  -28.6493  -18.8711   20.2985 C   0  0  0  0  0  0
  -29.0765  -19.9155   22.2345 C   0  0  0  0  0  0
  -28.7011  -20.1574   20.9420 C   0  0  0  0  0  0
  -28.9731  -17.9218   21.2522 C   0  0  0  0  0  0
  -28.7180  -22.6845   20.8170 C   0  0  0  0  0  0
  -27.6554  -25.4536   22.2368 C   0  0  0  0  0  0
  -29.0122  -16.3866   21.3290 C   0  0  0  0  0  0
  -28.1539  -23.9799   20.1273 C   0  0  0  0  0  0
  -28.4126  -25.3444   20.8919 C   0  0  1  0  0  0
  -28.3565  -21.4466   20.3696 N   0  0  0  0  0  0
  -29.9341  -15.7243   20.3876 N   0  0  0  0  0  0
  -29.5192  -22.8119   21.7460 O   0  0  0  0  0  0
  -29.2417  -18.5697   22.4310 O   0  0  0  0  0  0
  -31.4653  -12.4706   19.1628 H   0  0  0  0  0  0
  -30.3402  -11.3681   19.9101 H   0  0  0  0  0  0
  -29.7763  -11.7382   17.4809 H   0  0  0  0  0  0
  -29.6550  -13.4602   17.7563 H   0  0  0  0  0  0
  -27.8666  -11.2772   18.8754 H   0  0  0  0  0  0
  -27.3744  -12.5466   17.7866 H   0  0  0  0  0  0
  -27.6625  -14.2419   19.5077 H   0  0  0  0  0  0
  -28.6782  -12.0626   21.3914 H   0  0  0  0  0  0
  -28.4349  -13.7277   21.8293 H   0  0  0  0  0  0
  -25.2721   -9.5703   22.4757 H   0  0  0  0  0  0
  -23.9984   -7.4633   22.7480 H   0  0  0  0  0  0
  -21.0805   -8.8726   19.8963 H   0  0  0  0  0  0
  -22.3617  -10.9645   19.6162 H   0  0  0  0  0  0
  -21.2012   -7.6125   23.9700 H   0  0  0  0  0  0
  -21.1485   -6.0510   25.9070 H   0  0  0  0  0  0
  -22.0599   -2.7592   23.2861 H   0  0  0  0  0  0
  -22.4011  -11.9933   22.4863 H   0  0  0  0  0  0
  -21.1029  -13.1286   22.2605 H   0  0  0  0  0  0
  -24.6405  -15.8344   20.5037 H   0  0  0  0  0  0
  -26.2428  -15.6233   20.0212 H   0  0  0  0  0  0
  -26.7131  -32.5516   23.1137 H   0  0  0  0  0  0
  -25.0130  -33.9752   25.0514 H   0  0  0  0  0  0
  -22.6983  -31.2944   21.3970 H   0  0  0  0  0  0
  -23.3737  -35.9643   23.3290 H   0  0  0  0  0  0
  -24.3585  -36.8909   22.2041 H   0  0  0  0  0  0
  -23.7247  -37.6513   23.6645 H   0  0  0  0  0  0
  -26.0472  -31.5736   20.5866 H   0  0  0  0  0  0
  -26.8312  -30.8815   21.9797 H   0  0  0  0  0  0
  -28.1107  -29.0524   21.1836 H   0  0  0  0  0  0
  -26.0550  -25.9251   19.0449 H   0  0  0  0  0  0
  -23.9843  -27.2698   19.0518 H   0  0  0  0  0  0
  -23.7498  -30.5785   19.3981 H   0  0  0  0  0  0
  -22.7525  -29.2283   19.8585 H   0  0  0  0  0  0
  -25.1286  -36.1959   25.0824 H   0  0  0  0  0  0
  -20.9956  -28.3145   24.1413 H   0  0  0  0  0  0
  -20.5678  -26.2190   23.3559 H   0  0  0  0  0  0
  -21.6629  -26.7360   22.1151 H   0  0  0  0  0  0
  -19.6862  -25.6251   21.1198 H   0  0  0  0  0  0
  -19.6707  -27.3156   20.6735 H   0  0  0  0  0  0
  -17.4190  -26.6657   21.3980 H   0  0  0  0  0  0
  -18.0289  -26.0030   22.8996 H   0  0  0  0  0  0
  -19.7952  -30.7200   24.2290 H   0  0  0  0  0  0
  -17.5035  -31.6226   24.5142 H   0  0  0  0  0  0
  -15.5353  -30.2940   23.7650 H   0  0  0  0  0  0
  -15.8681  -28.0764   22.7062 H   0  0  0  0  0  0
  -24.5868  -30.7135   25.7750 H   0  0  0  0  0  0
  -24.8932  -32.2939   26.4834 H   0  0  0  0  0  0
  -25.7998  -30.8932   27.0211 H   0  0  0  0  0  0
  -26.2907  -29.6774   24.1111 H   0  0  0  0  0  0
  -27.4076  -29.7281   25.4587 H   0  0  0  0  0  0
  -27.8755  -30.4351   23.9282 H   0  0  0  0  0  0
  -27.2677  -33.3603   26.2086 H   0  0  0  0  0  0
  -28.3850  -32.6895   25.0289 H   0  0  0  0  0  0
  -28.0736  -31.8409   26.5349 H   0  0  0  0  0  0
  -28.2591  -38.0113   24.7499 H   0  0  0  0  0  0
  -28.1085  -36.2632   24.6289 H   0  0  0  0  0  0
  -27.2288  -37.1456   25.8859 H   0  0  0  0  0  0
  -20.9286  -29.8792   21.7031 H   0  0  0  0  0  0
  -26.0177  -38.2842   24.1437 H   0  0  0  0  0  0
  -28.3764  -18.6571   19.2735 H   0  0  0  0  0  0
  -29.2280  -20.5395   23.1056 H   0  0  0  0  0  0
  -27.8418  -24.5848   22.8688 H   0  0  0  0  0  0
  -26.5751  -25.5242   22.1040 H   0  0  0  0  0  0
  -27.9868  -26.3301   22.7940 H   0  0  0  0  0  0
  -28.0067  -16.0112   21.1450 H   0  0  0  0  0  0
  -29.2595  -16.0768   22.3452 H   0  0  0  0  0  0
  -27.0871  -23.8576   19.9387 H   0  0  0  0  0  0
  -28.6252  -24.0435   19.1460 H   0  0  0  0  0  0
  -29.4677  -25.3082   21.1652 H   0  0  0  0  0  0
  -27.7610  -21.4236   19.5506 H   0  0  0  0  0  0
  -30.4742  -16.4205   19.8956 H   0  0  0  0  0  0
  1 25  1  0  0  0
  1 30  2  0  0  0
  1 81  1  0  0  0
  2  3  1  0  0  0
  2 25  1  0  0  0
  2 84  1  0  0  0
  2 85  1  0  0  0
  3  4  1  0  0  0
  3 86  1  0  0  0
  3 87  1  0  0  0
  4  5  1  0  0  0
  4 88  1  0  0  0
  4 89  1  0  0  0
  5  6  1  0  0  0
  5 26  1  0  0  0
  5 90  1  0  0  0
  6 25  1  0  0  0
  6 91  1  0  0  0
  6 92  1  0  0  0
  7  8  2  0  0  0
  7 26  1  0  0  0
  7 29  1  0  0  0
  8  9  1  0  0  0
  8 22  1  0  0  0
  9 10  1  0  0  0
  9 27  2  0  0  0
 10 11  2  0  0  0
 10 15  1  0  0  0
 11 12  1  0  0  0
 11 93  1  0  0  0
 12 13  2  0  0  0
 12 94  1  0  0  0
 13 14  1  0  0  0
 13 31  1  0  0  0
 14 15  2  0  0  0
 14 95  1  0  0  0
 15 96  1  0  0  0
 16 17  2  0  0  0
 16 21  1  0  0  0
 16 31  1  0  0  0
 17 18  1  0  0  0
 17 97  1  0  0  0
 18 19  2  0  0  0
 18 98  1  0  0  0
 19 20  1  0  0  0
 19 24  1  0  0  0
 20 21  2  0  0  0
 20 99  1  0  0  0
 21 23  1  0  0  0
 22 28  1  0  0  0
 22 32  2  0  0  0
 26 27  1  0  0  0
 28100  1  0  0  0
 28101  1  0  0  0
 29102  1  0  0  0
 29103  1  0  0  0
 33 34  1  0  0  0
 33 66  1  0  0  0
 33 70  2  0  0  0
 34 36  1  0  0  0
 34 59  1  0  0  0
 34104  1  0  0  0
 35 44  2  0  0  0
 35 45  1  0  0  0
 35 68  1  0  0  0
 36 56  1  0  0  0
 36105  1  0  0  0
 37 39  1  0  0  0
 37 47  1  0  0  0
 37 66  1  0  0  0
 37106  1  0  0  0
 38 43  2  0  0  0
 38 46  1  0  0  0
 38 47  1  0  0  0
 39 64  1  0  0  0
 39 67  2  0  0  0
 40 52  1  0  0  0
 40 53  2  0  0  0
 40 58  1  0  0  0
 41107  1  0  0  0
 41108  1  0  0  0
 41109  1  0  0  0
 41 48  1  0  0  0
 42 43  1  0  0  0
 42 66  1  0  0  0
 42110  1  0  0  0
 42111  1  0  0  0
 43 44  1  0  0  0
 44112  1  0  0  0
 45 46  2  0  0  0
 45113  1  0  0  0
 46114  1  0  0  0
 47115  1  0  0  0
 47116  1  0  0  0
 48 56  1  0  0  0
 48 65  1  0  0  0
 48117  1  0  0  0
 49 50  1  0  0  0
 49 53  1  0  0  0
 49 64  1  0  0  0
 49118  1  0  0  0
 50 51  1  0  0  0
 50119  1  0  0  0
 50120  1  0  0  0
 51 52  1  0  0  0
 51121  1  0  0  0
 51122  1  0  0  0
 52123  1  0  0  0
 52124  1  0  0  0
 53 54  1  0  0  0
 54 55  2  0  0  0
 54125  1  0  0  0
 55 57  1  0  0  0
 55126  1  0  0  0
 56 69  2  0  0  0
 57 58  2  0  0  0
 57127  1  0  0  0
 58128  1  0  0  0
 59 60  1  0  0  0
 59 61  1  0  0  0
 59 62  1  0  0  0
 60129  1  0  0  0
 60130  1  0  0  0
 60131  1  0  0  0
 61132  1  0  0  0
 61133  1  0  0  0
 61134  1  0  0  0
 62135  1  0  0  0
 62136  1  0  0  0
 62137  1  0  0  0
 63 65  1  0  0  0
 63138  1  0  0  0
 63139  1  0  0  0
 63140  1  0  0  0
 64141  1  0  0  0
 65142  1  0  0  0
 68 79  1  0  0  0
 71 73  1  0  0  0
 71 74  2  0  0  0
 71143  1  0  0  0
 72 73  2  0  0  0
 72 83  1  0  0  0
 72144  1  0  0  0
 73 80  1  0  0  0
 74 77  1  0  0  0
 74 83  1  0  0  0
 75 78  1  0  0  0
 75 80  1  0  0  0
 75 82  2  0  0  0
 76145  1  0  0  0
 76146  1  0  0  0
 76147  1  0  0  0
 76 79  1  0  0  0
 77 81  1  0  0  0
 77148  1  0  0  0
 77149  1  0  0  0
 78 79  1  0  0  0
 78150  1  0  0  0
 78151  1  0  0  0
 79152  1  0  0  0
 80153  1  0  0  0
 81154  1  0  0  0
M  ISO  4   1 100  68 101  79 101  81 100
M  END
> <chiral flag>
0

> <version>
0

> <s_m_source_file>
/data/baiqing/PycharmProjects/Reinvent-master-3.2/result/LINK_invent/BTK/process_docking_weight1_custom_product_contain_oxygen_bond_distance_aromatic_linkinvent_7_9_3/rearranged_h_0149.sdf

> <i_m_source_file_index>
68

> <r_mmod_Potential_Energy-OPLS-2005>
-38.3403663635254

> <r_mmod_Stretch_Energy-OPLS-2005>
55.461067199707

> <r_mmod_Bend_Energy-OPLS-2005>
143.563461303711

> <r_mmod_Torsional_Energy-OPLS-2005>
274.435760498047

> <r_mmod_Improper_Torsional_Energy-OPLS-2005>
22.0239353179932

> <r_mmod_Van_der_Waal_Energy-OPLS-2005>
118.336959838867

> <r_mmod_Electrostatic_Energy-OPLS-2005>
-456.107055664062

> <r_mmod_Solvation_Energy-OPLS-2005>
-229.110641479492

> <b_mmod_Minimization_Converged-OPLS-2005>
0

> <r_mmod_RMS_Derivative-OPLS-2005>
3.42749571800232

$$$$
68
                    3D
 Structure written by MMmdl.
164173  0  0  1  0            999 V2000
  -30.6641  -14.6131   20.3031 C   0  0  0  0  0  0
  -30.4350  -12.2967   19.4734 C   0  0  0  0  0  0
  -29.4907  -12.1996   18.2510 C   0  0  0  0  0  0
  -27.9981  -12.2629   18.6440 C   0  0  0  0  0  0
  -27.6421  -13.2064   19.8303 C   0  0  2  0  0  0
  -28.7032  -13.1568   20.9482 C   0  0  0  0  0  0
  -25.2565  -13.8195   20.5716 C   0  0  0  0  0  0
  -24.1817  -13.0471   20.9225 C   0  0  0  0  0  0
  -24.6367  -11.6940   20.8817 C   0  0  0  0  0  0
  -23.9044  -10.4314   21.0450 C   0  0  0  0  0  0
  -24.3600   -9.4216   21.9211 C   0  0  0  0  0  0
  -23.6291   -8.2242   22.0760 C   0  0  0  0  0  0
  -22.4277   -8.0282   21.3541 C   0  0  0  0  0  0
  -21.9907   -9.0260   20.4648 C   0  0  0  0  0  0
  -22.7227  -10.2148   20.3082 C   0  0  0  0  0  0
  -21.6852   -6.0736   22.5270 C   0  0  0  0  0  0
  -21.4019   -6.5645   23.8206 C   0  0  0  0  0  0
  -21.3659   -5.6798   24.9167 C   0  0  0  0  0  0
  -21.6041   -4.3061   24.7222 C   0  0  0  0  0  0
  -21.8818   -3.8149   23.4344 C   0  0  0  0  0  0
  -21.9196   -4.6965   22.3397 C   0  0  0  0  0  0
  -22.7839  -13.5257   21.1874 C   0  0  0  0  0  0
  -22.1664   -4.2149   21.0974 F   0  0  0  0  0  0
  -21.5625   -3.4543   25.7736 F   0  0  0  0  0  0
  -30.0047  -13.4159   20.3255 N   0  0  0  0  0  0
  -26.2968  -12.9353   20.3329 N   0  0  0  0  0  0
  -25.9299  -11.6538   20.5924 N   0  0  0  0  0  0
  -22.0491  -12.8225   22.0415 N   0  0  0  0  0  0
  -25.4317  -15.1904   20.4109 N   0  0  0  0  0  0
  -31.8953  -14.6699   20.3075 O   0  0  0  0  0  0
  -21.6646   -6.8876   21.4233 O   0  0  0  0  0  0
  -22.3518  -14.5565   20.6731 O   0  0  0  0  0  0
  -24.6131  -31.8677   23.2092 C   0  0  0  0  0  0
  -25.9031  -32.4818   23.8384 C   0  0  1  0  0  0
  -27.2350  -27.4294   20.1242 C   0  0  0  0  0  0
  -25.5894  -33.8613   24.2322 N   0  0  0  0  0  0
  -23.4019  -30.4898   21.5480 C   0  0  2  0  0  0
  -24.8535  -28.9540   20.1143 C   0  0  0  0  0  0
  -22.7401  -29.4656   22.4980 C   0  0  0  0  0  0
  -18.0264  -28.1376   22.8491 C   0  0  0  0  0  0
  -24.1491  -36.7319   23.2636 C   0  0  0  0  0  0
  -25.9282  -30.8348   21.3628 C   0  0  0  0  0  0
  -26.0092  -29.4654   20.7191 C   0  0  0  0  0  0
  -27.2036  -28.7092   20.7271 C   0  0  0  0  0  0
  -26.0734  -26.9392   19.4970 C   0  0  0  0  0  0
  -24.8794  -27.6885   19.5002 C   0  0  0  0  0  0
  -23.6133  -29.8196   20.1627 C   0  0  0  0  0  0
  -25.4109  -36.3109   24.0332 C   0  0  1  0  0  0
  -20.5851  -28.3666   23.1313 C   0  0  2  0  0  0
  -20.6759  -26.9404   22.5421 C   0  0  0  0  0  0
  -19.5746  -26.6383   21.5210 C   0  0  0  0  0  0
  -18.1916  -26.7921   22.1615 C   0  0  0  0  0  0
  -19.1513  -28.8835   23.2897 C   0  0  0  0  0  0
  -18.9452  -30.1437   23.8920 C   0  0  0  0  0  0
  -17.6459  -30.6591   24.0563 C   0  0  0  0  0  0
  -25.9034  -34.9473   23.5125 C   0  0  0  0  0  0
  -16.5348  -29.9101   23.6315 C   0  0  0  0  0  0
  -16.7253  -28.6508   23.0348 C   0  0  0  0  0  0
  -26.4471  -31.6585   25.0701 C   0  0  0  0  0  0
  -25.3743  -31.3679   26.1451 C   0  0  0  0  0  0
  -27.0296  -30.3026   24.6059 C   0  0  0  0  0  0
  -27.6049  -32.4291   25.7472 C   0  0  0  0  0  0
  -27.5582  -37.1809   24.8459 C   0  0  0  0  0  0
  -21.4129  -29.3038   22.3725 N   0  0  0  0  0  0
  -26.4295  -37.3793   23.9404 N   0  0  0  0  0  0
  -24.6654  -31.0781   22.0992 N   0  0  0  0  0  0
  -23.4174  -28.8200   23.3022 O   0  0  0  0  0  0
  -28.3671  -26.6431   20.1167 O   0  0  0  0  0  0
  -26.5605  -34.8929   22.4692 O   0  0  0  0  0  0
  -23.5330  -32.1434   23.7497 O   0  0  0  0  0  0
  -29.0751  -19.2621   19.2063 C   0  0  0  0  0  0
  -29.6825  -18.9667   21.5139 C   0  0  0  0  0  0
  -29.2740  -17.8936   18.9726 C   0  0  0  0  0  0
  -29.8791  -17.5654   21.2985 C   0  0  0  0  0  0
  -29.7262  -16.9912   19.9897 C   0  0  0  0  0  0
  -29.3106  -19.8334   20.4569 C   0  0  0  0  0  0
  -29.2721  -22.1713   21.4696 C   0  0  0  0  0  0
  -29.0708  -17.4521   17.5450 C   0  0  0  0  0  0
  -30.1790  -16.4981   17.1957 C   0  0  0  0  0  0
  -30.0648  -15.3085   18.1347 C   0  0  0  0  0  0
  -30.2864  -16.7421   22.5103 C   0  0  0  0  0  0
  -29.4130  -23.6448   21.0120 C   0  0  0  0  0  0
  -28.4371  -24.6610   21.6617 C   0  0  0  0  0  0
  -28.7858  -26.1558   21.4028 C   0  0  0  0  0  0
  -30.0081  -15.5962   19.5959 N   0  0  0  0  0  0
  -29.2211  -21.2625   20.4809 N   0  0  0  0  0  0
  -29.2187  -21.8875   22.6681 O   0  0  0  0  0  0
  -31.4696  -12.4021   19.1420 H   0  0  0  0  0  0
  -30.3969  -11.3719   20.0509 H   0  0  0  0  0  0
  -29.6660  -11.2328   17.7767 H   0  0  0  0  0  0
  -29.7319  -12.8858   17.4496 H   0  0  0  0  0  0
  -27.7284  -11.2405   18.9095 H   0  0  0  0  0  0
  -27.3854  -12.5035   17.7745 H   0  0  0  0  0  0
  -27.6280  -14.2190   19.4312 H   0  0  0  0  0  0
  -28.7046  -12.1877   21.4484 H   0  0  0  0  0  0
  -28.4876  -13.9065   21.7113 H   0  0  0  0  0  0
  -25.2740   -9.5697   22.4788 H   0  0  0  0  0  0
  -24.0008   -7.4627   22.7468 H   0  0  0  0  0  0
  -21.0845   -8.8775   19.8941 H   0  0  0  0  0  0
  -22.3688  -10.9692   19.6195 H   0  0  0  0  0  0
  -21.2020   -7.6156   23.9706 H   0  0  0  0  0  0
  -21.1478   -6.0533   25.9067 H   0  0  0  0  0  0
  -22.0600   -2.7613   23.2844 H   0  0  0  0  0  0
  -22.4125  -11.9863   22.4748 H   0  0  0  0  0  0
  -21.1111  -13.1229   22.2662 H   0  0  0  0  0  0
  -24.6737  -15.8528   20.5333 H   0  0  0  0  0  0
  -26.2990  -15.6267   20.1230 H   0  0  0  0  0  0
  -26.7106  -32.5548   23.1156 H   0  0  0  0  0  0
  -25.0027  -33.9769   25.0455 H   0  0  0  0  0  0
  -22.6901  -31.3058   21.4065 H   0  0  0  0  0  0
  -23.3746  -35.9658   23.3297 H   0  0  0  0  0  0
  -24.3593  -36.8938   22.2052 H   0  0  0  0  0  0
  -23.7250  -37.6522   23.6659 H   0  0  0  0  0  0
  -26.0335  -31.5971   20.5895 H   0  0  0  0  0  0
  -26.8177  -30.8961   21.9774 H   0  0  0  0  0  0
  -28.0947  -29.0995   21.1990 H   0  0  0  0  0  0
  -26.0891  -25.9669   19.0250 H   0  0  0  0  0  0
  -23.9918  -27.2880   19.0301 H   0  0  0  0  0  0
  -23.7213  -30.5948   19.4026 H   0  0  0  0  0  0
  -22.7386  -29.2373   19.8666 H   0  0  0  0  0  0
  -25.1283  -36.1974   25.0823 H   0  0  0  0  0  0
  -20.9930  -28.3249   24.1437 H   0  0  0  0  0  0
  -20.5651  -26.2285   23.3617 H   0  0  0  0  0  0
  -21.6634  -26.7451   22.1226 H   0  0  0  0  0  0
  -19.6916  -25.6295   21.1240 H   0  0  0  0  0  0
  -19.6685  -27.3194   20.6741 H   0  0  0  0  0  0
  -17.4186  -26.6656   21.4020 H   0  0  0  0  0  0
  -18.0321  -26.0060   22.9011 H   0  0  0  0  0  0
  -19.7934  -30.7224   24.2323 H   0  0  0  0  0  0
  -17.5026  -31.6276   24.5165 H   0  0  0  0  0  0
  -15.5354  -30.3021   23.7627 H   0  0  0  0  0  0
  -15.8645  -28.0839   22.7063 H   0  0  0  0  0  0
  -24.5928  -30.7011   25.7786 H   0  0  0  0  0  0
  -24.8924  -32.2835   26.4896 H   0  0  0  0  0  0
  -25.8102  -30.8855   27.0210 H   0  0  0  0  0  0
  -26.2830  -29.6786   24.1130 H   0  0  0  0  0  0
  -27.4089  -29.7252   25.4500 H   0  0  0  0  0  0
  -27.8658  -30.4331   23.9181 H   0  0  0  0  0  0
  -27.2669  -33.3583   26.2070 H   0  0  0  0  0  0
  -28.3862  -32.6854   25.0304 H   0  0  0  0  0  0
  -28.0713  -31.8393   26.5376 H   0  0  0  0  0  0
  -28.2590  -38.0117   24.7524 H   0  0  0  0  0  0
  -28.1087  -36.2648   24.6261 H   0  0  0  0  0  0
  -27.2305  -37.1435   25.8863 H   0  0  0  0  0  0
  -20.9291  -29.8777   21.6962 H   0  0  0  0  0  0
  -26.0184  -38.2866   24.1417 H   0  0  0  0  0  0
  -28.7807  -19.8978   18.3822 H   0  0  0  0  0  0
  -29.8538  -19.3812   22.4972 H   0  0  0  0  0  0
  -29.0850  -18.2978   16.8559 H   0  0  0  0  0  0
  -28.0933  -16.9778   17.4449 H   0  0  0  0  0  0
  -31.1532  -16.9813   17.2910 H   0  0  0  0  0  0
  -30.0852  -16.1712   16.1589 H   0  0  0  0  0  0
  -30.8898  -14.6432   17.8681 H   0  0  0  0  0  0
  -29.1284  -14.8229   17.8738 H   0  0  0  0  0  0
  -30.2151  -17.3236   23.4296 H   0  0  0  0  0  0
  -31.3207  -16.4104   22.4198 H   0  0  0  0  0  0
  -29.6381  -15.8750   22.6319 H   0  0  0  0  0  0
  -29.3276  -23.7126   19.9266 H   0  0  0  0  0  0
  -30.4368  -23.9386   21.2457 H   0  0  0  0  0  0
  -28.4546  -24.5002   22.7409 H   0  0  0  0  0  0
  -27.4122  -24.4581   21.3492 H   0  0  0  0  0  0
  -29.8629  -26.3027   21.4869 H   0  0  0  0  0  0
  -28.3537  -26.7577   22.2050 H   0  0  0  0  0  0
  -29.1643  -21.6858   19.5645 H   0  0  0  0  0  0
  1 25  1  0  0  0
  1 30  2  0  0  0
  1 85  1  0  0  0
  2  3  1  0  0  0
  2 25  1  0  0  0
  2 88  1  0  0  0
  2 89  1  0  0  0
  3  4  1  0  0  0
  3 90  1  0  0  0
  3 91  1  0  0  0
  4  5  1  0  0  0
  4 92  1  0  0  0
  4 93  1  0  0  0
  5  6  1  0  0  0
  5 26  1  0  0  0
  5 94  1  0  0  0
  6 25  1  0  0  0
  6 95  1  0  0  0
  6 96  1  0  0  0
  7  8  2  0  0  0
  7 26  1  0  0  0
  7 29  1  0  0  0
  8  9  1  0  0  0
  8 22  1  0  0  0
  9 10  1  0  0  0
  9 27  2  0  0  0
 10 11  2  0  0  0
 10 15  1  0  0  0
 11 12  1  0  0  0
 11 97  1  0  0  0
 12 13  2  0  0  0
 12 98  1  0  0  0
 13 14  1  0  0  0
 13 31  1  0  0  0
 14 15  2  0  0  0
 14 99  1  0  0  0
 15100  1  0  0  0
 16 17  2  0  0  0
 16 21  1  0  0  0
 16 31  1  0  0  0
 17 18  1  0  0  0
 17101  1  0  0  0
 18 19  2  0  0  0
 18102  1  0  0  0
 19 20  1  0  0  0
 19 24  1  0  0  0
 20 21  2  0  0  0
 20103  1  0  0  0
 21 23  1  0  0  0
 22 28  1  0  0  0
 22 32  2  0  0  0
 26 27  1  0  0  0
 28104  1  0  0  0
 28105  1  0  0  0
 29106  1  0  0  0
 29107  1  0  0  0
 33 34  1  0  0  0
 33 66  1  0  0  0
 33 70  2  0  0  0
 34 36  1  0  0  0
 34 59  1  0  0  0
 34108  1  0  0  0
 35 44  2  0  0  0
 35 45  1  0  0  0
 35 68  1  0  0  0
 36 56  1  0  0  0
 36109  1  0  0  0
 37 39  1  0  0  0
 37 47  1  0  0  0
 37 66  1  0  0  0
 37110  1  0  0  0
 38 43  2  0  0  0
 38 46  1  0  0  0
 38 47  1  0  0  0
 39 64  1  0  0  0
 39 67  2  0  0  0
 40 52  1  0  0  0
 40 53  2  0  0  0
 40 58  1  0  0  0
 41111  1  0  0  0
 41112  1  0  0  0
 41113  1  0  0  0
 41 48  1  0  0  0
 42 43  1  0  0  0
 42 66  1  0  0  0
 42114  1  0  0  0
 42115  1  0  0  0
 43 44  1  0  0  0
 44116  1  0  0  0
 45 46  2  0  0  0
 45117  1  0  0  0
 46118  1  0  0  0
 47119  1  0  0  0
 47120  1  0  0  0
 48 56  1  0  0  0
 48 65  1  0  0  0
 48121  1  0  0  0
 49 50  1  0  0  0
 49 53  1  0  0  0
 49 64  1  0  0  0
 49122  1  0  0  0
 50 51  1  0  0  0
 50123  1  0  0  0
 50124  1  0  0  0
 51 52  1  0  0  0
 51125  1  0  0  0
 51126  1  0  0  0
 52127  1  0  0  0
 52128  1  0  0  0
 53 54  1  0  0  0
 54 55  2  0  0  0
 54129  1  0  0  0
 55 57  1  0  0  0
 55130  1  0  0  0
 56 69  2  0  0  0
 57 58  2  0  0  0
 57131  1  0  0  0
 58132  1  0  0  0
 59 60  1  0  0  0
 59 61  1  0  0  0
 59 62  1  0  0  0
 60133  1  0  0  0
 60134  1  0  0  0
 60135  1  0  0  0
 61136  1  0  0  0
 61137  1  0  0  0
 61138  1  0  0  0
 62139  1  0  0  0
 62140  1  0  0  0
 62141  1  0  0  0
 63 65  1  0  0  0
 63142  1  0  0  0
 63143  1  0  0  0
 63144  1  0  0  0
 64145  1  0  0  0
 65146  1  0  0  0
 68 84  1  0  0  0
 71 73  2  0  0  0
 71 76  1  0  0  0
 71147  1  0  0  0
 72 74  1  0  0  0
 72 76  2  0  0  0
 72148  1  0  0  0
 73 75  1  0  0  0
 73 78  1  0  0  0
 74 75  2  0  0  0
 74 81  1  0  0  0
 75 85  1  0  0  0
 76 86  1  0  0  0
 77 82  1  0  0  0
 77 86  1  0  0  0
 77 87  2  0  0  0
 78 79  1  0  0  0
 78149  1  0  0  0
 78150  1  0  0  0
 79 80  1  0  0  0
 79151  1  0  0  0
 79152  1  0  0  0
 80 85  1  0  0  0
 80153  1  0  0  0
 80154  1  0  0  0
 81155  1  0  0  0
 81156  1  0  0  0
 81157  1  0  0  0
 82 83  1  0  0  0
 82158  1  0  0  0
 82159  1  0  0  0
 83 84  1  0  0  0
 83160  1  0  0  0
 83161  1  0  0  0
 84162  1  0  0  0
 84163  1  0  0  0
 86164  1  0  0  0
M  ISO  4   1 100  68 101  84 101  85 100
M  END
> <chiral flag>
0

> <version>
0

> <s_m_source_file>
/data/baiqing/PycharmProjects/Reinvent-master-3.2/result/LINK_invent/BTK/process_docking_weight1_custom_product_contain_oxygen_bond_distance_aromatic_linkinvent_7_9_3/rearranged_h_0149.sdf

> <i_m_source_file_index>
69

> <r_mmod_Potential_Energy-OPLS-2005>
238.043350219727

> <r_mmod_Stretch_Energy-OPLS-2005>
57.4890441894531

> <r_mmod_Bend_Energy-OPLS-2005>
154.015396118164

> <r_mmod_Torsional_Energy-OPLS-2005>
350.543487548828

> <r_mmod_Improper_Torsional_Energy-OPLS-2005>
26.7245979309082

> <r_mmod_Van_der_Waal_Energy-OPLS-2005>
166.373794555664

> <r_mmod_Electrostatic_Energy-OPLS-2005>
-366.418975830078

> <r_mmod_Solvation_Energy-OPLS-2005>
-212.986312866211

> <b_mmod_Minimization_Converged-OPLS-2005>
0

> <r_mmod_RMS_Derivative-OPLS-2005>
1.20205926895142

$$$$
69
                    3D
 Structure written by MMmdl.
165173  0  0  1  0            999 V2000
  -30.7298  -14.5751   20.5850 C   0  0  0  0  0  0
  -30.4232  -12.3597   19.4758 C   0  0  0  0  0  0
  -29.5216  -12.5461   18.2393 C   0  0  0  0  0  0
  -28.0494  -12.3608   18.6484 C   0  0  0  0  0  0
  -27.6656  -13.2276   19.8734 C   0  0  2  0  0  0
  -28.7045  -13.1106   21.0168 C   0  0  0  0  0  0
  -25.2515  -13.8115   20.5610 C   0  0  0  0  0  0
  -24.1806  -13.0390   20.9204 C   0  0  0  0  0  0
  -24.6405  -11.6892   20.8732 C   0  0  0  0  0  0
  -23.9019  -10.4288   21.0402 C   0  0  0  0  0  0
  -24.3565   -9.4236   21.9204 C   0  0  0  0  0  0
  -23.6270   -8.2255   22.0753 C   0  0  0  0  0  0
  -22.4256   -8.0232   21.3514 C   0  0  0  0  0  0
  -21.9881   -9.0220   20.4656 C   0  0  0  0  0  0
  -22.7181  -10.2118   20.3074 C   0  0  0  0  0  0
  -21.6867   -6.0705   22.5269 C   0  0  0  0  0  0
  -21.4038   -6.5619   23.8185 C   0  0  0  0  0  0
  -21.3693   -5.6764   24.9141 C   0  0  0  0  0  0
  -21.6036   -4.3028   24.7206 C   0  0  0  0  0  0
  -21.8838   -3.8112   23.4324 C   0  0  0  0  0  0
  -21.9225   -4.6939   22.3382 C   0  0  0  0  0  0
  -22.7807  -13.5264   21.1834 C   0  0  0  0  0  0
  -22.1682   -4.2140   21.0959 F   0  0  0  0  0  0
  -21.5641   -3.4490   25.7715 F   0  0  0  0  0  0
  -30.0560  -13.3813   20.4809 N   0  0  0  0  0  0
  -26.3036  -12.9377   20.3329 N   0  0  0  0  0  0
  -25.9345  -11.6486   20.5725 N   0  0  0  0  0  0
  -22.0398  -12.8270   22.0369 N   0  0  0  0  0  0
  -25.3930  -15.1798   20.3885 N   0  0  0  0  0  0
  -31.7416  -14.8129   19.9230 O   0  0  0  0  0  0
  -21.6605   -6.8822   21.4205 O   0  0  0  0  0  0
  -22.3564  -14.5642   20.6776 O   0  0  0  0  0  0
  -24.6177  -31.8696   23.2104 C   0  0  0  0  0  0
  -25.9050  -32.4854   23.8436 C   0  0  1  0  0  0
  -27.2262  -27.3417   20.2008 C   0  0  0  0  0  0
  -25.5875  -33.8665   24.2375 N   0  0  0  0  0  0
  -23.4130  -30.4896   21.5442 C   0  0  2  0  0  0
  -24.8729  -28.9368   20.1348 C   0  0  0  0  0  0
  -22.7420  -29.4683   22.4911 C   0  0  0  0  0  0
  -18.0284  -28.1362   22.8481 C   0  0  0  0  0  0
  -24.1473  -36.7324   23.2651 C   0  0  0  0  0  0
  -25.9467  -30.8048   21.3847 C   0  0  0  0  0  0
  -26.0232  -29.4174   20.7707 C   0  0  0  0  0  0
  -27.1999  -28.6235   20.8185 C   0  0  0  0  0  0
  -26.0831  -26.9303   19.4904 C   0  0  0  0  0  0
  -24.8983  -27.6911   19.4851 C   0  0  0  0  0  0
  -23.6422  -29.8160   20.1615 C   0  0  0  0  0  0
  -25.4102  -36.3158   24.0354 C   0  0  1  0  0  0
  -20.5874  -28.3682   23.1256 C   0  0  2  0  0  0
  -20.6758  -26.9397   22.5371 C   0  0  0  0  0  0
  -19.5728  -26.6385   21.5159 C   0  0  0  0  0  0
  -18.1913  -26.7908   22.1612 C   0  0  0  0  0  0
  -19.1531  -28.8828   23.2884 C   0  0  0  0  0  0
  -18.9475  -30.1432   23.8906 C   0  0  0  0  0  0
  -17.6475  -30.6576   24.0552 C   0  0  0  0  0  0
  -25.9018  -34.9509   23.5152 C   0  0  0  0  0  0
  -16.5359  -29.9071   23.6334 C   0  0  0  0  0  0
  -16.7280  -28.6479   23.0371 C   0  0  0  0  0  0
  -26.4500  -31.6623   25.0756 C   0  0  0  0  0  0
  -25.3770  -31.3708   26.1499 C   0  0  0  0  0  0
  -27.0296  -30.3045   24.6129 C   0  0  0  0  0  0
  -27.6131  -32.4304   25.7481 C   0  0  0  0  0  0
  -27.5577  -37.1827   24.8475 C   0  0  0  0  0  0
  -21.4141  -29.3062   22.3649 N   0  0  0  0  0  0
  -26.4289  -37.3838   23.9404 N   0  0  0  0  0  0
  -24.6758  -31.0730   22.1043 N   0  0  0  0  0  0
  -23.4157  -28.8189   23.2974 O   0  0  0  0  0  0
  -28.3664  -26.5519   20.1095 O   0  0  0  0  0  0
  -26.5579  -34.8943   22.4723 O   0  0  0  0  0  0
  -23.5335  -32.1483   23.7426 O   0  0  0  0  0  0
  -30.2574  -17.9912   21.2138 C   0  0  0  0  0  0
  -29.2532  -19.0501   21.2809 C   0  0  0  0  0  0
  -29.7334  -16.7041   21.3357 C   0  0  0  0  0  0
  -27.9757  -18.5532   21.3684 C   0  0  0  0  0  0
  -28.8970  -21.4772   21.9245 C   0  0  0  0  0  0
  -26.9015  -24.0459   21.9579 C   0  0  0  0  0  0
  -27.7780  -23.6570   19.6630 C   0  0  0  0  0  0
  -28.8263  -26.2148   22.5284 C   0  0  0  0  0  0
  -30.2901  -25.5068   20.6340 C   0  0  0  0  0  0
  -29.2641  -22.9739   21.6496 C   0  0  0  0  0  0
  -28.2022  -24.0670   21.1030 C   0  0  0  0  0  0
  -28.8209  -25.5714   21.1138 C   0  0  0  0  0  0
  -26.7597  -19.2229   21.4278 N   0  0  0  0  0  0
  -29.5113  -20.4775   21.2128 N   0  0  0  0  0  0
  -30.2992  -15.4552   21.5216 N   0  0  0  0  0  0
  -28.1552  -21.2328   22.8788 O   0  0  0  0  0  0
  -27.9952  -16.8160   21.4712 S   0  0  0  0  0  0
  -31.4819  -12.4022   19.2054 H   0  0  0  0  0  0
  -30.2616  -11.3617   19.8894 H   0  0  0  0  0  0
  -29.7899  -11.8362   17.4552 H   0  0  0  0  0  0
  -29.6715  -13.5377   17.8133 H   0  0  0  0  0  0
  -27.9025  -11.3044   18.8835 H   0  0  0  0  0  0
  -27.3907  -12.5826   17.8080 H   0  0  0  0  0  0
  -27.6814  -14.2623   19.5310 H   0  0  0  0  0  0
  -28.6821  -12.1308   21.4951 H   0  0  0  0  0  0
  -28.4299  -13.8131   21.8023 H   0  0  0  0  0  0
  -25.2692   -9.5783   22.4755 H   0  0  0  0  0  0
  -24.0025   -7.4694   22.7476 H   0  0  0  0  0  0
  -21.0820   -8.8760   19.8952 H   0  0  0  0  0  0
  -22.3645  -10.9650   19.6200 H   0  0  0  0  0  0
  -21.1996   -7.6115   23.9714 H   0  0  0  0  0  0
  -21.1512   -6.0442   25.9069 H   0  0  0  0  0  0
  -22.0596   -2.7566   23.2778 H   0  0  0  0  0  0
  -22.3941  -11.9920   22.4799 H   0  0  0  0  0  0
  -21.1079  -13.1439   22.2559 H   0  0  0  0  0  0
  -24.6115  -15.8124   20.5251 H   0  0  0  0  0  0
  -26.2155  -15.6394   20.0212 H   0  0  0  0  0  0
  -26.7112  -32.5602   23.1206 H   0  0  0  0  0  0
  -24.9983  -33.9847   25.0468 H   0  0  0  0  0  0
  -22.7033  -31.3069   21.3935 H   0  0  0  0  0  0
  -23.3743  -35.9655   23.3403 H   0  0  0  0  0  0
  -24.3536  -36.8853   22.2046 H   0  0  0  0  0  0
  -23.7213  -37.6546   23.6607 H   0  0  0  0  0  0
  -26.0541  -31.5426   20.5877 H   0  0  0  0  0  0
  -26.8348  -30.8866   21.9963 H   0  0  0  0  0  0
  -28.0777  -28.9909   21.3305 H   0  0  0  0  0  0
  -26.1209  -26.0276   18.9036 H   0  0  0  0  0  0
  -24.0302  -27.3305   18.9526 H   0  0  0  0  0  0
  -23.7793  -30.5874   19.4034 H   0  0  0  0  0  0
  -22.7664  -29.2432   19.8507 H   0  0  0  0  0  0
  -25.1276  -36.2064   25.0843 H   0  0  0  0  0  0
  -21.0017  -28.3253   24.1363 H   0  0  0  0  0  0
  -20.5596  -26.2290   23.3571 H   0  0  0  0  0  0
  -21.6638  -26.7380   22.1212 H   0  0  0  0  0  0
  -19.6879  -25.6284   21.1191 H   0  0  0  0  0  0
  -19.6644  -27.3192   20.6679 H   0  0  0  0  0  0
  -17.4164  -26.6667   21.4031 H   0  0  0  0  0  0
  -18.0353  -26.0040   22.9009 H   0  0  0  0  0  0
  -19.7951  -30.7233   24.2295 H   0  0  0  0  0  0
  -17.5040  -31.6265   24.5134 H   0  0  0  0  0  0
  -15.5366  -30.2977   23.7642 H   0  0  0  0  0  0
  -15.8690  -28.0791   22.7101 H   0  0  0  0  0  0
  -24.5892  -30.7148   25.7780 H   0  0  0  0  0  0
  -24.9021  -32.2854   26.5059 H   0  0  0  0  0  0
  -25.8097  -30.8739   27.0194 H   0  0  0  0  0  0
  -26.2793  -29.6786   24.1281 H   0  0  0  0  0  0
  -27.4143  -29.7308   25.4574 H   0  0  0  0  0  0
  -27.8632  -30.4331   23.9222 H   0  0  0  0  0  0
  -27.2854  -33.3641   26.2071 H   0  0  0  0  0  0
  -28.3932  -32.6800   25.0272 H   0  0  0  0  0  0
  -28.0830  -31.8406   26.5367 H   0  0  0  0  0  0
  -28.2660  -38.0069   24.7502 H   0  0  0  0  0  0
  -28.1000  -36.2602   24.6336 H   0  0  0  0  0  0
  -27.2286  -37.1557   25.8878 H   0  0  0  0  0  0
  -20.9270  -29.8827   21.6912 H   0  0  0  0  0  0
  -26.0208  -38.2930   24.1374 H   0  0  0  0  0  0
  -31.3180  -18.2066   21.1488 H   0  0  0  0  0  0
  -26.3465  -23.1138   21.8474 H   0  0  0  0  0  0
  -26.2209  -24.8510   21.6746 H   0  0  0  0  0  0
  -27.1004  -24.1557   23.0252 H   0  0  0  0  0  0
  -27.5992  -22.5845   19.5797 H   0  0  0  0  0  0
  -28.5126  -23.9259   18.9048 H   0  0  0  0  0  0
  -26.8412  -24.1239   19.3727 H   0  0  0  0  0  0
  -29.3286  -25.5823   23.2622 H   0  0  0  0  0  0
  -27.8253  -26.4135   22.9088 H   0  0  0  0  0  0
  -29.3529  -27.1684   22.5316 H   0  0  0  0  0  0
  -30.9339  -24.8849   21.2554 H   0  0  0  0  0  0
  -30.7513  -26.4925   20.6439 H   0  0  0  0  0  0
  -30.3456  -25.1354   19.6091 H   0  0  0  0  0  0
  -30.1499  -22.9356   21.0176 H   0  0  0  0  0  0
  -29.6305  -23.3238   22.6181 H   0  0  0  0  0  0
  -26.8158  -19.9538   22.1399 H   0  0  0  0  0  0
  -25.9365  -18.6501   21.5740 H   0  0  0  0  0  0
  -30.2273  -20.7543   20.5584 H   0  0  0  0  0  0
  -29.8177  -14.9433   22.2419 H   0  0  0  0  0  0
  1 25  1  0  0  0
  1 30  2  0  0  0
  1 85  1  0  0  0
  2  3  1  0  0  0
  2 25  1  0  0  0
  2 88  1  0  0  0
  2 89  1  0  0  0
  3  4  1  0  0  0
  3 90  1  0  0  0
  3 91  1  0  0  0
  4  5  1  0  0  0
  4 92  1  0  0  0
  4 93  1  0  0  0
  5  6  1  0  0  0
  5 26  1  0  0  0
  5 94  1  0  0  0
  6 25  1  0  0  0
  6 95  1  0  0  0
  6 96  1  0  0  0
  7  8  2  0  0  0
  7 26  1  0  0  0
  7 29  1  0  0  0
  8  9  1  0  0  0
  8 22  1  0  0  0
  9 10  1  0  0  0
  9 27  2  0  0  0
 10 11  2  0  0  0
 10 15  1  0  0  0
 11 12  1  0  0  0
 11 97  1  0  0  0
 12 13  2  0  0  0
 12 98  1  0  0  0
 13 14  1  0  0  0
 13 31  1  0  0  0
 14 15  2  0  0  0
 14 99  1  0  0  0
 15100  1  0  0  0
 16 17  2  0  0  0
 16 21  1  0  0  0
 16 31  1  0  0  0
 17 18  1  0  0  0
 17101  1  0  0  0
 18 19  2  0  0  0
 18102  1  0  0  0
 19 20  1  0  0  0
 19 24  1  0  0  0
 20 21  2  0  0  0
 20103  1  0  0  0
 21 23  1  0  0  0
 22 28  1  0  0  0
 22 32  2  0  0  0
 26 27  1  0  0  0
 28104  1  0  0  0
 28105  1  0  0  0
 29106  1  0  0  0
 29107  1  0  0  0
 33 34  1  0  0  0
 33 66  1  0  0  0
 33 70  2  0  0  0
 34 36  1  0  0  0
 34 59  1  0  0  0
 34108  1  0  0  0
 35 44  2  0  0  0
 35 45  1  0  0  0
 35 68  1  0  0  0
 36 56  1  0  0  0
 36109  1  0  0  0
 37 39  1  0  0  0
 37 47  1  0  0  0
 37 66  1  0  0  0
 37110  1  0  0  0
 38 43  2  0  0  0
 38 46  1  0  0  0
 38 47  1  0  0  0
 39 64  1  0  0  0
 39 67  2  0  0  0
 40 52  1  0  0  0
 40 53  2  0  0  0
 40 58  1  0  0  0
 41111  1  0  0  0
 41112  1  0  0  0
 41113  1  0  0  0
 41 48  1  0  0  0
 42 43  1  0  0  0
 42 66  1  0  0  0
 42114  1  0  0  0
 42115  1  0  0  0
 43 44  1  0  0  0
 44116  1  0  0  0
 45 46  2  0  0  0
 45117  1  0  0  0
 46118  1  0  0  0
 47119  1  0  0  0
 47120  1  0  0  0
 48 56  1  0  0  0
 48 65  1  0  0  0
 48121  1  0  0  0
 49 50  1  0  0  0
 49 53  1  0  0  0
 49 64  1  0  0  0
 49122  1  0  0  0
 50 51  1  0  0  0
 50123  1  0  0  0
 50124  1  0  0  0
 51 52  1  0  0  0
 51125  1  0  0  0
 51126  1  0  0  0
 52127  1  0  0  0
 52128  1  0  0  0
 53 54  1  0  0  0
 54 55  2  0  0  0
 54129  1  0  0  0
 55 57  1  0  0  0
 55130  1  0  0  0
 56 69  2  0  0  0
 57 58  2  0  0  0
 57131  1  0  0  0
 58132  1  0  0  0
 59 60  1  0  0  0
 59 61  1  0  0  0
 59 62  1  0  0  0
 60133  1  0  0  0
 60134  1  0  0  0
 60135  1  0  0  0
 61136  1  0  0  0
 61137  1  0  0  0
 61138  1  0  0  0
 62139  1  0  0  0
 62140  1  0  0  0
 62141  1  0  0  0
 63 65  1  0  0  0
 63142  1  0  0  0
 63143  1  0  0  0
 63144  1  0  0  0
 64145  1  0  0  0
 65146  1  0  0  0
 68 82  1  0  0  0
 71 72  1  0  0  0
 71 73  2  0  0  0
 71147  1  0  0  0
 72 74  2  0  0  0
 72 84  1  0  0  0
 73 85  1  0  0  0
 73 87  1  0  0  0
 74 83  1  0  0  0
 74 87  1  0  0  0
 75 80  1  0  0  0
 75 84  1  0  0  0
 75 86  2  0  0  0
 76148  1  0  0  0
 76149  1  0  0  0
 76150  1  0  0  0
 76 81  1  0  0  0
 77 81  1  0  0  0
 77151  1  0  0  0
 77152  1  0  0  0
 77153  1  0  0  0
 78154  1  0  0  0
 78155  1  0  0  0
 78156  1  0  0  0
 78 82  1  0  0  0
 79 82  1  0  0  0
 79157  1  0  0  0
 79158  1  0  0  0
 79159  1  0  0  0
 80 81  1  0  0  0
 80160  1  0  0  0
 80161  1  0  0  0
 81 82  1  0  0  0
 83162  1  0  0  0
 83163  1  0  0  0
 84164  1  0  0  0
 85165  1  0  0  0
M  ISO  4   1 100  68 101  82 101  85 100
M  END
> <chiral flag>
0

> <version>
0

> <s_m_source_file>
/data/baiqing/PycharmProjects/Reinvent-master-3.2/result/LINK_invent/BTK/process_docking_weight1_custom_product_contain_oxygen_bond_distance_aromatic_linkinvent_7_9_3/rearranged_h_0149.sdf

> <i_m_source_file_index>
70

> <r_mmod_Potential_Energy-OPLS-2005>
35.7465705871582

> <r_mmod_Stretch_Energy-OPLS-2005>
80.8810119628906

> <r_mmod_Bend_Energy-OPLS-2005>
183.16780090332

> <r_mmod_Torsional_Energy-OPLS-2005>
304.766204833984

> <r_mmod_Improper_Torsional_Energy-OPLS-2005>
15.1328287124634

> <r_mmod_Van_der_Waal_Energy-OPLS-2005>
127.583862304688

> <r_mmod_Electrostatic_Energy-OPLS-2005>
-492.331970214844

> <r_mmod_Solvation_Energy-OPLS-2005>
-220.246841430664

> <b_mmod_Minimization_Converged-OPLS-2005>
0

> <r_mmod_RMS_Derivative-OPLS-2005>
8.52737236022949

$$$$
70
                    3D
 Structure written by MMmdl.
162170  0  0  1  0            999 V2000
  -30.6190  -14.6062   20.4157 C   0  0  0  0  0  0
  -30.4173  -12.3199   19.4710 C   0  0  0  0  0  0
  -29.5004  -12.3515   18.2277 C   0  0  0  0  0  0
  -28.0111  -12.2852   18.6320 C   0  0  0  0  0  0
  -27.6342  -13.1945   19.8363 C   0  0  2  0  0  0
  -28.6777  -13.0879   20.9661 C   0  0  0  0  0  0
  -25.2546  -13.8141   20.5665 C   0  0  0  0  0  0
  -24.1795  -13.0426   20.9179 C   0  0  0  0  0  0
  -24.6330  -11.6892   20.8724 C   0  0  0  0  0  0
  -23.9038  -10.4255   21.0394 C   0  0  0  0  0  0
  -24.3598   -9.4179   21.9165 C   0  0  0  0  0  0
  -23.6278   -8.2209   22.0724 C   0  0  0  0  0  0
  -22.4256   -8.0253   21.3535 C   0  0  0  0  0  0
  -21.9900   -9.0228   20.4641 C   0  0  0  0  0  0
  -22.7218  -10.2105   20.3062 C   0  0  0  0  0  0
  -21.6838   -6.0714   22.5298 C   0  0  0  0  0  0
  -21.3991   -6.5639   23.8219 C   0  0  0  0  0  0
  -21.3664   -5.6811   24.9201 C   0  0  0  0  0  0
  -21.6052   -4.3067   24.7258 C   0  0  0  0  0  0
  -21.8802   -3.8151   23.4377 C   0  0  0  0  0  0
  -21.9163   -4.6948   22.3430 C   0  0  0  0  0  0
  -22.7862  -13.5234   21.1908 C   0  0  0  0  0  0
  -22.1641   -4.2138   21.0995 F   0  0  0  0  0  0
  -21.5646   -3.4554   25.7764 F   0  0  0  0  0  0
  -29.9873  -13.3948   20.3839 N   0  0  0  0  0  0
  -26.2878  -12.9238   20.3207 N   0  0  0  0  0  0
  -25.9229  -11.6434   20.5762 N   0  0  0  0  0  0
  -22.0569  -12.8136   22.0464 N   0  0  0  0  0  0
  -25.4363  -15.1845   20.4113 N   0  0  0  0  0  0
  -31.8250  -14.7091   20.1701 O   0  0  0  0  0  0
  -21.6632   -6.8851   21.4249 O   0  0  0  0  0  0
  -22.3529  -14.5562   20.6828 O   0  0  0  0  0  0
  -24.6176  -31.8636   23.2064 C   0  0  0  0  0  0
  -25.9055  -32.4807   23.8377 C   0  0  1  0  0  0
  -27.2378  -27.3800   20.1062 C   0  0  0  0  0  0
  -25.5869  -33.8598   24.2290 N   0  0  0  0  0  0
  -23.4067  -30.4834   21.5487 C   0  0  2  0  0  0
  -24.8553  -28.9420   20.1105 C   0  0  0  0  0  0
  -22.7427  -29.4604   22.5006 C   0  0  0  0  0  0
  -18.0250  -28.1398   22.8552 C   0  0  0  0  0  0
  -24.1468  -36.7304   23.2637 C   0  0  0  0  0  0
  -25.9370  -30.8137   21.3620 C   0  0  0  0  0  0
  -26.0155  -29.4397   20.7151 C   0  0  0  0  0  0
  -27.2039  -28.6665   20.7099 C   0  0  0  0  0  0
  -26.0564  -26.9087   19.4914 C   0  0  0  0  0  0
  -24.8747  -27.6794   19.4911 C   0  0  0  0  0  0
  -23.6166  -29.8134   20.1620 C   0  0  0  0  0  0
  -25.4093  -36.3095   24.0331 C   0  0  1  0  0  0
  -20.5849  -28.3673   23.1372 C   0  0  2  0  0  0
  -20.6693  -26.9380   22.5509 C   0  0  0  0  0  0
  -19.5695  -26.6464   21.5248 C   0  0  0  0  0  0
  -18.1897  -26.7917   22.1721 C   0  0  0  0  0  0
  -19.1521  -28.8865   23.2941 C   0  0  0  0  0  0
  -18.9460  -30.1473   23.8962 C   0  0  0  0  0  0
  -17.6461  -30.6617   24.0622 C   0  0  0  0  0  0
  -25.9031  -34.9451   23.5110 C   0  0  0  0  0  0
  -16.5351  -29.9117   23.6382 C   0  0  0  0  0  0
  -16.7236  -28.6528   23.0409 C   0  0  0  0  0  0
  -26.4447  -31.6594   25.0729 C   0  0  0  0  0  0
  -25.3694  -31.3727   26.1486 C   0  0  0  0  0  0
  -27.0276  -30.3038   24.6101 C   0  0  0  0  0  0
  -27.6025  -32.4317   25.7489 C   0  0  0  0  0  0
  -27.5561  -37.1804   24.8464 C   0  0  0  0  0  0
  -21.4147  -29.3011   22.3764 N   0  0  0  0  0  0
  -26.4273  -37.3799   23.9401 N   0  0  0  0  0  0
  -24.6730  -31.0695   22.0975 N   0  0  0  0  0  0
  -23.4182  -28.8164   23.3079 O   0  0  0  0  0  0
  -28.4122  -26.6346   20.1601 O   0  0  0  0  0  0
  -26.5640  -34.8906   22.4700 O   0  0  0  0  0  0
  -23.5350  -32.1396   23.7421 O   0  0  0  0  0  0
  -29.5173  -16.3918   22.6319 C   0  0  0  0  0  0
  -29.6170  -16.7530   21.2476 C   0  0  0  0  0  0
  -29.2334  -17.4531   23.4457 C   0  0  0  0  0  0
  -29.4215  -18.1325   21.0192 C   0  0  0  0  0  0
  -29.0926  -20.1014   19.4423 C   0  0  0  0  0  0
  -27.1613  -21.1074   20.7773 C   0  0  0  0  0  0
  -29.5066  -16.0418   18.8485 C   0  0  0  0  0  0
  -28.3319  -24.0383   20.3703 C   0  0  0  0  0  0
  -28.7982  -22.7158   19.6469 C   0  0  0  0  0  0
  -28.5575  -25.3380   19.5160 C   0  0  0  0  0  0
  -28.6321  -21.3039   20.3511 C   0  0  2  0  0  0
  -28.9999  -17.4826   24.8111 N   0  0  0  0  0  0
  -29.4478  -18.8409   19.8442 N   0  0  0  0  0  0
  -29.8098  -15.7103   20.2471 N   0  0  0  0  0  0
  -29.1232  -20.3070   18.2291 O   0  0  0  0  0  0
  -29.1531  -18.9348   22.5529 S   0  0  0  0  0  0
  -31.4650  -12.4056   19.1751 H   0  0  0  0  0  0
  -30.3203  -11.3521   19.9679 H   0  0  0  0  0  0
  -29.7253  -11.4824   17.6042 H   0  0  0  0  0  0
  -29.7194  -13.2125   17.5974 H   0  0  0  0  0  0
  -27.8261  -11.2464   18.9094 H   0  0  0  0  0  0
  -27.3637  -12.4757   17.7753 H   0  0  0  0  0  0
  -27.6263  -14.2144   19.4681 H   0  0  0  0  0  0
  -28.6787  -12.0887   21.4037 H   0  0  0  0  0  0
  -28.4293  -13.7687   21.7783 H   0  0  0  0  0  0
  -25.2741   -9.5640   22.4733 H   0  0  0  0  0  0
  -24.0009   -7.4602   22.7431 H   0  0  0  0  0  0
  -21.0832   -8.8747   19.8947 H   0  0  0  0  0  0
  -22.3686  -10.9640   19.6173 H   0  0  0  0  0  0
  -21.1980   -7.6152   23.9743 H   0  0  0  0  0  0
  -21.1510   -6.0532   25.9105 H   0  0  0  0  0  0
  -22.0562   -2.7612   23.2903 H   0  0  0  0  0  0
  -22.4252  -11.9713   22.4646 H   0  0  0  0  0  0
  -21.1213  -13.1099   22.2840 H   0  0  0  0  0  0
  -24.6881  -15.8508   20.5592 H   0  0  0  0  0  0
  -26.2971  -15.6160   20.1002 H   0  0  0  0  0  0
  -26.7111  -32.5506   23.1121 H   0  0  0  0  0  0
  -24.9983  -33.9741   25.0407 H   0  0  0  0  0  0
  -22.6929  -31.2987   21.4083 H   0  0  0  0  0  0
  -23.3722  -35.9655   23.3335 H   0  0  0  0  0  0
  -24.3566  -36.8898   22.2049 H   0  0  0  0  0  0
  -23.7211  -37.6505   23.6643 H   0  0  0  0  0  0
  -26.0420  -31.5709   20.5855 H   0  0  0  0  0  0
  -26.8275  -30.8834   21.9736 H   0  0  0  0  0  0
  -28.0975  -29.0497   21.1833 H   0  0  0  0  0  0
  -26.0178  -25.9415   19.0126 H   0  0  0  0  0  0
  -23.9831  -27.2919   19.0165 H   0  0  0  0  0  0
  -23.7159  -30.5880   19.3997 H   0  0  0  0  0  0
  -22.7398  -29.2300   19.8719 H   0  0  0  0  0  0
  -25.1260  -36.1976   25.0832 H   0  0  0  0  0  0
  -20.9940  -28.3269   24.1494 H   0  0  0  0  0  0
  -21.6588  -26.7275   22.1465 H   0  0  0  0  0  0
  -20.5412  -26.2311   23.3725 H   0  0  0  0  0  0
  -19.6825  -25.6412   21.1171 H   0  0  0  0  0  0
  -19.6586  -27.3383   20.6863 H   0  0  0  0  0  0
  -17.4104  -26.6544   21.4201 H   0  0  0  0  0  0
  -18.0406  -26.0094   22.9191 H   0  0  0  0  0  0
  -19.7963  -30.7258   24.2333 H   0  0  0  0  0  0
  -17.5027  -31.6301   24.5217 H   0  0  0  0  0  0
  -15.5350  -30.3036   23.7698 H   0  0  0  0  0  0
  -15.8618  -28.0865   22.7139 H   0  0  0  0  0  0
  -24.5860  -30.7086   25.7809 H   0  0  0  0  0  0
  -24.8906  -32.2907   26.4913 H   0  0  0  0  0  0
  -25.8052  -30.8899   27.0250 H   0  0  0  0  0  0
  -26.2837  -29.6843   24.1091 H   0  0  0  0  0  0
  -27.3974  -29.7241   25.4559 H   0  0  0  0  0  0
  -27.8690  -30.4363   23.9311 H   0  0  0  0  0  0
  -27.2643  -33.3596   26.2121 H   0  0  0  0  0  0
  -28.3815  -32.6927   25.0310 H   0  0  0  0  0  0
  -28.0728  -31.8419   26.5368 H   0  0  0  0  0  0
  -28.2611  -38.0069   24.7511 H   0  0  0  0  0  0
  -28.1024  -36.2611   24.6299 H   0  0  0  0  0  0
  -27.2300  -37.1482   25.8874 H   0  0  0  0  0  0
  -20.9291  -29.8794   21.7029 H   0  0  0  0  0  0
  -26.0160  -38.2877   24.1419 H   0  0  0  0  0  0
  -29.6183  -15.3765   22.9860 H   0  0  0  0  0  0
  -26.9318  -21.6772   21.6763 H   0  0  0  0  0  0
  -26.9255  -20.0650   20.9914 H   0  0  0  0  0  0
  -26.4732  -21.4349   19.9999 H   0  0  0  0  0  0
  -30.3713  -16.4794   18.3511 H   0  0  0  0  0  0
  -28.6567  -16.7190   18.7505 H   0  0  0  0  0  0
  -29.2223  -15.1628   18.2795 H   0  0  0  0  0  0
  -28.8647  -24.1405   21.3154 H   0  0  0  0  0  0
  -27.2751  -23.9648   20.6287 H   0  0  0  0  0  0
  -29.8547  -22.8268   19.4010 H   0  0  0  0  0  0
  -28.2867  -22.6862   18.6834 H   0  0  0  0  0  0
  -28.0003  -25.2835   18.5813 H   0  0  0  0  0  0
  -29.6012  -25.3197   19.2016 H   0  0  0  0  0  0
  -29.2757  -21.3163   21.2322 H   0  0  0  0  0  0
  -28.6172  -16.6615   25.2720 H   0  0  0  0  0  0
  -28.5526  -18.3267   25.1671 H   0  0  0  0  0  0
  -29.7384  -18.2741   19.0606 H   0  0  0  0  0  0
  1 25  1  0  0  0
  1 30  2  0  0  0
  1 84  1  0  0  0
  2  3  1  0  0  0
  2 25  1  0  0  0
  2 87  1  0  0  0
  2 88  1  0  0  0
  3  4  1  0  0  0
  3 89  1  0  0  0
  3 90  1  0  0  0
  4  5  1  0  0  0
  4 91  1  0  0  0
  4 92  1  0  0  0
  5  6  1  0  0  0
  5 26  1  0  0  0
  5 93  1  0  0  0
  6 25  1  0  0  0
  6 94  1  0  0  0
  6 95  1  0  0  0
  7  8  2  0  0  0
  7 26  1  0  0  0
  7 29  1  0  0  0
  8  9  1  0  0  0
  8 22  1  0  0  0
  9 10  1  0  0  0
  9 27  2  0  0  0
 10 11  2  0  0  0
 10 15  1  0  0  0
 11 12  1  0  0  0
 11 96  1  0  0  0
 12 13  2  0  0  0
 12 97  1  0  0  0
 13 14  1  0  0  0
 13 31  1  0  0  0
 14 15  2  0  0  0
 14 98  1  0  0  0
 15 99  1  0  0  0
 16 17  2  0  0  0
 16 21  1  0  0  0
 16 31  1  0  0  0
 17 18  1  0  0  0
 17100  1  0  0  0
 18 19  2  0  0  0
 18101  1  0  0  0
 19 20  1  0  0  0
 19 24  1  0  0  0
 20 21  2  0  0  0
 20102  1  0  0  0
 21 23  1  0  0  0
 22 28  1  0  0  0
 22 32  2  0  0  0
 26 27  1  0  0  0
 28103  1  0  0  0
 28104  1  0  0  0
 29105  1  0  0  0
 29106  1  0  0  0
 33 34  1  0  0  0
 33 66  1  0  0  0
 33 70  2  0  0  0
 34 36  1  0  0  0
 34 59  1  0  0  0
 34107  1  0  0  0
 35 44  2  0  0  0
 35 45  1  0  0  0
 35 68  1  0  0  0
 36 56  1  0  0  0
 36108  1  0  0  0
 37 39  1  0  0  0
 37 47  1  0  0  0
 37 66  1  0  0  0
 37109  1  0  0  0
 38 43  2  0  0  0
 38 46  1  0  0  0
 38 47  1  0  0  0
 39 64  1  0  0  0
 39 67  2  0  0  0
 40 52  1  0  0  0
 40 53  2  0  0  0
 40 58  1  0  0  0
 41110  1  0  0  0
 41111  1  0  0  0
 41112  1  0  0  0
 41 48  1  0  0  0
 42 43  1  0  0  0
 42 66  1  0  0  0
 42113  1  0  0  0
 42114  1  0  0  0
 43 44  1  0  0  0
 44115  1  0  0  0
 45 46  2  0  0  0
 45116  1  0  0  0
 46117  1  0  0  0
 47118  1  0  0  0
 47119  1  0  0  0
 48 56  1  0  0  0
 48 65  1  0  0  0
 48120  1  0  0  0
 49 50  1  0  0  0
 49 53  1  0  0  0
 49 64  1  0  0  0
 49121  1  0  0  0
 50 51  1  0  0  0
 50122  1  0  0  0
 50123  1  0  0  0
 51 52  1  0  0  0
 51124  1  0  0  0
 51125  1  0  0  0
 52126  1  0  0  0
 52127  1  0  0  0
 53 54  1  0  0  0
 54 55  2  0  0  0
 54128  1  0  0  0
 55 57  1  0  0  0
 55129  1  0  0  0
 56 69  2  0  0  0
 57 58  2  0  0  0
 57130  1  0  0  0
 58131  1  0  0  0
 59 60  1  0  0  0
 59 61  1  0  0  0
 59 62  1  0  0  0
 60132  1  0  0  0
 60133  1  0  0  0
 60134  1  0  0  0
 61135  1  0  0  0
 61136  1  0  0  0
 61137  1  0  0  0
 62138  1  0  0  0
 62139  1  0  0  0
 62140  1  0  0  0
 63 65  1  0  0  0
 63141  1  0  0  0
 63142  1  0  0  0
 63143  1  0  0  0
 64144  1  0  0  0
 65145  1  0  0  0
 68 80  1  0  0  0
 71 72  1  0  0  0
 71 73  2  0  0  0
 71146  1  0  0  0
 72 74  2  0  0  0
 72 84  1  0  0  0
 73 82  1  0  0  0
 73 86  1  0  0  0
 74 83  1  0  0  0
 74 86  1  0  0  0
 75 81  1  0  0  0
 75 83  1  0  0  0
 75 85  2  0  0  0
 76147  1  0  0  0
 76148  1  0  0  0
 76149  1  0  0  0
 76 81  1  0  0  0
 77 84  1  0  0  0
 77150  1  0  0  0
 77151  1  0  0  0
 77152  1  0  0  0
 78 79  1  0  0  0
 78 80  1  0  0  0
 78153  1  0  0  0
 78154  1  0  0  0
 79 81  1  0  0  0
 79155  1  0  0  0
 79156  1  0  0  0
 80157  1  0  0  0
 80158  1  0  0  0
 81159  1  0  0  0
 82160  1  0  0  0
 82161  1  0  0  0
 83162  1  0  0  0
M  ISO  4   1 100  68 101  80 101  84 100
M  END
> <chiral flag>
0

> <version>
0

> <s_m_source_file>
/data/baiqing/PycharmProjects/Reinvent-master-3.2/result/LINK_invent/BTK/process_docking_weight1_custom_product_contain_oxygen_bond_distance_aromatic_linkinvent_7_9_3/rearranged_h_0149.sdf

> <i_m_source_file_index>
71

> <r_mmod_Potential_Energy-OPLS-2005>
170.189575195312

> <r_mmod_Stretch_Energy-OPLS-2005>
65.5782089233398

> <r_mmod_Bend_Energy-OPLS-2005>
172.166778564453

> <r_mmod_Torsional_Energy-OPLS-2005>
305.875030517578

> <r_mmod_Improper_Torsional_Energy-OPLS-2005>
19.5611419677734

> <r_mmod_Van_der_Waal_Energy-OPLS-2005>
130.680847167969

> <r_mmod_Electrostatic_Energy-OPLS-2005>
-345.545349121094

> <r_mmod_Solvation_Energy-OPLS-2005>
-220.178527832031

> <b_mmod_Minimization_Converged-OPLS-2005>
0

> <r_mmod_RMS_Derivative-OPLS-2005>
5.56174564361572

$$$$
71
                    3D
 Structure written by MMmdl.
157166  0  0  1  0            999 V2000
  -30.5313  -14.8546   20.4337 C   0  0  0  0  0  0
  -30.4610  -12.5192   19.4804 C   0  0  0  0  0  0
  -29.5314  -12.5150   18.2431 C   0  0  0  0  0  0
  -28.0553  -12.3246   18.6519 C   0  0  0  0  0  0
  -27.6446  -13.2289   19.8449 C   0  0  2  0  0  0
  -28.6929  -13.1796   20.9791 C   0  0  0  0  0  0
  -25.2538  -13.8169   20.5668 C   0  0  0  0  0  0
  -24.1830  -13.0427   20.9219 C   0  0  0  0  0  0
  -24.6416  -11.6904   20.8742 C   0  0  0  0  0  0
  -23.9080  -10.4285   21.0389 C   0  0  0  0  0  0
  -24.3623   -9.4199   21.9175 C   0  0  0  0  0  0
  -23.6295   -8.2241   22.0749 C   0  0  0  0  0  0
  -22.4271   -8.0285   21.3539 C   0  0  0  0  0  0
  -21.9911   -9.0253   20.4635 C   0  0  0  0  0  0
  -22.7247  -10.2132   20.3039 C   0  0  0  0  0  0
  -21.6861   -6.0734   22.5269 C   0  0  0  0  0  0
  -21.4019   -6.5632   23.8203 C   0  0  0  0  0  0
  -21.3660   -5.6776   24.9163 C   0  0  0  0  0  0
  -21.6047   -4.3041   24.7210 C   0  0  0  0  0  0
  -21.8826   -3.8142   23.4323 C   0  0  0  0  0  0
  -21.9197   -4.6963   22.3387 C   0  0  0  0  0  0
  -22.7848  -13.5218   21.1854 C   0  0  0  0  0  0
  -22.1663   -4.2154   21.0968 F   0  0  0  0  0  0
  -21.5631   -3.4520   25.7724 F   0  0  0  0  0  0
  -29.9830  -13.5822   20.3979 N   0  0  0  0  0  0
  -26.2961  -12.9366   20.3223 N   0  0  0  0  0  0
  -25.9351  -11.6516   20.5722 N   0  0  0  0  0  0
  -22.0477  -12.8223   22.0398 N   0  0  0  0  0  0
  -25.4194  -15.1883   20.4029 N   0  0  0  0  0  0
  -31.7237  -15.0080   20.1449 O   0  0  0  0  0  0
  -21.6641   -6.8875   21.4230 O   0  0  0  0  0  0
  -22.3544  -14.5517   20.6681 O   0  0  0  0  0  0
  -24.6366  -31.8496   23.1945 C   0  0  0  0  0  0
  -25.9156  -32.4737   23.8321 C   0  0  1  0  0  0
  -27.2232  -27.1916   20.1378 C   0  0  0  0  0  0
  -25.5941  -33.8544   24.2252 N   0  0  0  0  0  0
  -23.4381  -30.4726   21.5380 C   0  0  2  0  0  0
  -24.8866  -28.9065   20.1136 C   0  0  0  0  0  0
  -22.7522  -29.4586   22.4876 C   0  0  0  0  0  0
  -18.0301  -28.1385   22.8499 C   0  0  0  0  0  0
  -24.1482  -36.7259   23.2650 C   0  0  0  0  0  0
  -25.9920  -30.7398   21.3844 C   0  0  0  0  0  0
  -26.0640  -29.3562   20.7253 C   0  0  0  0  0  0
  -27.2337  -28.5151   20.7207 C   0  0  0  0  0  0
  -26.0170  -26.8298   19.4957 C   0  0  0  0  0  0
  -24.8726  -27.6536   19.4862 C   0  0  0  0  0  0
  -23.6607  -29.8025   20.1568 C   0  0  0  0  0  0
  -25.4114  -36.3074   24.0341 C   0  0  1  0  0  0
  -20.5903  -28.3706   23.1246 C   0  0  2  0  0  0
  -20.6774  -26.9410   22.5397 C   0  0  0  0  0  0
  -19.5756  -26.6381   21.5199 C   0  0  0  0  0  0
  -18.1937  -26.7936   22.1614 C   0  0  0  0  0  0
  -19.1553  -28.8860   23.2875 C   0  0  0  0  0  0
  -18.9470  -30.1459   23.8901 C   0  0  0  0  0  0
  -17.6470  -30.6595   24.0552 C   0  0  0  0  0  0
  -25.9065  -34.9442   23.5112 C   0  0  0  0  0  0
  -16.5362  -29.9087   23.6338 C   0  0  0  0  0  0
  -16.7277  -28.6495   23.0388 C   0  0  0  0  0  0
  -26.4506  -31.6577   25.0733 C   0  0  0  0  0  0
  -25.3717  -31.3706   26.1444 C   0  0  0  0  0  0
  -27.0356  -30.3002   24.6233 C   0  0  0  0  0  0
  -27.6078  -32.4320   25.7480 C   0  0  0  0  0  0
  -27.5581  -37.1800   24.8492 C   0  0  0  0  0  0
  -21.4215  -29.3065   22.3635 N   0  0  0  0  0  0
  -26.4296  -37.3775   23.9429 N   0  0  0  0  0  0
  -24.7089  -31.0404   22.0951 N   0  0  0  0  0  0
  -23.4193  -28.8100   23.2970 O   0  0  0  0  0  0
  -28.2970  -26.2427   20.1931 O   0  0  0  0  0  0
  -26.5639  -34.8923   22.4690 O   0  0  0  0  0  0
  -23.5495  -32.1339   23.7193 O   0  0  0  0  0  0
  -30.3078  -19.8669   20.6336 C   0  0  0  0  0  0
  -28.0068  -19.4354   20.2988 C   0  0  0  0  0  0
  -30.5790  -18.4302   20.6195 C   0  0  0  0  0  0
  -28.2705  -18.0226   20.3044 C   0  0  0  0  0  0
  -28.9957  -20.4476   20.4964 C   0  0  0  0  0  0
  -29.5561  -17.4277   20.4823 C   0  0  0  0  0  0
  -28.4685  -22.0614   22.3975 C   0  0  0  0  0  0
  -29.8296  -23.8681   21.6832 C   0  0  0  0  0  0
  -28.5092  -21.9752   20.8531 C   0  0  1  0  0  0
  -29.0671  -23.4784   20.4161 C   0  0  1  0  0  0
  -28.0076  -24.7334   20.1186 C   0  0  0  0  0  0
  -29.6279  -15.9170   20.5904 N   0  0  0  0  0  0
  -29.0075  -23.3727   22.7962 N   0  3  0  0  0  0
  -31.4945  -12.6863   19.1719 H   0  0  0  0  0  0
  -30.4500  -11.5494   19.9808 H   0  0  0  0  0  0
  -29.8328  -11.7267   17.5527 H   0  0  0  0  0  0
  -29.6429  -13.4554   17.6999 H   0  0  0  0  0  0
  -27.9200  -11.2762   18.9215 H   0  0  0  0  0  0
  -27.4020  -12.5076   17.7979 H   0  0  0  0  0  0
  -27.6289  -14.2445   19.4519 H   0  0  0  0  0  0
  -28.7607  -12.1765   21.4045 H   0  0  0  0  0  0
  -28.4103  -13.8418   21.7998 H   0  0  0  0  0  0
  -25.2767   -9.5684   22.4737 H   0  0  0  0  0  0
  -24.0006   -7.4637   22.7469 H   0  0  0  0  0  0
  -21.0842   -8.8759   19.8942 H   0  0  0  0  0  0
  -22.3692  -10.9663   19.6145 H   0  0  0  0  0  0
  -21.2009   -7.6141   23.9711 H   0  0  0  0  0  0
  -21.1482   -6.0501   25.9063 H   0  0  0  0  0  0
  -22.0611   -2.7604   23.2818 H   0  0  0  0  0  0
  -22.4092  -11.9909   22.4820 H   0  0  0  0  0  0
  -21.1088  -13.1251   22.2566 H   0  0  0  0  0  0
  -24.6339  -15.8242   20.4870 H   0  0  0  0  0  0
  -26.2248  -15.6087   19.9614 H   0  0  0  0  0  0
  -26.7212  -32.5355   23.1041 H   0  0  0  0  0  0
  -25.0125  -33.9672   25.0425 H   0  0  0  0  0  0
  -22.7395  -31.2987   21.3865 H   0  0  0  0  0  0
  -23.3773  -35.9567   23.3324 H   0  0  0  0  0  0
  -24.3573  -36.8861   22.2065 H   0  0  0  0  0  0
  -23.7188  -37.6453   23.6648 H   0  0  0  0  0  0
  -26.1406  -31.4945   20.6110 H   0  0  0  0  0  0
  -26.8659  -30.7902   22.0209 H   0  0  0  0  0  0
  -28.1314  -28.8566   21.2178 H   0  0  0  0  0  0
  -25.9177  -25.8739   19.0063 H   0  0  0  0  0  0
  -23.9729  -27.3001   18.9999 H   0  0  0  0  0  0
  -23.7904  -30.5770   19.4003 H   0  0  0  0  0  0
  -22.7762  -29.2410   19.8491 H   0  0  0  0  0  0
  -25.1284  -36.1947   25.0829 H   0  0  0  0  0  0
  -21.0009  -28.3284   24.1361 H   0  0  0  0  0  0
  -20.5648  -26.2310   23.3606 H   0  0  0  0  0  0
  -21.6645  -26.7422   22.1197 H   0  0  0  0  0  0
  -19.6906  -25.6285   21.1248 H   0  0  0  0  0  0
  -19.6697  -27.3174   20.6714 H   0  0  0  0  0  0
  -17.4201  -26.6698   21.4022 H   0  0  0  0  0  0
  -18.0341  -26.0067   22.8996 H   0  0  0  0  0  0
  -19.7942  -30.7275   24.2275 H   0  0  0  0  0  0
  -17.5025  -31.6286   24.5144 H   0  0  0  0  0  0
  -15.5366  -30.2994   23.7660 H   0  0  0  0  0  0
  -15.8671  -28.0792   22.7140 H   0  0  0  0  0  0
  -24.5952  -30.6981   25.7775 H   0  0  0  0  0  0
  -24.8822  -32.2839   26.4834 H   0  0  0  0  0  0
  -25.8038  -30.8938   27.0247 H   0  0  0  0  0  0
  -26.2934  -29.6753   24.1258 H   0  0  0  0  0  0
  -27.4044  -29.7271   25.4745 H   0  0  0  0  0  0
  -27.8807  -30.4299   23.9475 H   0  0  0  0  0  0
  -27.2750  -33.3692   26.1943 H   0  0  0  0  0  0
  -28.3922  -32.6750   25.0303 H   0  0  0  0  0  0
  -28.0689  -31.8502   26.5465 H   0  0  0  0  0  0
  -28.2628  -38.0070   24.7535 H   0  0  0  0  0  0
  -28.1041  -36.2611   24.6323 H   0  0  0  0  0  0
  -27.2307  -37.1461   25.8897 H   0  0  0  0  0  0
  -20.9383  -29.8819   21.6874 H   0  0  0  0  0  0
  -26.0184  -38.2864   24.1407 H   0  0  0  0  0  0
  -31.1435  -20.5281   20.8204 H   0  0  0  0  0  0
  -26.9704  -19.7352   20.2203 H   0  0  0  0  0  0
  -31.5995  -18.1078   20.7780 H   0  0  0  0  0  0
  -27.4148  -17.3695   20.2057 H   0  0  0  0  0  0
  -29.1128  -21.3025   22.8429 H   0  0  0  0  0  0
  -27.4644  -21.8954   22.7900 H   0  0  0  0  0  0
  -30.0094  -24.9402   21.7607 H   0  0  0  0  0  0
  -30.8009  -23.3711   21.7061 H   0  0  0  0  0  0
  -27.4768  -21.9917   20.5014 H   0  0  0  0  0  0
  -29.7561  -23.3935   19.5746 H   0  0  0  0  0  0
  -27.1685  -24.5804   20.7986 H   0  0  0  0  0  0
  -27.6081  -24.5450   19.1220 H   0  0  0  0  0  0
  -28.7139  -15.5176   20.7316 H   0  0  0  0  0  0
  -29.5469  -23.3009   23.6435 H   0  0  0  0  0  0
  -28.2473  -24.0130   22.9652 H   0  0  0  0  0  0
  1 25  1  0  0  0
  1 30  2  0  0  0
  1 82  1  0  0  0
  2  3  1  0  0  0
  2 25  1  0  0  0
  2 84  1  0  0  0
  2 85  1  0  0  0
  3  4  1  0  0  0
  3 86  1  0  0  0
  3 87  1  0  0  0
  4  5  1  0  0  0
  4 88  1  0  0  0
  4 89  1  0  0  0
  5  6  1  0  0  0
  5 26  1  0  0  0
  5 90  1  0  0  0
  6 25  1  0  0  0
  6 91  1  0  0  0
  6 92  1  0  0  0
  7  8  2  0  0  0
  7 26  1  0  0  0
  7 29  1  0  0  0
  8  9  1  0  0  0
  8 22  1  0  0  0
  9 10  1  0  0  0
  9 27  2  0  0  0
 10 11  2  0  0  0
 10 15  1  0  0  0
 11 12  1  0  0  0
 11 93  1  0  0  0
 12 13  2  0  0  0
 12 94  1  0  0  0
 13 14  1  0  0  0
 13 31  1  0  0  0
 14 15  2  0  0  0
 14 95  1  0  0  0
 15 96  1  0  0  0
 16 17  2  0  0  0
 16 21  1  0  0  0
 16 31  1  0  0  0
 17 18  1  0  0  0
 17 97  1  0  0  0
 18 19  2  0  0  0
 18 98  1  0  0  0
 19 20  1  0  0  0
 19 24  1  0  0  0
 20 21  2  0  0  0
 20 99  1  0  0  0
 21 23  1  0  0  0
 22 28  1  0  0  0
 22 32  2  0  0  0
 26 27  1  0  0  0
 28100  1  0  0  0
 28101  1  0  0  0
 29102  1  0  0  0
 29103  1  0  0  0
 33 34  1  0  0  0
 33 66  1  0  0  0
 33 70  2  0  0  0
 34 36  1  0  0  0
 34 59  1  0  0  0
 34104  1  0  0  0
 35 44  2  0  0  0
 35 45  1  0  0  0
 35 68  1  0  0  0
 36 56  1  0  0  0
 36105  1  0  0  0
 37 39  1  0  0  0
 37 47  1  0  0  0
 37 66  1  0  0  0
 37106  1  0  0  0
 38 43  2  0  0  0
 38 46  1  0  0  0
 38 47  1  0  0  0
 39 64  1  0  0  0
 39 67  2  0  0  0
 40 52  1  0  0  0
 40 53  2  0  0  0
 40 58  1  0  0  0
 41107  1  0  0  0
 41108  1  0  0  0
 41109  1  0  0  0
 41 48  1  0  0  0
 42 43  1  0  0  0
 42 66  1  0  0  0
 42110  1  0  0  0
 42111  1  0  0  0
 43 44  1  0  0  0
 44112  1  0  0  0
 45 46  2  0  0  0
 45113  1  0  0  0
 46114  1  0  0  0
 47115  1  0  0  0
 47116  1  0  0  0
 48 56  1  0  0  0
 48 65  1  0  0  0
 48117  1  0  0  0
 49 50  1  0  0  0
 49 53  1  0  0  0
 49 64  1  0  0  0
 49118  1  0  0  0
 50 51  1  0  0  0
 50119  1  0  0  0
 50120  1  0  0  0
 51 52  1  0  0  0
 51121  1  0  0  0
 51122  1  0  0  0
 52123  1  0  0  0
 52124  1  0  0  0
 53 54  1  0  0  0
 54 55  2  0  0  0
 54125  1  0  0  0
 55 57  1  0  0  0
 55126  1  0  0  0
 56 69  2  0  0  0
 57 58  2  0  0  0
 57127  1  0  0  0
 58128  1  0  0  0
 59 60  1  0  0  0
 59 61  1  0  0  0
 59 62  1  0  0  0
 60129  1  0  0  0
 60130  1  0  0  0
 60131  1  0  0  0
 61132  1  0  0  0
 61133  1  0  0  0
 61134  1  0  0  0
 62135  1  0  0  0
 62136  1  0  0  0
 62137  1  0  0  0
 63 65  1  0  0  0
 63138  1  0  0  0
 63139  1  0  0  0
 63140  1  0  0  0
 64141  1  0  0  0
 65142  1  0  0  0
 68 81  1  0  0  0
 71 73  2  0  0  0
 71 75  1  0  0  0
 71143  1  0  0  0
 72 74  1  0  0  0
 72 75  2  0  0  0
 72144  1  0  0  0
 73 76  1  0  0  0
 73145  1  0  0  0
 74 76  2  0  0  0
 74146  1  0  0  0
 75 79  1  0  0  0
 76 82  1  0  0  0
 77 79  1  0  0  0
 77 83  1  0  0  0
 77147  1  0  0  0
 77148  1  0  0  0
 78 80  1  0  0  0
 78 83  1  0  0  0
 78149  1  0  0  0
 78150  1  0  0  0
 79 80  1  0  0  0
 79151  1  0  0  0
 80 81  1  0  0  0
 80152  1  0  0  0
 81153  1  0  0  0
 81154  1  0  0  0
 82155  1  0  0  0
 83156  1  0  0  0
 83157  1  0  0  0
M  CHG  1  83   1
M  ISO  4   1 100  68 101  81 101  82 100
M  END
> <chiral flag>
0

> <version>
0

> <s_m_source_file>
/data/baiqing/PycharmProjects/Reinvent-master-3.2/result/LINK_invent/BTK/process_docking_weight1_custom_product_contain_oxygen_bond_distance_aromatic_linkinvent_7_9_3/rearranged_h_0149.sdf

> <i_m_source_file_index>
72

> <r_mmod_Potential_Energy-OPLS-2005>
285.04638671875

> <r_mmod_Stretch_Energy-OPLS-2005>
190.025131225586

> <r_mmod_Bend_Energy-OPLS-2005>
285.804351806641

> <r_mmod_Torsional_Energy-OPLS-2005>
312.007110595703

> <r_mmod_Improper_Torsional_Energy-OPLS-2005>
8.35542488098145

> <r_mmod_Van_der_Waal_Energy-OPLS-2005>
128.883972167969

> <r_mmod_Electrostatic_Energy-OPLS-2005>
-304.129577636719

> <r_mmod_Solvation_Energy-OPLS-2005>
-474.94189453125

> <b_mmod_Minimization_Converged-OPLS-2005>
0

> <r_mmod_RMS_Derivative-OPLS-2005>
2.35175371170044

$$$$
72
                    3D
 Structure written by MMmdl.
162171  0  0  1  0            999 V2000
  -30.6117  -14.7578   20.5325 C   0  0  0  0  0  0
  -30.4336  -12.4776   19.4892 C   0  0  0  0  0  0
  -29.5129  -12.5258   18.2490 C   0  0  0  0  0  0
  -28.0413  -12.3353   18.6572 C   0  0  0  0  0  0
  -27.6427  -13.2319   19.8584 C   0  0  2  0  0  0
  -28.6787  -13.1525   21.0008 C   0  0  0  0  0  0
  -25.2468  -13.8164   20.5627 C   0  0  0  0  0  0
  -24.1780  -13.0429   20.9194 C   0  0  0  0  0  0
  -24.6382  -11.6911   20.8734 C   0  0  0  0  0  0
  -23.9069  -10.4293   21.0398 C   0  0  0  0  0  0
  -24.3623   -9.4213   21.9178 C   0  0  0  0  0  0
  -23.6298   -8.2247   22.0754 C   0  0  0  0  0  0
  -22.4280   -8.0283   21.3538 C   0  0  0  0  0  0
  -21.9911   -9.0254   20.4642 C   0  0  0  0  0  0
  -22.7244  -10.2130   20.3050 C   0  0  0  0  0  0
  -21.6845   -6.0741   22.5286 C   0  0  0  0  0  0
  -21.4012   -6.5642   23.8224 C   0  0  0  0  0  0
  -21.3653   -5.6787   24.9181 C   0  0  0  0  0  0
  -21.6042   -4.3055   24.7224 C   0  0  0  0  0  0
  -21.8821   -3.8153   23.4344 C   0  0  0  0  0  0
  -21.9196   -4.6967   22.3404 C   0  0  0  0  0  0
  -22.7807  -13.5208   21.1873 C   0  0  0  0  0  0
  -22.1665   -4.2158   21.0979 F   0  0  0  0  0  0
  -21.5625   -3.4538   25.7740 F   0  0  0  0  0  0
  -29.9867  -13.5265   20.4422 N   0  0  0  0  0  0
  -26.2917  -12.9392   20.3276 N   0  0  0  0  0  0
  -25.9312  -11.6541   20.5758 N   0  0  0  0  0  0
  -22.0471  -12.8189   22.0435 N   0  0  0  0  0  0
  -25.4078  -15.1860   20.3920 N   0  0  0  0  0  0
  -31.7283  -14.9020   20.0208 O   0  0  0  0  0  0
  -21.6639   -6.8888   21.4249 O   0  0  0  0  0  0
  -22.3491  -14.5515   20.6737 O   0  0  0  0  0  0
  -24.6334  -31.8529   23.1988 C   0  0  0  0  0  0
  -25.9152  -32.4750   23.8315 C   0  0  1  0  0  0
  -27.2077  -27.2323   20.1377 C   0  0  0  0  0  0
  -25.5941  -33.8544   24.2239 N   0  0  0  0  0  0
  -23.4329  -30.4753   21.5425 C   0  0  2  0  0  0
  -24.8796  -28.9183   20.1104 C   0  0  0  0  0  0
  -22.7514  -29.4591   22.4915 C   0  0  0  0  0  0
  -18.0295  -28.1381   22.8491 C   0  0  0  0  0  0
  -24.1488  -36.7278   23.2648 C   0  0  0  0  0  0
  -25.9808  -30.7578   21.3831 C   0  0  0  0  0  0
  -26.0531  -29.3770   20.7260 C   0  0  0  0  0  0
  -27.2241  -28.5450   20.7270 C   0  0  0  0  0  0
  -26.0182  -26.8582   19.4778 C   0  0  0  0  0  0
  -24.8685  -27.6686   19.4724 C   0  0  0  0  0  0
  -23.6524  -29.8095   20.1589 C   0  0  0  0  0  0
  -25.4121  -36.3058   24.0324 C   0  0  1  0  0  0
  -20.5905  -28.3708   23.1250 C   0  0  2  0  0  0
  -20.6782  -26.9411   22.5421 C   0  0  0  0  0  0
  -19.5764  -26.6379   21.5214 C   0  0  0  0  0  0
  -18.1941  -26.7942   22.1617 C   0  0  0  0  0  0
  -19.1557  -28.8867   23.2872 C   0  0  0  0  0  0
  -18.9468  -30.1471   23.8888 C   0  0  0  0  0  0
  -17.6478  -30.6595   24.0569 C   0  0  0  0  0  0
  -25.9065  -34.9431   23.5107 C   0  0  0  0  0  0
  -16.5361  -29.9085   23.6330 C   0  0  0  0  0  0
  -16.7290  -28.6503   23.0357 C   0  0  0  0  0  0
  -26.4481  -31.6576   25.0713 C   0  0  0  0  0  0
  -25.3687  -31.3706   26.1427 C   0  0  0  0  0  0
  -27.0355  -30.3007   24.6217 C   0  0  0  0  0  0
  -27.6047  -32.4312   25.7461 C   0  0  0  0  0  0
  -27.5590  -37.1778   24.8460 C   0  0  0  0  0  0
  -21.4235  -29.3041   22.3638 N   0  0  0  0  0  0
  -26.4298  -37.3756   23.9398 N   0  0  0  0  0  0
  -24.7015  -31.0467   22.0988 N   0  0  0  0  0  0
  -23.4191  -28.8127   23.3040 O   0  0  0  0  0  0
  -28.2681  -26.2917   20.1790 O   0  0  0  0  0  0
  -26.5642  -34.8911   22.4673 O   0  0  0  0  0  0
  -23.5478  -32.1370   23.7272 O   0  0  0  0  0  0
  -27.5563  -17.3964   21.5441 C   0  0  0  0  0  0
  -26.7822  -19.7022   21.4158 C   0  0  0  0  0  0
  -28.5478  -18.1737   20.9804 C   0  0  0  0  0  0
  -28.0631  -19.6183   20.9094 C   0  0  0  0  0  0
  -29.8950  -22.9709   20.6884 C   0  0  0  0  0  0
  -29.9653  -21.4053   20.5416 C   0  0  0  0  0  0
  -27.7553  -22.1587   20.3618 C   0  0  0  0  0  0
  -28.5789  -23.4800   20.0413 C   0  0  2  0  0  0
  -28.7211  -23.6209   18.5153 C   0  0  0  0  0  0
  -30.1691  -15.8843   22.5705 C   0  0  0  0  0  0
  -29.8174  -17.2985   20.5729 C   0  0  0  0  0  0
  -27.9468  -24.8778   20.6304 C   0  0  0  0  0  0
  -28.6003  -20.9056   20.4178 N   0  0  0  0  0  0
  -29.9480  -15.8433   21.1156 N   0  0  0  0  0  0
  -26.1253  -18.2295   22.0138 S   0  0  0  0  0  0
  -31.4731  -12.6095   19.1865 H   0  0  0  0  0  0
  -30.3915  -11.4949   19.9621 H   0  0  0  0  0  0
  -29.8037  -11.7583   17.5311 H   0  0  0  0  0  0
  -29.6308  -13.4832   17.7391 H   0  0  0  0  0  0
  -27.9033  -11.2852   18.9195 H   0  0  0  0  0  0
  -27.3851  -12.5239   17.8072 H   0  0  0  0  0  0
  -27.6434  -14.2581   19.4891 H   0  0  0  0  0  0
  -28.7163  -12.1464   21.4208 H   0  0  0  0  0  0
  -28.3812  -13.8083   21.8187 H   0  0  0  0  0  0
  -25.2770   -9.5689   22.4745 H   0  0  0  0  0  0
  -24.0009   -7.4637   22.7466 H   0  0  0  0  0  0
  -21.0851   -8.8767   19.8943 H   0  0  0  0  0  0
  -22.3703  -10.9666   19.6150 H   0  0  0  0  0  0
  -21.2005   -7.6154   23.9726 H   0  0  0  0  0  0
  -21.1463   -6.0522   25.9082 H   0  0  0  0  0  0
  -22.0601   -2.7619   23.2843 H   0  0  0  0  0  0
  -22.4105  -11.9833   22.4782 H   0  0  0  0  0  0
  -21.1092  -13.1195   22.2663 H   0  0  0  0  0  0
  -24.6432  -15.8377   20.5226 H   0  0  0  0  0  0
  -26.2473  -15.6336   20.0458 H   0  0  0  0  0  0
  -26.7222  -32.5391   23.1044 H   0  0  0  0  0  0
  -25.0042  -33.9626   25.0362 H   0  0  0  0  0  0
  -22.7319  -31.3014   21.3939 H   0  0  0  0  0  0
  -23.3749  -35.9612   23.3312 H   0  0  0  0  0  0
  -24.3594  -36.8914   22.2071 H   0  0  0  0  0  0
  -23.7247  -37.6486   23.6672 H   0  0  0  0  0  0
  -26.1218  -31.5187   20.6149 H   0  0  0  0  0  0
  -26.8569  -30.8057   22.0169 H   0  0  0  0  0  0
  -28.1225  -28.8802   21.2270 H   0  0  0  0  0  0
  -25.9642  -25.9039   18.9732 H   0  0  0  0  0  0
  -23.9737  -27.3176   18.9752 H   0  0  0  0  0  0
  -23.7815  -30.5849   19.4031 H   0  0  0  0  0  0
  -22.7679  -29.2482   19.8511 H   0  0  0  0  0  0
  -25.1290  -36.1924   25.0813 H   0  0  0  0  0  0
  -20.9986  -28.3309   24.1381 H   0  0  0  0  0  0
  -20.5718  -26.2286   23.3633 H   0  0  0  0  0  0
  -21.6636  -26.7488   22.1185 H   0  0  0  0  0  0
  -19.6946  -25.6289   21.1241 H   0  0  0  0  0  0
  -19.6711  -27.3196   20.6745 H   0  0  0  0  0  0
  -17.4217  -26.6715   21.4011 H   0  0  0  0  0  0
  -18.0336  -26.0083   22.9013 H   0  0  0  0  0  0
  -19.7965  -30.7261   24.2254 H   0  0  0  0  0  0
  -17.5048  -31.6275   24.5159 H   0  0  0  0  0  0
  -15.5359  -30.2969   23.7692 H   0  0  0  0  0  0
  -15.8697  -28.0815   22.7056 H   0  0  0  0  0  0
  -24.5914  -30.6999   25.7730 H   0  0  0  0  0  0
  -24.8775  -32.2834   26.4799 H   0  0  0  0  0  0
  -25.7987  -30.8935   27.0243 H   0  0  0  0  0  0
  -26.2958  -29.6703   24.1269 H   0  0  0  0  0  0
  -27.4076  -29.7314   25.4735 H   0  0  0  0  0  0
  -27.8795  -30.4275   23.9443 H   0  0  0  0  0  0
  -27.2727  -33.3663   26.1970 H   0  0  0  0  0  0
  -28.3868  -32.6788   25.0274 H   0  0  0  0  0  0
  -28.0698  -31.8481   26.5414 H   0  0  0  0  0  0
  -28.2566  -38.0119   24.7551 H   0  0  0  0  0  0
  -28.1127  -36.2636   24.6233 H   0  0  0  0  0  0
  -27.2297  -37.1376   25.8864 H   0  0  0  0  0  0
  -20.9451  -29.8780   21.6835 H   0  0  0  0  0  0
  -26.0188  -38.2823   24.1441 H   0  0  0  0  0  0
  -27.5686  -16.3316   21.7376 H   0  0  0  0  0  0
  -26.1342  -20.5630   21.4951 H   0  0  0  0  0  0
  -30.7805  -23.4579   20.2784 H   0  0  0  0  0  0
  -29.8763  -23.2107   21.7520 H   0  0  0  0  0  0
  -30.4735  -20.9484   21.3927 H   0  0  0  0  0  0
  -30.5162  -21.1297   19.6404 H   0  0  0  0  0  0
  -26.9352  -22.0307   19.6498 H   0  0  0  0  0  0
  -27.2927  -22.3048   21.3381 H   0  0  0  0  0  0
  -29.0782  -22.6976   18.0555 H   0  0  0  0  0  0
  -29.4206  -24.4175   18.2590 H   0  0  0  0  0  0
  -27.7664  -23.8665   18.0471 H   0  0  0  0  0  0
  -29.4963  -16.5676   23.0866 H   0  0  0  0  0  0
  -31.1851  -16.2228   22.7811 H   0  0  0  0  0  0
  -30.0464  -14.9070   23.0413 H   0  0  0  0  0  0
  -30.7241  -17.8381   20.8471 H   0  0  0  0  0  0
  -29.8525  -17.2349   19.4848 H   0  0  0  0  0  0
  -28.1443  -24.8801   21.7034 H   0  0  0  0  0  0
  -26.8667  -24.7358   20.5973 H   0  0  0  0  0  0
  1 25  1  0  0  0
  1 30  2  0  0  0
  1 84  1  0  0  0
  2  3  1  0  0  0
  2 25  1  0  0  0
  2 86  1  0  0  0
  2 87  1  0  0  0
  3  4  1  0  0  0
  3 88  1  0  0  0
  3 89  1  0  0  0
  4  5  1  0  0  0
  4 90  1  0  0  0
  4 91  1  0  0  0
  5  6  1  0  0  0
  5 26  1  0  0  0
  5 92  1  0  0  0
  6 25  1  0  0  0
  6 93  1  0  0  0
  6 94  1  0  0  0
  7  8  2  0  0  0
  7 26  1  0  0  0
  7 29  1  0  0  0
  8  9  1  0  0  0
  8 22  1  0  0  0
  9 10  1  0  0  0
  9 27  2  0  0  0
 10 11  2  0  0  0
 10 15  1  0  0  0
 11 12  1  0  0  0
 11 95  1  0  0  0
 12 13  2  0  0  0
 12 96  1  0  0  0
 13 14  1  0  0  0
 13 31  1  0  0  0
 14 15  2  0  0  0
 14 97  1  0  0  0
 15 98  1  0  0  0
 16 17  2  0  0  0
 16 21  1  0  0  0
 16 31  1  0  0  0
 17 18  1  0  0  0
 17 99  1  0  0  0
 18 19  2  0  0  0
 18100  1  0  0  0
 19 20  1  0  0  0
 19 24  1  0  0  0
 20 21  2  0  0  0
 20101  1  0  0  0
 21 23  1  0  0  0
 22 28  1  0  0  0
 22 32  2  0  0  0
 26 27  1  0  0  0
 28102  1  0  0  0
 28103  1  0  0  0
 29104  1  0  0  0
 29105  1  0  0  0
 33 34  1  0  0  0
 33 66  1  0  0  0
 33 70  2  0  0  0
 34 36  1  0  0  0
 34 59  1  0  0  0
 34106  1  0  0  0
 35 44  2  0  0  0
 35 45  1  0  0  0
 35 68  1  0  0  0
 36 56  1  0  0  0
 36107  1  0  0  0
 37 39  1  0  0  0
 37 47  1  0  0  0
 37 66  1  0  0  0
 37108  1  0  0  0
 38 43  2  0  0  0
 38 46  1  0  0  0
 38 47  1  0  0  0
 39 64  1  0  0  0
 39 67  2  0  0  0
 40 52  1  0  0  0
 40 53  2  0  0  0
 40 58  1  0  0  0
 41109  1  0  0  0
 41110  1  0  0  0
 41111  1  0  0  0
 41 48  1  0  0  0
 42 43  1  0  0  0
 42 66  1  0  0  0
 42112  1  0  0  0
 42113  1  0  0  0
 43 44  1  0  0  0
 44114  1  0  0  0
 45 46  2  0  0  0
 45115  1  0  0  0
 46116  1  0  0  0
 47117  1  0  0  0
 47118  1  0  0  0
 48 56  1  0  0  0
 48 65  1  0  0  0
 48119  1  0  0  0
 49 50  1  0  0  0
 49 53  1  0  0  0
 49 64  1  0  0  0
 49120  1  0  0  0
 50 51  1  0  0  0
 50121  1  0  0  0
 50122  1  0  0  0
 51 52  1  0  0  0
 51123  1  0  0  0
 51124  1  0  0  0
 52125  1  0  0  0
 52126  1  0  0  0
 53 54  1  0  0  0
 54 55  2  0  0  0
 54127  1  0  0  0
 55 57  1  0  0  0
 55128  1  0  0  0
 56 69  2  0  0  0
 57 58  2  0  0  0
 57129  1  0  0  0
 58130  1  0  0  0
 59 60  1  0  0  0
 59 61  1  0  0  0
 59 62  1  0  0  0
 60131  1  0  0  0
 60132  1  0  0  0
 60133  1  0  0  0
 61134  1  0  0  0
 61135  1  0  0  0
 61136  1  0  0  0
 62137  1  0  0  0
 62138  1  0  0  0
 62139  1  0  0  0
 63 65  1  0  0  0
 63140  1  0  0  0
 63141  1  0  0  0
 63142  1  0  0  0
 64143  1  0  0  0
 65144  1  0  0  0
 68 82  1  0  0  0
 71 73  2  0  0  0
 71 85  1  0  0  0
 71145  1  0  0  0
 72 74  2  0  0  0
 72 85  1  0  0  0
 72146  1  0  0  0
 73 74  1  0  0  0
 73 81  1  0  0  0
 74 83  1  0  0  0
 75 76  1  0  0  0
 75 78  1  0  0  0
 75147  1  0  0  0
 75148  1  0  0  0
 76 83  1  0  0  0
 76149  1  0  0  0
 76150  1  0  0  0
 77 78  1  0  0  0
 77 83  1  0  0  0
 77151  1  0  0  0
 77152  1  0  0  0
 78 79  1  0  0  0
 78 82  1  0  0  0
 79153  1  0  0  0
 79154  1  0  0  0
 79155  1  0  0  0
 80 84  1  0  0  0
 80156  1  0  0  0
 80157  1  0  0  0
 80158  1  0  0  0
 81 84  1  0  0  0
 81159  1  0  0  0
 81160  1  0  0  0
 82161  1  0  0  0
 82162  1  0  0  0
M  ISO  4   1 100  68 101  82 101  84 100
M  END
> <chiral flag>
0

> <version>
0

> <s_m_source_file>
/data/baiqing/PycharmProjects/Reinvent-master-3.2/result/LINK_invent/BTK/process_docking_weight1_custom_product_contain_oxygen_bond_distance_aromatic_linkinvent_7_9_3/rearranged_h_0149.sdf

> <i_m_source_file_index>
73

> <r_mmod_Potential_Energy-OPLS-2005>
447.774810791016

> <r_mmod_Stretch_Energy-OPLS-2005>
158.555374145508

> <r_mmod_Bend_Energy-OPLS-2005>
269.536590576172

> <r_mmod_Torsional_Energy-OPLS-2005>
362.386535644531

> <r_mmod_Improper_Torsional_Energy-OPLS-2005>
8.32987880706787

> <r_mmod_Van_der_Waal_Energy-OPLS-2005>
125.202857971191

> <r_mmod_Electrostatic_Energy-OPLS-2005>
-363.002410888672

> <r_mmod_Solvation_Energy-OPLS-2005>
-211.578903198242

> <b_mmod_Minimization_Converged-OPLS-2005>
0

> <r_mmod_RMS_Derivative-OPLS-2005>
3.14866018295288

$$$$
73
                    3D
 Structure written by MMmdl.
166175  0  0  1  0            999 V2000
  -30.4935  -14.9764   20.4224 C   0  0  0  0  0  0
  -30.4528  -12.6056   19.4980 C   0  0  0  0  0  0
  -29.5283  -12.5326   18.2583 C   0  0  0  0  0  0
  -28.0592  -12.3189   18.6744 C   0  0  0  0  0  0
  -27.6325  -13.2456   19.8418 C   0  0  2  0  0  0
  -28.6757  -13.2593   20.9795 C   0  0  0  0  0  0
  -25.2480  -13.8200   20.5720 C   0  0  0  0  0  0
  -24.1784  -13.0452   20.9258 C   0  0  0  0  0  0
  -24.6381  -11.6938   20.8759 C   0  0  0  0  0  0
  -23.9059  -10.4316   21.0418 C   0  0  0  0  0  0
  -24.3612   -9.4224   21.9192 C   0  0  0  0  0  0
  -23.6294   -8.2245   22.0747 C   0  0  0  0  0  0
  -22.4268   -8.0278   21.3544 C   0  0  0  0  0  0
  -21.9917   -9.0251   20.4638 C   0  0  0  0  0  0
  -22.7237  -10.2141   20.3056 C   0  0  0  0  0  0
  -21.6861   -6.0733   22.5288 C   0  0  0  0  0  0
  -21.4015   -6.5636   23.8219 C   0  0  0  0  0  0
  -21.3657   -5.6787   24.9180 C   0  0  0  0  0  0
  -21.6039   -4.3049   24.7231 C   0  0  0  0  0  0
  -21.8821   -3.8146   23.4352 C   0  0  0  0  0  0
  -21.9196   -4.6962   22.3410 C   0  0  0  0  0  0
  -22.7805  -13.5230   21.1916 C   0  0  0  0  0  0
  -22.1668   -4.2143   21.0989 F   0  0  0  0  0  0
  -21.5623   -3.4538   25.7746 F   0  0  0  0  0  0
  -29.9494  -13.6915   20.3863 N   0  0  0  0  0  0
  -26.2894  -12.9425   20.3243 N   0  0  0  0  0  0
  -25.9309  -11.6563   20.5733 N   0  0  0  0  0  0
  -22.0434  -12.8208   22.0451 N   0  0  0  0  0  0
  -25.4219  -15.1903   20.4101 N   0  0  0  0  0  0
  -31.6941  -15.0948   20.1459 O   0  0  0  0  0  0
  -21.6640   -6.8865   21.4239 O   0  0  0  0  0  0
  -22.3496  -14.5536   20.6755 O   0  0  0  0  0  0
  -24.6405  -31.8433   23.1850 C   0  0  0  0  0  0
  -25.9164  -32.4703   23.8253 C   0  0  1  0  0  0
  -27.2265  -27.1306   20.1643 C   0  0  0  0  0  0
  -25.5901  -33.8494   24.2161 N   0  0  0  0  0  0
  -23.4465  -30.4600   21.5312 C   0  0  2  0  0  0
  -24.8982  -28.8736   20.1253 C   0  0  0  0  0  0
  -22.7548  -29.4532   22.4855 C   0  0  0  0  0  0
  -18.0307  -28.1412   22.8513 C   0  0  0  0  0  0
  -24.1481  -36.7246   23.2641 C   0  0  0  0  0  0
  -26.0015  -30.7162   21.3822 C   0  0  0  0  0  0
  -26.0763  -29.3201   20.7380 C   0  0  0  0  0  0
  -27.2457  -28.4675   20.7351 C   0  0  0  0  0  0
  -26.0191  -26.7735   19.5331 C   0  0  0  0  0  0
  -24.8798  -27.6113   19.5094 C   0  0  0  0  0  0
  -23.6764  -29.7814   20.1540 C   0  0  0  0  0  0
  -25.4125  -36.3032   24.0310 C   0  0  1  0  0  0
  -20.5938  -28.3702   23.1275 C   0  0  2  0  0  0
  -20.6810  -26.9413   22.5423 C   0  0  0  0  0  0
  -19.5773  -26.6397   21.5234 C   0  0  0  0  0  0
  -18.1953  -26.7971   22.1636 C   0  0  0  0  0  0
  -19.1573  -28.8878   23.2895 C   0  0  0  0  0  0
  -18.9486  -30.1504   23.8892 C   0  0  0  0  0  0
  -17.6484  -30.6625   24.0587 C   0  0  0  0  0  0
  -25.9080  -34.9415   23.5058 C   0  0  0  0  0  0
  -16.5373  -29.9129   23.6341 C   0  0  0  0  0  0
  -16.7295  -28.6538   23.0363 C   0  0  0  0  0  0
  -26.4497  -31.6563   25.0672 C   0  0  0  0  0  0
  -25.3682  -31.3772   26.1358 C   0  0  0  0  0  0
  -27.0325  -30.2960   24.6195 C   0  0  0  0  0  0
  -27.6026  -32.4322   25.7466 C   0  0  0  0  0  0
  -27.5588  -37.1790   24.8475 C   0  0  0  0  0  0
  -21.4237  -29.3035   22.3640 N   0  0  0  0  0  0
  -26.4289  -37.3756   23.9418 N   0  0  0  0  0  0
  -24.7161  -31.0301   22.0873 N   0  0  0  0  0  0
  -23.4198  -28.8064   23.2987 O   0  0  0  0  0  0
  -28.3228  -26.1988   20.0598 O   0  0  0  0  0  0
  -26.5691  -34.8914   22.4651 O   0  0  0  0  0  0
  -23.5521  -32.1285   23.7077 O   0  0  0  0  0  0
  -30.6347  -18.6032   20.5267 C   0  0  0  0  0  0
  -28.2880  -18.3129   20.4095 C   0  0  0  0  0  0
  -30.3967  -20.0484   20.5081 C   0  0  0  0  0  0
  -29.1390  -20.6951   20.4047 C   0  0  0  0  0  0
  -29.5661  -17.6319   20.4820 C   0  0  0  0  0  0
  -28.0577  -19.7582   20.3716 C   0  0  0  0  0  0
  -28.3304  -23.3130   20.2822 C   0  0  0  0  0  0
  -31.4402  -21.1288   20.6632 C   0  0  0  0  0  0
  -30.6455  -22.4713   20.8213 C   0  0  0  0  0  0
  -26.4047  -21.8489   23.3583 C   0  0  0  0  0  0
  -27.8168  -25.0290   22.1983 C   0  0  0  0  0  0
  -26.4009  -20.3368   23.1157 C   0  0  0  0  0  0
  -28.5387  -24.8752   20.8523 C   0  0  2  0  0  0
  -29.2335  -22.2163   20.4932 N   0  0  0  0  0  0
  -29.6101  -16.0856   20.5749 N   0  0  0  0  0  0
  -26.7540  -20.2606   20.3772 N   0  0  0  0  0  0
  -27.2580  -23.0795   19.7166 O   0  0  0  0  0  0
  -24.4715  -20.9045   21.2947 O   0  0  0  0  0  0
  -25.2820  -18.4868   21.4797 O   0  0  0  0  0  0
  -25.5437  -19.9307   21.5528 S   0  0  0  0  0  0
  -31.4799  -12.7927   19.1822 H   0  0  0  0  0  0
  -30.4689  -11.6536   20.0286 H   0  0  0  0  0  0
  -29.8489  -11.7271   17.5973 H   0  0  0  0  0  0
  -29.6133  -13.4535   17.6812 H   0  0  0  0  0  0
  -27.9560  -11.2778   18.9818 H   0  0  0  0  0  0
  -27.3960  -12.4506   17.8198 H   0  0  0  0  0  0
  -27.5986  -14.2487   19.4177 H   0  0  0  0  0  0
  -28.7679  -12.2747   21.4398 H   0  0  0  0  0  0
  -28.3697  -13.9414   21.7743 H   0  0  0  0  0  0
  -25.2738   -9.5710   22.4797 H   0  0  0  0  0  0
  -24.0002   -7.4636   22.7470 H   0  0  0  0  0  0
  -21.0851   -8.8755   19.8951 H   0  0  0  0  0  0
  -22.3668  -10.9675   19.6177 H   0  0  0  0  0  0
  -21.2006   -7.6145   23.9721 H   0  0  0  0  0  0
  -21.1474   -6.0519   25.9081 H   0  0  0  0  0  0
  -22.0600   -2.7607   23.2859 H   0  0  0  0  0  0
  -22.4033  -11.9848   22.4825 H   0  0  0  0  0  0
  -21.1049  -13.1239   22.2645 H   0  0  0  0  0  0
  -24.6785  -15.8647   20.5597 H   0  0  0  0  0  0
  -26.2567  -15.6130   20.0314 H   0  0  0  0  0  0
  -26.7224  -32.5338   23.0980 H   0  0  0  0  0  0
  -24.9984  -33.9606   25.0263 H   0  0  0  0  0  0
  -22.7483  -31.2848   21.3746 H   0  0  0  0  0  0
  -23.3755  -35.9574   23.3298 H   0  0  0  0  0  0
  -24.3558  -36.8859   22.2058 H   0  0  0  0  0  0
  -23.7205  -37.6422   23.6684 H   0  0  0  0  0  0
  -26.1518  -31.4592   20.5984 H   0  0  0  0  0  0
  -26.8752  -30.7803   22.0205 H   0  0  0  0  0  0
  -28.1582  -28.8197   21.1988 H   0  0  0  0  0  0
  -25.9508  -25.8062   19.0547 H   0  0  0  0  0  0
  -23.9778  -27.2651   19.0253 H   0  0  0  0  0  0
  -23.8159  -30.5494   19.3922 H   0  0  0  0  0  0
  -22.7903  -29.2240   19.8468 H   0  0  0  0  0  0
  -25.1322  -36.1868   25.0809 H   0  0  0  0  0  0
  -21.0061  -28.3283   24.1387 H   0  0  0  0  0  0
  -20.5724  -26.2295   23.3607 H   0  0  0  0  0  0
  -21.6668  -26.7447   22.1208 H   0  0  0  0  0  0
  -19.6903  -25.6297   21.1265 H   0  0  0  0  0  0
  -19.6729  -27.3229   20.6786 H   0  0  0  0  0  0
  -17.4229  -26.6734   21.4037 H   0  0  0  0  0  0
  -18.0340  -26.0121   22.9036 H   0  0  0  0  0  0
  -19.7950  -30.7364   24.2213 H   0  0  0  0  0  0
  -17.5022  -31.6290   24.5215 H   0  0  0  0  0  0
  -15.5375  -30.3037   23.7668 H   0  0  0  0  0  0
  -15.8689  -28.0873   22.7065 H   0  0  0  0  0  0
  -24.5905  -30.7042   25.7720 H   0  0  0  0  0  0
  -24.8801  -32.2950   26.4653 H   0  0  0  0  0  0
  -25.7968  -30.9073   27.0213 H   0  0  0  0  0  0
  -26.2899  -29.6700   24.1213 H   0  0  0  0  0  0
  -27.3956  -29.7234   25.4733 H   0  0  0  0  0  0
  -27.8817  -30.4186   23.9464 H   0  0  0  0  0  0
  -27.2626  -33.3665   26.1953 H   0  0  0  0  0  0
  -28.3916  -32.6769   25.0355 H   0  0  0  0  0  0
  -28.0582  -31.8463   26.5454 H   0  0  0  0  0  0
  -28.2626  -38.0079   24.7557 H   0  0  0  0  0  0
  -28.1058  -36.2603   24.6289 H   0  0  0  0  0  0
  -27.2294  -37.1447   25.8874 H   0  0  0  0  0  0
  -20.9405  -29.8708   21.6817 H   0  0  0  0  0  0
  -26.0133  -38.2811   24.1452 H   0  0  0  0  0  0
  -31.6546  -18.2543   20.6176 H   0  0  0  0  0  0
  -27.4135  -17.6815   20.4003 H   0  0  0  0  0  0
  -32.0746  -21.1476   19.7764 H   0  0  0  0  0  0
  -32.0800  -20.9434   21.5275 H   0  0  0  0  0  0
  -31.0844  -23.2545   20.2013 H   0  0  0  0  0  0
  -30.6933  -22.8032   21.8602 H   0  0  0  0  0  0
  -27.0885  -22.1250   24.1593 H   0  0  0  0  0  0
  -25.4094  -22.2015   23.6256 H   0  0  0  0  0  0
  -26.7080  -22.3820   22.4600 H   0  0  0  0  0  0
  -28.0601  -25.9796   22.6752 H   0  0  0  0  0  0
  -28.1072  -24.2394   22.8896 H   0  0  0  0  0  0
  -26.7351  -24.9826   22.0680 H   0  0  0  0  0  0
  -25.8768  -19.8265   23.9231 H   0  0  0  0  0  0
  -27.4085  -19.9228   23.0766 H   0  0  0  0  0  0
  -29.6031  -24.9250   21.0777 H   0  0  0  0  0  0
  -28.6881  -15.7102   20.7370 H   0  0  0  0  0  0
  -26.7010  -21.2279   20.0704 H   0  0  0  0  0  0
  1 25  1  0  0  0
  1 30  2  0  0  0
  1 85  1  0  0  0
  2  3  1  0  0  0
  2 25  1  0  0  0
  2 91  1  0  0  0
  2 92  1  0  0  0
  3  4  1  0  0  0
  3 93  1  0  0  0
  3 94  1  0  0  0
  4  5  1  0  0  0
  4 95  1  0  0  0
  4 96  1  0  0  0
  5  6  1  0  0  0
  5 26  1  0  0  0
  5 97  1  0  0  0
  6 25  1  0  0  0
  6 98  1  0  0  0
  6 99  1  0  0  0
  7  8  2  0  0  0
  7 26  1  0  0  0
  7 29  1  0  0  0
  8  9  1  0  0  0
  8 22  1  0  0  0
  9 10  1  0  0  0
  9 27  2  0  0  0
 10 11  2  0  0  0
 10 15  1  0  0  0
 11 12  1  0  0  0
 11100  1  0  0  0
 12 13  2  0  0  0
 12101  1  0  0  0
 13 14  1  0  0  0
 13 31  1  0  0  0
 14 15  2  0  0  0
 14102  1  0  0  0
 15103  1  0  0  0
 16 17  2  0  0  0
 16 21  1  0  0  0
 16 31  1  0  0  0
 17 18  1  0  0  0
 17104  1  0  0  0
 18 19  2  0  0  0
 18105  1  0  0  0
 19 20  1  0  0  0
 19 24  1  0  0  0
 20 21  2  0  0  0
 20106  1  0  0  0
 21 23  1  0  0  0
 22 28  1  0  0  0
 22 32  2  0  0  0
 26 27  1  0  0  0
 28107  1  0  0  0
 28108  1  0  0  0
 29109  1  0  0  0
 29110  1  0  0  0
 33 34  1  0  0  0
 33 66  1  0  0  0
 33 70  2  0  0  0
 34 36  1  0  0  0
 34 59  1  0  0  0
 34111  1  0  0  0
 35 44  2  0  0  0
 35 45  1  0  0  0
 35 68  1  0  0  0
 36 56  1  0  0  0
 36112  1  0  0  0
 37 39  1  0  0  0
 37 47  1  0  0  0
 37 66  1  0  0  0
 37113  1  0  0  0
 38 43  2  0  0  0
 38 46  1  0  0  0
 38 47  1  0  0  0
 39 64  1  0  0  0
 39 67  2  0  0  0
 40 52  1  0  0  0
 40 53  2  0  0  0
 40 58  1  0  0  0
 41114  1  0  0  0
 41115  1  0  0  0
 41116  1  0  0  0
 41 48  1  0  0  0
 42 43  1  0  0  0
 42 66  1  0  0  0
 42117  1  0  0  0
 42118  1  0  0  0
 43 44  1  0  0  0
 44119  1  0  0  0
 45 46  2  0  0  0
 45120  1  0  0  0
 46121  1  0  0  0
 47122  1  0  0  0
 47123  1  0  0  0
 48 56  1  0  0  0
 48 65  1  0  0  0
 48124  1  0  0  0
 49 50  1  0  0  0
 49 53  1  0  0  0
 49 64  1  0  0  0
 49125  1  0  0  0
 50 51  1  0  0  0
 50126  1  0  0  0
 50127  1  0  0  0
 51 52  1  0  0  0
 51128  1  0  0  0
 51129  1  0  0  0
 52130  1  0  0  0
 52131  1  0  0  0
 53 54  1  0  0  0
 54 55  2  0  0  0
 54132  1  0  0  0
 55 57  1  0  0  0
 55133  1  0  0  0
 56 69  2  0  0  0
 57 58  2  0  0  0
 57134  1  0  0  0
 58135  1  0  0  0
 59 60  1  0  0  0
 59 61  1  0  0  0
 59 62  1  0  0  0
 60136  1  0  0  0
 60137  1  0  0  0
 60138  1  0  0  0
 61139  1  0  0  0
 61140  1  0  0  0
 61141  1  0  0  0
 62142  1  0  0  0
 62143  1  0  0  0
 62144  1  0  0  0
 63 65  1  0  0  0
 63145  1  0  0  0
 63146  1  0  0  0
 63147  1  0  0  0
 64148  1  0  0  0
 65149  1  0  0  0
 68 83  1  0  0  0
 71 73  2  0  0  0
 71 75  1  0  0  0
 71150  1  0  0  0
 72 75  2  0  0  0
 72 76  1  0  0  0
 72151  1  0  0  0
 73 74  1  0  0  0
 73 78  1  0  0  0
 74 76  2  0  0  0
 74 84  1  0  0  0
 75 85  1  0  0  0
 76 86  1  0  0  0
 77 83  1  0  0  0
 77 84  1  0  0  0
 77 87  2  0  0  0
 78 79  1  0  0  0
 78152  1  0  0  0
 78153  1  0  0  0
 79 84  1  0  0  0
 79154  1  0  0  0
 79155  1  0  0  0
 80 82  1  0  0  0
 80156  1  0  0  0
 80157  1  0  0  0
 80158  1  0  0  0
 81159  1  0  0  0
 81160  1  0  0  0
 81161  1  0  0  0
 81 83  1  0  0  0
 82162  1  0  0  0
 82163  1  0  0  0
 82 90  1  0  0  0
 83164  1  0  0  0
 85165  1  0  0  0
 86 90  1  0  0  0
 86166  1  0  0  0
 88 90  2  0  0  0
 89 90  2  0  0  0
M  ISO  4   1 100  68 101  83 101  85 100
M  END
> <chiral flag>
0

> <version>
0

> <s_m_source_file>
/data/baiqing/PycharmProjects/Reinvent-master-3.2/result/LINK_invent/BTK/process_docking_weight1_custom_product_contain_oxygen_bond_distance_aromatic_linkinvent_7_9_3/rearranged_h_0149.sdf

> <i_m_source_file_index>
74

> <r_mmod_Potential_Energy-OPLS-2005>
407.413208007812

> <r_mmod_Stretch_Energy-OPLS-2005>
246.707916259766

> <r_mmod_Bend_Energy-OPLS-2005>
351.770843505859

> <r_mmod_Torsional_Energy-OPLS-2005>
305.851623535156

> <r_mmod_Improper_Torsional_Energy-OPLS-2005>
9.6452751159668

> <r_mmod_Van_der_Waal_Energy-OPLS-2005>
98.9588241577148

> <r_mmod_Electrostatic_Energy-OPLS-2005>
-550.973327636719

> <r_mmod_Solvation_Energy-OPLS-2005>
-251.891357421875

> <b_mmod_Minimization_Converged-OPLS-2005>
0

> <r_mmod_RMS_Derivative-OPLS-2005>
3.67929768562317

$$$$
74
                    3D
 Structure written by MMmdl.
180188  0  0  1  0            999 V2000
  -30.6498  -14.5089   20.5803 C   0  0  0  0  0  0
  -30.4326  -12.3229   19.4371 C   0  0  0  0  0  0
  -29.5009  -12.4985   18.2144 C   0  0  0  0  0  0
  -28.0170  -12.3564   18.6169 C   0  0  0  0  0  0
  -27.6544  -13.2015   19.8667 C   0  0  2  0  0  0
  -28.6909  -12.9638   20.9904 C   0  0  0  0  0  0
  -25.2512  -13.8149   20.5600 C   0  0  0  0  0  0
  -24.1751  -13.0423   20.9195 C   0  0  0  0  0  0
  -24.6305  -11.6887   20.8730 C   0  0  0  0  0  0
  -23.8987  -10.4265   21.0396 C   0  0  0  0  0  0
  -24.3574   -9.4186   21.9173 C   0  0  0  0  0  0
  -23.6246   -8.2218   22.0746 C   0  0  0  0  0  0
  -22.4225   -8.0261   21.3542 C   0  0  0  0  0  0
  -21.9856   -9.0227   20.4640 C   0  0  0  0  0  0
  -22.7184  -10.2101   20.3040 C   0  0  0  0  0  0
  -21.6816   -6.0720   22.5259 C   0  0  0  0  0  0
  -21.4009   -6.5625   23.8208 C   0  0  0  0  0  0
  -21.3679   -5.6774   24.9174 C   0  0  0  0  0  0
  -21.6050   -4.3027   24.7213 C   0  0  0  0  0  0
  -21.8826   -3.8133   23.4332 C   0  0  0  0  0  0
  -21.9185   -4.6953   22.3392 C   0  0  0  0  0  0
  -22.7793  -13.5244   21.1883 C   0  0  0  0  0  0
  -22.1654   -4.2164   21.0956 F   0  0  0  0  0  0
  -21.5651   -3.4501   25.7723 F   0  0  0  0  0  0
  -30.0247  -13.3023   20.4605 N   0  0  0  0  0  0
  -26.2923  -12.9290   20.3250 N   0  0  0  0  0  0
  -25.9216  -11.6466   20.5711 N   0  0  0  0  0  0
  -22.0405  -12.8276   22.0456 N   0  0  0  0  0  0
  -25.4150  -15.1841   20.3899 N   0  0  0  0  0  0
  -31.7656  -14.7330   20.0933 O   0  0  0  0  0  0
  -21.6594   -6.8855   21.4221 O   0  0  0  0  0  0
  -22.3489  -14.5539   20.6705 O   0  0  0  0  0  0
  -24.6202  -31.8673   23.2083 C   0  0  0  0  0  0
  -25.9108  -32.4796   23.8385 C   0  0  1  0  0  0
  -27.2431  -27.3937   20.1249 C   0  0  0  0  0  0
  -25.5965  -33.8590   24.2332 N   0  0  0  0  0  0
  -23.4082  -30.4901   21.5474 C   0  0  2  0  0  0
  -24.8590  -28.9424   20.1254 C   0  0  0  0  0  0
  -22.7434  -29.4652   22.4955 C   0  0  0  0  0  0
  -18.0307  -28.1332   22.8427 C   0  0  0  0  0  0
  -24.1502  -36.7295   23.2626 C   0  0  0  0  0  0
  -25.9420  -30.8172   21.3712 C   0  0  0  0  0  0
  -26.0215  -29.4450   20.7265 C   0  0  0  0  0  0
  -27.2161  -28.6783   20.7219 C   0  0  0  0  0  0
  -26.0630  -26.9199   19.5134 C   0  0  0  0  0  0
  -24.8757  -27.6776   19.5188 C   0  0  0  0  0  0
  -23.6244  -29.8163   20.1666 C   0  0  0  0  0  0
  -25.4117  -36.3088   24.0321 C   0  0  1  0  0  0
  -20.5878  -28.3672   23.1264 C   0  0  2  0  0  0
  -20.6860  -26.9437   22.5293 C   0  0  0  0  0  0
  -19.5855  -26.6391   21.5100 C   0  0  0  0  0  0
  -18.1993  -26.7943   22.1411 C   0  0  0  0  0  0
  -19.1530  -28.8796   23.2854 C   0  0  0  0  0  0
  -18.9449  -30.1382   23.8897 C   0  0  0  0  0  0
  -17.6461  -30.6536   24.0518 C   0  0  0  0  0  0
  -25.9021  -34.9443   23.5097 C   0  0  0  0  0  0
  -16.5353  -29.9020   23.6287 C   0  0  0  0  0  0
  -16.7291  -28.6452   23.0306 C   0  0  0  0  0  0
  -26.4502  -31.6595   25.0729 C   0  0  0  0  0  0
  -25.3742  -31.3749   26.1475 C   0  0  0  0  0  0
  -27.0352  -30.3028   24.6152 C   0  0  0  0  0  0
  -27.6091  -32.4286   25.7496 C   0  0  0  0  0  0
  -27.5592  -37.1802   24.8450 C   0  0  0  0  0  0
  -21.4155  -29.3102   22.3725 N   0  0  0  0  0  0
  -26.4307  -37.3775   23.9392 N   0  0  0  0  0  0
  -24.6733  -31.0715   22.1025 N   0  0  0  0  0  0
  -23.4210  -28.8174   23.2985 O   0  0  0  0  0  0
  -28.4167  -26.6706   19.9863 O   0  0  0  0  0  0
  -26.5585  -34.8910   22.4650 O   0  0  0  0  0  0
  -23.5378  -32.1448   23.7435 O   0  0  0  0  0  0
  -28.8130  -17.2184   19.7995 C   0  0  0  0  0  0
  -30.3654  -17.9552   21.2653 C   0  0  0  0  0  0
  -29.7740  -16.8223   20.7615 C   0  0  0  0  0  0
  -28.8188  -18.5887   19.7507 C   0  0  0  0  0  0
  -29.1456  -21.5960   21.3214 C   0  0  0  0  0  0
  -25.2050  -19.9833   17.0621 C   0  0  0  0  0  0
  -27.3483  -21.1687   16.4840 C   0  0  0  0  0  0
  -26.6856  -19.1254   15.2405 C   0  0  0  0  0  0
  -28.4247  -23.9737   19.0617 C   0  0  0  0  0  0
  -27.0049  -23.8814   21.1558 C   0  0  0  0  0  0
  -29.4874  -23.1183   21.1799 C   0  0  0  0  0  0
  -30.1776  -20.5064   20.8877 C   0  0  0  0  0  0
  -27.4293  -18.8625   17.6338 C   0  0  0  0  0  0
  -28.7827  -25.6458   20.9449 C   0  0  0  0  0  0
  -27.9208  -19.4923   18.9647 C   0  0  1  0  0  0
  -26.6767  -19.7893   16.6324 C   0  0  0  0  0  0
  -28.4197  -24.1465   20.5928 C   0  0  0  0  0  0
  -29.7803  -19.0761   20.6530 N   0  0  0  0  0  0
  -29.9366  -15.4709   21.2062 N   0  0  0  0  0  0
  -26.8116  -19.8813   19.8474 N   0  3  0  0  0  0
  -28.0756  -21.2370   21.8197 O   0  0  0  0  0  0
  -31.4800  -12.4402   19.1473 H   0  0  0  0  0  0
  -30.3614  -11.3124   19.8394 H   0  0  0  0  0  0
  -29.7438  -11.7641   17.4433 H   0  0  0  0  0  0
  -29.6650  -13.4799   17.7651 H   0  0  0  0  0  0
  -27.8175  -11.3038   18.8204 H   0  0  0  0  0  0
  -27.3701  -12.6247   17.7804 H   0  0  0  0  0  0
  -27.6972  -14.2503   19.5684 H   0  0  0  0  0  0
  -28.6791  -11.9118   21.2777 H   0  0  0  0  0  0
  -28.4226  -13.5075   21.8969 H   0  0  0  0  0  0
  -25.2711   -9.5697   22.4756 H   0  0  0  0  0  0
  -23.9991   -7.4608   22.7458 H   0  0  0  0  0  0
  -21.0791   -8.8730   19.8921 H   0  0  0  0  0  0
  -22.3619  -10.9656   19.6156 H   0  0  0  0  0  0
  -21.1977   -7.6133   23.9749 H   0  0  0  0  0  0
  -21.1509   -6.0467   25.9092 H   0  0  0  0  0  0
  -22.0589   -2.7598   23.2799 H   0  0  0  0  0  0
  -22.3968  -11.9951   22.4914 H   0  0  0  0  0  0
  -21.1031  -13.1370   22.2640 H   0  0  0  0  0  0
  -24.6102  -15.8023   20.3893 H   0  0  0  0  0  0
  -26.2380  -15.5937   19.9643 H   0  0  0  0  0  0
  -26.7173  -32.5498   23.1142 H   0  0  0  0  0  0
  -25.0210  -33.9720   25.0551 H   0  0  0  0  0  0
  -22.6979  -31.3077   21.3979 H   0  0  0  0  0  0
  -23.3735  -35.9658   23.3286 H   0  0  0  0  0  0
  -24.3587  -36.8899   22.2031 H   0  0  0  0  0  0
  -23.7263  -37.6504   23.6640 H   0  0  0  0  0  0
  -26.0573  -31.5763   20.5972 H   0  0  0  0  0  0
  -26.8287  -30.8747   21.9932 H   0  0  0  0  0  0
  -28.1168  -29.0737   21.1669 H   0  0  0  0  0  0
  -26.0584  -25.9606   19.0226 H   0  0  0  0  0  0
  -23.9873  -27.2855   19.0450 H   0  0  0  0  0  0
  -23.7470  -30.5853   19.4043 H   0  0  0  0  0  0
  -22.7480  -29.2401   19.8638 H   0  0  0  0  0  0
  -25.1274  -36.1938   25.0813 H   0  0  0  0  0  0
  -20.9956  -28.3187   24.1402 H   0  0  0  0  0  0
  -20.5951  -26.2203   23.3445 H   0  0  0  0  0  0
  -21.6698  -26.7621   22.0952 H   0  0  0  0  0  0
  -19.7068  -25.6329   21.1056 H   0  0  0  0  0  0
  -19.6861  -27.3266   20.6675 H   0  0  0  0  0  0
  -17.4419  -26.6963   21.3634 H   0  0  0  0  0  0
  -18.0209  -25.9932   22.8619 H   0  0  0  0  0  0
  -19.7899  -30.7196   24.2314 H   0  0  0  0  0  0
  -17.4976  -31.6217   24.5099 H   0  0  0  0  0  0
  -15.5329  -30.2923   23.7554 H   0  0  0  0  0  0
  -15.8705  -28.0776   22.6989 H   0  0  0  0  0  0
  -24.5918  -30.7081   25.7842 H   0  0  0  0  0  0
  -24.8948  -32.2933   26.4881 H   0  0  0  0  0  0
  -25.8081  -30.8982   27.0270 H   0  0  0  0  0  0
  -26.2969  -29.6745   24.1181 H   0  0  0  0  0  0
  -27.4070  -29.7293   25.4644 H   0  0  0  0  0  0
  -27.8805  -30.4294   23.9382 H   0  0  0  0  0  0
  -27.2758  -33.3558   26.2142 H   0  0  0  0  0  0
  -28.3919  -32.6846   25.0355 H   0  0  0  0  0  0
  -28.0762  -31.8359   26.5366 H   0  0  0  0  0  0
  -28.2585  -38.0123   24.7500 H   0  0  0  0  0  0
  -28.1108  -36.2638   24.6274 H   0  0  0  0  0  0
  -27.2295  -37.1444   25.8851 H   0  0  0  0  0  0
  -20.9339  -29.8920   21.6995 H   0  0  0  0  0  0
  -26.0171  -38.2840   24.1436 H   0  0  0  0  0  0
  -28.1613  -16.5744   19.2265 H   0  0  0  0  0  0
  -31.1324  -18.0699   22.0193 H   0  0  0  0  0  0
  -24.6414  -20.5531   16.3238 H   0  0  0  0  0  0
  -25.1042  -20.5301   17.9982 H   0  0  0  0  0  0
  -24.6916  -19.0294   17.1837 H   0  0  0  0  0  0
  -26.8392  -21.7813   15.7405 H   0  0  0  0  0  0
  -28.3946  -21.0871   16.1875 H   0  0  0  0  0  0
  -27.2943  -21.7323   17.4108 H   0  0  0  0  0  0
  -26.1935  -19.7546   14.4957 H   0  0  0  0  0  0
  -26.1772  -18.1620   15.2514 H   0  0  0  0  0  0
  -27.6980  -18.9491   14.8780 H   0  0  0  0  0  0
  -28.2370  -22.9367   18.8093 H   0  0  0  0  0  0
  -29.3949  -24.2379   18.6396 H   0  0  0  0  0  0
  -27.6748  -24.5830   18.5578 H   0  0  0  0  0  0
  -26.5117  -23.0444   20.6623 H   0  0  0  0  0  0
  -26.3441  -24.7365   21.0434 H   0  0  0  0  0  0
  -27.0451  -23.6675   22.2266 H   0  0  0  0  0  0
  -30.3914  -23.1886   20.5698 H   0  0  0  0  0  0
  -29.7822  -23.4450   22.1772 H   0  0  0  0  0  0
  -30.9331  -20.5060   21.6718 H   0  0  0  0  0  0
  -30.6806  -20.8657   19.9921 H   0  0  0  0  0  0
  -26.8189  -17.9819   17.8435 H   0  0  0  0  0  0
  -28.3190  -18.4755   17.1284 H   0  0  0  0  0  0
  -29.8692  -25.7230   21.0139 H   0  0  0  0  0  0
  -28.4139  -25.9141   21.9356 H   0  0  0  0  0  0
  -28.5015  -20.3815   18.7195 H   0  0  0  0  0  0
  -29.1192  -15.0917   21.6600 H   0  0  0  0  0  0
  -26.2394  -19.0953   20.0928 H   0  0  0  0  0  0
  -26.2497  -20.6002   19.4309 H   0  0  0  0  0  0
  -27.2124  -20.2533   20.7042 H   0  0  0  0  0  0
  1 25  1  0  0  0
  1 30  2  0  0  0
  1 89  1  0  0  0
  2  3  1  0  0  0
  2 25  1  0  0  0
  2 92  1  0  0  0
  2 93  1  0  0  0
  3  4  1  0  0  0
  3 94  1  0  0  0
  3 95  1  0  0  0
  4  5  1  0  0  0
  4 96  1  0  0  0
  4 97  1  0  0  0
  5  6  1  0  0  0
  5 26  1  0  0  0
  5 98  1  0  0  0
  6 25  1  0  0  0
  6 99  1  0  0  0
  6100  1  0  0  0
  7  8  2  0  0  0
  7 26  1  0  0  0
  7 29  1  0  0  0
  8  9  1  0  0  0
  8 22  1  0  0  0
  9 10  1  0  0  0
  9 27  2  0  0  0
 10 11  2  0  0  0
 10 15  1  0  0  0
 11 12  1  0  0  0
 11101  1  0  0  0
 12 13  2  0  0  0
 12102  1  0  0  0
 13 14  1  0  0  0
 13 31  1  0  0  0
 14 15  2  0  0  0
 14103  1  0  0  0
 15104  1  0  0  0
 16 17  2  0  0  0
 16 21  1  0  0  0
 16 31  1  0  0  0
 17 18  1  0  0  0
 17105  1  0  0  0
 18 19  2  0  0  0
 18106  1  0  0  0
 19 20  1  0  0  0
 19 24  1  0  0  0
 20 21  2  0  0  0
 20107  1  0  0  0
 21 23  1  0  0  0
 22 28  1  0  0  0
 22 32  2  0  0  0
 26 27  1  0  0  0
 28108  1  0  0  0
 28109  1  0  0  0
 29110  1  0  0  0
 29111  1  0  0  0
 33 34  1  0  0  0
 33 66  1  0  0  0
 33 70  2  0  0  0
 34 36  1  0  0  0
 34 59  1  0  0  0
 34112  1  0  0  0
 35 44  2  0  0  0
 35 45  1  0  0  0
 35 68  1  0  0  0
 36 56  1  0  0  0
 36113  1  0  0  0
 37 39  1  0  0  0
 37 47  1  0  0  0
 37 66  1  0  0  0
 37114  1  0  0  0
 38 43  2  0  0  0
 38 46  1  0  0  0
 38 47  1  0  0  0
 39 64  1  0  0  0
 39 67  2  0  0  0
 40 52  1  0  0  0
 40 53  2  0  0  0
 40 58  1  0  0  0
 41115  1  0  0  0
 41116  1  0  0  0
 41117  1  0  0  0
 41 48  1  0  0  0
 42 43  1  0  0  0
 42 66  1  0  0  0
 42118  1  0  0  0
 42119  1  0  0  0
 43 44  1  0  0  0
 44120  1  0  0  0
 45 46  2  0  0  0
 45121  1  0  0  0
 46122  1  0  0  0
 47123  1  0  0  0
 47124  1  0  0  0
 48 56  1  0  0  0
 48 65  1  0  0  0
 48125  1  0  0  0
 49 50  1  0  0  0
 49 53  1  0  0  0
 49 64  1  0  0  0
 49126  1  0  0  0
 50 51  1  0  0  0
 50127  1  0  0  0
 50128  1  0  0  0
 51 52  1  0  0  0
 51129  1  0  0  0
 51130  1  0  0  0
 52131  1  0  0  0
 52132  1  0  0  0
 53 54  1  0  0  0
 54 55  2  0  0  0
 54133  1  0  0  0
 55 57  1  0  0  0
 55134  1  0  0  0
 56 69  2  0  0  0
 57 58  2  0  0  0
 57135  1  0  0  0
 58136  1  0  0  0
 59 60  1  0  0  0
 59 61  1  0  0  0
 59 62  1  0  0  0
 60137  1  0  0  0
 60138  1  0  0  0
 60139  1  0  0  0
 61140  1  0  0  0
 61141  1  0  0  0
 61142  1  0  0  0
 62143  1  0  0  0
 62144  1  0  0  0
 62145  1  0  0  0
 63 65  1  0  0  0
 63146  1  0  0  0
 63147  1  0  0  0
 63148  1  0  0  0
 64149  1  0  0  0
 65150  1  0  0  0
 68 84  1  0  0  0
 71 73  1  0  0  0
 71 74  2  0  0  0
 71151  1  0  0  0
 72 73  2  0  0  0
 72 88  1  0  0  0
 72152  1  0  0  0
 73 89  1  0  0  0
 74 85  1  0  0  0
 74 88  1  0  0  0
 75 81  1  0  0  0
 75 82  1  0  0  0
 75 91  2  0  0  0
 76153  1  0  0  0
 76154  1  0  0  0
 76155  1  0  0  0
 76 86  1  0  0  0
 77 86  1  0  0  0
 77156  1  0  0  0
 77157  1  0  0  0
 77158  1  0  0  0
 78 86  1  0  0  0
 78159  1  0  0  0
 78160  1  0  0  0
 78161  1  0  0  0
 79162  1  0  0  0
 79163  1  0  0  0
 79164  1  0  0  0
 79 87  1  0  0  0
 80 87  1  0  0  0
 80165  1  0  0  0
 80166  1  0  0  0
 80167  1  0  0  0
 81 87  1  0  0  0
 81168  1  0  0  0
 81169  1  0  0  0
 82 88  1  0  0  0
 82170  1  0  0  0
 82171  1  0  0  0
 83 85  1  0  0  0
 83 86  1  0  0  0
 83172  1  0  0  0
 83173  1  0  0  0
 84 87  1  0  0  0
 84174  1  0  0  0
 84175  1  0  0  0
 85 90  1  0  0  0
 85176  1  0  0  0
 89177  1  0  0  0
 90178  1  0  0  0
 90179  1  0  0  0
 90180  1  0  0  0
M  CHG  1  90   1
M  ISO  4   1 100  68 101  84 101  89 100
M  END
> <chiral flag>
0

> <version>
0

> <s_m_source_file>
/data/baiqing/PycharmProjects/Reinvent-master-3.2/result/LINK_invent/BTK/process_docking_weight1_custom_product_contain_oxygen_bond_distance_aromatic_linkinvent_7_9_3/rearranged_h_0149.sdf

> <i_m_source_file_index>
75

> <r_mmod_Potential_Energy-OPLS-2005>
-142.271575927734

> <r_mmod_Stretch_Energy-OPLS-2005>
59.2164154052734

> <r_mmod_Bend_Energy-OPLS-2005>
150.159942626953

> <r_mmod_Torsional_Energy-OPLS-2005>
296.249908447266

> <r_mmod_Improper_Torsional_Energy-OPLS-2005>
7.84241533279419

> <r_mmod_Van_der_Waal_Energy-OPLS-2005>
125.93660736084

> <r_mmod_Electrostatic_Energy-OPLS-2005>
-339.669982910156

> <r_mmod_Solvation_Energy-OPLS-2005>
-458.906646728516

> <b_mmod_Minimization_Converged-OPLS-2005>
0

> <r_mmod_RMS_Derivative-OPLS-2005>
6.52233123779297

$$$$
75
                    3D
 Structure written by MMmdl.
165174  0  0  1  0            999 V2000
  -30.6972  -14.6810   20.3644 C   0  0  0  0  0  0
  -30.4178  -12.3929   19.4679 C   0  0  0  0  0  0
  -29.4972  -12.3722   18.2334 C   0  0  0  0  0  0
  -28.0179  -12.2341   18.6573 C   0  0  0  0  0  0
  -27.6109  -13.1629   19.8298 C   0  0  2  0  0  0
  -28.6794  -13.2327   20.9473 C   0  0  0  0  0  0
  -25.2466  -13.7981   20.5761 C   0  0  0  0  0  0
  -24.1705  -13.0336   20.9250 C   0  0  0  0  0  0
  -24.6237  -11.6788   20.8845 C   0  0  0  0  0  0
  -23.8924  -10.4214   21.0492 C   0  0  0  0  0  0
  -24.3502   -9.4128   21.9243 C   0  0  0  0  0  0
  -23.6195   -8.2158   22.0787 C   0  0  0  0  0  0
  -22.4194   -8.0195   21.3549 C   0  0  0  0  0  0
  -21.9819   -9.0170   20.4666 C   0  0  0  0  0  0
  -22.7128  -10.2059   20.3109 C   0  0  0  0  0  0
  -21.6805   -6.0654   22.5260 C   0  0  0  0  0  0
  -21.3965   -6.5584   23.8182 C   0  0  0  0  0  0
  -21.3659   -5.6771   24.9170 C   0  0  0  0  0  0
  -21.6053   -4.3034   24.7252 C   0  0  0  0  0  0
  -21.8818   -3.8093   23.4384 C   0  0  0  0  0  0
  -21.9179   -4.6883   22.3413 C   0  0  0  0  0  0
  -22.7760  -13.5207   21.1890 C   0  0  0  0  0  0
  -22.1661   -4.2050   21.0999 F   0  0  0  0  0  0
  -21.5663   -3.4551   25.7791 F   0  0  0  0  0  0
  -29.9781  -13.5125   20.3208 N   0  0  0  0  0  0
  -26.2783  -12.9015   20.3365 N   0  0  0  0  0  0
  -25.9132  -11.6253   20.5908 N   0  0  0  0  0  0
  -22.0359  -12.8228   22.0428 N   0  0  0  0  0  0
  -25.4224  -15.1719   20.4174 N   0  0  0  0  0  0
  -31.9259  -14.6429   20.3271 O   0  0  0  0  0  0
  -21.6589   -6.8780   21.4219 O   0  0  0  0  0  0
  -22.3506  -14.5545   20.6745 O   0  0  0  0  0  0
  -24.6192  -31.8626   23.2104 C   0  0  0  0  0  0
  -25.9068  -32.4798   23.8405 C   0  0  1  0  0  0
  -27.2344  -27.3951   20.1196 C   0  0  0  0  0  0
  -25.5909  -33.8597   24.2316 N   0  0  0  0  0  0
  -23.4102  -30.4837   21.5505 C   0  0  2  0  0  0
  -24.8601  -28.9447   20.1170 C   0  0  0  0  0  0
  -22.7445  -29.4613   22.4989 C   0  0  0  0  0  0
  -18.0272  -28.1375   22.8491 C   0  0  0  0  0  0
  -24.1480  -36.7318   23.2636 C   0  0  0  0  0  0
  -25.9413  -30.8194   21.3675 C   0  0  0  0  0  0
  -26.0220  -29.4492   20.7170 C   0  0  0  0  0  0
  -27.2161  -28.6832   20.7128 C   0  0  0  0  0  0
  -26.0600  -26.9143   19.5063 C   0  0  0  0  0  0
  -24.8756  -27.6775   19.5065 C   0  0  0  0  0  0
  -23.6223  -29.8154   20.1645 C   0  0  0  0  0  0
  -25.4107  -36.3095   24.0319 C   0  0  1  0  0  0
  -20.5867  -28.3661   23.1310 C   0  0  2  0  0  0
  -20.6755  -26.9397   22.5413 C   0  0  0  0  0  0
  -19.5733  -26.6382   21.5210 C   0  0  0  0  0  0
  -18.1910  -26.7921   22.1618 C   0  0  0  0  0  0
  -19.1526  -28.8840   23.2881 C   0  0  0  0  0  0
  -18.9444  -30.1447   23.8889 C   0  0  0  0  0  0
  -17.6445  -30.6583   24.0569 C   0  0  0  0  0  0
  -25.9035  -34.9455   23.5117 C   0  0  0  0  0  0
  -16.5340  -29.9084   23.6329 C   0  0  0  0  0  0
  -16.7259  -28.6498   23.0357 C   0  0  0  0  0  0
  -26.4502  -31.6599   25.0751 C   0  0  0  0  0  0
  -25.3750  -31.3669   26.1488 C   0  0  0  0  0  0
  -27.0373  -30.3044   24.6151 C   0  0  0  0  0  0
  -27.6071  -32.4345   25.7497 C   0  0  0  0  0  0
  -27.5574  -37.1799   24.8461 C   0  0  0  0  0  0
  -21.4171  -29.3014   22.3723 N   0  0  0  0  0  0
  -26.4284  -37.3788   23.9407 N   0  0  0  0  0  0
  -24.6753  -31.0698   22.1024 N   0  0  0  0  0  0
  -23.4191  -28.8158   23.3045 O   0  0  0  0  0  0
  -28.3703  -26.6076   20.0932 O   0  0  0  0  0  0
  -26.5613  -34.8903   22.4690 O   0  0  0  0  0  0
  -23.5369  -32.1421   23.7456 O   0  0  0  0  0  0
  -32.5521  -19.7285   20.2516 C   0  0  0  0  0  0
  -31.1600  -19.7079   20.5807 C   0  0  0  0  0  0
  -30.7520  -21.0507   20.6315 C   0  0  0  0  0  0
  -32.8854  -21.0374   20.1345 C   0  0  0  0  0  0
  -29.4973  -23.2232   20.6405 C   0  0  0  0  0  0
  -30.3687  -18.4425   20.7787 C   0  0  0  0  0  0
  -29.5386  -21.8561   20.7553 C   0  0  0  0  0  0
  -28.3027  -24.1304   20.6294 C   0  0  0  0  0  0
  -29.1923  -17.2515   18.2590 C   0  0  0  0  0  0
  -30.6740  -17.5067   18.4421 C   0  0  0  0  0  0
  -29.0082  -15.9819   19.0851 C   0  0  0  0  0  0
  -30.8444  -17.1879   19.9330 C   0  0  2  0  0  0
  -35.0240  -20.7963   18.9465 C   0  0  0  0  0  0
  -28.4558  -25.5995   21.1323 C   0  0  0  0  0  0
  -30.0823  -15.8956   20.0958 N   0  0  0  0  0  0
  -34.1123  -21.5775   19.7727 N   0  0  0  0  0  0
  -29.3558  -18.4344   21.4830 O   0  0  0  0  0  0
  -27.1970  -23.7677   20.2149 O   0  0  0  0  0  0
  -31.8439  -21.8444   20.3857 O   0  0  0  0  0  0
  -28.4296  -21.1343   20.9825 O   0  0  0  0  0  0
  -31.4579  -12.4884   19.1515 H   0  0  0  0  0  0
  -30.3572  -11.4523   20.0189 H   0  0  0  0  0  0
  -29.7695  -11.5299   17.5956 H   0  0  0  0  0  0
  -29.6521  -13.2569   17.6195 H   0  0  0  0  0  0
  -27.8650  -11.1950   18.9518 H   0  0  0  0  0  0
  -27.3645  -12.4026   17.7991 H   0  0  0  0  0  0
  -27.4909  -14.1112   19.3490 H   0  0  0  0  0  0
  -28.7204  -12.2984   21.5076 H   0  0  0  0  0  0
  -28.4301  -14.0208   21.6606 H   0  0  0  0  0  0
  -25.2637   -9.5611   22.4828 H   0  0  0  0  0  0
  -23.9883   -7.4558   22.7527 H   0  0  0  0  0  0
  -21.0747   -8.8698   19.8973 H   0  0  0  0  0  0
  -22.3594  -10.9613   19.6232 H   0  0  0  0  0  0
  -21.1912   -7.6087   23.9657 H   0  0  0  0  0  0
  -21.1506   -6.0519   25.9070 H   0  0  0  0  0  0
  -22.0603   -2.7543   23.2938 H   0  0  0  0  0  0
  -22.3935  -11.9880   22.4839 H   0  0  0  0  0  0
  -21.0996  -13.1316   22.2655 H   0  0  0  0  0  0
  -24.6588  -15.8298   20.5370 H   0  0  0  0  0  0
  -26.2914  -15.6187   20.1595 H   0  0  0  0  0  0
  -26.7148  -32.5487   23.1173 H   0  0  0  0  0  0
  -25.0032  -33.9768   25.0441 H   0  0  0  0  0  0
  -22.6977  -31.2978   21.4082 H   0  0  0  0  0  0
  -23.3731  -35.9658   23.3306 H   0  0  0  0  0  0
  -24.3542  -36.8961   22.2047 H   0  0  0  0  0  0
  -23.7258  -37.6520   23.6683 H   0  0  0  0  0  0
  -26.0521  -31.5846   20.5983 H   0  0  0  0  0  0
  -26.8284  -30.8780   21.9859 H   0  0  0  0  0  0
  -28.1152  -29.0688   21.1737 H   0  0  0  0  0  0
  -26.0618  -25.9420   19.0327 H   0  0  0  0  0  0
  -23.9837  -27.2809   19.0404 H   0  0  0  0  0  0
  -23.7314  -30.5912   19.4056 H   0  0  0  0  0  0
  -22.7462  -29.2358   19.8701 H   0  0  0  0  0  0
  -25.1288  -36.1945   25.0810 H   0  0  0  0  0  0
  -20.9933  -28.3222   24.1443 H   0  0  0  0  0  0
  -20.5658  -26.2266   23.3596 H   0  0  0  0  0  0
  -21.6618  -26.7427   22.1212 H   0  0  0  0  0  0
  -19.6894  -25.6301   21.1223 H   0  0  0  0  0  0
  -19.6677  -27.3197   20.6747 H   0  0  0  0  0  0
  -17.4190  -26.6688   21.4015 H   0  0  0  0  0  0
  -18.0288  -26.0049   22.8995 H   0  0  0  0  0  0
  -19.7921  -30.7269   24.2254 H   0  0  0  0  0  0
  -17.5000  -31.6252   24.5186 H   0  0  0  0  0  0
  -15.5341  -30.2988   23.7651 H   0  0  0  0  0  0
  -15.8653  -28.0817   22.7086 H   0  0  0  0  0  0
  -24.5969  -30.6970   25.7828 H   0  0  0  0  0  0
  -24.8868  -32.2783   26.4934 H   0  0  0  0  0  0
  -25.8103  -30.8863   27.0259 H   0  0  0  0  0  0
  -26.2935  -29.6727   24.1283 H   0  0  0  0  0  0
  -27.4249  -29.7358   25.4617 H   0  0  0  0  0  0
  -27.8713  -30.4399   23.9258 H   0  0  0  0  0  0
  -27.2730  -33.3681   26.2036 H   0  0  0  0  0  0
  -28.3885  -32.6854   25.0312 H   0  0  0  0  0  0
  -28.0741  -31.8496   26.5435 H   0  0  0  0  0  0
  -28.2593  -38.0100   24.7533 H   0  0  0  0  0  0
  -28.1079  -36.2630   24.6281 H   0  0  0  0  0  0
  -27.2274  -37.1448   25.8858 H   0  0  0  0  0  0
  -20.9361  -29.8728   21.6928 H   0  0  0  0  0  0
  -26.0165  -38.2849   24.1452 H   0  0  0  0  0  0
  -33.2158  -18.8905   20.0944 H   0  0  0  0  0  0
  -30.4305  -23.7530   20.5140 H   0  0  0  0  0  0
  -28.9174  -17.1126   17.2119 H   0  0  0  0  0  0
  -28.5833  -18.0701   18.6503 H   0  0  0  0  0  0
  -30.9652  -18.5134   18.1454 H   0  0  0  0  0  0
  -31.2587  -16.8067   17.8416 H   0  0  0  0  0  0
  -29.0314  -15.1494   18.3878 H   0  0  0  0  0  0
  -28.0440  -16.0531   19.5836 H   0  0  0  0  0  0
  -31.9033  -17.0424   20.1423 H   0  0  0  0  0  0
  -35.7825  -21.4448   18.5040 H   0  0  0  0  0  0
  -34.4920  -20.3054   18.1294 H   0  0  0  0  0  0
  -35.5360  -20.0307   19.5306 H   0  0  0  0  0  0
  -29.4202  -25.7015   21.6298 H   0  0  0  0  0  0
  -27.6968  -25.7825   21.8950 H   0  0  0  0  0  0
  -34.1529  -22.5866   19.6413 H   0  0  0  0  0  0
  -28.6899  -20.2333   21.1466 H   0  0  0  0  0  0
  1 25  1  0  0  0
  1 30  2  0  0  0
  1 85  1  0  0  0
  2  3  1  0  0  0
  2 25  1  0  0  0
  2 91  1  0  0  0
  2 92  1  0  0  0
  3  4  1  0  0  0
  3 93  1  0  0  0
  3 94  1  0  0  0
  4  5  1  0  0  0
  4 95  1  0  0  0
  4 96  1  0  0  0
  5  6  1  0  0  0
  5 26  1  0  0  0
  5 97  1  0  0  0
  6 25  1  0  0  0
  6 98  1  0  0  0
  6 99  1  0  0  0
  7  8  2  0  0  0
  7 26  1  0  0  0
  7 29  1  0  0  0
  8  9  1  0  0  0
  8 22  1  0  0  0
  9 10  1  0  0  0
  9 27  2  0  0  0
 10 11  2  0  0  0
 10 15  1  0  0  0
 11 12  1  0  0  0
 11100  1  0  0  0
 12 13  2  0  0  0
 12101  1  0  0  0
 13 14  1  0  0  0
 13 31  1  0  0  0
 14 15  2  0  0  0
 14102  1  0  0  0
 15103  1  0  0  0
 16 17  2  0  0  0
 16 21  1  0  0  0
 16 31  1  0  0  0
 17 18  1  0  0  0
 17104  1  0  0  0
 18 19  2  0  0  0
 18105  1  0  0  0
 19 20  1  0  0  0
 19 24  1  0  0  0
 20 21  2  0  0  0
 20106  1  0  0  0
 21 23  1  0  0  0
 22 28  1  0  0  0
 22 32  2  0  0  0
 26 27  1  0  0  0
 28107  1  0  0  0
 28108  1  0  0  0
 29109  1  0  0  0
 29110  1  0  0  0
 33 34  1  0  0  0
 33 66  1  0  0  0
 33 70  2  0  0  0
 34 36  1  0  0  0
 34 59  1  0  0  0
 34111  1  0  0  0
 35 44  2  0  0  0
 35 45  1  0  0  0
 35 68  1  0  0  0
 36 56  1  0  0  0
 36112  1  0  0  0
 37 39  1  0  0  0
 37 47  1  0  0  0
 37 66  1  0  0  0
 37113  1  0  0  0
 38 43  2  0  0  0
 38 46  1  0  0  0
 38 47  1  0  0  0
 39 64  1  0  0  0
 39 67  2  0  0  0
 40 52  1  0  0  0
 40 53  2  0  0  0
 40 58  1  0  0  0
 41114  1  0  0  0
 41115  1  0  0  0
 41116  1  0  0  0
 41 48  1  0  0  0
 42 43  1  0  0  0
 42 66  1  0  0  0
 42117  1  0  0  0
 42118  1  0  0  0
 43 44  1  0  0  0
 44119  1  0  0  0
 45 46  2  0  0  0
 45120  1  0  0  0
 46121  1  0  0  0
 47122  1  0  0  0
 47123  1  0  0  0
 48 56  1  0  0  0
 48 65  1  0  0  0
 48124  1  0  0  0
 49 50  1  0  0  0
 49 53  1  0  0  0
 49 64  1  0  0  0
 49125  1  0  0  0
 50 51  1  0  0  0
 50126  1  0  0  0
 50127  1  0  0  0
 51 52  1  0  0  0
 51128  1  0  0  0
 51129  1  0  0  0
 52130  1  0  0  0
 52131  1  0  0  0
 53 54  1  0  0  0
 54 55  2  0  0  0
 54132  1  0  0  0
 55 57  1  0  0  0
 55133  1  0  0  0
 56 69  2  0  0  0
 57 58  2  0  0  0
 57134  1  0  0  0
 58135  1  0  0  0
 59 60  1  0  0  0
 59 61  1  0  0  0
 59 62  1  0  0  0
 60136  1  0  0  0
 60137  1  0  0  0
 60138  1  0  0  0
 61139  1  0  0  0
 61140  1  0  0  0
 61141  1  0  0  0
 62142  1  0  0  0
 62143  1  0  0  0
 62144  1  0  0  0
 63 65  1  0  0  0
 63145  1  0  0  0
 63146  1  0  0  0
 63147  1  0  0  0
 64148  1  0  0  0
 65149  1  0  0  0
 68 84  1  0  0  0
 71 72  1  0  0  0
 71 74  2  0  0  0
 71150  1  0  0  0
 72 73  2  0  0  0
 72 76  1  0  0  0
 73 77  1  0  0  0
 73 89  1  0  0  0
 74 86  1  0  0  0
 74 89  1  0  0  0
 75 77  2  0  0  0
 75 78  1  0  0  0
 75151  1  0  0  0
 76 87  2  0  0  0
 76 82  1  0  0  0
 77 90  1  0  0  0
 78 84  1  0  0  0
 78 88  2  0  0  0
 79 80  1  0  0  0
 79 81  1  0  0  0
 79152  1  0  0  0
 79153  1  0  0  0
 80 82  1  0  0  0
 80154  1  0  0  0
 80155  1  0  0  0
 81 85  1  0  0  0
 81156  1  0  0  0
 81157  1  0  0  0
 82 85  1  0  0  0
 82158  1  0  0  0
 83 86  1  0  0  0
 83159  1  0  0  0
 83160  1  0  0  0
 83161  1  0  0  0
 84162  1  0  0  0
 84163  1  0  0  0
 86164  1  0  0  0
 90165  1  0  0  0
M  ISO  4   1 100  68 101  84 101  85 100
M  END
> <chiral flag>
0

> <version>
0

> <s_m_source_file>
/data/baiqing/PycharmProjects/Reinvent-master-3.2/result/LINK_invent/BTK/process_docking_weight1_custom_product_contain_oxygen_bond_distance_aromatic_linkinvent_7_9_3/rearranged_h_0149.sdf

> <i_m_source_file_index>
76

> <r_mmod_Potential_Energy-OPLS-2005>
203.308807373047

> <r_mmod_Stretch_Energy-OPLS-2005>
66.296516418457

> <r_mmod_Bend_Energy-OPLS-2005>
186.454483032227

> <r_mmod_Torsional_Energy-OPLS-2005>
351.28271484375

> <r_mmod_Improper_Torsional_Energy-OPLS-2005>
16.1619567871094

> <r_mmod_Van_der_Waal_Energy-OPLS-2005>
140.536148071289

> <r_mmod_Electrostatic_Energy-OPLS-2005>
-377.308807373047

> <r_mmod_Solvation_Energy-OPLS-2005>
-250.543518066406

> <b_mmod_Minimization_Converged-OPLS-2005>
0

> <r_mmod_RMS_Derivative-OPLS-2005>
2.55708932876587

$$$$
76
                    3D
 Structure written by MMmdl.
160169  0  0  1  0            999 V2000
  -30.5269  -14.8253   20.4555 C   0  0  0  0  0  0
  -30.4549  -12.5049   19.4769 C   0  0  0  0  0  0
  -29.5215  -12.5251   18.2424 C   0  0  0  0  0  0
  -28.0479  -12.3295   18.6544 C   0  0  0  0  0  0
  -27.6453  -13.2256   19.8544 C   0  0  2  0  0  0
  -28.6907  -13.1482   20.9892 C   0  0  0  0  0  0
  -25.2535  -13.8175   20.5689 C   0  0  0  0  0  0
  -24.1821  -13.0433   20.9218 C   0  0  0  0  0  0
  -24.6400  -11.6906   20.8750 C   0  0  0  0  0  0
  -23.9070  -10.4289   21.0410 C   0  0  0  0  0  0
  -24.3619   -9.4201   21.9185 C   0  0  0  0  0  0
  -23.6294   -8.2238   22.0752 C   0  0  0  0  0  0
  -22.4276   -8.0279   21.3544 C   0  0  0  0  0  0
  -21.9915   -9.0253   20.4646 C   0  0  0  0  0  0
  -22.7243  -10.2132   20.3057 C   0  0  0  0  0  0
  -21.6853   -6.0736   22.5280 C   0  0  0  0  0  0
  -21.4013   -6.5638   23.8213 C   0  0  0  0  0  0
  -21.3661   -5.6791   24.9175 C   0  0  0  0  0  0
  -21.6046   -4.3055   24.7227 C   0  0  0  0  0  0
  -21.8817   -3.8147   23.4349 C   0  0  0  0  0  0
  -21.9192   -4.6964   22.3405 C   0  0  0  0  0  0
  -22.7843  -13.5223   21.1874 C   0  0  0  0  0  0
  -22.1659   -4.2152   21.0982 F   0  0  0  0  0  0
  -21.5634   -3.4538   25.7740 F   0  0  0  0  0  0
  -29.9861  -13.5513   20.4183 N   0  0  0  0  0  0
  -26.2954  -12.9363   20.3278 N   0  0  0  0  0  0
  -25.9328  -11.6514   20.5744 N   0  0  0  0  0  0
  -22.0481  -12.8214   22.0424 N   0  0  0  0  0  0
  -25.4231  -15.1898   20.4070 N   0  0  0  0  0  0
  -31.6995  -15.0007   20.1047 O   0  0  0  0  0  0
  -21.6637   -6.8878   21.4241 O   0  0  0  0  0  0
  -22.3532  -14.5528   20.6716 O   0  0  0  0  0  0
  -24.6367  -31.8498   23.1928 C   0  0  0  0  0  0
  -25.9168  -32.4723   23.8297 C   0  0  1  0  0  0
  -27.2251  -27.2081   20.1341 C   0  0  0  0  0  0
  -25.5942  -33.8527   24.2219 N   0  0  0  0  0  0
  -23.4362  -30.4701   21.5375 C   0  0  2  0  0  0
  -24.8841  -28.9053   20.1120 C   0  0  0  0  0  0
  -22.7529  -29.4575   22.4892 C   0  0  0  0  0  0
  -18.0297  -28.1389   22.8481 C   0  0  0  0  0  0
  -24.1490  -36.7268   23.2640 C   0  0  0  0  0  0
  -25.9863  -30.7459   21.3799 C   0  0  0  0  0  0
  -26.0585  -29.3633   20.7214 C   0  0  0  0  0  0
  -27.2296  -28.5298   20.7154 C   0  0  0  0  0  0
  -26.0207  -26.8268   19.5013 C   0  0  0  0  0  0
  -24.8736  -27.6474   19.4903 C   0  0  0  0  0  0
  -23.6575  -29.7994   20.1560 C   0  0  0  0  0  0
  -25.4119  -36.3049   24.0320 C   0  0  1  0  0  0
  -20.5904  -28.3708   23.1254 C   0  0  2  0  0  0
  -20.6783  -26.9419   22.5407 C   0  0  0  0  0  0
  -19.5759  -26.6382   21.5212 C   0  0  0  0  0  0
  -18.1940  -26.7930   22.1623 C   0  0  0  0  0  0
  -19.1552  -28.8867   23.2860 C   0  0  0  0  0  0
  -18.9470  -30.1464   23.8884 C   0  0  0  0  0  0
  -17.6468  -30.6589   24.0560 C   0  0  0  0  0  0
  -25.9068  -34.9422   23.5077 C   0  0  0  0  0  0
  -16.5359  -29.9085   23.6332 C   0  0  0  0  0  0
  -16.7282  -28.6501   23.0356 C   0  0  0  0  0  0
  -26.4515  -31.6571   25.0714 C   0  0  0  0  0  0
  -25.3719  -31.3742   26.1422 C   0  0  0  0  0  0
  -27.0373  -30.2977   24.6249 C   0  0  0  0  0  0
  -27.6054  -32.4329   25.7497 C   0  0  0  0  0  0
  -27.5581  -37.1784   24.8459 C   0  0  0  0  0  0
  -21.4231  -29.3044   22.3637 N   0  0  0  0  0  0
  -26.4284  -37.3759   23.9414 N   0  0  0  0  0  0
  -24.7058  -31.0416   22.0926 N   0  0  0  0  0  0
  -23.4204  -28.8125   23.3018 O   0  0  0  0  0  0
  -28.3273  -26.3032   20.1881 O   0  0  0  0  0  0
  -26.5649  -34.8909   22.4652 O   0  0  0  0  0  0
  -23.5503  -32.1344   23.7192 O   0  0  0  0  0  0
  -30.3156  -18.4854   20.2042 C   0  0  0  0  0  0
  -28.3159  -17.9864   20.9763 C   0  0  0  0  0  0
  -29.4912  -17.3591   20.6361 C   0  0  0  0  0  0
  -29.5903  -19.7016   20.2974 C   0  0  0  0  0  0
  -29.8491  -21.1800   19.9703 C   0  0  0  0  0  0
  -27.4536  -23.9876   21.0737 C   0  0  0  0  0  0
  -27.8010  -22.4660   20.8730 C   0  0  0  0  0  0
  -28.1970  -24.7893   19.9816 C   0  0  2  0  0  0
  -29.4997  -23.8456   19.8709 C   0  0  0  0  0  0
  -30.0784  -23.9995   18.4457 C   0  0  0  0  0  0
  -30.5373  -24.3214   20.9106 C   0  0  0  0  0  0
  -29.1047  -22.3780   20.1857 N   0  0  0  0  0  0
  -29.6383  -15.8612   20.7589 N   0  0  0  0  0  0
  -31.0321  -21.3366   19.3575 N   0  3  0  0  0  0
  -28.3549  -19.3593   20.7765 O   0  0  0  0  0  0
  -31.4887  -12.6721   19.1694 H   0  0  0  0  0  0
  -30.4407  -11.5256   19.9579 H   0  0  0  0  0  0
  -29.8174  -11.7515   17.5326 H   0  0  0  0  0  0
  -29.6301  -13.4765   17.7193 H   0  0  0  0  0  0
  -27.9167  -11.2797   18.9193 H   0  0  0  0  0  0
  -27.3886  -12.5132   17.8050 H   0  0  0  0  0  0
  -27.6389  -14.2479   19.4760 H   0  0  0  0  0  0
  -28.7475  -12.1363   21.3932 H   0  0  0  0  0  0
  -28.4066  -13.7880   21.8263 H   0  0  0  0  0  0
  -25.2763   -9.5678   22.4760 H   0  0  0  0  0  0
  -24.0005   -7.4629   22.7469 H   0  0  0  0  0  0
  -21.0847   -8.8771   19.8952 H   0  0  0  0  0  0
  -22.3701  -10.9671   19.6169 H   0  0  0  0  0  0
  -21.1998   -7.6144   23.9718 H   0  0  0  0  0  0
  -21.1488   -6.0520   25.9079 H   0  0  0  0  0  0
  -22.0596   -2.7610   23.2847 H   0  0  0  0  0  0
  -22.4089  -11.9872   22.4813 H   0  0  0  0  0  0
  -21.1100  -13.1239   22.2627 H   0  0  0  0  0  0
  -24.6421  -15.8317   20.4883 H   0  0  0  0  0  0
  -26.2421  -15.6151   19.9932 H   0  0  0  0  0  0
  -26.7234  -32.5351   23.1032 H   0  0  0  0  0  0
  -25.0075  -33.9655   25.0356 H   0  0  0  0  0  0
  -22.7352  -31.2937   21.3867 H   0  0  0  0  0  0
  -23.3761  -35.9589   23.3275 H   0  0  0  0  0  0
  -24.3582  -36.8924   22.2060 H   0  0  0  0  0  0
  -23.7229  -37.6452   23.6689 H   0  0  0  0  0  0
  -26.1333  -31.5042   20.6096 H   0  0  0  0  0  0
  -26.8603  -30.7947   22.0179 H   0  0  0  0  0  0
  -28.1292  -28.8788   21.2026 H   0  0  0  0  0  0
  -25.9295  -25.8660   19.0199 H   0  0  0  0  0  0
  -23.9741  -27.2904   19.0077 H   0  0  0  0  0  0
  -23.7871  -30.5735   19.3988 H   0  0  0  0  0  0
  -22.7743  -29.2360   19.8498 H   0  0  0  0  0  0
  -25.1302  -36.1883   25.0811 H   0  0  0  0  0  0
  -20.9994  -28.3290   24.1375 H   0  0  0  0  0  0
  -20.5677  -26.2320   23.3619 H   0  0  0  0  0  0
  -21.6650  -26.7433   22.1202 H   0  0  0  0  0  0
  -19.6919  -25.6289   21.1252 H   0  0  0  0  0  0
  -19.6695  -27.3183   20.6735 H   0  0  0  0  0  0
  -17.4208  -26.6674   21.4027 H   0  0  0  0  0  0
  -18.0339  -26.0076   22.9023 H   0  0  0  0  0  0
  -19.7946  -30.7284   24.2248 H   0  0  0  0  0  0
  -17.5021  -31.6268   24.5163 H   0  0  0  0  0  0
  -15.5358  -30.2983   23.7664 H   0  0  0  0  0  0
  -15.8681  -28.0814   22.7084 H   0  0  0  0  0  0
  -24.5899  -30.7089   25.7746 H   0  0  0  0  0  0
  -24.8909  -32.2918   26.4818 H   0  0  0  0  0  0
  -25.8019  -30.8937   27.0219 H   0  0  0  0  0  0
  -26.2974  -29.6709   24.1257 H   0  0  0  0  0  0
  -27.4012  -29.7262   25.4798 H   0  0  0  0  0  0
  -27.8869  -30.4231   23.9533 H   0  0  0  0  0  0
  -27.2648  -33.3638   26.2043 H   0  0  0  0  0  0
  -28.3882  -32.6877   25.0341 H   0  0  0  0  0  0
  -28.0703  -31.8477   26.5441 H   0  0  0  0  0  0
  -28.2570  -38.0111   24.7542 H   0  0  0  0  0  0
  -28.1108  -36.2641   24.6239 H   0  0  0  0  0  0
  -27.2304  -37.1370   25.8862 H   0  0  0  0  0  0
  -20.9429  -29.8760   21.6827 H   0  0  0  0  0  0
  -26.0155  -38.2822   24.1442 H   0  0  0  0  0  0
  -31.3333  -18.4155   19.8489 H   0  0  0  0  0  0
  -27.3692  -17.6269   21.3575 H   0  0  0  0  0  0
  -27.7726  -24.3102   22.0650 H   0  0  0  0  0  0
  -26.3785  -24.1573   21.0168 H   0  0  0  0  0  0
  -27.0530  -21.9821   20.2450 H   0  0  0  0  0  0
  -27.8301  -21.9354   21.8246 H   0  0  0  0  0  0
  -27.6620  -24.6462   19.0429 H   0  0  0  0  0  0
  -29.9112  -25.0080   18.0650 H   0  0  0  0  0  0
  -29.6025  -23.3132   17.7439 H   0  0  0  0  0  0
  -31.1547  -23.8347   18.4073 H   0  0  0  0  0  0
  -30.7817  -25.3744   20.7680 H   0  0  0  0  0  0
  -31.4685  -23.7596   20.8416 H   0  0  0  0  0  0
  -30.1698  -24.2083   21.9305 H   0  0  0  0  0  0
  -28.7812  -15.4375   21.0817 H   0  0  0  0  0  0
  -31.6115  -20.5342   19.1677 H   0  0  0  0  0  0
  -31.3407  -22.2363   19.0264 H   0  0  0  0  0  0
  1 25  1  0  0  0
  1 30  2  0  0  0
  1 83  1  0  0  0
  2  3  1  0  0  0
  2 25  1  0  0  0
  2 86  1  0  0  0
  2 87  1  0  0  0
  3  4  1  0  0  0
  3 88  1  0  0  0
  3 89  1  0  0  0
  4  5  1  0  0  0
  4 90  1  0  0  0
  4 91  1  0  0  0
  5  6  1  0  0  0
  5 26  1  0  0  0
  5 92  1  0  0  0
  6 25  1  0  0  0
  6 93  1  0  0  0
  6 94  1  0  0  0
  7  8  2  0  0  0
  7 26  1  0  0  0
  7 29  1  0  0  0
  8  9  1  0  0  0
  8 22  1  0  0  0
  9 10  1  0  0  0
  9 27  2  0  0  0
 10 11  2  0  0  0
 10 15  1  0  0  0
 11 12  1  0  0  0
 11 95  1  0  0  0
 12 13  2  0  0  0
 12 96  1  0  0  0
 13 14  1  0  0  0
 13 31  1  0  0  0
 14 15  2  0  0  0
 14 97  1  0  0  0
 15 98  1  0  0  0
 16 17  2  0  0  0
 16 21  1  0  0  0
 16 31  1  0  0  0
 17 18  1  0  0  0
 17 99  1  0  0  0
 18 19  2  0  0  0
 18100  1  0  0  0
 19 20  1  0  0  0
 19 24  1  0  0  0
 20 21  2  0  0  0
 20101  1  0  0  0
 21 23  1  0  0  0
 22 28  1  0  0  0
 22 32  2  0  0  0
 26 27  1  0  0  0
 28102  1  0  0  0
 28103  1  0  0  0
 29104  1  0  0  0
 29105  1  0  0  0
 33 34  1  0  0  0
 33 66  1  0  0  0
 33 70  2  0  0  0
 34 36  1  0  0  0
 34 59  1  0  0  0
 34106  1  0  0  0
 35 44  2  0  0  0
 35 45  1  0  0  0
 35 68  1  0  0  0
 36 56  1  0  0  0
 36107  1  0  0  0
 37 39  1  0  0  0
 37 47  1  0  0  0
 37 66  1  0  0  0
 37108  1  0  0  0
 38 43  2  0  0  0
 38 46  1  0  0  0
 38 47  1  0  0  0
 39 64  1  0  0  0
 39 67  2  0  0  0
 40 52  1  0  0  0
 40 53  2  0  0  0
 40 58  1  0  0  0
 41109  1  0  0  0
 41110  1  0  0  0
 41111  1  0  0  0
 41 48  1  0  0  0
 42 43  1  0  0  0
 42 66  1  0  0  0
 42112  1  0  0  0
 42113  1  0  0  0
 43 44  1  0  0  0
 44114  1  0  0  0
 45 46  2  0  0  0
 45115  1  0  0  0
 46116  1  0  0  0
 47117  1  0  0  0
 47118  1  0  0  0
 48 56  1  0  0  0
 48 65  1  0  0  0
 48119  1  0  0  0
 49 50  1  0  0  0
 49 53  1  0  0  0
 49 64  1  0  0  0
 49120  1  0  0  0
 50 51  1  0  0  0
 50121  1  0  0  0
 50122  1  0  0  0
 51 52  1  0  0  0
 51123  1  0  0  0
 51124  1  0  0  0
 52125  1  0  0  0
 52126  1  0  0  0
 53 54  1  0  0  0
 54 55  2  0  0  0
 54127  1  0  0  0
 55 57  1  0  0  0
 55128  1  0  0  0
 56 69  2  0  0  0
 57 58  2  0  0  0
 57129  1  0  0  0
 58130  1  0  0  0
 59 60  1  0  0  0
 59 61  1  0  0  0
 59 62  1  0  0  0
 60131  1  0  0  0
 60132  1  0  0  0
 60133  1  0  0  0
 61134  1  0  0  0
 61135  1  0  0  0
 61136  1  0  0  0
 62137  1  0  0  0
 62138  1  0  0  0
 62139  1  0  0  0
 63 65  1  0  0  0
 63140  1  0  0  0
 63141  1  0  0  0
 63142  1  0  0  0
 64143  1  0  0  0
 65144  1  0  0  0
 68 78  1  0  0  0
 71 73  1  0  0  0
 71 74  2  0  0  0
 71145  1  0  0  0
 72 73  2  0  0  0
 72 85  1  0  0  0
 72146  1  0  0  0
 73 83  1  0  0  0
 74 75  1  0  0  0
 74 85  1  0  0  0
 75 82  1  0  0  0
 75 84  2  0  0  0
 76 77  1  0  0  0
 76 78  1  0  0  0
 76147  1  0  0  0
 76148  1  0  0  0
 77 82  1  0  0  0
 77149  1  0  0  0
 77150  1  0  0  0
 78 79  1  0  0  0
 78151  1  0  0  0
 79 80  1  0  0  0
 79 81  1  0  0  0
 79 82  1  0  0  0
 80152  1  0  0  0
 80153  1  0  0  0
 80154  1  0  0  0
 81155  1  0  0  0
 81156  1  0  0  0
 81157  1  0  0  0
 83158  1  0  0  0
 84159  1  0  0  0
 84160  1  0  0  0
M  CHG  1  84   1
M  ISO  4   1 100  68 101  78 101  83 100
M  END
> <chiral flag>
0

> <version>
0

> <s_m_source_file>
/data/baiqing/PycharmProjects/Reinvent-master-3.2/result/LINK_invent/BTK/process_docking_weight1_custom_product_contain_oxygen_bond_distance_aromatic_linkinvent_7_9_3/rearranged_h_0149.sdf

> <i_m_source_file_index>
77

> <r_mmod_Potential_Energy-OPLS-2005>
266.916351318359

> <r_mmod_Stretch_Energy-OPLS-2005>
159.203201293945

> <r_mmod_Bend_Energy-OPLS-2005>
266.566040039062

> <r_mmod_Torsional_Energy-OPLS-2005>
287.867370605469

> <r_mmod_Improper_Torsional_Energy-OPLS-2005>
4.13136959075928

> <r_mmod_Van_der_Waal_Energy-OPLS-2005>
114.573959350586

> <r_mmod_Electrostatic_Energy-OPLS-2005>
-248.745651245117

> <r_mmod_Solvation_Energy-OPLS-2005>
-437.90576171875

> <b_mmod_Minimization_Converged-OPLS-2005>
0

> <r_mmod_RMS_Derivative-OPLS-2005>
0.395421952009201

$$$$
77
                    3D
 Structure written by MMmdl.
163171  0  0  1  0            999 V2000
  -30.7451  -14.3954   20.6377 C   0  0  0  0  0  0
  -30.4188  -12.2880   19.3992 C   0  0  0  0  0  0
  -29.4851  -12.5083   18.1932 C   0  0  0  0  0  0
  -28.0082  -12.3703   18.6108 C   0  0  0  0  0  0
  -27.6638  -13.2007   19.8756 C   0  0  2  0  0  0
  -28.7038  -12.9514   20.9905 C   0  0  0  0  0  0
  -25.2594  -13.8151   20.5664 C   0  0  0  0  0  0
  -24.1840  -13.0435   20.9161 C   0  0  0  0  0  0
  -24.6387  -11.6900   20.8731 C   0  0  0  0  0  0
  -23.9051  -10.4288   21.0403 C   0  0  0  0  0  0
  -24.3606   -9.4206   21.9181 C   0  0  0  0  0  0
  -23.6283   -8.2242   22.0758 C   0  0  0  0  0  0
  -22.4268   -8.0277   21.3547 C   0  0  0  0  0  0
  -21.9902   -9.0249   20.4648 C   0  0  0  0  0  0
  -22.7228  -10.2126   20.3052 C   0  0  0  0  0  0
  -21.6847   -6.0728   22.5276 C   0  0  0  0  0  0
  -21.4014   -6.5632   23.8208 C   0  0  0  0  0  0
  -21.3658   -5.6792   24.9175 C   0  0  0  0  0  0
  -21.6044   -4.3055   24.7228 C   0  0  0  0  0  0
  -21.8821   -3.8140   23.4349 C   0  0  0  0  0  0
  -21.9194   -4.6958   22.3401 C   0  0  0  0  0  0
  -22.7867  -13.5239   21.1827 C   0  0  0  0  0  0
  -22.1660   -4.2142   21.0981 F   0  0  0  0  0  0
  -21.5630   -3.4539   25.7740 F   0  0  0  0  0  0
  -30.0410  -13.2498   20.4442 N   0  0  0  0  0  0
  -26.3030  -12.9312   20.3361 N   0  0  0  0  0  0
  -25.9309  -11.6477   20.5759 N   0  0  0  0  0  0
  -22.0500  -12.8240   22.0383 N   0  0  0  0  0  0
  -25.4327  -15.1868   20.4059 N   0  0  0  0  0  0
  -31.8300  -14.6194   20.0908 O   0  0  0  0  0  0
  -21.6639   -6.8870   21.4241 O   0  0  0  0  0  0
  -22.3557  -14.5544   20.6669 O   0  0  0  0  0  0
  -24.6120  -31.8687   23.2113 C   0  0  0  0  0  0
  -25.9029  -32.4822   23.8389 C   0  0  1  0  0  0
  -27.2322  -27.4609   20.0983 C   0  0  0  0  0  0
  -25.5905  -33.8620   24.2332 N   0  0  0  0  0  0
  -23.3985  -30.4928   21.5513 C   0  0  2  0  0  0
  -24.8450  -28.9652   20.1116 C   0  0  0  0  0  0
  -22.7401  -29.4661   22.5001 C   0  0  0  0  0  0
  -18.0275  -28.1378   22.8480 C   0  0  0  0  0  0
  -24.1497  -36.7312   23.2639 C   0  0  0  0  0  0
  -25.9230  -30.8458   21.3583 C   0  0  0  0  0  0
  -26.0029  -29.4827   20.7055 C   0  0  0  0  0  0
  -27.2019  -28.7395   20.6928 C   0  0  0  0  0  0
  -26.0626  -26.9570   19.4869 C   0  0  0  0  0  0
  -24.8681  -27.7004   19.4975 C   0  0  0  0  0  0
  -23.6056  -29.8271   20.1643 C   0  0  0  0  0  0
  -25.4113  -36.3110   24.0337 C   0  0  1  0  0  0
  -20.5853  -28.3659   23.1326 C   0  0  2  0  0  0
  -20.6765  -26.9400   22.5417 C   0  0  0  0  0  0
  -19.5743  -26.6388   21.5210 C   0  0  0  0  0  0
  -18.1926  -26.7926   22.1620 C   0  0  0  0  0  0
  -19.1522  -28.8835   23.2902 C   0  0  0  0  0  0
  -18.9450  -30.1443   23.8905 C   0  0  0  0  0  0
  -17.6455  -30.6588   24.0571 C   0  0  0  0  0  0
  -25.9032  -34.9473   23.5125 C   0  0  0  0  0  0
  -16.5344  -29.9084   23.6331 C   0  0  0  0  0  0
  -16.7264  -28.6510   23.0329 C   0  0  0  0  0  0
  -26.4472  -31.6585   25.0697 C   0  0  0  0  0  0
  -25.3750  -31.3679   26.1451 C   0  0  0  0  0  0
  -27.0308  -30.3042   24.6038 C   0  0  0  0  0  0
  -27.6048  -32.4295   25.7465 C   0  0  0  0  0  0
  -27.5586  -37.1809   24.8467 C   0  0  0  0  0  0
  -21.4130  -29.3032   22.3742 N   0  0  0  0  0  0
  -26.4303  -37.3789   23.9401 N   0  0  0  0  0  0
  -24.6625  -31.0818   22.1000 N   0  0  0  0  0  0
  -23.4187  -28.8207   23.3032 O   0  0  0  0  0  0
  -28.3958  -26.7277   20.1200 O   0  0  0  0  0  0
  -26.5596  -34.8926   22.4689 O   0  0  0  0  0  0
  -23.5320  -32.1425   23.7534 O   0  0  0  0  0  0
  -32.3877  -18.0195   22.6889 C   0  0  0  0  0  0
  -31.9164  -16.7401   22.3423 C   0  0  0  0  0  0
  -31.6038  -19.1596   22.4278 C   0  0  0  0  0  0
  -29.8556  -17.7386   21.4970 C   0  0  0  0  0  0
  -30.6482  -16.5940   21.7383 C   0  0  0  0  0  0
  -30.3332  -19.0284   21.8209 C   0  0  0  0  0  0
  -28.7666  -22.4978   21.6950 C   0  0  0  0  0  0
  -30.6257  -25.0717   21.4300 C   0  0  0  0  0  0
  -28.9229  -26.2293   22.8682 C   0  0  0  0  0  0
  -28.7239  -23.7796   22.5331 C   0  0  0  0  0  0
  -29.8548  -21.4714   22.0313 C   0  0  0  0  0  0
  -28.2577  -25.3770   20.5809 C   0  0  0  0  0  0
  -29.1367  -25.1059   21.8310 C   0  0  0  0  0  0
  -30.1397  -15.3118   21.4087 N   0  0  0  0  0  0
  -29.5357  -20.1403   21.5177 N   0  0  0  0  0  0
  -27.9281  -22.2736   20.8157 O   0  0  0  0  0  0
  -31.4610  -12.3888   19.0904 H   0  0  0  0  0  0
  -30.3221  -11.2698   19.7783 H   0  0  0  0  0  0
  -29.7165  -11.7930   17.4026 H   0  0  0  0  0  0
  -29.6562  -13.4993   17.7690 H   0  0  0  0  0  0
  -27.8143  -11.3135   18.7976 H   0  0  0  0  0  0
  -27.3557  -12.6553   17.7848 H   0  0  0  0  0  0
  -27.7190  -14.2526   19.5936 H   0  0  0  0  0  0
  -28.6718  -11.9083   21.3079 H   0  0  0  0  0  0
  -28.4600  -13.5283   21.8830 H   0  0  0  0  0  0
  -25.2751   -9.5684   22.4755 H   0  0  0  0  0  0
  -23.9989   -7.4639   22.7481 H   0  0  0  0  0  0
  -21.0831   -8.8761   19.8954 H   0  0  0  0  0  0
  -22.3682  -10.9663   19.6157 H   0  0  0  0  0  0
  -21.2005   -7.6145   23.9710 H   0  0  0  0  0  0
  -21.1478   -6.0522   25.9075 H   0  0  0  0  0  0
  -22.0602   -2.7605   23.2853 H   0  0  0  0  0  0
  -22.4109  -11.9896   22.4769 H   0  0  0  0  0  0
  -21.1119  -13.1276   22.2581 H   0  0  0  0  0  0
  -24.6670  -15.8432   20.5090 H   0  0  0  0  0  0
  -26.2868  -15.6235   20.0810 H   0  0  0  0  0  0
  -26.7107  -32.5549   23.1161 H   0  0  0  0  0  0
  -25.0064  -33.9782   25.0486 H   0  0  0  0  0  0
  -22.6863  -31.3091   21.4131 H   0  0  0  0  0  0
  -23.3753  -35.9653   23.3308 H   0  0  0  0  0  0
  -24.3596  -36.8912   22.2053 H   0  0  0  0  0  0
  -23.7254  -37.6518   23.6646 H   0  0  0  0  0  0
  -26.0279  -31.6142   20.5912 H   0  0  0  0  0  0
  -26.8133  -30.8998   21.9729 H   0  0  0  0  0  0
  -28.0969  -29.1298   21.1576 H   0  0  0  0  0  0
  -26.0734  -25.9913   19.0013 H   0  0  0  0  0  0
  -23.9807  -27.2979   19.0282 H   0  0  0  0  0  0
  -23.7096  -30.6016   19.4029 H   0  0  0  0  0  0
  -22.7313  -29.2425   19.8721 H   0  0  0  0  0  0
  -25.1291  -36.1977   25.0830 H   0  0  0  0  0  0
  -20.9944  -28.3223   24.1441 H   0  0  0  0  0  0
  -20.5689  -26.2260   23.3599 H   0  0  0  0  0  0
  -21.6638  -26.7462   22.1196 H   0  0  0  0  0  0
  -19.6916  -25.6308   21.1220 H   0  0  0  0  0  0
  -19.6690  -27.3225   20.6756 H   0  0  0  0  0  0
  -17.4199  -26.6675   21.4022 H   0  0  0  0  0  0
  -18.0314  -26.0071   22.9013 H   0  0  0  0  0  0
  -19.7933  -30.7249   24.2281 H   0  0  0  0  0  0
  -17.5016  -31.6265   24.5172 H   0  0  0  0  0  0
  -15.5350  -30.2987   23.7654 H   0  0  0  0  0  0
  -15.8660  -28.0851   22.6999 H   0  0  0  0  0  0
  -24.5921  -30.7030   25.7783 H   0  0  0  0  0  0
  -24.8947  -32.2833   26.4919 H   0  0  0  0  0  0
  -25.8108  -30.8828   27.0200 H   0  0  0  0  0  0
  -26.2842  -29.6789   24.1122 H   0  0  0  0  0  0
  -27.4138  -29.7274   25.4468 H   0  0  0  0  0  0
  -27.8648  -30.4370   23.9139 H   0  0  0  0  0  0
  -27.2667  -33.3583   26.2076 H   0  0  0  0  0  0
  -28.3849  -32.6866   25.0288 H   0  0  0  0  0  0
  -28.0732  -31.8393   26.5359 H   0  0  0  0  0  0
  -28.2596  -38.0115   24.7510 H   0  0  0  0  0  0
  -28.1082  -36.2633   24.6292 H   0  0  0  0  0  0
  -27.2298  -37.1466   25.8871 H   0  0  0  0  0  0
  -20.9288  -29.8756   21.6973 H   0  0  0  0  0  0
  -26.0193  -38.2866   24.1404 H   0  0  0  0  0  0
  -33.3573  -18.1272   23.1539 H   0  0  0  0  0  0
  -32.5326  -15.8755   22.5473 H   0  0  0  0  0  0
  -32.0027  -20.1270   22.6960 H   0  0  0  0  0  0
  -28.8822  -17.6252   21.0407 H   0  0  0  0  0  0
  -31.2656  -24.8625   22.2883 H   0  0  0  0  0  0
  -30.9446  -26.0286   21.0149 H   0  0  0  0  0  0
  -30.8263  -24.3100   20.6748 H   0  0  0  0  0  0
  -29.4790  -26.0392   23.7871 H   0  0  0  0  0  0
  -27.8697  -26.3233   23.1372 H   0  0  0  0  0  0
  -29.2490  -27.1997   22.4926 H   0  0  0  0  0  0
  -29.3500  -23.6239   23.4116 H   0  0  0  0  0  0
  -27.7050  -23.8705   22.9105 H   0  0  0  0  0  0
  -29.9800  -21.4293   23.1141 H   0  0  0  0  0  0
  -30.7967  -21.8212   21.6069 H   0  0  0  0  0  0
  -27.2271  -25.1279   20.8389 H   0  0  0  0  0  0
  -28.5329  -24.7147   19.7605 H   0  0  0  0  0  0
  -29.1928  -15.1001   21.6863 H   0  0  0  0  0  0
  -28.6141  -20.0321   21.0974 H   0  0  0  0  0  0
  1 25  1  0  0  0
  1 30  2  0  0  0
  1 84  1  0  0  0
  2  3  1  0  0  0
  2 25  1  0  0  0
  2 87  1  0  0  0
  2 88  1  0  0  0
  3  4  1  0  0  0
  3 89  1  0  0  0
  3 90  1  0  0  0
  4  5  1  0  0  0
  4 91  1  0  0  0
  4 92  1  0  0  0
  5  6  1  0  0  0
  5 26  1  0  0  0
  5 93  1  0  0  0
  6 25  1  0  0  0
  6 94  1  0  0  0
  6 95  1  0  0  0
  7  8  2  0  0  0
  7 26  1  0  0  0
  7 29  1  0  0  0
  8  9  1  0  0  0
  8 22  1  0  0  0
  9 10  1  0  0  0
  9 27  2  0  0  0
 10 11  2  0  0  0
 10 15  1  0  0  0
 11 12  1  0  0  0
 11 96  1  0  0  0
 12 13  2  0  0  0
 12 97  1  0  0  0
 13 14  1  0  0  0
 13 31  1  0  0  0
 14 15  2  0  0  0
 14 98  1  0  0  0
 15 99  1  0  0  0
 16 17  2  0  0  0
 16 21  1  0  0  0
 16 31  1  0  0  0
 17 18  1  0  0  0
 17100  1  0  0  0
 18 19  2  0  0  0
 18101  1  0  0  0
 19 20  1  0  0  0
 19 24  1  0  0  0
 20 21  2  0  0  0
 20102  1  0  0  0
 21 23  1  0  0  0
 22 28  1  0  0  0
 22 32  2  0  0  0
 26 27  1  0  0  0
 28103  1  0  0  0
 28104  1  0  0  0
 29105  1  0  0  0
 29106  1  0  0  0
 33 34  1  0  0  0
 33 66  1  0  0  0
 33 70  2  0  0  0
 34 36  1  0  0  0
 34 59  1  0  0  0
 34107  1  0  0  0
 35 44  2  0  0  0
 35 45  1  0  0  0
 35 68  1  0  0  0
 36 56  1  0  0  0
 36108  1  0  0  0
 37 39  1  0  0  0
 37 47  1  0  0  0
 37 66  1  0  0  0
 37109  1  0  0  0
 38 43  2  0  0  0
 38 46  1  0  0  0
 38 47  1  0  0  0
 39 64  1  0  0  0
 39 67  2  0  0  0
 40 52  1  0  0  0
 40 53  2  0  0  0
 40 58  1  0  0  0
 41110  1  0  0  0
 41111  1  0  0  0
 41112  1  0  0  0
 41 48  1  0  0  0
 42 43  1  0  0  0
 42 66  1  0  0  0
 42113  1  0  0  0
 42114  1  0  0  0
 43 44  1  0  0  0
 44115  1  0  0  0
 45 46  2  0  0  0
 45116  1  0  0  0
 46117  1  0  0  0
 47118  1  0  0  0
 47119  1  0  0  0
 48 56  1  0  0  0
 48 65  1  0  0  0
 48120  1  0  0  0
 49 50  1  0  0  0
 49 53  1  0  0  0
 49 64  1  0  0  0
 49121  1  0  0  0
 50 51  1  0  0  0
 50122  1  0  0  0
 50123  1  0  0  0
 51 52  1  0  0  0
 51124  1  0  0  0
 51125  1  0  0  0
 52126  1  0  0  0
 52127  1  0  0  0
 53 54  1  0  0  0
 54 55  2  0  0  0
 54128  1  0  0  0
 55 57  1  0  0  0
 55129  1  0  0  0
 56 69  2  0  0  0
 57 58  2  0  0  0
 57130  1  0  0  0
 58131  1  0  0  0
 59 60  1  0  0  0
 59 61  1  0  0  0
 59 62  1  0  0  0
 60132  1  0  0  0
 60133  1  0  0  0
 60134  1  0  0  0
 61135  1  0  0  0
 61136  1  0  0  0
 61137  1  0  0  0
 62138  1  0  0  0
 62139  1  0  0  0
 62140  1  0  0  0
 63 65  1  0  0  0
 63141  1  0  0  0
 63142  1  0  0  0
 63143  1  0  0  0
 64144  1  0  0  0
 65145  1  0  0  0
 68 82  1  0  0  0
 71 72  2  0  0  0
 71 73  1  0  0  0
 71146  1  0  0  0
 72 75  1  0  0  0
 72147  1  0  0  0
 73 76  2  0  0  0
 73148  1  0  0  0
 74 75  2  0  0  0
 74 76  1  0  0  0
 74149  1  0  0  0
 75 84  1  0  0  0
 76 85  1  0  0  0
 77 80  1  0  0  0
 77 81  1  0  0  0
 77 86  2  0  0  0
 78150  1  0  0  0
 78151  1  0  0  0
 78152  1  0  0  0
 78 83  1  0  0  0
 79 83  1  0  0  0
 79153  1  0  0  0
 79154  1  0  0  0
 79155  1  0  0  0
 80 83  1  0  0  0
 80156  1  0  0  0
 80157  1  0  0  0
 81 85  1  0  0  0
 81158  1  0  0  0
 81159  1  0  0  0
 82 83  1  0  0  0
 82160  1  0  0  0
 82161  1  0  0  0
 84162  1  0  0  0
 85163  1  0  0  0
M  ISO  4   1 100  68 101  82 101  84 100
M  END
> <chiral flag>
0

> <version>
0

> <s_m_source_file>
/data/baiqing/PycharmProjects/Reinvent-master-3.2/result/LINK_invent/BTK/process_docking_weight1_custom_product_contain_oxygen_bond_distance_aromatic_linkinvent_7_9_3/rearranged_h_0149.sdf

> <i_m_source_file_index>
78

> <r_mmod_Potential_Energy-OPLS-2005>
-37.1063652038574

> <r_mmod_Stretch_Energy-OPLS-2005>
33.9980697631836

> <r_mmod_Bend_Energy-OPLS-2005>
104.182441711426

> <r_mmod_Torsional_Energy-OPLS-2005>
222.542831420898

> <r_mmod_Improper_Torsional_Energy-OPLS-2005>
2.8809130191803

> <r_mmod_Van_der_Waal_Energy-OPLS-2005>
159.844741821289

> <r_mmod_Electrostatic_Energy-OPLS-2005>
-344.012786865234

> <r_mmod_Solvation_Energy-OPLS-2005>
-225.113494873047

> <b_mmod_Minimization_Converged-OPLS-2005>
0

> <r_mmod_RMS_Derivative-OPLS-2005>
1.28546226024628

$$$$
78
                    3D
 Structure written by MMmdl.
158167  0  0  1  0            999 V2000
  -30.6390  -14.6535   20.4866 C   0  0  0  0  0  0
  -30.4461  -12.3991   19.4618 C   0  0  0  0  0  0
  -29.5197  -12.4897   18.2310 C   0  0  0  0  0  0
  -28.0369  -12.3318   18.6333 C   0  0  0  0  0  0
  -27.6504  -13.2148   19.8501 C   0  0  2  0  0  0
  -28.6945  -13.1082   20.9850 C   0  0  0  0  0  0
  -25.2545  -13.8139   20.5655 C   0  0  0  0  0  0
  -24.1807  -13.0405   20.9169 C   0  0  0  0  0  0
  -24.6368  -11.6869   20.8689 C   0  0  0  0  0  0
  -23.9019  -10.4267   21.0380 C   0  0  0  0  0  0
  -24.3569   -9.4191   21.9175 C   0  0  0  0  0  0
  -23.6248   -8.2219   22.0758 C   0  0  0  0  0  0
  -22.4245   -8.0244   21.3531 C   0  0  0  0  0  0
  -21.9866   -9.0211   20.4645 C   0  0  0  0  0  0
  -22.7177  -10.2091   20.3053 C   0  0  0  0  0  0
  -21.6858   -6.0715   22.5275 C   0  0  0  0  0  0
  -21.4016   -6.5637   23.8194 C   0  0  0  0  0  0
  -21.3655   -5.6795   24.9166 C   0  0  0  0  0  0
  -21.6045   -4.3047   24.7218 C   0  0  0  0  0  0
  -21.8827   -3.8122   23.4339 C   0  0  0  0  0  0
  -21.9201   -4.6941   22.3403 C   0  0  0  0  0  0
  -22.7838  -13.5239   21.1810 C   0  0  0  0  0  0
  -22.1676   -4.2121   21.0972 F   0  0  0  0  0  0
  -21.5612   -3.4547   25.7735 F   0  0  0  0  0  0
  -30.0058  -13.4398   20.4089 N   0  0  0  0  0  0
  -26.2958  -12.9316   20.3239 N   0  0  0  0  0  0
  -25.9316  -11.6469   20.5717 N   0  0  0  0  0  0
  -22.0435  -12.8307   22.0335 N   0  0  0  0  0  0
  -25.4266  -15.1859   20.4112 N   0  0  0  0  0  0
  -31.8276  -14.7730   20.1782 O   0  0  0  0  0  0
  -21.6592   -6.8863   21.4244 O   0  0  0  0  0  0
  -22.3600  -14.5584   20.6642 O   0  0  0  0  0  0
  -24.6284  -31.8567   23.2032 C   0  0  0  0  0  0
  -25.9123  -32.4754   23.8364 C   0  0  1  0  0  0
  -27.2488  -27.3395   20.0668 C   0  0  0  0  0  0
  -25.5944  -33.8557   24.2297 N   0  0  0  0  0  0
  -23.4213  -30.4814   21.5466 C   0  0  2  0  0  0
  -24.8694  -28.9359   20.1075 C   0  0  0  0  0  0
  -22.7463  -29.4606   22.4942 C   0  0  0  0  0  0
  -18.0275  -28.1378   22.8491 C   0  0  0  0  0  0
  -24.1486  -36.7285   23.2643 C   0  0  0  0  0  0
  -25.9626  -30.7857   21.3773 C   0  0  0  0  0  0
  -26.0354  -29.4153   20.7132 C   0  0  0  0  0  0
  -27.2215  -28.6238   20.6936 C   0  0  0  0  0  0
  -26.0461  -26.8961   19.4670 C   0  0  0  0  0  0
  -24.8755  -27.6786   19.4833 C   0  0  0  0  0  0
  -23.6355  -29.8135   20.1620 C   0  0  0  0  0  0
  -25.4100  -36.3065   24.0343 C   0  0  1  0  0  0
  -20.5875  -28.3668   23.1303 C   0  0  2  0  0  0
  -20.6756  -26.9397   22.5421 C   0  0  0  0  0  0
  -19.5745  -26.6385   21.5207 C   0  0  0  0  0  0
  -18.1917  -26.7931   22.1610 C   0  0  0  0  0  0
  -19.1527  -28.8841   23.2898 C   0  0  0  0  0  0
  -18.9447  -30.1440   23.8909 C   0  0  0  0  0  0
  -17.6446  -30.6586   24.0560 C   0  0  0  0  0  0
  -25.9035  -34.9432   23.5122 C   0  0  0  0  0  0
  -16.5329  -29.9076   23.6337 C   0  0  0  0  0  0
  -16.7261  -28.6493   23.0358 C   0  0  0  0  0  0
  -26.4521  -31.6562   25.0727 C   0  0  0  0  0  0
  -25.3770  -31.3695   26.1475 C   0  0  0  0  0  0
  -27.0355  -30.2976   24.6185 C   0  0  0  0  0  0
  -27.6102  -32.4290   25.7474 C   0  0  0  0  0  0
  -27.5598  -37.1775   24.8455 C   0  0  0  0  0  0
  -21.4181  -29.3023   22.3696 N   0  0  0  0  0  0
  -26.4280  -37.3772   23.9448 N   0  0  0  0  0  0
  -24.6897  -31.0578   22.0980 N   0  0  0  0  0  0
  -23.4193  -28.8158   23.3024 O   0  0  0  0  0  0
  -28.4055  -26.5422   20.1102 O   0  0  0  0  0  0
  -26.5603  -34.8910   22.4677 O   0  0  0  0  0  0
  -23.5454  -32.1368   23.7344 O   0  0  0  0  0  0
  -29.3963  -18.2604   20.1612 C   0  0  0  0  0  0
  -31.2381  -17.6545   21.4716 C   0  0  0  0  0  0
  -30.1839  -17.1746   20.7371 C   0  0  0  0  0  0
  -29.8718  -19.5472   20.4362 C   0  0  0  0  0  0
  -28.9196  -21.8854   21.2002 C   0  0  0  0  0  0
  -28.3402  -23.2733   20.7505 C   0  0  0  0  0  0
  -29.6308  -23.0298   18.6254 C   0  0  0  0  0  0
  -29.3199  -20.9477   20.0204 C   0  0  1  0  0  0
  -29.2489  -24.0489   19.7584 C   0  0  1  0  0  0
  -28.6493  -25.4169   19.1852 C   0  0  0  0  0  0
  -29.8369  -15.7553   20.6566 N   0  0  0  0  0  0
  -30.2183  -21.7502   19.1455 N   0  3  0  0  0  0
  -30.4707  -24.3822   20.3949 O   0  0  0  0  0  0
  -31.3147  -19.4103   21.4264 S   0  0  0  0  0  0
  -31.4884  -12.5351   19.1633 H   0  0  0  0  0  0
  -30.3898  -11.4123   19.9237 H   0  0  0  0  0  0
  -29.7969  -11.7204   17.5090 H   0  0  0  0  0  0
  -29.6682  -13.4503   17.7333 H   0  0  0  0  0  0
  -27.8732  -11.2812   18.8708 H   0  0  0  0  0  0
  -27.3856  -12.5486   17.7843 H   0  0  0  0  0  0
  -27.6573  -14.2411   19.4828 H   0  0  0  0  0  0
  -28.7155  -12.1017   21.4042 H   0  0  0  0  0  0
  -28.4357  -13.7715   21.8147 H   0  0  0  0  0  0
  -25.2713   -9.5679   22.4728 H   0  0  0  0  0  0
  -23.9936   -7.4633   22.7520 H   0  0  0  0  0  0
  -21.0758   -8.8706   19.9015 H   0  0  0  0  0  0
  -22.3591  -10.9592   19.6132 H   0  0  0  0  0  0
  -21.2016   -7.6148   23.9688 H   0  0  0  0  0  0
  -21.1491   -6.0526   25.9082 H   0  0  0  0  0  0
  -22.0623   -2.7592   23.2796 H   0  0  0  0  0  0
  -22.4000  -11.9980   22.4790 H   0  0  0  0  0  0
  -21.1094  -13.1417   22.2490 H   0  0  0  0  0  0
  -24.6599  -15.8368   20.5468 H   0  0  0  0  0  0
  -26.2553  -15.6238   20.0306 H   0  0  0  0  0  0
  -26.7179  -32.5412   23.1107 H   0  0  0  0  0  0
  -25.0113  -33.9690   25.0466 H   0  0  0  0  0  0
  -22.7165  -31.3035   21.4014 H   0  0  0  0  0  0
  -23.3764  -35.9603   23.3242 H   0  0  0  0  0  0
  -24.3618  -36.8962   22.2081 H   0  0  0  0  0  0
  -23.7203  -37.6456   23.6686 H   0  0  0  0  0  0
  -26.0955  -31.5503   20.6119 H   0  0  0  0  0  0
  -26.8447  -30.8283   22.0054 H   0  0  0  0  0  0
  -28.1204  -28.9855   21.1760 H   0  0  0  0  0  0
  -25.9562  -25.9275   19.0024 H   0  0  0  0  0  0
  -23.9774  -27.2980   19.0191 H   0  0  0  0  0  0
  -23.7526  -30.5886   19.4038 H   0  0  0  0  0  0
  -22.7558  -29.2423   19.8627 H   0  0  0  0  0  0
  -25.1267  -36.1927   25.0833 H   0  0  0  0  0  0
  -20.9959  -28.3233   24.1431 H   0  0  0  0  0  0
  -20.5630  -26.2273   23.3606 H   0  0  0  0  0  0
  -21.6629  -26.7412   22.1244 H   0  0  0  0  0  0
  -19.6906  -25.6294   21.1240 H   0  0  0  0  0  0
  -19.6715  -27.3198   20.6737 H   0  0  0  0  0  0
  -17.4201  -26.6693   21.3997 H   0  0  0  0  0  0
  -18.0311  -26.0059   22.8988 H   0  0  0  0  0  0
  -19.7910  -30.7260   24.2298 H   0  0  0  0  0  0
  -17.4988  -31.6262   24.5147 H   0  0  0  0  0  0
  -15.5330  -30.2979   23.7650 H   0  0  0  0  0  0
  -15.8650  -28.0811   22.7072 H   0  0  0  0  0  0
  -24.5974  -30.6991   25.7840 H   0  0  0  0  0  0
  -24.8918  -32.2840   26.4891 H   0  0  0  0  0  0
  -25.8147  -30.8923   27.0253 H   0  0  0  0  0  0
  -26.2907  -29.6709   24.1258 H   0  0  0  0  0  0
  -27.4089  -29.7266   25.4699 H   0  0  0  0  0  0
  -27.8780  -30.4248   23.9378 H   0  0  0  0  0  0
  -27.2738  -33.3596   26.2056 H   0  0  0  0  0  0
  -28.3906  -32.6830   25.0283 H   0  0  0  0  0  0
  -28.0773  -31.8395   26.5377 H   0  0  0  0  0  0
  -28.2550  -38.0129   24.7564 H   0  0  0  0  0  0
  -28.1141  -36.2666   24.6163 H   0  0  0  0  0  0
  -27.2341  -37.1295   25.8855 H   0  0  0  0  0  0
  -20.9343  -29.8763   21.6929 H   0  0  0  0  0  0
  -26.0156  -38.2844   24.1465 H   0  0  0  0  0  0
  -28.5123  -18.0620   19.5691 H   0  0  0  0  0  0
  -31.9665  -17.0997   22.0520 H   0  0  0  0  0  0
  -28.2048  -21.3788   21.8480 H   0  0  0  0  0  0
  -29.8001  -22.0649   21.8203 H   0  0  0  0  0  0
  -28.1398  -23.8952   21.6229 H   0  0  0  0  0  0
  -27.3731  -23.1046   20.2763 H   0  0  0  0  0  0
  -30.3553  -23.4907   17.9517 H   0  0  0  0  0  0
  -28.7600  -22.7997   18.0091 H   0  0  0  0  0  0
  -28.4179  -20.7668   19.4331 H   0  0  0  0  0  0
  -27.7882  -25.1679   18.5745 H   0  0  0  0  0  0
  -29.3650  -25.8079   18.4592 H   0  0  0  0  0  0
  -28.8517  -15.5507   20.6861 H   0  0  0  0  0  0
  -31.0250  -22.0168   19.6868 H   0  0  0  0  0  0
  -30.5318  -21.1879   18.3696 H   0  0  0  0  0  0
  -30.3253  -25.2052   20.8540 H   0  0  0  0  0  0
  1 25  1  0  0  0
  1 30  2  0  0  0
  1 81  1  0  0  0
  2  3  1  0  0  0
  2 25  1  0  0  0
  2 85  1  0  0  0
  2 86  1  0  0  0
  3  4  1  0  0  0
  3 87  1  0  0  0
  3 88  1  0  0  0
  4  5  1  0  0  0
  4 89  1  0  0  0
  4 90  1  0  0  0
  5  6  1  0  0  0
  5 26  1  0  0  0
  5 91  1  0  0  0
  6 25  1  0  0  0
  6 92  1  0  0  0
  6 93  1  0  0  0
  7  8  2  0  0  0
  7 26  1  0  0  0
  7 29  1  0  0  0
  8  9  1  0  0  0
  8 22  1  0  0  0
  9 10  1  0  0  0
  9 27  2  0  0  0
 10 11  2  0  0  0
 10 15  1  0  0  0
 11 12  1  0  0  0
 11 94  1  0  0  0
 12 13  2  0  0  0
 12 95  1  0  0  0
 13 14  1  0  0  0
 13 31  1  0  0  0
 14 15  2  0  0  0
 14 96  1  0  0  0
 15 97  1  0  0  0
 16 17  2  0  0  0
 16 21  1  0  0  0
 16 31  1  0  0  0
 17 18  1  0  0  0
 17 98  1  0  0  0
 18 19  2  0  0  0
 18 99  1  0  0  0
 19 20  1  0  0  0
 19 24  1  0  0  0
 20 21  2  0  0  0
 20100  1  0  0  0
 21 23  1  0  0  0
 22 28  1  0  0  0
 22 32  2  0  0  0
 26 27  1  0  0  0
 28101  1  0  0  0
 28102  1  0  0  0
 29103  1  0  0  0
 29104  1  0  0  0
 33 34  1  0  0  0
 33 66  1  0  0  0
 33 70  2  0  0  0
 34 36  1  0  0  0
 34 59  1  0  0  0
 34105  1  0  0  0
 35 44  2  0  0  0
 35 45  1  0  0  0
 35 68  1  0  0  0
 36 56  1  0  0  0
 36106  1  0  0  0
 37 39  1  0  0  0
 37 47  1  0  0  0
 37 66  1  0  0  0
 37107  1  0  0  0
 38 43  2  0  0  0
 38 46  1  0  0  0
 38 47  1  0  0  0
 39 64  1  0  0  0
 39 67  2  0  0  0
 40 52  1  0  0  0
 40 53  2  0  0  0
 40 58  1  0  0  0
 41108  1  0  0  0
 41109  1  0  0  0
 41110  1  0  0  0
 41 48  1  0  0  0
 42 43  1  0  0  0
 42 66  1  0  0  0
 42111  1  0  0  0
 42112  1  0  0  0
 43 44  1  0  0  0
 44113  1  0  0  0
 45 46  2  0  0  0
 45114  1  0  0  0
 46115  1  0  0  0
 47116  1  0  0  0
 47117  1  0  0  0
 48 56  1  0  0  0
 48 65  1  0  0  0
 48118  1  0  0  0
 49 50  1  0  0  0
 49 53  1  0  0  0
 49 64  1  0  0  0
 49119  1  0  0  0
 50 51  1  0  0  0
 50120  1  0  0  0
 50121  1  0  0  0
 51 52  1  0  0  0
 51122  1  0  0  0
 51123  1  0  0  0
 52124  1  0  0  0
 52125  1  0  0  0
 53 54  1  0  0  0
 54 55  2  0  0  0
 54126  1  0  0  0
 55 57  1  0  0  0
 55127  1  0  0  0
 56 69  2  0  0  0
 57 58  2  0  0  0
 57128  1  0  0  0
 58129  1  0  0  0
 59 60  1  0  0  0
 59 61  1  0  0  0
 59 62  1  0  0  0
 60130  1  0  0  0
 60131  1  0  0  0
 60132  1  0  0  0
 61133  1  0  0  0
 61134  1  0  0  0
 61135  1  0  0  0
 62136  1  0  0  0
 62137  1  0  0  0
 62138  1  0  0  0
 63 65  1  0  0  0
 63139  1  0  0  0
 63140  1  0  0  0
 63141  1  0  0  0
 64142  1  0  0  0
 65143  1  0  0  0
 68 80  1  0  0  0
 71 73  1  0  0  0
 71 74  2  0  0  0
 71144  1  0  0  0
 72 73  2  0  0  0
 72 84  1  0  0  0
 72145  1  0  0  0
 73 81  1  0  0  0
 74 84  1  0  0  0
 74 78  1  0  0  0
 75 76  1  0  0  0
 75 78  1  0  0  0
 75146  1  0  0  0
 75147  1  0  0  0
 76 79  1  0  0  0
 76148  1  0  0  0
 76149  1  0  0  0
 77 79  1  0  0  0
 77 82  1  0  0  0
 77150  1  0  0  0
 77151  1  0  0  0
 78 82  1  0  0  0
 78152  1  0  0  0
 79 80  1  0  0  0
 79 83  1  0  0  0
 80153  1  0  0  0
 80154  1  0  0  0
 81155  1  0  0  0
 82156  1  0  0  0
 82157  1  0  0  0
 83158  1  0  0  0
M  CHG  1  82   1
M  ISO  4   1 100  68 101  80 101  81 100
M  END
> <chiral flag>
0

> <version>
0

> <s_m_source_file>
/data/baiqing/PycharmProjects/Reinvent-master-3.2/result/LINK_invent/BTK/process_docking_weight1_custom_product_contain_oxygen_bond_distance_aromatic_linkinvent_7_9_3/rearranged_h_0149.sdf

> <i_m_source_file_index>
79

> <r_mmod_Potential_Energy-OPLS-2005>
-197.080871582031

> <r_mmod_Stretch_Energy-OPLS-2005>
76.2770309448242

> <r_mmod_Bend_Energy-OPLS-2005>
139.563079833984

> <r_mmod_Torsional_Energy-OPLS-2005>
260.830261230469

> <r_mmod_Improper_Torsional_Energy-OPLS-2005>
6.61502456665039

> <r_mmod_Van_der_Waal_Energy-OPLS-2005>
123.445755004883

> <r_mmod_Electrostatic_Energy-OPLS-2005>
-391.923004150391

> <r_mmod_Solvation_Energy-OPLS-2005>
-459.989288330078

> <b_mmod_Minimization_Converged-OPLS-2005>
0

> <r_mmod_RMS_Derivative-OPLS-2005>
5.25422334671021

$$$$
79
                    3D
 Structure written by MMmdl.
158167  0  0  1  0            999 V2000
  -30.6640  -14.5655   20.5526 C   0  0  0  0  0  0
  -30.4321  -12.3679   19.4231 C   0  0  0  0  0  0
  -29.4946  -12.5175   18.2048 C   0  0  0  0  0  0
  -28.0150  -12.3707   18.6173 C   0  0  0  0  0  0
  -27.6578  -13.2052   19.8761 C   0  0  2  0  0  0
  -28.7084  -12.9719   20.9846 C   0  0  0  0  0  0
  -25.2571  -13.8155   20.5670 C   0  0  0  0  0  0
  -24.1827  -13.0426   20.9168 C   0  0  0  0  0  0
  -24.6392  -11.6899   20.8753 C   0  0  0  0  0  0
  -23.9063  -10.4284   21.0408 C   0  0  0  0  0  0
  -24.3615   -9.4203   21.9187 C   0  0  0  0  0  0
  -23.6289   -8.2243   22.0761 C   0  0  0  0  0  0
  -22.4274   -8.0282   21.3549 C   0  0  0  0  0  0
  -21.9907   -9.0255   20.4650 C   0  0  0  0  0  0
  -22.7238  -10.2130   20.3054 C   0  0  0  0  0  0
  -21.6852   -6.0733   22.5278 C   0  0  0  0  0  0
  -21.4017   -6.5639   23.8211 C   0  0  0  0  0  0
  -21.3657   -5.6792   24.9174 C   0  0  0  0  0  0
  -21.6039   -4.3055   24.7224 C   0  0  0  0  0  0
  -21.8822   -3.8146   23.4349 C   0  0  0  0  0  0
  -21.9192   -4.6960   22.3404 C   0  0  0  0  0  0
  -22.7851  -13.5232   21.1820 C   0  0  0  0  0  0
  -22.1660   -4.2146   21.0982 F   0  0  0  0  0  0
  -21.5625   -3.4542   25.7739 F   0  0  0  0  0  0
  -30.0120  -13.3637   20.4306 N   0  0  0  0  0  0
  -26.3008  -12.9317   20.3385 N   0  0  0  0  0  0
  -25.9316  -11.6482   20.5788 N   0  0  0  0  0  0
  -22.0493  -12.8235   22.0387 N   0  0  0  0  0  0
  -25.4253  -15.1874   20.4041 N   0  0  0  0  0  0
  -31.8174  -14.6924   20.1255 O   0  0  0  0  0  0
  -21.6639   -6.8878   21.4242 O   0  0  0  0  0  0
  -22.3540  -14.5536   20.6663 O   0  0  0  0  0  0
  -24.6182  -31.8652   23.2060 C   0  0  0  0  0  0
  -25.9059  -32.4816   23.8371 C   0  0  1  0  0  0
  -27.2396  -27.3997   20.0966 C   0  0  0  0  0  0
  -25.5906  -33.8610   24.2313 N   0  0  0  0  0  0
  -23.4074  -30.4888   21.5475 C   0  0  2  0  0  0
  -24.8505  -28.9458   20.1186 C   0  0  0  0  0  0
  -22.7435  -29.4647   22.4967 C   0  0  0  0  0  0
  -18.0282  -28.1384   22.8484 C   0  0  0  0  0  0
  -24.1488  -36.7305   23.2645 C   0  0  0  0  0  0
  -25.9382  -30.8234   21.3585 C   0  0  0  0  0  0
  -26.0136  -29.4537   20.7076 C   0  0  0  0  0  0
  -27.2068  -28.6898   20.6880 C   0  0  0  0  0  0
  -26.0434  -26.9033   19.5314 C   0  0  0  0  0  0
  -24.8612  -27.6697   19.5321 C   0  0  0  0  0  0
  -23.6166  -29.8201   20.1630 C   0  0  0  0  0  0
  -25.4111  -36.3105   24.0344 C   0  0  1  0  0  0
  -20.5874  -28.3668   23.1303 C   0  0  2  0  0  0
  -20.6781  -26.9407   22.5404 C   0  0  0  0  0  0
  -19.5757  -26.6383   21.5206 C   0  0  0  0  0  0
  -18.1925  -26.7928   22.1613 C   0  0  0  0  0  0
  -19.1531  -28.8841   23.2893 C   0  0  0  0  0  0
  -18.9469  -30.1446   23.8903 C   0  0  0  0  0  0
  -17.6471  -30.6587   24.0563 C   0  0  0  0  0  0
  -25.9043  -34.9474   23.5126 C   0  0  0  0  0  0
  -16.5363  -29.9096   23.6319 C   0  0  0  0  0  0
  -16.7272  -28.6518   23.0331 C   0  0  0  0  0  0
  -26.4466  -31.6612   25.0717 C   0  0  0  0  0  0
  -25.3723  -31.3726   26.1466 C   0  0  0  0  0  0
  -27.0315  -30.3065   24.6090 C   0  0  0  0  0  0
  -27.6051  -32.4327   25.7466 C   0  0  0  0  0  0
  -27.5584  -37.1807   24.8469 C   0  0  0  0  0  0
  -21.4161  -29.3033   22.3708 N   0  0  0  0  0  0
  -26.4294  -37.3795   23.9423 N   0  0  0  0  0  0
  -24.6739  -31.0739   22.0962 N   0  0  0  0  0  0
  -23.4183  -28.8192   23.3031 O   0  0  0  0  0  0
  -28.4411  -26.7000   20.1152 O   0  0  0  0  0  0
  -26.5606  -34.8928   22.4686 O   0  0  0  0  0  0
  -23.5366  -32.1408   23.7445 O   0  0  0  0  0  0
  -30.5674  -20.1706   21.2868 C   0  0  0  0  0  0
  -29.4869  -19.5382   20.7180 C   0  0  0  0  0  0
  -28.8910  -21.7571   20.4187 C   0  0  0  0  0  0
  -28.8155  -17.4568   22.0563 C   0  0  0  0  0  0
  -28.9608  -15.9358   21.8775 C   0  0  0  0  0  0
  -30.2902  -17.0401   20.2516 C   0  0  0  0  0  0
  -29.1874  -18.0342   20.6988 C   0  0  2  0  0  0
  -28.4597  -25.2138   18.1157 C   0  0  0  0  0  0
  -27.9130  -24.2402   20.4998 C   0  0  0  0  0  0
  -28.6201  -25.3374   19.6438 C   0  0  2  0  0  0
  -28.5553  -20.4734   20.2085 N   0  0  0  0  0  0
  -29.9211  -15.7005   20.7864 N   0  0  0  0  0  0
  -28.0933  -22.8466   20.0481 N   0  0  0  0  0  0
  -30.4277  -21.9192   21.2540 S   0  0  0  0  0  0
  -31.4711  -12.4909   19.1120 H   0  0  0  0  0  0
  -30.3707  -11.3593   19.8343 H   0  0  0  0  0  0
  -29.7453  -11.7786   17.4426 H   0  0  0  0  0  0
  -29.6481  -13.4938   17.7422 H   0  0  0  0  0  0
  -27.8295  -11.3145   18.8119 H   0  0  0  0  0  0
  -27.3629  -12.6423   17.7868 H   0  0  0  0  0  0
  -27.6979  -14.2525   19.5791 H   0  0  0  0  0  0
  -28.7258  -11.9151   21.2546 H   0  0  0  0  0  0
  -28.4659  -13.4694   21.9185 H   0  0  0  0  0  0
  -25.2760   -9.5679   22.4758 H   0  0  0  0  0  0
  -23.9992   -7.4639   22.7490 H   0  0  0  0  0  0
  -21.0832   -8.8775   19.8961 H   0  0  0  0  0  0
  -22.3701  -10.9667   19.6159 H   0  0  0  0  0  0
  -21.2016   -7.6149   23.9714 H   0  0  0  0  0  0
  -21.1472   -6.0524   25.9075 H   0  0  0  0  0  0
  -22.0603   -2.7609   23.2851 H   0  0  0  0  0  0
  -22.4107  -11.9898   22.4774 H   0  0  0  0  0  0
  -21.1112  -13.1270   22.2589 H   0  0  0  0  0  0
  -24.6557  -15.8399   20.5080 H   0  0  0  0  0  0
  -26.2788  -15.6294   20.0876 H   0  0  0  0  0  0
  -26.7139  -32.5512   23.1141 H   0  0  0  0  0  0
  -25.0066  -33.9755   25.0466 H   0  0  0  0  0  0
  -22.6995  -31.3078   21.4072 H   0  0  0  0  0  0
  -23.3752  -35.9635   23.3312 H   0  0  0  0  0  0
  -24.3579  -36.8911   22.2057 H   0  0  0  0  0  0
  -23.7236  -37.6512   23.6655 H   0  0  0  0  0  0
  -26.0505  -31.5879   20.5884 H   0  0  0  0  0  0
  -26.8262  -30.8798   21.9765 H   0  0  0  0  0  0
  -28.1076  -29.0875   21.1345 H   0  0  0  0  0  0
  -25.9854  -25.9179   19.1004 H   0  0  0  0  0  0
  -23.9614  -27.2619   19.0931 H   0  0  0  0  0  0
  -23.7380  -30.5965   19.4065 H   0  0  0  0  0  0
  -22.7360  -29.2509   19.8586 H   0  0  0  0  0  0
  -25.1285  -36.1967   25.0839 H   0  0  0  0  0  0
  -20.9975  -28.3251   24.1420 H   0  0  0  0  0  0
  -20.5697  -26.2291   23.3604 H   0  0  0  0  0  0
  -21.6652  -26.7460   22.1198 H   0  0  0  0  0  0
  -19.6932  -25.6299   21.1229 H   0  0  0  0  0  0
  -19.6696  -27.3203   20.6746 H   0  0  0  0  0  0
  -17.4210  -26.6672   21.4004 H   0  0  0  0  0  0
  -18.0327  -26.0064   22.9006 H   0  0  0  0  0  0
  -19.7949  -30.7242   24.2283 H   0  0  0  0  0  0
  -17.5041  -31.6266   24.5167 H   0  0  0  0  0  0
  -15.5368  -30.3009   23.7642 H   0  0  0  0  0  0
  -15.8669  -28.0850   22.7029 H   0  0  0  0  0  0
  -24.5897  -30.7063   25.7813 H   0  0  0  0  0  0
  -24.8894  -32.2887   26.4886 H   0  0  0  0  0  0
  -25.8053  -30.8924   27.0249 H   0  0  0  0  0  0
  -26.2867  -29.6810   24.1155 H   0  0  0  0  0  0
  -27.4134  -29.7307   25.4530 H   0  0  0  0  0  0
  -27.8671  -30.4413   23.9215 H   0  0  0  0  0  0
  -27.2700  -33.3643   26.2030 H   0  0  0  0  0  0
  -28.3855  -32.6853   25.0279 H   0  0  0  0  0  0
  -28.0726  -31.8460   26.5382 H   0  0  0  0  0  0
  -28.2607  -38.0101   24.7527 H   0  0  0  0  0  0
  -28.1075  -36.2635   24.6285 H   0  0  0  0  0  0
  -27.2303  -37.1452   25.8871 H   0  0  0  0  0  0
  -20.9338  -29.8773   21.6935 H   0  0  0  0  0  0
  -26.0181  -38.2871   24.1429 H   0  0  0  0  0  0
  -31.4199  -19.7125   21.7702 H   0  0  0  0  0  0
  -29.5241  -17.8035   22.8108 H   0  0  0  0  0  0
  -27.8180  -17.7573   22.3790 H   0  0  0  0  0  0
  -27.9842  -15.5419   21.6020 H   0  0  0  0  0  0
  -29.2760  -15.4592   22.8073 H   0  0  0  0  0  0
  -31.2538  -17.3262   20.6761 H   0  0  0  0  0  0
  -30.4000  -17.0287   19.1665 H   0  0  0  0  0  0
  -28.3340  -17.8658   20.0385 H   0  0  0  0  0  0
  -28.8525  -24.2589   17.7667 H   0  0  0  0  0  0
  -29.0233  -25.9974   17.6091 H   0  0  0  0  0  0
  -27.4335  -25.2742   17.7668 H   0  0  0  0  0  0
  -26.8412  -24.4350   20.5375 H   0  0  0  0  0  0
  -28.2613  -24.3215   21.5302 H   0  0  0  0  0  0
  -29.6837  -25.1665   19.8176 H   0  0  0  0  0  0
  -27.3099  -22.5439   19.4806 H   0  0  0  0  0  0
  1 25  1  0  0  0
  1 30  2  0  0  0
  1 82  1  0  0  0
  2  3  1  0  0  0
  2 25  1  0  0  0
  2 85  1  0  0  0
  2 86  1  0  0  0
  3  4  1  0  0  0
  3 87  1  0  0  0
  3 88  1  0  0  0
  4  5  1  0  0  0
  4 89  1  0  0  0
  4 90  1  0  0  0
  5  6  1  0  0  0
  5 26  1  0  0  0
  5 91  1  0  0  0
  6 25  1  0  0  0
  6 92  1  0  0  0
  6 93  1  0  0  0
  7  8  2  0  0  0
  7 26  1  0  0  0
  7 29  1  0  0  0
  8  9  1  0  0  0
  8 22  1  0  0  0
  9 10  1  0  0  0
  9 27  2  0  0  0
 10 11  2  0  0  0
 10 15  1  0  0  0
 11 12  1  0  0  0
 11 94  1  0  0  0
 12 13  2  0  0  0
 12 95  1  0  0  0
 13 14  1  0  0  0
 13 31  1  0  0  0
 14 15  2  0  0  0
 14 96  1  0  0  0
 15 97  1  0  0  0
 16 17  2  0  0  0
 16 21  1  0  0  0
 16 31  1  0  0  0
 17 18  1  0  0  0
 17 98  1  0  0  0
 18 19  2  0  0  0
 18 99  1  0  0  0
 19 20  1  0  0  0
 19 24  1  0  0  0
 20 21  2  0  0  0
 20100  1  0  0  0
 21 23  1  0  0  0
 22 28  1  0  0  0
 22 32  2  0  0  0
 26 27  1  0  0  0
 28101  1  0  0  0
 28102  1  0  0  0
 29103  1  0  0  0
 29104  1  0  0  0
 33 34  1  0  0  0
 33 66  1  0  0  0
 33 70  2  0  0  0
 34 36  1  0  0  0
 34 59  1  0  0  0
 34105  1  0  0  0
 35 44  2  0  0  0
 35 45  1  0  0  0
 35 68  1  0  0  0
 36 56  1  0  0  0
 36106  1  0  0  0
 37 39  1  0  0  0
 37 47  1  0  0  0
 37 66  1  0  0  0
 37107  1  0  0  0
 38 43  2  0  0  0
 38 46  1  0  0  0
 38 47  1  0  0  0
 39 64  1  0  0  0
 39 67  2  0  0  0
 40 52  1  0  0  0
 40 53  2  0  0  0
 40 58  1  0  0  0
 41108  1  0  0  0
 41109  1  0  0  0
 41110  1  0  0  0
 41 48  1  0  0  0
 42 43  1  0  0  0
 42 66  1  0  0  0
 42111  1  0  0  0
 42112  1  0  0  0
 43 44  1  0  0  0
 44113  1  0  0  0
 45 46  2  0  0  0
 45114  1  0  0  0
 46115  1  0  0  0
 47116  1  0  0  0
 47117  1  0  0  0
 48 56  1  0  0  0
 48 65  1  0  0  0
 48118  1  0  0  0
 49 50  1  0  0  0
 49 53  1  0  0  0
 49 64  1  0  0  0
 49119  1  0  0  0
 50 51  1  0  0  0
 50120  1  0  0  0
 50121  1  0  0  0
 51 52  1  0  0  0
 51122  1  0  0  0
 51123  1  0  0  0
 52124  1  0  0  0
 52125  1  0  0  0
 53 54  1  0  0  0
 54 55  2  0  0  0
 54126  1  0  0  0
 55 57  1  0  0  0
 55127  1  0  0  0
 56 69  2  0  0  0
 57 58  2  0  0  0
 57128  1  0  0  0
 58129  1  0  0  0
 59 60  1  0  0  0
 59 61  1  0  0  0
 59 62  1  0  0  0
 60130  1  0  0  0
 60131  1  0  0  0
 60132  1  0  0  0
 61133  1  0  0  0
 61134  1  0  0  0
 61135  1  0  0  0
 62136  1  0  0  0
 62137  1  0  0  0
 62138  1  0  0  0
 63 65  1  0  0  0
 63139  1  0  0  0
 63140  1  0  0  0
 63141  1  0  0  0
 64142  1  0  0  0
 65143  1  0  0  0
 68 80  1  0  0  0
 71 72  2  0  0  0
 71 84  1  0  0  0
 71144  1  0  0  0
 72 81  1  0  0  0
 72 77  1  0  0  0
 73 81  2  0  0  0
 73 83  1  0  0  0
 73 84  1  0  0  0
 74 75  1  0  0  0
 74 77  1  0  0  0
 74145  1  0  0  0
 74146  1  0  0  0
 75 82  1  0  0  0
 75147  1  0  0  0
 75148  1  0  0  0
 76 77  1  0  0  0
 76 82  1  0  0  0
 76149  1  0  0  0
 76150  1  0  0  0
 77151  1  0  0  0
 78152  1  0  0  0
 78153  1  0  0  0
 78154  1  0  0  0
 78 80  1  0  0  0
 79 80  1  0  0  0
 79 83  1  0  0  0
 79155  1  0  0  0
 79156  1  0  0  0
 80157  1  0  0  0
 83158  1  0  0  0
M  ISO  4   1 100  68 101  80 101  82 100
M  END
> <chiral flag>
0

> <version>
0

> <s_m_source_file>
/data/baiqing/PycharmProjects/Reinvent-master-3.2/result/LINK_invent/BTK/process_docking_weight1_custom_product_contain_oxygen_bond_distance_aromatic_linkinvent_7_9_3/rearranged_h_0149.sdf

> <i_m_source_file_index>
80

> <r_mmod_Potential_Energy-OPLS-2005>
55.8921546936035

> <r_mmod_Stretch_Energy-OPLS-2005>
49.0955429077148

> <r_mmod_Bend_Energy-OPLS-2005>
165.872650146484

> <r_mmod_Torsional_Energy-OPLS-2005>
289.880554199219

> <r_mmod_Improper_Torsional_Energy-OPLS-2005>
12.5567054748535

> <r_mmod_Van_der_Waal_Energy-OPLS-2005>
121.125770568848

> <r_mmod_Electrostatic_Energy-OPLS-2005>
-392.194152832031

> <r_mmod_Solvation_Energy-OPLS-2005>
-212.480621337891

> <b_mmod_Minimization_Converged-OPLS-2005>
0

> <r_mmod_RMS_Derivative-OPLS-2005>
1.78321969509125

$$$$
80
                    3D
 Structure written by MMmdl.
178187  0  0  1  0            999 V2000
  -30.5952  -14.7678   20.4681 C   0  0  0  0  0  0
  -30.4330  -12.4723   19.5004 C   0  0  0  0  0  0
  -29.5296  -12.5403   18.2495 C   0  0  0  0  0  0
  -28.0511  -12.3560   18.6440 C   0  0  0  0  0  0
  -27.6458  -13.2400   19.8563 C   0  0  2  0  0  0
  -28.6782  -13.1739   21.0044 C   0  0  0  0  0  0
  -25.2508  -13.8210   20.5655 C   0  0  0  0  0  0
  -24.1811  -13.0450   20.9181 C   0  0  0  0  0  0
  -24.6415  -11.6938   20.8713 C   0  0  0  0  0  0
  -23.9098  -10.4316   21.0392 C   0  0  0  0  0  0
  -24.3654   -9.4248   21.9180 C   0  0  0  0  0  0
  -23.6339   -8.2273   22.0753 C   0  0  0  0  0  0
  -22.4328   -8.0293   21.3543 C   0  0  0  0  0  0
  -21.9957   -9.0260   20.4646 C   0  0  0  0  0  0
  -22.7278  -10.2145   20.3052 C   0  0  0  0  0  0
  -21.6866   -6.0756   22.5274 C   0  0  0  0  0  0
  -21.4027   -6.5650   23.8211 C   0  0  0  0  0  0
  -21.3657   -5.6787   24.9165 C   0  0  0  0  0  0
  -21.6038   -4.3050   24.7200 C   0  0  0  0  0  0
  -21.8822   -3.8146   23.4315 C   0  0  0  0  0  0
  -21.9195   -4.6981   22.3383 C   0  0  0  0  0  0
  -22.7835  -13.5229   21.1822 C   0  0  0  0  0  0
  -22.1654   -4.2168   21.0960 F   0  0  0  0  0  0
  -21.5632   -3.4529   25.7712 F   0  0  0  0  0  0
  -29.9841  -13.5309   20.4393 N   0  0  0  0  0  0
  -26.2948  -12.9427   20.3251 N   0  0  0  0  0  0
  -25.9346  -11.6570   20.5694 N   0  0  0  0  0  0
  -22.0452  -12.8253   22.0375 N   0  0  0  0  0  0
  -25.4176  -15.1944   20.4129 N   0  0  0  0  0  0
  -31.7827  -14.8443   20.1273 O   0  0  0  0  0  0
  -21.6665   -6.8910   21.4249 O   0  0  0  0  0  0
  -22.3537  -14.5520   20.6643 O   0  0  0  0  0  0
  -24.6340  -31.8523   23.1961 C   0  0  0  0  0  0
  -25.9154  -32.4715   23.8350 C   0  0  1  0  0  0
  -27.2069  -27.2306   20.1219 C   0  0  0  0  0  0
  -25.5956  -33.8527   24.2265 N   0  0  0  0  0  0
  -23.4289  -30.4787   21.5383 C   0  0  2  0  0  0
  -24.8752  -28.9232   20.1101 C   0  0  0  0  0  0
  -22.7511  -29.4601   22.4868 C   0  0  0  0  0  0
  -18.0301  -28.1347   22.8489 C   0  0  0  0  0  0
  -24.1497  -36.7268   23.2636 C   0  0  0  0  0  0
  -25.9802  -30.7575   21.3780 C   0  0  0  0  0  0
  -26.0502  -29.3774   20.7214 C   0  0  0  0  0  0
  -27.2201  -28.5418   20.7185 C   0  0  0  0  0  0
  -26.0021  -26.8582   19.4816 C   0  0  0  0  0  0
  -24.8574  -27.6742   19.4813 C   0  0  0  0  0  0
  -23.6468  -29.8101   20.1567 C   0  0  0  0  0  0
  -25.4112  -36.3032   24.0332 C   0  0  1  0  0  0
  -20.5906  -28.3695   23.1235 C   0  0  2  0  0  0
  -20.6774  -26.9408   22.5377 C   0  0  0  0  0  0
  -19.5744  -26.6347   21.5189 C   0  0  0  0  0  0
  -18.1934  -26.7894   22.1609 C   0  0  0  0  0  0
  -19.1553  -28.8832   23.2864 C   0  0  0  0  0  0
  -18.9479  -30.1427   23.8891 C   0  0  0  0  0  0
  -17.6476  -30.6564   24.0538 C   0  0  0  0  0  0
  -25.9061  -34.9406   23.5096 C   0  0  0  0  0  0
  -16.5368  -29.9059   23.6307 C   0  0  0  0  0  0
  -16.7285  -28.6453   23.0375 C   0  0  0  0  0  0
  -26.4519  -31.6531   25.0738 C   0  0  0  0  0  0
  -25.3749  -31.3705   26.1466 C   0  0  0  0  0  0
  -27.0386  -30.2948   24.6236 C   0  0  0  0  0  0
  -27.6058  -32.4276   25.7532 C   0  0  0  0  0  0
  -27.5575  -37.1788   24.8471 C   0  0  0  0  0  0
  -21.4207  -29.3064   22.3626 N   0  0  0  0  0  0
  -26.4277  -37.3736   23.9413 N   0  0  0  0  0  0
  -24.7003  -31.0504   22.0930 N   0  0  0  0  0  0
  -23.4216  -28.8132   23.2950 O   0  0  0  0  0  0
  -28.2814  -26.2992   20.1730 O   0  0  0  0  0  0
  -26.5630  -34.8895   22.4666 O   0  0  0  0  0  0
  -23.5476  -32.1339   23.7251 O   0  0  0  0  0  0
  -30.3275  -18.2437   17.8134 C   0  0  0  0  0  0
  -30.2110  -17.1188   18.6247 C   0  0  0  0  0  0
  -30.1203  -19.5445   18.3143 C   0  0  0  0  0  0
  -29.6291  -19.7007   19.6595 C   0  0  0  0  0  0
  -29.8858  -17.2330   19.9812 C   0  0  0  0  0  0
  -28.7391  -22.1854   19.5048 C   0  0  0  0  0  0
  -29.2662  -23.0819   21.5792 C   0  0  0  0  0  0
  -29.7297  -21.5903   21.4603 C   0  0  0  0  0  0
  -29.0601  -23.6060   20.1464 C   0  0  1  0  0  0
  -30.4030  -24.0953   19.5611 C   0  0  0  0  0  0
  -32.1097  -22.6707   15.4493 C   0  0  0  0  0  0
  -33.5053  -22.1697   17.4758 C   0  0  0  0  0  0
  -33.9541  -20.9729   15.3540 C   0  0  0  0  0  0
  -27.9879  -24.8229   19.9552 C   0  0  0  0  0  0
  -31.8652  -20.3846   16.5955 C   0  0  0  0  0  0
  -30.5335  -20.6918   17.3565 C   0  0  1  0  0  0
  -32.8272  -21.5563   16.2331 C   0  0  0  0  0  0
  -29.5559  -18.5245   20.4459 N   0  0  0  0  0  0
  -29.3075  -21.0968   20.1481 N   0  0  0  0  0  0
  -29.8408  -15.9244   20.7009 N   0  0  0  0  0  0
  -29.4345  -20.9949   16.4129 N   0  3  0  0  0  0
  -28.0466  -22.1015   18.4858 O   0  0  0  0  0  0
  -31.4793  -12.5904   19.2122 H   0  0  0  0  0  0
  -30.3676  -11.4896   19.9687 H   0  0  0  0  0  0
  -29.8322  -11.7837   17.5243 H   0  0  0  0  0  0
  -29.6655  -13.5029   17.7535 H   0  0  0  0  0  0
  -27.9048  -11.3041   18.8824 H   0  0  0  0  0  0
  -27.4078  -12.5663   17.7894 H   0  0  0  0  0  0
  -27.6398  -14.2680   19.4923 H   0  0  0  0  0  0
  -28.7096  -12.1767   21.4480 H   0  0  0  0  0  0
  -28.4009  -13.8613   21.8042 H   0  0  0  0  0  0
  -25.2799   -9.5729   22.4759 H   0  0  0  0  0  0
  -24.0045   -7.4681   22.7493 H   0  0  0  0  0  0
  -21.0878   -8.8779   19.8975 H   0  0  0  0  0  0
  -22.3730  -10.9676   19.6151 H   0  0  0  0  0  0
  -21.2037   -7.6159   23.9725 H   0  0  0  0  0  0
  -21.1469   -6.0509   25.9072 H   0  0  0  0  0  0
  -22.0606   -2.7614   23.2790 H   0  0  0  0  0  0
  -22.4035  -11.9952   22.4838 H   0  0  0  0  0  0
  -21.1055  -13.1286   22.2507 H   0  0  0  0  0  0
  -24.6435  -15.8383   20.5335 H   0  0  0  0  0  0
  -26.2635  -15.6433   20.0838 H   0  0  0  0  0  0
  -26.7242  -32.5370   23.1109 H   0  0  0  0  0  0
  -25.0148  -33.9671   25.0447 H   0  0  0  0  0  0
  -22.7243  -31.3014   21.3903 H   0  0  0  0  0  0
  -23.3746  -35.9611   23.3264 H   0  0  0  0  0  0
  -24.3602  -36.8920   22.2059 H   0  0  0  0  0  0
  -23.7275  -37.6472   23.6685 H   0  0  0  0  0  0
  -26.1246  -31.5144   20.6051 H   0  0  0  0  0  0
  -26.8549  -30.8087   22.0149 H   0  0  0  0  0  0
  -28.1159  -28.8830   21.2189 H   0  0  0  0  0  0
  -25.8943  -25.9084   18.9837 H   0  0  0  0  0  0
  -23.9554  -27.3231   18.9970 H   0  0  0  0  0  0
  -23.7635  -30.5788   19.3927 H   0  0  0  0  0  0
  -22.7672  -29.2353   19.8590 H   0  0  0  0  0  0
  -25.1284  -36.1856   25.0824 H   0  0  0  0  0  0
  -21.0032  -28.3280   24.1342 H   0  0  0  0  0  0
  -20.5620  -26.2344   23.3602 H   0  0  0  0  0  0
  -21.6649  -26.7384   22.1205 H   0  0  0  0  0  0
  -19.6905  -25.6252   21.1235 H   0  0  0  0  0  0
  -19.6652  -27.3136   20.6702 H   0  0  0  0  0  0
  -17.4202  -26.6656   21.4008 H   0  0  0  0  0  0
  -18.0345  -26.0010   22.8981 H   0  0  0  0  0  0
  -19.7959  -30.7224   24.2274 H   0  0  0  0  0  0
  -17.5038  -31.6252   24.5125 H   0  0  0  0  0  0
  -15.5370  -30.2966   23.7596 H   0  0  0  0  0  0
  -15.8691  -28.0731   22.7145 H   0  0  0  0  0  0
  -24.5938  -30.7014   25.7840 H   0  0  0  0  0  0
  -24.8924  -32.2885   26.4836 H   0  0  0  0  0  0
  -25.8072  -30.8954   27.0284 H   0  0  0  0  0  0
  -26.2997  -29.6667   24.1242 H   0  0  0  0  0  0
  -27.4076  -29.7214   25.4755 H   0  0  0  0  0  0
  -27.8865  -30.4231   23.9498 H   0  0  0  0  0  0
  -27.2656  -33.3595   26.2068 H   0  0  0  0  0  0
  -28.3908  -32.6795   25.0387 H   0  0  0  0  0  0
  -28.0682  -31.8423   26.5492 H   0  0  0  0  0  0
  -28.2558  -38.0112   24.7505 H   0  0  0  0  0  0
  -28.1094  -36.2637   24.6273 H   0  0  0  0  0  0
  -27.2311  -37.1415   25.8880 H   0  0  0  0  0  0
  -20.9382  -29.8866   21.6904 H   0  0  0  0  0  0
  -26.0130  -38.2804   24.1393 H   0  0  0  0  0  0
  -30.6356  -18.0877   16.7914 H   0  0  0  0  0  0
  -30.4124  -16.1562   18.1753 H   0  0  0  0  0  0
  -29.9752  -23.6911   22.1424 H   0  0  0  0  0  0
  -28.3199  -23.1270   22.1207 H   0  0  0  0  0  0
  -29.3301  -20.9687   22.2636 H   0  0  0  0  0  0
  -30.8170  -21.5284   21.5083 H   0  0  0  0  0  0
  -31.1772  -23.3296   19.6077 H   0  0  0  0  0  0
  -30.7727  -24.9592   20.1159 H   0  0  0  0  0  0
  -30.3039  -24.4064   18.5208 H   0  0  0  0  0  0
  -32.8074  -23.4557   15.1542 H   0  0  0  0  0  0
  -31.3354  -23.1527   16.0482 H   0  0  0  0  0  0
  -31.6537  -22.2910   14.5343 H   0  0  0  0  0  0
  -34.2867  -22.8706   17.1751 H   0  0  0  0  0  0
  -33.9870  -21.4110   18.0952 H   0  0  0  0  0  0
  -32.8096  -22.7244   18.1034 H   0  0  0  0  0  0
  -34.6862  -21.7350   15.0848 H   0  0  0  0  0  0
  -33.5706  -20.5486   14.4254 H   0  0  0  0  0  0
  -34.4944  -20.1819   15.8779 H   0  0  0  0  0  0
  -27.1191  -24.5630   20.5631 H   0  0  0  0  0  0
  -27.6580  -24.7375   18.9190 H   0  0  0  0  0  0
  -31.6373  -19.8084   15.6972 H   0  0  0  0  0  0
  -32.4617  -19.7117   17.2130 H   0  0  0  0  0  0
  -30.7462  -21.5833   17.9384 H   0  0  0  0  0  0
  -29.0122  -15.7836   21.2591 H   0  0  0  0  0  0
  -29.1459  -20.1913   15.8843 H   0  0  0  0  0  0
  -29.6886  -21.7243   15.7699 H   0  0  0  0  0  0
  -28.6430  -21.3334   16.9502 H   0  0  0  0  0  0
  1 25  1  0  0  0
  1 30  2  0  0  0
  1 90  1  0  0  0
  2  3  1  0  0  0
  2 25  1  0  0  0
  2 93  1  0  0  0
  2 94  1  0  0  0
  3  4  1  0  0  0
  3 95  1  0  0  0
  3 96  1  0  0  0
  4  5  1  0  0  0
  4 97  1  0  0  0
  4 98  1  0  0  0
  5  6  1  0  0  0
  5 26  1  0  0  0
  5 99  1  0  0  0
  6 25  1  0  0  0
  6100  1  0  0  0
  6101  1  0  0  0
  7  8  2  0  0  0
  7 26  1  0  0  0
  7 29  1  0  0  0
  8  9  1  0  0  0
  8 22  1  0  0  0
  9 10  1  0  0  0
  9 27  2  0  0  0
 10 11  2  0  0  0
 10 15  1  0  0  0
 11 12  1  0  0  0
 11102  1  0  0  0
 12 13  2  0  0  0
 12103  1  0  0  0
 13 14  1  0  0  0
 13 31  1  0  0  0
 14 15  2  0  0  0
 14104  1  0  0  0
 15105  1  0  0  0
 16 17  2  0  0  0
 16 21  1  0  0  0
 16 31  1  0  0  0
 17 18  1  0  0  0
 17106  1  0  0  0
 18 19  2  0  0  0
 18107  1  0  0  0
 19 20  1  0  0  0
 19 24  1  0  0  0
 20 21  2  0  0  0
 20108  1  0  0  0
 21 23  1  0  0  0
 22 28  1  0  0  0
 22 32  2  0  0  0
 26 27  1  0  0  0
 28109  1  0  0  0
 28110  1  0  0  0
 29111  1  0  0  0
 29112  1  0  0  0
 33 34  1  0  0  0
 33 66  1  0  0  0
 33 70  2  0  0  0
 34 36  1  0  0  0
 34 59  1  0  0  0
 34113  1  0  0  0
 35 44  2  0  0  0
 35 45  1  0  0  0
 35 68  1  0  0  0
 36 56  1  0  0  0
 36114  1  0  0  0
 37 39  1  0  0  0
 37 47  1  0  0  0
 37 66  1  0  0  0
 37115  1  0  0  0
 38 43  2  0  0  0
 38 46  1  0  0  0
 38 47  1  0  0  0
 39 64  1  0  0  0
 39 67  2  0  0  0
 40 52  1  0  0  0
 40 53  2  0  0  0
 40 58  1  0  0  0
 41116  1  0  0  0
 41117  1  0  0  0
 41118  1  0  0  0
 41 48  1  0  0  0
 42 43  1  0  0  0
 42 66  1  0  0  0
 42119  1  0  0  0
 42120  1  0  0  0
 43 44  1  0  0  0
 44121  1  0  0  0
 45 46  2  0  0  0
 45122  1  0  0  0
 46123  1  0  0  0
 47124  1  0  0  0
 47125  1  0  0  0
 48 56  1  0  0  0
 48 65  1  0  0  0
 48126  1  0  0  0
 49 50  1  0  0  0
 49 53  1  0  0  0
 49 64  1  0  0  0
 49127  1  0  0  0
 50 51  1  0  0  0
 50128  1  0  0  0
 50129  1  0  0  0
 51 52  1  0  0  0
 51130  1  0  0  0
 51131  1  0  0  0
 52132  1  0  0  0
 52133  1  0  0  0
 53 54  1  0  0  0
 54 55  2  0  0  0
 54134  1  0  0  0
 55 57  1  0  0  0
 55135  1  0  0  0
 56 69  2  0  0  0
 57 58  2  0  0  0
 57136  1  0  0  0
 58137  1  0  0  0
 59 60  1  0  0  0
 59 61  1  0  0  0
 59 62  1  0  0  0
 60138  1  0  0  0
 60139  1  0  0  0
 60140  1  0  0  0
 61141  1  0  0  0
 61142  1  0  0  0
 61143  1  0  0  0
 62144  1  0  0  0
 62145  1  0  0  0
 62146  1  0  0  0
 63 65  1  0  0  0
 63147  1  0  0  0
 63148  1  0  0  0
 63149  1  0  0  0
 64150  1  0  0  0
 65151  1  0  0  0
 68 84  1  0  0  0
 71 72  2  0  0  0
 71 73  1  0  0  0
 71152  1  0  0  0
 72 75  1  0  0  0
 72153  1  0  0  0
 73 74  2  0  0  0
 73 86  1  0  0  0
 74 88  1  0  0  0
 74 89  1  0  0  0
 75 88  2  0  0  0
 75 90  1  0  0  0
 76 79  1  0  0  0
 76 89  1  0  0  0
 76 92  2  0  0  0
 77 78  1  0  0  0
 77 79  1  0  0  0
 77154  1  0  0  0
 77155  1  0  0  0
 78 89  1  0  0  0
 78156  1  0  0  0
 78157  1  0  0  0
 79 80  1  0  0  0
 79 84  1  0  0  0
 80158  1  0  0  0
 80159  1  0  0  0
 80160  1  0  0  0
 81161  1  0  0  0
 81162  1  0  0  0
 81163  1  0  0  0
 81 87  1  0  0  0
 82 87  1  0  0  0
 82164  1  0  0  0
 82165  1  0  0  0
 82166  1  0  0  0
 83 87  1  0  0  0
 83167  1  0  0  0
 83168  1  0  0  0
 83169  1  0  0  0
 84170  1  0  0  0
 84171  1  0  0  0
 85 86  1  0  0  0
 85 87  1  0  0  0
 85172  1  0  0  0
 85173  1  0  0  0
 86 91  1  0  0  0
 86174  1  0  0  0
 90175  1  0  0  0
 91176  1  0  0  0
 91177  1  0  0  0
 91178  1  0  0  0
M  CHG  1  91   1
M  ISO  4   1 100  68 101  84 101  90 100
M  END
> <chiral flag>
0

> <version>
0

> <s_m_source_file>
/data/baiqing/PycharmProjects/Reinvent-master-3.2/result/LINK_invent/BTK/process_docking_weight1_custom_product_contain_oxygen_bond_distance_aromatic_linkinvent_7_9_3/rearranged_h_0149.sdf

> <i_m_source_file_index>
81

> <r_mmod_Potential_Energy-OPLS-2005>
85.1819686889648

> <r_mmod_Stretch_Energy-OPLS-2005>
161.315673828125

> <r_mmod_Bend_Energy-OPLS-2005>
229.137939453125

> <r_mmod_Torsional_Energy-OPLS-2005>
322.232513427734

> <r_mmod_Improper_Torsional_Energy-OPLS-2005>
5.43048143386841

> <r_mmod_Van_der_Waal_Energy-OPLS-2005>
154.713424682617

> <r_mmod_Electrostatic_Energy-OPLS-2005>
-433.659423828125

> <r_mmod_Solvation_Energy-OPLS-2005>
-453.52880859375

> <b_mmod_Minimization_Converged-OPLS-2005>
0

> <r_mmod_RMS_Derivative-OPLS-2005>
4.02935981750488

$$$$
81
                    3D
 Structure written by MMmdl.
154162  0  0  1  0            999 V2000
  -30.5786  -14.7766   20.4670 C   0  0  0  0  0  0
  -30.4430  -12.4725   19.4881 C   0  0  0  0  0  0
  -29.5259  -12.5304   18.2451 C   0  0  0  0  0  0
  -28.0467  -12.3540   18.6462 C   0  0  0  0  0  0
  -27.6484  -13.2369   19.8591 C   0  0  2  0  0  0
  -28.6895  -13.1537   20.9980 C   0  0  0  0  0  0
  -25.2537  -13.8204   20.5696 C   0  0  0  0  0  0
  -24.1816  -13.0450   20.9173 C   0  0  0  0  0  0
  -24.6417  -11.6928   20.8715 C   0  0  0  0  0  0
  -23.9093  -10.4300   21.0400 C   0  0  0  0  0  0
  -24.3638   -9.4211   21.9178 C   0  0  0  0  0  0
  -23.6302   -8.2257   22.0753 C   0  0  0  0  0  0
  -22.4279   -8.0298   21.3554 C   0  0  0  0  0  0
  -21.9920   -9.0275   20.4654 C   0  0  0  0  0  0
  -22.7266  -10.2146   20.3051 C   0  0  0  0  0  0
  -21.6859   -6.0743   22.5282 C   0  0  0  0  0  0
  -21.4027   -6.5646   23.8217 C   0  0  0  0  0  0
  -21.3652   -5.6793   24.9176 C   0  0  0  0  0  0
  -21.6037   -4.3055   24.7228 C   0  0  0  0  0  0
  -21.8820   -3.8152   23.4349 C   0  0  0  0  0  0
  -21.9193   -4.6971   22.3405 C   0  0  0  0  0  0
  -22.7841  -13.5236   21.1833 C   0  0  0  0  0  0
  -22.1664   -4.2163   21.0976 F   0  0  0  0  0  0
  -21.5623   -3.4531   25.7734 F   0  0  0  0  0  0
  -29.9949  -13.5251   20.4330 N   0  0  0  0  0  0
  -26.2976  -12.9421   20.3294 N   0  0  0  0  0  0
  -25.9349  -11.6561   20.5723 N   0  0  0  0  0  0
  -22.0476  -12.8247   22.0396 N   0  0  0  0  0  0
  -25.4219  -15.1936   20.4175 N   0  0  0  0  0  0
  -31.7368  -14.9212   20.0641 O   0  0  0  0  0  0
  -21.6648   -6.8892   21.4244 O   0  0  0  0  0  0
  -22.3526  -14.5537   20.6668 O   0  0  0  0  0  0
  -24.6350  -31.8528   23.1979 C   0  0  0  0  0  0
  -25.9168  -32.4730   23.8337 C   0  0  1  0  0  0
  -27.2196  -27.2270   20.1326 C   0  0  0  0  0  0
  -25.5946  -33.8538   24.2238 N   0  0  0  0  0  0
  -23.4349  -30.4763   21.5397 C   0  0  2  0  0  0
  -24.8854  -28.9262   20.1034 C   0  0  0  0  0  0
  -22.7528  -29.4593   22.4874 C   0  0  0  0  0  0
  -18.0302  -28.1400   22.8489 C   0  0  0  0  0  0
  -24.1490  -36.7275   23.2640 C   0  0  0  0  0  0
  -25.9867  -30.7506   21.3924 C   0  0  0  0  0  0
  -26.0578  -29.3759   20.7238 C   0  0  0  0  0  0
  -27.2265  -28.5398   20.7262 C   0  0  0  0  0  0
  -26.0280  -26.8698   19.4595 C   0  0  0  0  0  0
  -24.8783  -27.6827   19.4585 C   0  0  0  0  0  0
  -23.6570  -29.8156   20.1546 C   0  0  0  0  0  0
  -25.4121  -36.3054   24.0315 C   0  0  1  0  0  0
  -20.5912  -28.3721   23.1258 C   0  0  2  0  0  0
  -20.6792  -26.9424   22.5422 C   0  0  0  0  0  0
  -19.5768  -26.6384   21.5232 C   0  0  0  0  0  0
  -18.1941  -26.7938   22.1631 C   0  0  0  0  0  0
  -19.1558  -28.8877   23.2865 C   0  0  0  0  0  0
  -18.9471  -30.1476   23.8882 C   0  0  0  0  0  0
  -17.6470  -30.6598   24.0567 C   0  0  0  0  0  0
  -25.9071  -34.9422   23.5081 C   0  0  0  0  0  0
  -16.5364  -29.9091   23.6345 C   0  0  0  0  0  0
  -16.7285  -28.6514   23.0357 C   0  0  0  0  0  0
  -26.4499  -31.6583   25.0766 C   0  0  0  0  0  0
  -25.3695  -31.3796   26.1474 C   0  0  0  0  0  0
  -27.0361  -30.2962   24.6369 C   0  0  0  0  0  0
  -27.6021  -32.4360   25.7553 C   0  0  0  0  0  0
  -27.5577  -37.1796   24.8452 C   0  0  0  0  0  0
  -21.4228  -29.3047   22.3618 N   0  0  0  0  0  0
  -26.4289  -37.3762   23.9397 N   0  0  0  0  0  0
  -24.7037  -31.0462   22.0977 N   0  0  0  0  0  0
  -23.4210  -28.8137   23.2996 O   0  0  0  0  0  0
  -28.2859  -26.2821   20.2276 O   0  0  0  0  0  0
  -26.5645  -34.8904   22.4655 O   0  0  0  0  0  0
  -23.5490  -32.1367   23.7254 O   0  0  0  0  0  0
  -29.9250  -18.5334   21.1248 C   0  0  0  0  0  0
  -29.7006  -17.2737   20.4124 C   0  0  0  0  0  0
  -29.0853  -17.6661   19.2465 C   0  0  0  0  0  0
  -29.4545  -19.5937   20.3356 C   0  0  0  0  0  0
  -28.8347  -22.0637   20.0024 C   0  0  0  0  0  0
  -28.4936  -16.9103   18.1040 C   0  0  0  0  0  0
  -27.0314  -24.5121   21.4321 C   0  0  0  0  0  0
  -29.1516  -23.6185   20.3475 C   0  0  0  0  0  0
  -27.9925  -24.7788   20.2526 C   0  0  2  0  0  0
  -29.8033  -15.8564   20.8794 N   0  0  0  0  0  0
  -29.4865  -20.9846   20.6033 N   0  0  0  0  0  0
  -27.9704  -21.8525   19.1480 O   0  0  0  0  0  0
  -28.9492  -19.0485   19.1829 O   0  0  0  0  0  0
  -31.4864  -12.6040   19.1953 H   0  0  0  0  0  0
  -30.3902  -11.4915   19.9621 H   0  0  0  0  0  0
  -29.8163  -11.7638   17.5258 H   0  0  0  0  0  0
  -29.6557  -13.4877   17.7378 H   0  0  0  0  0  0
  -27.8935  -11.3022   18.8882 H   0  0  0  0  0  0
  -27.3989  -12.5673   17.7944 H   0  0  0  0  0  0
  -27.6450  -14.2650   19.4951 H   0  0  0  0  0  0
  -28.7261  -12.1477   21.4182 H   0  0  0  0  0  0
  -28.4121  -13.8102   21.8240 H   0  0  0  0  0  0
  -25.2796   -9.5696   22.4739 H   0  0  0  0  0  0
  -24.0015   -7.4658   22.7480 H   0  0  0  0  0  0
  -21.0847   -8.8808   19.8971 H   0  0  0  0  0  0
  -22.3734  -10.9681   19.6150 H   0  0  0  0  0  0
  -21.2032   -7.6153   23.9728 H   0  0  0  0  0  0
  -21.1465   -6.0519   25.9078 H   0  0  0  0  0  0
  -22.0601   -2.7616   23.2836 H   0  0  0  0  0  0
  -22.4091  -11.9926   22.4824 H   0  0  0  0  0  0
  -21.1106  -13.1293   22.2576 H   0  0  0  0  0  0
  -24.6530  -15.8442   20.5342 H   0  0  0  0  0  0
  -26.2797  -15.6418   20.1241 H   0  0  0  0  0  0
  -26.7240  -32.5352   23.1078 H   0  0  0  0  0  0
  -25.0043  -33.9667   25.0345 H   0  0  0  0  0  0
  -22.7344  -31.3012   21.3936 H   0  0  0  0  0  0
  -23.3752  -35.9608   23.3296 H   0  0  0  0  0  0
  -24.3573  -36.8919   22.2056 H   0  0  0  0  0  0
  -23.7253  -37.6474   23.6681 H   0  0  0  0  0  0
  -26.1520  -31.5191   20.6361 H   0  0  0  0  0  0
  -26.8535  -30.7826   22.0420 H   0  0  0  0  0  0
  -28.1163  -28.8726   21.2407 H   0  0  0  0  0  0
  -25.9413  -25.9230   18.9510 H   0  0  0  0  0  0
  -23.9838  -27.3374   18.9592 H   0  0  0  0  0  0
  -23.7851  -30.5953   19.4028 H   0  0  0  0  0  0
  -22.7744  -29.2533   19.8442 H   0  0  0  0  0  0
  -25.1307  -36.1890   25.0810 H   0  0  0  0  0  0
  -21.0019  -28.3315   24.1373 H   0  0  0  0  0  0
  -20.5729  -26.2319   23.3632 H   0  0  0  0  0  0
  -21.6653  -26.7459   22.1192 H   0  0  0  0  0  0
  -19.6928  -25.6294   21.1259 H   0  0  0  0  0  0
  -19.6704  -27.3197   20.6765 H   0  0  0  0  0  0
  -17.4218  -26.6703   21.4020 H   0  0  0  0  0  0
  -18.0318  -26.0085   22.9029 H   0  0  0  0  0  0
  -19.7948  -30.7301   24.2233 H   0  0  0  0  0  0
  -17.5026  -31.6271   24.5177 H   0  0  0  0  0  0
  -15.5367  -30.2987   23.7685 H   0  0  0  0  0  0
  -15.8681  -28.0835   22.7074 H   0  0  0  0  0  0
  -24.5832  -30.7190   25.7804 H   0  0  0  0  0  0
  -24.8941  -32.3003   26.4868 H   0  0  0  0  0  0
  -25.7979  -30.8976   27.0271 H   0  0  0  0  0  0
  -26.3000  -29.6709   24.1305 H   0  0  0  0  0  0
  -27.3851  -29.7248   25.4982 H   0  0  0  0  0  0
  -27.8959  -30.4157   23.9777 H   0  0  0  0  0  0
  -27.2563  -33.3630   26.2138 H   0  0  0  0  0  0
  -28.3822  -32.6989   25.0399 H   0  0  0  0  0  0
  -28.0703  -31.8511   26.5476 H   0  0  0  0  0  0
  -28.2580  -38.0103   24.7500 H   0  0  0  0  0  0
  -28.1083  -36.2632   24.6265 H   0  0  0  0  0  0
  -27.2294  -37.1439   25.8855 H   0  0  0  0  0  0
  -20.9427  -29.8727   21.6776 H   0  0  0  0  0  0
  -26.0155  -38.2830   24.1407 H   0  0  0  0  0  0
  -30.3498  -18.6455   22.1120 H   0  0  0  0  0  0
  -29.0412  -15.9872   17.9186 H   0  0  0  0  0  0
  -28.5136  -17.5009   17.1877 H   0  0  0  0  0  0
  -27.4567  -16.6467   18.3130 H   0  0  0  0  0  0
  -26.7340  -23.4635   21.4644 H   0  0  0  0  0  0
  -26.1120  -25.0927   21.3896 H   0  0  0  0  0  0
  -27.5180  -24.7427   22.3798 H   0  0  0  0  0  0
  -29.9571  -23.9077   19.6726 H   0  0  0  0  0  0
  -29.5955  -23.6485   21.3428 H   0  0  0  0  0  0
  -27.4779  -24.5515   19.3206 H   0  0  0  0  0  0
  -28.9636  -15.5316   21.3355 H   0  0  0  0  0  0
  -30.1090  -21.2509   21.3540 H   0  0  0  0  0  0
  1 25  1  0  0  0
  1 30  2  0  0  0
  1 80  1  0  0  0
  2  3  1  0  0  0
  2 25  1  0  0  0
  2 84  1  0  0  0
  2 85  1  0  0  0
  3  4  1  0  0  0
  3 86  1  0  0  0
  3 87  1  0  0  0
  4  5  1  0  0  0
  4 88  1  0  0  0
  4 89  1  0  0  0
  5  6  1  0  0  0
  5 26  1  0  0  0
  5 90  1  0  0  0
  6 25  1  0  0  0
  6 91  1  0  0  0
  6 92  1  0  0  0
  7  8  2  0  0  0
  7 26  1  0  0  0
  7 29  1  0  0  0
  8  9  1  0  0  0
  8 22  1  0  0  0
  9 10  1  0  0  0
  9 27  2  0  0  0
 10 11  2  0  0  0
 10 15  1  0  0  0
 11 12  1  0  0  0
 11 93  1  0  0  0
 12 13  2  0  0  0
 12 94  1  0  0  0
 13 14  1  0  0  0
 13 31  1  0  0  0
 14 15  2  0  0  0
 14 95  1  0  0  0
 15 96  1  0  0  0
 16 17  2  0  0  0
 16 21  1  0  0  0
 16 31  1  0  0  0
 17 18  1  0  0  0
 17 97  1  0  0  0
 18 19  2  0  0  0
 18 98  1  0  0  0
 19 20  1  0  0  0
 19 24  1  0  0  0
 20 21  2  0  0  0
 20 99  1  0  0  0
 21 23  1  0  0  0
 22 28  1  0  0  0
 22 32  2  0  0  0
 26 27  1  0  0  0
 28100  1  0  0  0
 28101  1  0  0  0
 29102  1  0  0  0
 29103  1  0  0  0
 33 34  1  0  0  0
 33 66  1  0  0  0
 33 70  2  0  0  0
 34 36  1  0  0  0
 34 59  1  0  0  0
 34104  1  0  0  0
 35 44  2  0  0  0
 35 45  1  0  0  0
 35 68  1  0  0  0
 36 56  1  0  0  0
 36105  1  0  0  0
 37 39  1  0  0  0
 37 47  1  0  0  0
 37 66  1  0  0  0
 37106  1  0  0  0
 38 43  2  0  0  0
 38 46  1  0  0  0
 38 47  1  0  0  0
 39 64  1  0  0  0
 39 67  2  0  0  0
 40 52  1  0  0  0
 40 53  2  0  0  0
 40 58  1  0  0  0
 41107  1  0  0  0
 41108  1  0  0  0
 41109  1  0  0  0
 41 48  1  0  0  0
 42 43  1  0  0  0
 42 66  1  0  0  0
 42110  1  0  0  0
 42111  1  0  0  0
 43 44  1  0  0  0
 44112  1  0  0  0
 45 46  2  0  0  0
 45113  1  0  0  0
 46114  1  0  0  0
 47115  1  0  0  0
 47116  1  0  0  0
 48 56  1  0  0  0
 48 65  1  0  0  0
 48117  1  0  0  0
 49 50  1  0  0  0
 49 53  1  0  0  0
 49 64  1  0  0  0
 49118  1  0  0  0
 50 51  1  0  0  0
 50119  1  0  0  0
 50120  1  0  0  0
 51 52  1  0  0  0
 51121  1  0  0  0
 51122  1  0  0  0
 52123  1  0  0  0
 52124  1  0  0  0
 53 54  1  0  0  0
 54 55  2  0  0  0
 54125  1  0  0  0
 55 57  1  0  0  0
 55126  1  0  0  0
 56 69  2  0  0  0
 57 58  2  0  0  0
 57127  1  0  0  0
 58128  1  0  0  0
 59 60  1  0  0  0
 59 61  1  0  0  0
 59 62  1  0  0  0
 60129  1  0  0  0
 60130  1  0  0  0
 60131  1  0  0  0
 61132  1  0  0  0
 61133  1  0  0  0
 61134  1  0  0  0
 62135  1  0  0  0
 62136  1  0  0  0
 62137  1  0  0  0
 63 65  1  0  0  0
 63138  1  0  0  0
 63139  1  0  0  0
 63140  1  0  0  0
 64141  1  0  0  0
 65142  1  0  0  0
 68 79  1  0  0  0
 71 72  1  0  0  0
 71 74  2  0  0  0
 71143  1  0  0  0
 72 73  2  0  0  0
 72 80  1  0  0  0
 73 76  1  0  0  0
 73 83  1  0  0  0
 74 81  1  0  0  0
 74 83  1  0  0  0
 75 78  1  0  0  0
 75 81  1  0  0  0
 75 82  2  0  0  0
 76144  1  0  0  0
 76145  1  0  0  0
 76146  1  0  0  0
 77147  1  0  0  0
 77148  1  0  0  0
 77149  1  0  0  0
 77 79  1  0  0  0
 78 79  1  0  0  0
 78150  1  0  0  0
 78151  1  0  0  0
 79152  1  0  0  0
 80153  1  0  0  0
 81154  1  0  0  0
M  ISO  4   1 100  68 101  79 101  80 100
M  END
> <chiral flag>
0

> <version>
0

> <s_m_source_file>
/data/baiqing/PycharmProjects/Reinvent-master-3.2/result/LINK_invent/BTK/process_docking_weight1_custom_product_contain_oxygen_bond_distance_aromatic_linkinvent_7_9_3/rearranged_h_0149.sdf

> <i_m_source_file_index>
82

> <r_mmod_Potential_Energy-OPLS-2005>
159.746292114258

> <r_mmod_Stretch_Energy-OPLS-2005>
142.379455566406

> <r_mmod_Bend_Energy-OPLS-2005>
192.584518432617

> <r_mmod_Torsional_Energy-OPLS-2005>
240.671493530273

> <r_mmod_Improper_Torsional_Energy-OPLS-2005>
6.11908340454102

> <r_mmod_Van_der_Waal_Energy-OPLS-2005>
111.761337280273

> <r_mmod_Electrostatic_Energy-OPLS-2005>
-398.565246582031

> <r_mmod_Solvation_Energy-OPLS-2005>
-241.992553710938

> <b_mmod_Minimization_Converged-OPLS-2005>
0

> <r_mmod_RMS_Derivative-OPLS-2005>
1.82506883144379

$$$$
82
                    3D
 Structure written by MMmdl.
161170  0  0  1  0            999 V2000
  -30.5805  -14.7216   20.4835 C   0  0  0  0  0  0
  -30.4427  -12.4425   19.4755 C   0  0  0  0  0  0
  -29.5200  -12.5284   18.2391 C   0  0  0  0  0  0
  -28.0422  -12.3510   18.6422 C   0  0  0  0  0  0
  -27.6517  -13.2253   19.8650 C   0  0  2  0  0  0
  -28.6914  -13.1049   21.0001 C   0  0  0  0  0  0
  -25.2542  -13.8179   20.5686 C   0  0  0  0  0  0
  -24.1819  -13.0445   20.9200 C   0  0  0  0  0  0
  -24.6407  -11.6914   20.8739 C   0  0  0  0  0  0
  -23.9088  -10.4293   21.0402 C   0  0  0  0  0  0
  -24.3636   -9.4211   21.9184 C   0  0  0  0  0  0
  -23.6303   -8.2254   22.0766 C   0  0  0  0  0  0
  -22.4285   -8.0292   21.3556 C   0  0  0  0  0  0
  -21.9921   -9.0267   20.4658 C   0  0  0  0  0  0
  -22.7258  -10.2142   20.3064 C   0  0  0  0  0  0
  -21.6856   -6.0746   22.5286 C   0  0  0  0  0  0
  -21.4005   -6.5638   23.8221 C   0  0  0  0  0  0
  -21.3660   -5.6791   24.9182 C   0  0  0  0  0  0
  -21.6051   -4.3059   24.7227 C   0  0  0  0  0  0
  -21.8814   -3.8161   23.4340 C   0  0  0  0  0  0
  -21.9193   -4.6978   22.3396 C   0  0  0  0  0  0
  -22.7837  -13.5256   21.1857 C   0  0  0  0  0  0
  -22.1657   -4.2167   21.0972 F   0  0  0  0  0  0
  -21.5641   -3.4538   25.7740 F   0  0  0  0  0  0
  -29.9999  -13.4747   20.4421 N   0  0  0  0  0  0
  -26.2979  -12.9377   20.3328 N   0  0  0  0  0  0
  -25.9341  -11.6518   20.5754 N   0  0  0  0  0  0
  -22.0461  -12.8255   22.0405 N   0  0  0  0  0  0
  -25.4264  -15.1908   20.4102 N   0  0  0  0  0  0
  -31.7271  -14.8871   20.0519 O   0  0  0  0  0  0
  -21.6645   -6.8893   21.4253 O   0  0  0  0  0  0
  -22.3530  -14.5567   20.6708 O   0  0  0  0  0  0
  -24.6290  -31.8551   23.1967 C   0  0  0  0  0  0
  -25.9132  -32.4744   23.8313 C   0  0  1  0  0  0
  -27.2277  -27.2713   20.1315 C   0  0  0  0  0  0
  -25.5951  -33.8547   24.2257 N   0  0  0  0  0  0
  -23.4245  -30.4750   21.5395 C   0  0  2  0  0  0
  -24.8724  -28.9189   20.1061 C   0  0  0  0  0  0
  -22.7473  -29.4608   22.4920 C   0  0  0  0  0  0
  -18.0275  -28.1389   22.8488 C   0  0  0  0  0  0
  -24.1490  -36.7260   23.2647 C   0  0  0  0  0  0
  -25.9664  -30.7704   21.3740 C   0  0  0  0  0  0
  -26.0385  -29.3927   20.7185 C   0  0  0  0  0  0
  -27.2120  -28.5782   20.7237 C   0  0  0  0  0  0
  -26.0388  -26.8571   19.4911 C   0  0  0  0  0  0
  -24.8775  -27.6601   19.4822 C   0  0  0  0  0  0
  -23.6394  -29.8007   20.1568 C   0  0  0  0  0  0
  -25.4123  -36.3056   24.0331 C   0  0  1  0  0  0
  -20.5877  -28.3700   23.1276 C   0  0  2  0  0  0
  -20.6769  -26.9417   22.5422 C   0  0  0  0  0  0
  -19.5758  -26.6376   21.5217 C   0  0  0  0  0  0
  -18.1920  -26.7940   22.1597 C   0  0  0  0  0  0
  -19.1527  -28.8855   23.2883 C   0  0  0  0  0  0
  -18.9459  -30.1461   23.8901 C   0  0  0  0  0  0
  -17.6460  -30.6599   24.0556 C   0  0  0  0  0  0
  -25.9062  -34.9432   23.5090 C   0  0  0  0  0  0
  -16.5350  -29.9090   23.6336 C   0  0  0  0  0  0
  -16.7266  -28.6495   23.0378 C   0  0  0  0  0  0
  -26.4510  -31.6564   25.0700 C   0  0  0  0  0  0
  -25.3742  -31.3713   26.1423 C   0  0  0  0  0  0
  -27.0355  -30.2977   24.6200 C   0  0  0  0  0  0
  -27.6067  -32.4302   25.7477 C   0  0  0  0  0  0
  -27.5585  -37.1781   24.8465 C   0  0  0  0  0  0
  -21.4183  -29.3046   22.3658 N   0  0  0  0  0  0
  -26.4290  -37.3761   23.9422 N   0  0  0  0  0  0
  -24.6918  -31.0527   22.0935 N   0  0  0  0  0  0
  -23.4168  -28.8163   23.3035 O   0  0  0  0  0  0
  -28.3546  -26.4279   20.2388 O   0  0  0  0  0  0
  -26.5630  -34.8906   22.4656 O   0  0  0  0  0  0
  -23.5449  -32.1372   23.7281 O   0  0  0  0  0  0
  -30.0538  -17.7511   19.3542 C   0  0  0  0  0  0
  -29.7886  -17.1438   20.5726 C   0  0  0  0  0  0
  -29.3538  -19.7365   20.3884 C   0  0  0  0  0  0
  -29.2558  -23.4049   21.5846 C   0  0  0  0  0  0
  -29.2096  -21.8732   21.8371 C   0  0  0  0  0  0
  -28.3156  -23.6414   20.3975 C   0  0  1  0  0  0
  -28.7052  -22.2694   19.6051 C   0  0  0  0  0  0
  -26.8592  -23.6214   20.9222 C   0  0  0  0  0  0
  -29.9324  -22.5064   18.6934 C   0  0  0  0  0  0
  -27.5510  -21.8084   18.6917 C   0  0  0  0  0  0
  -28.4910  -25.0700   19.6220 C   0  0  0  0  0  0
  -29.7848  -19.1493   19.2601 N   0  0  0  0  0  0
  -29.0586  -21.1540   20.5659 N   0  0  0  0  0  0
  -29.8073  -15.7817   20.9224 N   0  0  0  0  0  0
  -29.2357  -18.4610   21.6624 S   0  0  0  0  0  0
  -31.4848  -12.5764   19.1793 H   0  0  0  0  0  0
  -30.3903  -11.4511   19.9269 H   0  0  0  0  0  0
  -29.8034  -11.7750   17.5034 H   0  0  0  0  0  0
  -29.6517  -13.4957   17.7514 H   0  0  0  0  0  0
  -27.8886  -11.2973   18.8777 H   0  0  0  0  0  0
  -27.3898  -12.5705   17.7957 H   0  0  0  0  0  0
  -27.6627  -14.2593   19.5173 H   0  0  0  0  0  0
  -28.7194  -12.0852   21.3879 H   0  0  0  0  0  0
  -28.4224  -13.7402   21.8449 H   0  0  0  0  0  0
  -25.2776   -9.5691   22.4760 H   0  0  0  0  0  0
  -24.0023   -7.4642   22.7473 H   0  0  0  0  0  0
  -21.0863   -8.8787   19.8944 H   0  0  0  0  0  0
  -22.3726  -10.9689   19.6174 H   0  0  0  0  0  0
  -21.1976   -7.6138   23.9736 H   0  0  0  0  0  0
  -21.1489   -6.0511   25.9087 H   0  0  0  0  0  0
  -22.0593   -2.7628   23.2840 H   0  0  0  0  0  0
  -22.4030  -11.9902   22.4793 H   0  0  0  0  0  0
  -21.1092  -13.1330   22.2611 H   0  0  0  0  0  0
  -24.6603  -15.8470   20.5141 H   0  0  0  0  0  0
  -26.2781  -15.6290   20.0838 H   0  0  0  0  0  0
  -26.7196  -32.5391   23.1052 H   0  0  0  0  0  0
  -25.0116  -33.9684   25.0414 H   0  0  0  0  0  0
  -22.7229  -31.2978   21.3908 H   0  0  0  0  0  0
  -23.3759  -35.9580   23.3298 H   0  0  0  0  0  0
  -24.3579  -36.8888   22.2061 H   0  0  0  0  0  0
  -23.7218  -37.6453   23.6670 H   0  0  0  0  0  0
  -26.1062  -31.5305   20.6035 H   0  0  0  0  0  0
  -26.8433  -30.8192   22.0078 H   0  0  0  0  0  0
  -28.1031  -28.9355   21.2197 H   0  0  0  0  0  0
  -25.9701  -25.8874   19.0239 H   0  0  0  0  0  0
  -23.9818  -27.2921   19.0015 H   0  0  0  0  0  0
  -23.7514  -30.5715   19.3942 H   0  0  0  0  0  0
  -22.7600  -29.2252   19.8612 H   0  0  0  0  0  0
  -25.1302  -36.1898   25.0820 H   0  0  0  0  0  0
  -20.9973  -28.3287   24.1398 H   0  0  0  0  0  0
  -20.5649  -26.2321   23.3638 H   0  0  0  0  0  0
  -21.6644  -26.7437   22.1233 H   0  0  0  0  0  0
  -19.6927  -25.6277   21.1268 H   0  0  0  0  0  0
  -19.6712  -27.3169   20.6739 H   0  0  0  0  0  0
  -17.4212  -26.6722   21.3969 H   0  0  0  0  0  0
  -18.0293  -26.0060   22.8964 H   0  0  0  0  0  0
  -19.7938  -30.7275   24.2266 H   0  0  0  0  0  0
  -17.5015  -31.6283   24.5154 H   0  0  0  0  0  0
  -15.5352  -30.2999   23.7665 H   0  0  0  0  0  0
  -15.8657  -28.0805   22.7128 H   0  0  0  0  0  0
  -24.5974  -30.6986   25.7775 H   0  0  0  0  0  0
  -24.8867  -32.2869   26.4779 H   0  0  0  0  0  0
  -25.8074  -30.8973   27.0238 H   0  0  0  0  0  0
  -26.2934  -29.6713   24.1239 H   0  0  0  0  0  0
  -27.4042  -29.7249   25.4720 H   0  0  0  0  0  0
  -27.8803  -30.4232   23.9423 H   0  0  0  0  0  0
  -27.2683  -33.3603   26.2050 H   0  0  0  0  0  0
  -28.3883  -32.6856   25.0312 H   0  0  0  0  0  0
  -28.0733  -31.8431   26.5400 H   0  0  0  0  0  0
  -28.2587  -38.0092   24.7529 H   0  0  0  0  0  0
  -28.1085  -36.2624   24.6249 H   0  0  0  0  0  0
  -27.2312  -37.1390   25.8869 H   0  0  0  0  0  0
  -20.9372  -29.8747   21.6841 H   0  0  0  0  0  0
  -26.0159  -38.2824   24.1438 H   0  0  0  0  0  0
  -30.3830  -17.2479   18.4556 H   0  0  0  0  0  0
  -30.2733  -23.7041   21.3292 H   0  0  0  0  0  0
  -28.9778  -23.9755   22.4722 H   0  0  0  0  0  0
  -28.3596  -21.6227   22.4736 H   0  0  0  0  0  0
  -30.1027  -21.5437   22.3689 H   0  0  0  0  0  0
  -26.6124  -22.6998   21.4489 H   0  0  0  0  0  0
  -26.1398  -23.7312   20.1121 H   0  0  0  0  0  0
  -26.6832  -24.4495   21.6102 H   0  0  0  0  0  0
  -29.7389  -23.2685   17.9384 H   0  0  0  0  0  0
  -30.2047  -21.6052   18.1444 H   0  0  0  0  0  0
  -30.8148  -22.8115   19.2556 H   0  0  0  0  0  0
  -27.2349  -22.6045   18.0168 H   0  0  0  0  0  0
  -26.6772  -21.4952   19.2633 H   0  0  0  0  0  0
  -27.8436  -20.9592   18.0721 H   0  0  0  0  0  0
  -27.9126  -25.0355   18.7004 H   0  0  0  0  0  0
  -29.5195  -25.0970   19.2654 H   0  0  0  0  0  0
  -29.0199  -15.4845   21.4801 H   0  0  0  0  0  0
  1 25  1  0  0  0
  1 30  2  0  0  0
  1 84  1  0  0  0
  2  3  1  0  0  0
  2 25  1  0  0  0
  2 86  1  0  0  0
  2 87  1  0  0  0
  3  4  1  0  0  0
  3 88  1  0  0  0
  3 89  1  0  0  0
  4  5  1  0  0  0
  4 90  1  0  0  0
  4 91  1  0  0  0
  5  6  1  0  0  0
  5 26  1  0  0  0
  5 92  1  0  0  0
  6 25  1  0  0  0
  6 93  1  0  0  0
  6 94  1  0  0  0
  7  8  2  0  0  0
  7 26  1  0  0  0
  7 29  1  0  0  0
  8  9  1  0  0  0
  8 22  1  0  0  0
  9 10  1  0  0  0
  9 27  2  0  0  0
 10 11  2  0  0  0
 10 15  1  0  0  0
 11 12  1  0  0  0
 11 95  1  0  0  0
 12 13  2  0  0  0
 12 96  1  0  0  0
 13 14  1  0  0  0
 13 31  1  0  0  0
 14 15  2  0  0  0
 14 97  1  0  0  0
 15 98  1  0  0  0
 16 17  2  0  0  0
 16 21  1  0  0  0
 16 31  1  0  0  0
 17 18  1  0  0  0
 17 99  1  0  0  0
 18 19  2  0  0  0
 18100  1  0  0  0
 19 20  1  0  0  0
 19 24  1  0  0  0
 20 21  2  0  0  0
 20101  1  0  0  0
 21 23  1  0  0  0
 22 28  1  0  0  0
 22 32  2  0  0  0
 26 27  1  0  0  0
 28102  1  0  0  0
 28103  1  0  0  0
 29104  1  0  0  0
 29105  1  0  0  0
 33 34  1  0  0  0
 33 66  1  0  0  0
 33 70  2  0  0  0
 34 36  1  0  0  0
 34 59  1  0  0  0
 34106  1  0  0  0
 35 44  2  0  0  0
 35 45  1  0  0  0
 35 68  1  0  0  0
 36 56  1  0  0  0
 36107  1  0  0  0
 37 39  1  0  0  0
 37 47  1  0  0  0
 37 66  1  0  0  0
 37108  1  0  0  0
 38 43  2  0  0  0
 38 46  1  0  0  0
 38 47  1  0  0  0
 39 64  1  0  0  0
 39 67  2  0  0  0
 40 52  1  0  0  0
 40 53  2  0  0  0
 40 58  1  0  0  0
 41109  1  0  0  0
 41110  1  0  0  0
 41111  1  0  0  0
 41 48  1  0  0  0
 42 43  1  0  0  0
 42 66  1  0  0  0
 42112  1  0  0  0
 42113  1  0  0  0
 43 44  1  0  0  0
 44114  1  0  0  0
 45 46  2  0  0  0
 45115  1  0  0  0
 46116  1  0  0  0
 47117  1  0  0  0
 47118  1  0  0  0
 48 56  1  0  0  0
 48 65  1  0  0  0
 48119  1  0  0  0
 49 50  1  0  0  0
 49 53  1  0  0  0
 49 64  1  0  0  0
 49120  1  0  0  0
 50 51  1  0  0  0
 50121  1  0  0  0
 50122  1  0  0  0
 51 52  1  0  0  0
 51123  1  0  0  0
 51124  1  0  0  0
 52125  1  0  0  0
 52126  1  0  0  0
 53 54  1  0  0  0
 54 55  2  0  0  0
 54127  1  0  0  0
 55 57  1  0  0  0
 55128  1  0  0  0
 56 69  2  0  0  0
 57 58  2  0  0  0
 57129  1  0  0  0
 58130  1  0  0  0
 59 60  1  0  0  0
 59 61  1  0  0  0
 59 62  1  0  0  0
 60131  1  0  0  0
 60132  1  0  0  0
 60133  1  0  0  0
 61134  1  0  0  0
 61135  1  0  0  0
 61136  1  0  0  0
 62137  1  0  0  0
 62138  1  0  0  0
 62139  1  0  0  0
 63 65  1  0  0  0
 63140  1  0  0  0
 63141  1  0  0  0
 63142  1  0  0  0
 64143  1  0  0  0
 65144  1  0  0  0
 68 81  1  0  0  0
 71 72  2  0  0  0
 71 82  1  0  0  0
 71145  1  0  0  0
 72 84  1  0  0  0
 72 85  1  0  0  0
 73 82  2  0  0  0
 73 83  1  0  0  0
 73 85  1  0  0  0
 74 75  1  0  0  0
 74 76  1  0  0  0
 74146  1  0  0  0
 74147  1  0  0  0
 75 83  1  0  0  0
 75148  1  0  0  0
 75149  1  0  0  0
 76 77  1  0  0  0
 76 78  1  0  0  0
 76 81  1  0  0  0
 77 79  1  0  0  0
 77 80  1  0  0  0
 77 83  1  0  0  0
 78150  1  0  0  0
 78151  1  0  0  0
 78152  1  0  0  0
 79153  1  0  0  0
 79154  1  0  0  0
 79155  1  0  0  0
 80156  1  0  0  0
 80157  1  0  0  0
 80158  1  0  0  0
 81159  1  0  0  0
 81160  1  0  0  0
 84161  1  0  0  0
M  ISO  4   1 100  68 101  81 101  84 100
M  END
> <chiral flag>
0

> <version>
0

> <s_m_source_file>
/data/baiqing/PycharmProjects/Reinvent-master-3.2/result/LINK_invent/BTK/process_docking_weight1_custom_product_contain_oxygen_bond_distance_aromatic_linkinvent_7_9_3/rearranged_h_0149.sdf

> <i_m_source_file_index>
83

> <r_mmod_Potential_Energy-OPLS-2005>
205.255615234375

> <r_mmod_Stretch_Energy-OPLS-2005>
114.910942077637

> <r_mmod_Bend_Energy-OPLS-2005>
212.584014892578

> <r_mmod_Torsional_Energy-OPLS-2005>
303.764465332031

> <r_mmod_Improper_Torsional_Energy-OPLS-2005>
3.65961599349976

> <r_mmod_Van_der_Waal_Energy-OPLS-2005>
114.455444335938

> <r_mmod_Electrostatic_Energy-OPLS-2005>
-404.661468505859

> <r_mmod_Solvation_Energy-OPLS-2005>
-214.938095092773

> <b_mmod_Minimization_Converged-OPLS-2005>
0

> <r_mmod_RMS_Derivative-OPLS-2005>
1.88076174259186

$$$$
83
                    3D
 Structure written by MMmdl.
158167  0  0  1  0            999 V2000
  -30.6347  -14.6394   20.4628 C   0  0  0  0  0  0
  -30.4256  -12.3870   19.4456 C   0  0  0  0  0  0
  -29.4961  -12.4938   18.2175 C   0  0  0  0  0  0
  -28.0211  -12.3317   18.6355 C   0  0  0  0  0  0
  -27.6425  -13.2105   19.8580 C   0  0  2  0  0  0
  -28.6926  -13.1074   20.9852 C   0  0  0  0  0  0
  -25.2538  -13.8149   20.5719 C   0  0  0  0  0  0
  -24.1797  -13.0422   20.9197 C   0  0  0  0  0  0
  -24.6360  -11.6892   20.8747 C   0  0  0  0  0  0
  -23.9027  -10.4282   21.0407 C   0  0  0  0  0  0
  -24.3590   -9.4204   21.9185 C   0  0  0  0  0  0
  -23.6278   -8.2234   22.0751 C   0  0  0  0  0  0
  -22.4265   -8.0267   21.3539 C   0  0  0  0  0  0
  -21.9891   -9.0236   20.4645 C   0  0  0  0  0  0
  -22.7200  -10.2124   20.3056 C   0  0  0  0  0  0
  -21.6848   -6.0727   22.5275 C   0  0  0  0  0  0
  -21.4006   -6.5633   23.8206 C   0  0  0  0  0  0
  -21.3664   -5.6789   24.9171 C   0  0  0  0  0  0
  -21.6049   -4.3052   24.7223 C   0  0  0  0  0  0
  -21.8823   -3.8138   23.4345 C   0  0  0  0  0  0
  -21.9194   -4.6955   22.3401 C   0  0  0  0  0  0
  -22.7828  -13.5230   21.1858 C   0  0  0  0  0  0
  -22.1663   -4.2144   21.0979 F   0  0  0  0  0  0
  -21.5635   -3.4536   25.7735 F   0  0  0  0  0  0
  -29.9995  -13.4282   20.3993 N   0  0  0  0  0  0
  -26.2941  -12.9308   20.3345 N   0  0  0  0  0  0
  -25.9287  -11.6472   20.5779 N   0  0  0  0  0  0
  -22.0472  -12.8226   22.0418 N   0  0  0  0  0  0
  -25.4278  -15.1875   20.4173 N   0  0  0  0  0  0
  -31.8358  -14.7450   20.1937 O   0  0  0  0  0  0
  -21.6637   -6.8862   21.4233 O   0  0  0  0  0  0
  -22.3523  -14.5540   20.6709 O   0  0  0  0  0  0
  -24.6221  -31.8607   23.2031 C   0  0  0  0  0  0
  -25.9080  -32.4784   23.8354 C   0  0  1  0  0  0
  -27.2232  -27.3440   20.1296 C   0  0  0  0  0  0
  -25.5906  -33.8585   24.2284 N   0  0  0  0  0  0
  -23.4154  -30.4829   21.5436 C   0  0  2  0  0  0
  -24.8632  -28.9351   20.1125 C   0  0  0  0  0  0
  -22.7455  -29.4625   22.4939 C   0  0  0  0  0  0
  -18.0282  -28.1380   22.8490 C   0  0  0  0  0  0
  -24.1488  -36.7294   23.2644 C   0  0  0  0  0  0
  -25.9517  -30.8001   21.3696 C   0  0  0  0  0  0
  -26.0273  -29.4270   20.7176 C   0  0  0  0  0  0
  -27.2132  -28.6420   20.7158 C   0  0  0  0  0  0
  -26.0475  -26.8938   19.4971 C   0  0  0  0  0  0
  -24.8730  -27.6724   19.4938 C   0  0  0  0  0  0
  -23.6299  -29.8129   20.1596 C   0  0  0  0  0  0
  -25.4113  -36.3089   24.0335 C   0  0  1  0  0  0
  -20.5881  -28.3678   23.1291 C   0  0  2  0  0  0
  -20.6771  -26.9404   22.5412 C   0  0  0  0  0  0
  -19.5747  -26.6382   21.5213 C   0  0  0  0  0  0
  -18.1928  -26.7925   22.1624 C   0  0  0  0  0  0
  -19.1535  -28.8844   23.2888 C   0  0  0  0  0  0
  -18.9464  -30.1450   23.8902 C   0  0  0  0  0  0
  -17.6466  -30.6587   24.0566 C   0  0  0  0  0  0
  -25.9044  -34.9456   23.5111 C   0  0  0  0  0  0
  -16.5355  -29.9090   23.6330 C   0  0  0  0  0  0
  -16.7270  -28.6504   23.0353 C   0  0  0  0  0  0
  -26.4477  -31.6587   25.0712 C   0  0  0  0  0  0
  -25.3723  -31.3720   26.1448 C   0  0  0  0  0  0
  -27.0321  -30.3021   24.6139 C   0  0  0  0  0  0
  -27.6047  -32.4317   25.7478 C   0  0  0  0  0  0
  -27.5579  -37.1805   24.8469 C   0  0  0  0  0  0
  -21.4172  -29.3034   22.3683 N   0  0  0  0  0  0
  -26.4295  -37.3778   23.9407 N   0  0  0  0  0  0
  -24.6817  -31.0644   22.0965 N   0  0  0  0  0  0
  -23.4189  -28.8180   23.3021 O   0  0  0  0  0  0
  -28.3524  -26.5244   20.1340 O   0  0  0  0  0  0
  -26.5616  -34.8924   22.4682 O   0  0  0  0  0  0
  -23.5392  -32.1392   23.7379 O   0  0  0  0  0  0
  -29.0198  -19.1701   18.9426 C   0  0  0  0  0  0
  -29.3486  -17.8987   19.5088 C   0  0  0  0  0  0
  -29.6017  -18.1108   20.7892 C   0  0  0  0  0  0
  -29.0997  -20.0795   19.9840 C   0  0  0  0  0  0
  -28.7658  -22.4943   20.6377 C   0  0  0  0  0  0
  -29.5035  -16.4353   19.1866 C   0  0  0  0  0  0
  -29.9620  -16.8547   21.5307 C   0  0  0  0  0  0
  -29.7006  -25.4575   21.6931 C   0  0  0  0  0  0
  -27.2255  -25.1557   21.9207 C   0  0  0  0  0  0
  -28.4908  -23.9298   20.0078 C   0  0  0  0  0  0
  -28.3927  -25.2560   20.9048 C   0  0  0  0  0  0
  -29.8331  -15.7581   20.4948 N   0  0  0  0  0  0
  -28.8579  -21.4298   19.7886 N   0  0  0  0  0  0
  -28.8820  -22.3532   21.8568 O   0  0  0  0  0  0
  -29.4654  -19.4361   21.1727 O   0  0  0  0  0  0
  -31.4676  -12.5033   19.1411 H   0  0  0  0  0  0
  -30.3524  -11.3989   19.9028 H   0  0  0  0  0  0
  -29.7589  -11.7367   17.4777 H   0  0  0  0  0  0
  -29.6354  -13.4595   17.7284 H   0  0  0  0  0  0
  -27.8623  -11.2798   18.8753 H   0  0  0  0  0  0
  -27.3632  -12.5515   17.7938 H   0  0  0  0  0  0
  -27.6379  -14.2357   19.4999 H   0  0  0  0  0  0
  -28.7070  -12.1053   21.4169 H   0  0  0  0  0  0
  -28.4513  -13.7921   21.7999 H   0  0  0  0  0  0
  -25.2734   -9.5696   22.4762 H   0  0  0  0  0  0
  -23.9997   -7.4631   22.7472 H   0  0  0  0  0  0
  -21.0824   -8.8736   19.8955 H   0  0  0  0  0  0
  -22.3639  -10.9661   19.6170 H   0  0  0  0  0  0
  -21.1983   -7.6140   23.9702 H   0  0  0  0  0  0
  -21.1488   -6.0522   25.9074 H   0  0  0  0  0  0
  -22.0600   -2.7600   23.2843 H   0  0  0  0  0  0
  -22.4066  -11.9868   22.4792 H   0  0  0  0  0  0
  -21.1097  -13.1268   22.2632 H   0  0  0  0  0  0
  -24.6677  -15.8471   20.5399 H   0  0  0  0  0  0
  -26.2953  -15.6304   20.1420 H   0  0  0  0  0  0
  -26.7147  -32.5468   23.1104 H   0  0  0  0  0  0
  -25.0050  -33.9735   25.0427 H   0  0  0  0  0  0
  -22.7084  -31.3025   21.3991 H   0  0  0  0  0  0
  -23.3750  -35.9630   23.3318 H   0  0  0  0  0  0
  -24.3577  -36.8896   22.2056 H   0  0  0  0  0  0
  -23.7245  -37.6505   23.6649 H   0  0  0  0  0  0
  -26.0774  -31.5622   20.5992 H   0  0  0  0  0  0
  -26.8352  -30.8522   21.9946 H   0  0  0  0  0  0
  -28.1110  -29.0145   21.1900 H   0  0  0  0  0  0
  -26.0364  -25.9233   19.0221 H   0  0  0  0  0  0
  -23.9807  -27.2909   19.0169 H   0  0  0  0  0  0
  -23.7482  -30.5872   19.4007 H   0  0  0  0  0  0
  -22.7513  -29.2394   19.8587 H   0  0  0  0  0  0
  -25.1295  -36.1945   25.0829 H   0  0  0  0  0  0
  -20.9977  -28.3250   24.1410 H   0  0  0  0  0  0
  -20.5670  -26.2289   23.3610 H   0  0  0  0  0  0
  -21.6642  -26.7434   22.1207 H   0  0  0  0  0  0
  -19.6911  -25.6295   21.1237 H   0  0  0  0  0  0
  -19.6688  -27.3201   20.6751 H   0  0  0  0  0  0
  -17.4198  -26.6676   21.4023 H   0  0  0  0  0  0
  -18.0325  -26.0063   22.9015 H   0  0  0  0  0  0
  -19.7942  -30.7261   24.2271 H   0  0  0  0  0  0
  -17.5025  -31.6270   24.5165 H   0  0  0  0  0  0
  -15.5357  -30.2999   23.7651 H   0  0  0  0  0  0
  -15.8667  -28.0831   22.7063 H   0  0  0  0  0  0
  -24.5897  -30.7064   25.7780 H   0  0  0  0  0  0
  -24.8913  -32.2885   26.4875 H   0  0  0  0  0  0
  -25.8055  -30.8898   27.0219 H   0  0  0  0  0  0
  -26.2886  -29.6774   24.1169 H   0  0  0  0  0  0
  -27.4048  -29.7264   25.4621 H   0  0  0  0  0  0
  -27.8737  -30.4326   23.9333 H   0  0  0  0  0  0
  -27.2661  -33.3615   26.2060 H   0  0  0  0  0  0
  -28.3851  -32.6875   25.0300 H   0  0  0  0  0  0
  -28.0715  -31.8436   26.5388 H   0  0  0  0  0  0
  -28.2607  -38.0092   24.7500 H   0  0  0  0  0  0
  -28.1062  -36.2623   24.6310 H   0  0  0  0  0  0
  -27.2293  -37.1475   25.8872 H   0  0  0  0  0  0
  -20.9342  -29.8753   21.6897 H   0  0  0  0  0  0
  -26.0179  -38.2856   24.1401 H   0  0  0  0  0  0
  -28.7565  -19.3868   17.9160 H   0  0  0  0  0  0
  -30.2984  -16.3013   18.4505 H   0  0  0  0  0  0
  -28.5791  -16.0561   18.7551 H   0  0  0  0  0  0
  -29.2762  -16.6751   22.3589 H   0  0  0  0  0  0
  -30.9768  -16.9115   21.9275 H   0  0  0  0  0  0
  -29.8768  -24.6615   22.4160 H   0  0  0  0  0  0
  -29.6842  -26.3943   22.2512 H   0  0  0  0  0  0
  -30.5618  -25.4916   21.0255 H   0  0  0  0  0  0
  -27.3632  -24.3276   22.6149 H   0  0  0  0  0  0
  -26.2675  -24.9917   21.4275 H   0  0  0  0  0  0
  -27.1383  -26.0574   22.5289 H   0  0  0  0  0  0
  -27.5721  -23.8470   19.4273 H   0  0  0  0  0  0
  -29.2785  -24.0915   19.2713 H   0  0  0  0  0  0
  -28.7087  -21.6794   18.8210 H   0  0  0  0  0  0
  1 25  1  0  0  0
  1 30  2  0  0  0
  1 82  1  0  0  0
  2  3  1  0  0  0
  2 25  1  0  0  0
  2 86  1  0  0  0
  2 87  1  0  0  0
  3  4  1  0  0  0
  3 88  1  0  0  0
  3 89  1  0  0  0
  4  5  1  0  0  0
  4 90  1  0  0  0
  4 91  1  0  0  0
  5  6  1  0  0  0
  5 26  1  0  0  0
  5 92  1  0  0  0
  6 25  1  0  0  0
  6 93  1  0  0  0
  6 94  1  0  0  0
  7  8  2  0  0  0
  7 26  1  0  0  0
  7 29  1  0  0  0
  8  9  1  0  0  0
  8 22  1  0  0  0
  9 10  1  0  0  0
  9 27  2  0  0  0
 10 11  2  0  0  0
 10 15  1  0  0  0
 11 12  1  0  0  0
 11 95  1  0  0  0
 12 13  2  0  0  0
 12 96  1  0  0  0
 13 14  1  0  0  0
 13 31  1  0  0  0
 14 15  2  0  0  0
 14 97  1  0  0  0
 15 98  1  0  0  0
 16 17  2  0  0  0
 16 21  1  0  0  0
 16 31  1  0  0  0
 17 18  1  0  0  0
 17 99  1  0  0  0
 18 19  2  0  0  0
 18100  1  0  0  0
 19 20  1  0  0  0
 19 24  1  0  0  0
 20 21  2  0  0  0
 20101  1  0  0  0
 21 23  1  0  0  0
 22 28  1  0  0  0
 22 32  2  0  0  0
 26 27  1  0  0  0
 28102  1  0  0  0
 28103  1  0  0  0
 29104  1  0  0  0
 29105  1  0  0  0
 33 34  1  0  0  0
 33 66  1  0  0  0
 33 70  2  0  0  0
 34 36  1  0  0  0
 34 59  1  0  0  0
 34106  1  0  0  0
 35 44  2  0  0  0
 35 45  1  0  0  0
 35 68  1  0  0  0
 36 56  1  0  0  0
 36107  1  0  0  0
 37 39  1  0  0  0
 37 47  1  0  0  0
 37 66  1  0  0  0
 37108  1  0  0  0
 38 43  2  0  0  0
 38 46  1  0  0  0
 38 47  1  0  0  0
 39 64  1  0  0  0
 39 67  2  0  0  0
 40 52  1  0  0  0
 40 53  2  0  0  0
 40 58  1  0  0  0
 41109  1  0  0  0
 41110  1  0  0  0
 41111  1  0  0  0
 41 48  1  0  0  0
 42 43  1  0  0  0
 42 66  1  0  0  0
 42112  1  0  0  0
 42113  1  0  0  0
 43 44  1  0  0  0
 44114  1  0  0  0
 45 46  2  0  0  0
 45115  1  0  0  0
 46116  1  0  0  0
 47117  1  0  0  0
 47118  1  0  0  0
 48 56  1  0  0  0
 48 65  1  0  0  0
 48119  1  0  0  0
 49 50  1  0  0  0
 49 53  1  0  0  0
 49 64  1  0  0  0
 49120  1  0  0  0
 50 51  1  0  0  0
 50121  1  0  0  0
 50122  1  0  0  0
 51 52  1  0  0  0
 51123  1  0  0  0
 51124  1  0  0  0
 52125  1  0  0  0
 52126  1  0  0  0
 53 54  1  0  0  0
 54 55  2  0  0  0
 54127  1  0  0  0
 55 57  1  0  0  0
 55128  1  0  0  0
 56 69  2  0  0  0
 57 58  2  0  0  0
 57129  1  0  0  0
 58130  1  0  0  0
 59 60  1  0  0  0
 59 61  1  0  0  0
 59 62  1  0  0  0
 60131  1  0  0  0
 60132  1  0  0  0
 60133  1  0  0  0
 61134  1  0  0  0
 61135  1  0  0  0
 61136  1  0  0  0
 62137  1  0  0  0
 62138  1  0  0  0
 62139  1  0  0  0
 63 65  1  0  0  0
 63140  1  0  0  0
 63141  1  0  0  0
 63142  1  0  0  0
 64143  1  0  0  0
 65144  1  0  0  0
 68 81  1  0  0  0
 71 72  1  0  0  0
 71 74  2  0  0  0
 71145  1  0  0  0
 72 73  2  0  0  0
 72 76  1  0  0  0
 73 77  1  0  0  0
 73 85  1  0  0  0
 74 83  1  0  0  0
 74 85  1  0  0  0
 75 80  1  0  0  0
 75 83  1  0  0  0
 75 84  2  0  0  0
 76 82  1  0  0  0
 76146  1  0  0  0
 76147  1  0  0  0
 77 82  1  0  0  0
 77148  1  0  0  0
 77149  1  0  0  0
 78150  1  0  0  0
 78151  1  0  0  0
 78152  1  0  0  0
 78 81  1  0  0  0
 79 81  1  0  0  0
 79153  1  0  0  0
 79154  1  0  0  0
 79155  1  0  0  0
 80 81  1  0  0  0
 80156  1  0  0  0
 80157  1  0  0  0
 83158  1  0  0  0
M  ISO  4   1 100  68 101  81 101  82 100
M  END
> <chiral flag>
0

> <version>
0

> <s_m_source_file>
/data/baiqing/PycharmProjects/Reinvent-master-3.2/result/LINK_invent/BTK/process_docking_weight1_custom_product_contain_oxygen_bond_distance_aromatic_linkinvent_7_9_3/rearranged_h_0149.sdf

> <i_m_source_file_index>
84

> <r_mmod_Potential_Energy-OPLS-2005>
200.787872314453

> <r_mmod_Stretch_Energy-OPLS-2005>
83.5432052612305

> <r_mmod_Bend_Energy-OPLS-2005>
261.178070068359

> <r_mmod_Torsional_Energy-OPLS-2005>
277.606597900391

> <r_mmod_Improper_Torsional_Energy-OPLS-2005>
12.1425895690918

> <r_mmod_Van_der_Waal_Energy-OPLS-2005>
111.731834411621

> <r_mmod_Electrostatic_Energy-OPLS-2005>
-365.368347167969

> <r_mmod_Solvation_Energy-OPLS-2005>
-226.17741394043

> <b_mmod_Minimization_Converged-OPLS-2005>
0

> <r_mmod_RMS_Derivative-OPLS-2005>
0.995708763599396

$$$$
84
                    3D
 Structure written by MMmdl.
154163  0  0  1  0            999 V2000
  -30.6262  -14.6831   20.4506 C   0  0  0  0  0  0
  -30.4393  -12.4106   19.4492 C   0  0  0  0  0  0
  -29.5095  -12.5042   18.2183 C   0  0  0  0  0  0
  -28.0316  -12.3460   18.6316 C   0  0  0  0  0  0
  -27.6511  -13.2242   19.8529 C   0  0  2  0  0  0
  -28.7008  -13.1063   20.9802 C   0  0  0  0  0  0
  -25.2565  -13.8173   20.5662 C   0  0  0  0  0  0
  -24.1824  -13.0446   20.9205 C   0  0  0  0  0  0
  -24.6388  -11.6914   20.8740 C   0  0  0  0  0  0
  -23.9046  -10.4306   21.0423 C   0  0  0  0  0  0
  -24.3604   -9.4231   21.9215 C   0  0  0  0  0  0
  -23.6295   -8.2247   22.0765 C   0  0  0  0  0  0
  -22.4268   -8.0288   21.3556 C   0  0  0  0  0  0
  -21.9898   -9.0270   20.4665 C   0  0  0  0  0  0
  -22.7209  -10.2162   20.3084 C   0  0  0  0  0  0
  -21.6860   -6.0740   22.5287 C   0  0  0  0  0  0
  -21.4008   -6.5647   23.8222 C   0  0  0  0  0  0
  -21.3649   -5.6792   24.9185 C   0  0  0  0  0  0
  -21.6042   -4.3056   24.7222 C   0  0  0  0  0  0
  -21.8828   -3.8150   23.4339 C   0  0  0  0  0  0
  -21.9188   -4.6965   22.3397 C   0  0  0  0  0  0
  -22.7847  -13.5276   21.1859 C   0  0  0  0  0  0
  -22.1675   -4.2159   21.0975 F   0  0  0  0  0  0
  -21.5619   -3.4529   25.7726 F   0  0  0  0  0  0
  -30.0110  -13.4528   20.4066 N   0  0  0  0  0  0
  -26.2986  -12.9356   20.3254 N   0  0  0  0  0  0
  -25.9315  -11.6506   20.5707 N   0  0  0  0  0  0
  -22.0450  -12.8308   22.0407 N   0  0  0  0  0  0
  -25.4275  -15.1887   20.4027 N   0  0  0  0  0  0
  -31.8088  -14.7969   20.1179 O   0  0  0  0  0  0
  -21.6635   -6.8884   21.4248 O   0  0  0  0  0  0
  -22.3564  -14.5588   20.6707 O   0  0  0  0  0  0
  -24.6283  -31.8582   23.1989 C   0  0  0  0  0  0
  -25.9111  -32.4766   23.8329 C   0  0  1  0  0  0
  -27.2440  -27.2960   20.0949 C   0  0  0  0  0  0
  -25.5900  -33.8569   24.2238 N   0  0  0  0  0  0
  -23.4253  -30.4786   21.5434 C   0  0  2  0  0  0
  -24.8746  -28.9265   20.1127 C   0  0  0  0  0  0
  -22.7499  -29.4601   22.4941 C   0  0  0  0  0  0
  -18.0282  -28.1401   22.8489 C   0  0  0  0  0  0
  -24.1474  -36.7263   23.2651 C   0  0  0  0  0  0
  -25.9718  -30.7709   21.3844 C   0  0  0  0  0  0
  -26.0441  -29.3976   20.7212 C   0  0  0  0  0  0
  -27.2250  -28.5915   20.7084 C   0  0  0  0  0  0
  -26.0468  -26.8919   19.4543 C   0  0  0  0  0  0
  -24.8782  -27.6765   19.4774 C   0  0  0  0  0  0
  -23.6432  -29.8093   20.1606 C   0  0  0  0  0  0
  -25.4110  -36.3082   24.0338 C   0  0  1  0  0  0
  -20.5891  -28.3694   23.1281 C   0  0  2  0  0  0
  -20.6759  -26.9415   22.5415 C   0  0  0  0  0  0
  -19.5733  -26.6385   21.5221 C   0  0  0  0  0  0
  -18.1920  -26.7938   22.1639 C   0  0  0  0  0  0
  -19.1548  -28.8863   23.2873 C   0  0  0  0  0  0
  -18.9474  -30.1467   23.8893 C   0  0  0  0  0  0
  -17.6481  -30.6600   24.0570 C   0  0  0  0  0  0
  -25.9053  -34.9448   23.5097 C   0  0  0  0  0  0
  -16.5363  -29.9112   23.6335 C   0  0  0  0  0  0
  -16.7277  -28.6523   23.0363 C   0  0  0  0  0  0
  -26.4470  -31.6615   25.0738 C   0  0  0  0  0  0
  -25.3677  -31.3840   26.1463 C   0  0  0  0  0  0
  -27.0324  -30.3009   24.6291 C   0  0  0  0  0  0
  -27.6039  -32.4376   25.7472 C   0  0  0  0  0  0
  -27.5576  -37.1778   24.8481 C   0  0  0  0  0  0
  -21.4208  -29.3036   22.3665 N   0  0  0  0  0  0
  -26.4291  -37.3774   23.9420 N   0  0  0  0  0  0
  -24.6932  -31.0537   22.0966 N   0  0  0  0  0  0
  -23.4197  -28.8170   23.3056 O   0  0  0  0  0  0
  -28.3780  -26.4502   20.1480 O   0  0  0  0  0  0
  -26.5661  -34.8933   22.4690 O   0  0  0  0  0  0
  -23.5427  -32.1414   23.7269 O   0  0  0  0  0  0
  -28.9329  -19.4816   20.7284 C   0  0  0  0  0  0
  -28.9036  -18.0636   20.9115 C   0  0  0  0  0  0
  -31.0297  -19.1942   19.6702 C   0  0  0  0  0  0
  -30.0203  -20.1121   20.0790 C   0  0  0  0  0  0
  -29.9649  -17.2190   20.4794 C   0  0  0  0  0  0
  -30.6873  -23.9176   20.3767 C   0  0  0  0  0  0
  -30.1217  -21.6761   19.7517 C   0  0  2  0  0  0
  -29.1550  -23.8359   20.3713 C   0  0  1  0  0  0
  -28.3226  -25.0285   19.6803 C   0  0  0  0  0  0
  -31.0099  -17.8335   19.8615 N   0  0  0  0  0  0
  -29.8197  -15.7701   20.7046 N   0  0  0  0  0  0
  -31.1109  -22.5290   20.6352 N   0  3  0  0  0  0
  -28.9141  -22.4514   19.8846 O   0  0  0  0  0  0
  -31.4802  -12.5321   19.1436 H   0  0  0  0  0  0
  -30.3729  -11.4206   19.9027 H   0  0  0  0  0  0
  -29.7776  -11.7409   17.4864 H   0  0  0  0  0  0
  -29.6502  -13.4656   17.7225 H   0  0  0  0  0  0
  -27.8606  -11.2954   18.8640 H   0  0  0  0  0  0
  -27.3801  -12.5774   17.7882 H   0  0  0  0  0  0
  -27.6623  -14.2536   19.4967 H   0  0  0  0  0  0
  -28.7197  -12.0904   21.3778 H   0  0  0  0  0  0
  -28.4440  -13.7522   21.8203 H   0  0  0  0  0  0
  -25.2745   -9.5727   22.4797 H   0  0  0  0  0  0
  -24.0019   -7.4632   22.7477 H   0  0  0  0  0  0
  -21.0823   -8.8784   19.8986 H   0  0  0  0  0  0
  -22.3654  -10.9704   19.6202 H   0  0  0  0  0  0
  -21.2016   -7.6155   23.9729 H   0  0  0  0  0  0
  -21.1458   -6.0518   25.9094 H   0  0  0  0  0  0
  -22.0612   -2.7606   23.2815 H   0  0  0  0  0  0
  -22.4002  -11.9971   22.4826 H   0  0  0  0  0  0
  -21.1103  -13.1461   22.2602 H   0  0  0  0  0  0
  -24.6533  -15.8353   20.5047 H   0  0  0  0  0  0
  -26.2298  -15.6076   19.9497 H   0  0  0  0  0  0
  -26.7186  -32.5403   23.1083 H   0  0  0  0  0  0
  -24.9968  -33.9689   25.0326 H   0  0  0  0  0  0
  -22.7194  -31.2990   21.3959 H   0  0  0  0  0  0
  -23.3747  -35.9592   23.3374 H   0  0  0  0  0  0
  -24.3537  -36.8814   22.2050 H   0  0  0  0  0  0
  -23.7212  -37.6476   23.6629 H   0  0  0  0  0  0
  -26.1237  -31.5359   20.6215 H   0  0  0  0  0  0
  -26.8426  -30.8052   22.0282 H   0  0  0  0  0  0
  -28.1191  -28.9512   21.1985 H   0  0  0  0  0  0
  -25.9728  -25.9585   18.9201 H   0  0  0  0  0  0
  -23.9835  -27.3081   18.9943 H   0  0  0  0  0  0
  -23.7655  -30.5833   19.4023 H   0  0  0  0  0  0
  -22.7628  -29.2402   19.8570 H   0  0  0  0  0  0
  -25.1292  -36.1938   25.0830 H   0  0  0  0  0  0
  -20.9980  -28.3277   24.1408 H   0  0  0  0  0  0
  -20.5644  -26.2328   23.3629 H   0  0  0  0  0  0
  -21.6631  -26.7422   22.1228 H   0  0  0  0  0  0
  -19.6886  -25.6292   21.1261 H   0  0  0  0  0  0
  -19.6664  -27.3197   20.6752 H   0  0  0  0  0  0
  -17.4182  -26.6694   21.4047 H   0  0  0  0  0  0
  -18.0313  -26.0086   22.9042 H   0  0  0  0  0  0
  -19.7959  -30.7274   24.2259 H   0  0  0  0  0  0
  -17.5047  -31.6280   24.5187 H   0  0  0  0  0  0
  -15.5368  -30.3031   23.7639 H   0  0  0  0  0  0
  -15.8678  -28.0844   22.7090 H   0  0  0  0  0  0
  -24.5727  -30.7355   25.7765 H   0  0  0  0  0  0
  -24.9024  -32.3067   26.4940 H   0  0  0  0  0  0
  -25.7918  -30.8901   27.0212 H   0  0  0  0  0  0
  -26.2931  -29.6741   24.1288 H   0  0  0  0  0  0
  -27.3937  -29.7301   25.4859 H   0  0  0  0  0  0
  -27.8848  -30.4255   23.9610 H   0  0  0  0  0  0
  -27.2639  -33.3666   26.2067 H   0  0  0  0  0  0
  -28.3797  -32.6966   25.0255 H   0  0  0  0  0  0
  -28.0783  -31.8513   26.5350 H   0  0  0  0  0  0
  -28.2648  -38.0024   24.7487 H   0  0  0  0  0  0
  -28.1010  -36.2550   24.6363 H   0  0  0  0  0  0
  -27.2293  -37.1517   25.8887 H   0  0  0  0  0  0
  -20.9417  -29.8744   21.6844 H   0  0  0  0  0  0
  -26.0186  -38.2861   24.1400 H   0  0  0  0  0  0
  -28.1080  -20.0854   21.0715 H   0  0  0  0  0  0
  -28.0313  -17.6343   21.3854 H   0  0  0  0  0  0
  -31.8977  -19.5567   19.1380 H   0  0  0  0  0  0
  -31.0765  -24.6164   21.1165 H   0  0  0  0  0  0
  -31.0560  -24.2251   19.3980 H   0  0  0  0  0  0
  -30.4756  -21.8092   18.7244 H   0  0  0  0  0  0
  -28.8464  -23.8169   21.4161 H   0  0  0  0  0  0
  -27.3051  -24.6666   19.7883 H   0  0  0  0  0  0
  -28.5227  -25.0283   18.6084 H   0  0  0  0  0  0
  -28.9033  -15.5002   21.0242 H   0  0  0  0  0  0
  -30.9874  -22.3174   21.6116 H   0  0  0  0  0  0
  -32.0789  -22.3763   20.3998 H   0  0  0  0  0  0
  1 25  1  0  0  0
  1 30  2  0  0  0
  1 81  1  0  0  0
  2  3  1  0  0  0
  2 25  1  0  0  0
  2 84  1  0  0  0
  2 85  1  0  0  0
  3  4  1  0  0  0
  3 86  1  0  0  0
  3 87  1  0  0  0
  4  5  1  0  0  0
  4 88  1  0  0  0
  4 89  1  0  0  0
  5  6  1  0  0  0
  5 26  1  0  0  0
  5 90  1  0  0  0
  6 25  1  0  0  0
  6 91  1  0  0  0
  6 92  1  0  0  0
  7  8  2  0  0  0
  7 26  1  0  0  0
  7 29  1  0  0  0
  8  9  1  0  0  0
  8 22  1  0  0  0
  9 10  1  0  0  0
  9 27  2  0  0  0
 10 11  2  0  0  0
 10 15  1  0  0  0
 11 12  1  0  0  0
 11 93  1  0  0  0
 12 13  2  0  0  0
 12 94  1  0  0  0
 13 14  1  0  0  0
 13 31  1  0  0  0
 14 15  2  0  0  0
 14 95  1  0  0  0
 15 96  1  0  0  0
 16 17  2  0  0  0
 16 21  1  0  0  0
 16 31  1  0  0  0
 17 18  1  0  0  0
 17 97  1  0  0  0
 18 19  2  0  0  0
 18 98  1  0  0  0
 19 20  1  0  0  0
 19 24  1  0  0  0
 20 21  2  0  0  0
 20 99  1  0  0  0
 21 23  1  0  0  0
 22 28  1  0  0  0
 22 32  2  0  0  0
 26 27  1  0  0  0
 28100  1  0  0  0
 28101  1  0  0  0
 29102  1  0  0  0
 29103  1  0  0  0
 33 34  1  0  0  0
 33 66  1  0  0  0
 33 70  2  0  0  0
 34 36  1  0  0  0
 34 59  1  0  0  0
 34104  1  0  0  0
 35 44  2  0  0  0
 35 45  1  0  0  0
 35 68  1  0  0  0
 36 56  1  0  0  0
 36105  1  0  0  0
 37 39  1  0  0  0
 37 47  1  0  0  0
 37 66  1  0  0  0
 37106  1  0  0  0
 38 43  2  0  0  0
 38 46  1  0  0  0
 38 47  1  0  0  0
 39 64  1  0  0  0
 39 67  2  0  0  0
 40 52  1  0  0  0
 40 53  2  0  0  0
 40 58  1  0  0  0
 41107  1  0  0  0
 41108  1  0  0  0
 41109  1  0  0  0
 41 48  1  0  0  0
 42 43  1  0  0  0
 42 66  1  0  0  0
 42110  1  0  0  0
 42111  1  0  0  0
 43 44  1  0  0  0
 44112  1  0  0  0
 45 46  2  0  0  0
 45113  1  0  0  0
 46114  1  0  0  0
 47115  1  0  0  0
 47116  1  0  0  0
 48 56  1  0  0  0
 48 65  1  0  0  0
 48117  1  0  0  0
 49 50  1  0  0  0
 49 53  1  0  0  0
 49 64  1  0  0  0
 49118  1  0  0  0
 50 51  1  0  0  0
 50119  1  0  0  0
 50120  1  0  0  0
 51 52  1  0  0  0
 51121  1  0  0  0
 51122  1  0  0  0
 52123  1  0  0  0
 52124  1  0  0  0
 53 54  1  0  0  0
 54 55  2  0  0  0
 54125  1  0  0  0
 55 57  1  0  0  0
 55126  1  0  0  0
 56 69  2  0  0  0
 57 58  2  0  0  0
 57127  1  0  0  0
 58128  1  0  0  0
 59 60  1  0  0  0
 59 61  1  0  0  0
 59 62  1  0  0  0
 60129  1  0  0  0
 60130  1  0  0  0
 60131  1  0  0  0
 61132  1  0  0  0
 61133  1  0  0  0
 61134  1  0  0  0
 62135  1  0  0  0
 62136  1  0  0  0
 62137  1  0  0  0
 63 65  1  0  0  0
 63138  1  0  0  0
 63139  1  0  0  0
 63140  1  0  0  0
 64141  1  0  0  0
 65142  1  0  0  0
 68 79  1  0  0  0
 71 72  2  0  0  0
 71 74  1  0  0  0
 71143  1  0  0  0
 72 75  1  0  0  0
 72144  1  0  0  0
 73 74  2  0  0  0
 73 80  1  0  0  0
 73145  1  0  0  0
 74 77  1  0  0  0
 75 80  2  0  0  0
 75 81  1  0  0  0
 76 78  1  0  0  0
 76 82  1  0  0  0
 76146  1  0  0  0
 76147  1  0  0  0
 77 82  1  0  0  0
 77 83  1  0  0  0
 77148  1  0  0  0
 78 79  1  0  0  0
 78 83  1  0  0  0
 78149  1  0  0  0
 79150  1  0  0  0
 79151  1  0  0  0
 81152  1  0  0  0
 82153  1  0  0  0
 82154  1  0  0  0
M  CHG  1  82   1
M  ISO  4   1 100  68 101  79 101  81 100
M  END
> <chiral flag>
0

> <version>
0

> <s_m_source_file>
/data/baiqing/PycharmProjects/Reinvent-master-3.2/result/LINK_invent/BTK/process_docking_weight1_custom_product_contain_oxygen_bond_distance_aromatic_linkinvent_7_9_3/rearranged_h_0149.sdf

> <i_m_source_file_index>
85

> <r_mmod_Potential_Energy-OPLS-2005>
-178.745178222656

> <r_mmod_Stretch_Energy-OPLS-2005>
102.58765411377

> <r_mmod_Bend_Energy-OPLS-2005>
188.279006958008

> <r_mmod_Torsional_Energy-OPLS-2005>
228.610763549805

> <r_mmod_Improper_Torsional_Energy-OPLS-2005>
4.76640272140503

> <r_mmod_Van_der_Waal_Energy-OPLS-2005>
140.361618041992

> <r_mmod_Electrostatic_Energy-OPLS-2005>
-393.335723876953

> <r_mmod_Solvation_Energy-OPLS-2005>
-510.793060302734

> <b_mmod_Minimization_Converged-OPLS-2005>
0

> <r_mmod_RMS_Derivative-OPLS-2005>
3.91236519813538

$$$$
85
                    3D
 Structure written by MMmdl.
150158  0  0  1  0            999 V2000
  -30.5889  -14.7885   20.4562 C   0  0  0  0  0  0
  -30.4314  -12.4675   19.5048 C   0  0  0  0  0  0
  -29.5215  -12.5075   18.2553 C   0  0  0  0  0  0
  -28.0453  -12.3281   18.6569 C   0  0  0  0  0  0
  -27.6402  -13.2376   19.8470 C   0  0  2  0  0  0
  -28.6760  -13.1959   20.9897 C   0  0  0  0  0  0
  -25.2512  -13.8210   20.5702 C   0  0  0  0  0  0
  -24.1802  -13.0440   20.9198 C   0  0  0  0  0  0
  -24.6402  -11.6921   20.8720 C   0  0  0  0  0  0
  -23.9078  -10.4293   21.0388 C   0  0  0  0  0  0
  -24.3627   -9.4212   21.9176 C   0  0  0  0  0  0
  -23.6301   -8.2248   22.0750 C   0  0  0  0  0  0
  -22.4281   -8.0287   21.3540 C   0  0  0  0  0  0
  -21.9912   -9.0256   20.4634 C   0  0  0  0  0  0
  -22.7244  -10.2135   20.3041 C   0  0  0  0  0  0
  -21.6858   -6.0735   22.5278 C   0  0  0  0  0  0
  -21.4020   -6.5638   23.8211 C   0  0  0  0  0  0
  -21.3661   -5.6790   24.9176 C   0  0  0  0  0  0
  -21.6044   -4.3054   24.7224 C   0  0  0  0  0  0
  -21.8825   -3.8149   23.4342 C   0  0  0  0  0  0
  -21.9192   -4.6962   22.3402 C   0  0  0  0  0  0
  -22.7826  -13.5213   21.1867 C   0  0  0  0  0  0
  -22.1664   -4.2152   21.0979 F   0  0  0  0  0  0
  -21.5623   -3.4534   25.7735 F   0  0  0  0  0  0
  -29.9839  -13.5443   20.4249 N   0  0  0  0  0  0
  -26.2932  -12.9421   20.3246 N   0  0  0  0  0  0
  -25.9329  -11.6555   20.5710 N   0  0  0  0  0  0
  -22.0479  -12.8191   22.0420 N   0  0  0  0  0  0
  -25.4206  -15.1937   20.4177 N   0  0  0  0  0  0
  -31.7743  -14.8323   20.1079 O   0  0  0  0  0  0
  -21.6648   -6.8882   21.4241 O   0  0  0  0  0  0
  -22.3499  -14.5508   20.6707 O   0  0  0  0  0  0
  -24.6323  -31.8540   23.1966 C   0  0  0  0  0  0
  -25.9142  -32.4750   23.8321 C   0  0  1  0  0  0
  -27.2162  -27.2388   20.1488 C   0  0  0  0  0  0
  -25.5942  -33.8558   24.2245 N   0  0  0  0  0  0
  -23.4309  -30.4750   21.5380 C   0  0  2  0  0  0
  -24.8817  -28.9154   20.1085 C   0  0  0  0  0  0
  -22.7513  -29.4594   22.4889 C   0  0  0  0  0  0
  -18.0303  -28.1393   22.8487 C   0  0  0  0  0  0
  -24.1490  -36.7287   23.2642 C   0  0  0  0  0  0
  -25.9779  -30.7566   21.3843 C   0  0  0  0  0  0
  -26.0500  -29.3756   20.7315 C   0  0  0  0  0  0
  -27.2190  -28.5461   20.7479 C   0  0  0  0  0  0
  -26.0383  -26.8588   19.4750 C   0  0  0  0  0  0
  -24.8820  -27.6659   19.4681 C   0  0  0  0  0  0
  -23.6535  -29.8070   20.1549 C   0  0  0  0  0  0
  -25.4122  -36.3075   24.0323 C   0  0  1  0  0  0
  -20.5910  -28.3720   23.1262 C   0  0  2  0  0  0
  -20.6800  -26.9434   22.5406 C   0  0  0  0  0  0
  -19.5771  -26.6384   21.5220 C   0  0  0  0  0  0
  -18.1948  -26.7932   22.1629 C   0  0  0  0  0  0
  -19.1553  -28.8871   23.2871 C   0  0  0  0  0  0
  -18.9474  -30.1471   23.8889 C   0  0  0  0  0  0
  -17.6469  -30.6593   24.0567 C   0  0  0  0  0  0
  -25.9060  -34.9448   23.5082 C   0  0  0  0  0  0
  -16.5361  -29.9087   23.6332 C   0  0  0  0  0  0
  -16.7287  -28.6506   23.0349 C   0  0  0  0  0  0
  -26.4507  -31.6591   25.0724 C   0  0  0  0  0  0
  -25.3714  -31.3751   26.1430 C   0  0  0  0  0  0
  -27.0378  -30.3006   24.6251 C   0  0  0  0  0  0
  -27.6040  -32.4358   25.7502 C   0  0  0  0  0  0
  -27.5580  -37.1801   24.8463 C   0  0  0  0  0  0
  -21.4217  -29.3061   22.3642 N   0  0  0  0  0  0
  -26.4298  -37.3771   23.9397 N   0  0  0  0  0  0
  -24.6989  -31.0480   22.0956 N   0  0  0  0  0  0
  -23.4204  -28.8138   23.3000 O   0  0  0  0  0  0
  -28.2835  -26.3047   20.1938 O   0  0  0  0  0  0
  -26.5632  -34.8920   22.4651 O   0  0  0  0  0  0
  -23.5471  -32.1392   23.7246 O   0  0  0  0  0  0
  -30.0939  -21.8928   19.4497 C   0  0  0  0  0  0
  -29.1444  -21.3415   20.2828 C   0  0  0  0  0  0
  -28.6105  -23.7065   20.3765 C   0  0  0  0  0  0
  -30.5996  -17.5661   20.7549 C   0  0  0  0  0  0
  -27.0637  -25.0688   21.9624 C   0  0  0  0  0  0
  -28.9480  -19.7768   20.5701 C   0  0  0  0  0  0
  -29.7616  -16.1811   20.7156 C   0  0  0  0  0  0
  -28.3290  -22.4222   20.8025 N   0  0  0  0  0  0
  -30.1849  -18.8954   20.6257 N   0  0  0  0  0  0
  -27.9707  -24.9391   20.8257 N   0  0  0  0  0  0
  -31.8105  -17.4767   20.9544 O   0  0  0  0  0  0
  -29.9713  -23.6532   19.2625 S   0  0  0  0  0  0
  -31.4755  -12.5752   19.2111 H   0  0  0  0  0  0
  -30.3644  -11.4973   20.0001 H   0  0  0  0  0  0
  -29.8167  -11.7259   17.5538 H   0  0  0  0  0  0
  -29.6512  -13.4557   17.7324 H   0  0  0  0  0  0
  -27.9045  -11.2810   18.9282 H   0  0  0  0  0  0
  -27.3960  -12.5095   17.8002 H   0  0  0  0  0  0
  -27.6279  -14.2541   19.4538 H   0  0  0  0  0  0
  -28.7100  -12.2063   21.4491 H   0  0  0  0  0  0
  -28.3985  -13.8911   21.7823 H   0  0  0  0  0  0
  -25.2772   -9.5693   22.4748 H   0  0  0  0  0  0
  -24.0012   -7.4641   22.7467 H   0  0  0  0  0  0
  -21.0844   -8.8765   19.8938 H   0  0  0  0  0  0
  -22.3695  -10.9671   19.6148 H   0  0  0  0  0  0
  -21.2020   -7.6149   23.9714 H   0  0  0  0  0  0
  -21.1476   -6.0523   25.9076 H   0  0  0  0  0  0
  -22.0600   -2.7608   23.2842 H   0  0  0  0  0  0
  -22.4116  -11.9866   22.4817 H   0  0  0  0  0  0
  -21.1092  -13.1200   22.2617 H   0  0  0  0  0  0
  -24.6544  -15.8484   20.5335 H   0  0  0  0  0  0
  -26.2751  -15.6360   20.1035 H   0  0  0  0  0  0
  -26.7199  -32.5393   23.1052 H   0  0  0  0  0  0
  -25.0099  -33.9690   25.0402 H   0  0  0  0  0  0
  -22.7283  -31.2981   21.3886 H   0  0  0  0  0  0
  -23.3750  -35.9618   23.3305 H   0  0  0  0  0  0
  -24.3570  -36.8918   22.2054 H   0  0  0  0  0  0
  -23.7242  -37.6488   23.6671 H   0  0  0  0  0  0
  -26.1225  -31.5123   20.6109 H   0  0  0  0  0  0
  -26.8533  -30.8080   22.0205 H   0  0  0  0  0  0
  -28.1110  -28.8852   21.2561 H   0  0  0  0  0  0
  -26.0021  -25.8958   18.9860 H   0  0  0  0  0  0
  -23.9915  -27.3120   18.9673 H   0  0  0  0  0  0
  -23.7856  -30.5839   19.4010 H   0  0  0  0  0  0
  -22.7708  -29.2447   19.8444 H   0  0  0  0  0  0
  -25.1302  -36.1925   25.0815 H   0  0  0  0  0  0
  -21.0013  -28.3311   24.1382 H   0  0  0  0  0  0
  -20.5726  -26.2329   23.3621 H   0  0  0  0  0  0
  -21.6663  -26.7467   22.1183 H   0  0  0  0  0  0
  -19.6938  -25.6290   21.1265 H   0  0  0  0  0  0
  -19.6702  -27.3185   20.6744 H   0  0  0  0  0  0
  -17.4218  -26.6688   21.4027 H   0  0  0  0  0  0
  -18.0344  -26.0075   22.9028 H   0  0  0  0  0  0
  -19.7945  -30.7299   24.2247 H   0  0  0  0  0  0
  -17.5018  -31.6267   24.5179 H   0  0  0  0  0  0
  -15.5363  -30.2987   23.7654 H   0  0  0  0  0  0
  -15.8690  -28.0824   22.7059 H   0  0  0  0  0  0
  -24.5862  -30.7144   25.7729 H   0  0  0  0  0  0
  -24.8942  -32.2937   26.4862 H   0  0  0  0  0  0
  -25.8014  -30.8893   27.0200 H   0  0  0  0  0  0
  -26.2980  -29.6712   24.1289 H   0  0  0  0  0  0
  -27.4058  -29.7312   25.4797 H   0  0  0  0  0  0
  -27.8857  -30.4265   23.9510 H   0  0  0  0  0  0
  -27.2603  -33.3625   26.2110 H   0  0  0  0  0  0
  -28.3830  -32.6987   25.0331 H   0  0  0  0  0  0
  -28.0744  -31.8488   26.5399 H   0  0  0  0  0  0
  -28.2598  -38.0098   24.7501 H   0  0  0  0  0  0
  -28.1076  -36.2625   24.6300 H   0  0  0  0  0  0
  -27.2294  -37.1466   25.8866 H   0  0  0  0  0  0
  -20.9411  -29.8780   21.6839 H   0  0  0  0  0  0
  -26.0179  -38.2848   24.1386 H   0  0  0  0  0  0
  -30.8552  -21.3613   18.8947 H   0  0  0  0  0  0
  -27.1772  -24.2171   22.6336 H   0  0  0  0  0  0
  -26.0255  -25.0935   21.6331 H   0  0  0  0  0  0
  -27.2739  -25.9701   22.5397 H   0  0  0  0  0  0
  -28.2940  -19.3559   19.8055 H   0  0  0  0  0  0
  -28.4107  -19.6442   21.5097 H   0  0  0  0  0  0
  -29.0028  -16.2710   19.9402 H   0  0  0  0  0  0
  -29.2309  -16.0907   21.6629 H   0  0  0  0  0  0
  -30.9972  -19.4956   20.6677 H   0  0  0  0  0  0
  1 25  1  0  0  0
  1 30  2  0  0  0
  1 77  1  0  0  0
  2  3  1  0  0  0
  2 25  1  0  0  0
  2 83  1  0  0  0
  2 84  1  0  0  0
  3  4  1  0  0  0
  3 85  1  0  0  0
  3 86  1  0  0  0
  4  5  1  0  0  0
  4 87  1  0  0  0
  4 88  1  0  0  0
  5  6  1  0  0  0
  5 26  1  0  0  0
  5 89  1  0  0  0
  6 25  1  0  0  0
  6 90  1  0  0  0
  6 91  1  0  0  0
  7  8  2  0  0  0
  7 26  1  0  0  0
  7 29  1  0  0  0
  8  9  1  0  0  0
  8 22  1  0  0  0
  9 10  1  0  0  0
  9 27  2  0  0  0
 10 11  2  0  0  0
 10 15  1  0  0  0
 11 12  1  0  0  0
 11 92  1  0  0  0
 12 13  2  0  0  0
 12 93  1  0  0  0
 13 14  1  0  0  0
 13 31  1  0  0  0
 14 15  2  0  0  0
 14 94  1  0  0  0
 15 95  1  0  0  0
 16 17  2  0  0  0
 16 21  1  0  0  0
 16 31  1  0  0  0
 17 18  1  0  0  0
 17 96  1  0  0  0
 18 19  2  0  0  0
 18 97  1  0  0  0
 19 20  1  0  0  0
 19 24  1  0  0  0
 20 21  2  0  0  0
 20 98  1  0  0  0
 21 23  1  0  0  0
 22 28  1  0  0  0
 22 32  2  0  0  0
 26 27  1  0  0  0
 28 99  1  0  0  0
 28100  1  0  0  0
 29101  1  0  0  0
 29102  1  0  0  0
 33 34  1  0  0  0
 33 66  1  0  0  0
 33 70  2  0  0  0
 34 36  1  0  0  0
 34 59  1  0  0  0
 34103  1  0  0  0
 35 44  2  0  0  0
 35 45  1  0  0  0
 35 68  1  0  0  0
 36 56  1  0  0  0
 36104  1  0  0  0
 37 39  1  0  0  0
 37 47  1  0  0  0
 37 66  1  0  0  0
 37105  1  0  0  0
 38 43  2  0  0  0
 38 46  1  0  0  0
 38 47  1  0  0  0
 39 64  1  0  0  0
 39 67  2  0  0  0
 40 52  1  0  0  0
 40 53  2  0  0  0
 40 58  1  0  0  0
 41106  1  0  0  0
 41107  1  0  0  0
 41108  1  0  0  0
 41 48  1  0  0  0
 42 43  1  0  0  0
 42 66  1  0  0  0
 42109  1  0  0  0
 42110  1  0  0  0
 43 44  1  0  0  0
 44111  1  0  0  0
 45 46  2  0  0  0
 45112  1  0  0  0
 46113  1  0  0  0
 47114  1  0  0  0
 47115  1  0  0  0
 48 56  1  0  0  0
 48 65  1  0  0  0
 48116  1  0  0  0
 49 50  1  0  0  0
 49 53  1  0  0  0
 49 64  1  0  0  0
 49117  1  0  0  0
 50 51  1  0  0  0
 50118  1  0  0  0
 50119  1  0  0  0
 51 52  1  0  0  0
 51120  1  0  0  0
 51121  1  0  0  0
 52122  1  0  0  0
 52123  1  0  0  0
 53 54  1  0  0  0
 54 55  2  0  0  0
 54124  1  0  0  0
 55 57  1  0  0  0
 55125  1  0  0  0
 56 69  2  0  0  0
 57 58  2  0  0  0
 57126  1  0  0  0
 58127  1  0  0  0
 59 60  1  0  0  0
 59 61  1  0  0  0
 59 62  1  0  0  0
 60128  1  0  0  0
 60129  1  0  0  0
 60130  1  0  0  0
 61131  1  0  0  0
 61132  1  0  0  0
 61133  1  0  0  0
 62134  1  0  0  0
 62135  1  0  0  0
 62136  1  0  0  0
 63 65  1  0  0  0
 63137  1  0  0  0
 63138  1  0  0  0
 63139  1  0  0  0
 64140  1  0  0  0
 65141  1  0  0  0
 68 80  1  0  0  0
 71 72  2  0  0  0
 71 82  1  0  0  0
 71142  1  0  0  0
 72 76  1  0  0  0
 72 78  1  0  0  0
 73 78  2  0  0  0
 73 80  1  0  0  0
 73 82  1  0  0  0
 74 77  1  0  0  0
 74 79  1  0  0  0
 74 81  2  0  0  0
 75 80  1  0  0  0
 75143  1  0  0  0
 75144  1  0  0  0
 75145  1  0  0  0
 76 79  1  0  0  0
 76146  1  0  0  0
 76147  1  0  0  0
 77148  1  0  0  0
 77149  1  0  0  0
 79150  1  0  0  0
M  ISO  4   1 100  68 101  77 100  80 101
M  END
> <chiral flag>
0

> <version>
0

> <s_m_source_file>
/data/baiqing/PycharmProjects/Reinvent-master-3.2/result/LINK_invent/BTK/process_docking_weight1_custom_product_contain_oxygen_bond_distance_aromatic_linkinvent_7_9_3/rearranged_h_0149.sdf

> <i_m_source_file_index>
86

> <r_mmod_Potential_Energy-OPLS-2005>
118.634414672852

> <r_mmod_Stretch_Energy-OPLS-2005>
146.067687988281

> <r_mmod_Bend_Energy-OPLS-2005>
225.080062866211

> <r_mmod_Torsional_Energy-OPLS-2005>
167.701766967773

> <r_mmod_Improper_Torsional_Energy-OPLS-2005>
4.62723779678345

> <r_mmod_Van_der_Waal_Energy-OPLS-2005>
117.526626586914

> <r_mmod_Electrostatic_Energy-OPLS-2005>
-398.627471923828

> <r_mmod_Solvation_Energy-OPLS-2005>
-247.07795715332

> <b_mmod_Minimization_Converged-OPLS-2005>
0

> <r_mmod_RMS_Derivative-OPLS-2005>
1.6858537197113

$$$$
86
                    3D
 Structure written by MMmdl.
160169  0  0  1  0            999 V2000
  -30.7071  -14.5737   20.5173 C   0  0  0  0  0  0
  -30.4133  -12.3563   19.4535 C   0  0  0  0  0  0
  -29.4964  -12.4965   18.2219 C   0  0  0  0  0  0
  -28.0206  -12.3484   18.6353 C   0  0  0  0  0  0
  -27.6505  -13.2244   19.8627 C   0  0  2  0  0  0
  -28.6956  -13.0984   20.9951 C   0  0  0  0  0  0
  -25.2539  -13.8198   20.5697 C   0  0  0  0  0  0
  -24.1817  -13.0450   20.9201 C   0  0  0  0  0  0
  -24.6398  -11.6925   20.8755 C   0  0  0  0  0  0
  -23.9075  -10.4301   21.0412 C   0  0  0  0  0  0
  -24.3624   -9.4212   21.9187 C   0  0  0  0  0  0
  -23.6298   -8.2248   22.0755 C   0  0  0  0  0  0
  -22.4280   -8.0287   21.3547 C   0  0  0  0  0  0
  -21.9918   -9.0262   20.4648 C   0  0  0  0  0  0
  -22.7248  -10.2141   20.3060 C   0  0  0  0  0  0
  -21.6853   -6.0740   22.5280 C   0  0  0  0  0  0
  -21.4013   -6.5643   23.8213 C   0  0  0  0  0  0
  -21.3660   -5.6795   24.9174 C   0  0  0  0  0  0
  -21.6044   -4.3058   24.7224 C   0  0  0  0  0  0
  -21.8819   -3.8151   23.4345 C   0  0  0  0  0  0
  -21.9192   -4.6968   22.3402 C   0  0  0  0  0  0
  -22.7837  -13.5233   21.1860 C   0  0  0  0  0  0
  -22.1661   -4.2156   21.0979 F   0  0  0  0  0  0
  -21.5630   -3.4540   25.7736 F   0  0  0  0  0  0
  -30.0148  -13.3976   20.4221 N   0  0  0  0  0  0
  -26.2977  -12.9398   20.3339 N   0  0  0  0  0  0
  -25.9330  -11.6544   20.5782 N   0  0  0  0  0  0
  -22.0480  -12.8221   22.0413 N   0  0  0  0  0  0
  -25.4238  -15.1919   20.4097 N   0  0  0  0  0  0
  -31.8643  -14.6472   20.0987 O   0  0  0  0  0  0
  -21.6641   -6.8886   21.4243 O   0  0  0  0  0  0
  -22.3522  -14.5540   20.6710 O   0  0  0  0  0  0
  -24.6213  -31.8637   23.2071 C   0  0  0  0  0  0
  -25.9080  -32.4802   23.8385 C   0  0  1  0  0  0
  -27.2193  -27.3673   20.1128 C   0  0  0  0  0  0
  -25.5913  -33.8602   24.2312 N   0  0  0  0  0  0
  -23.4136  -30.4886   21.5480 C   0  0  2  0  0  0
  -24.8615  -28.9559   20.1057 C   0  0  0  0  0  0
  -22.7458  -29.4639   22.4951 C   0  0  0  0  0  0
  -18.0284  -28.1377   22.8488 C   0  0  0  0  0  0
  -24.1489  -36.7304   23.2639 C   0  0  0  0  0  0
  -25.9506  -30.8099   21.3726 C   0  0  0  0  0  0
  -26.0274  -29.4425   20.7129 C   0  0  0  0  0  0
  -27.2137  -28.6575   20.7114 C   0  0  0  0  0  0
  -26.0433  -26.9324   19.4638 C   0  0  0  0  0  0
  -24.8686  -27.7040   19.4717 C   0  0  0  0  0  0
  -23.6260  -29.8280   20.1607 C   0  0  0  0  0  0
  -25.4112  -36.3100   24.0337 C   0  0  1  0  0  0
  -20.5881  -28.3676   23.1292 C   0  0  2  0  0  0
  -20.6771  -26.9405   22.5408 C   0  0  0  0  0  0
  -19.5747  -26.6380   21.5210 C   0  0  0  0  0  0
  -18.1927  -26.7921   22.1624 C   0  0  0  0  0  0
  -19.1536  -28.8845   23.2885 C   0  0  0  0  0  0
  -18.9461  -30.1446   23.8902 C   0  0  0  0  0  0
  -17.6462  -30.6581   24.0563 C   0  0  0  0  0  0
  -25.9043  -34.9465   23.5123 C   0  0  0  0  0  0
  -16.5353  -29.9082   23.6327 C   0  0  0  0  0  0
  -16.7273  -28.6498   23.0351 C   0  0  0  0  0  0
  -26.4483  -31.6596   25.0734 C   0  0  0  0  0  0
  -25.3734  -31.3714   26.1473 C   0  0  0  0  0  0
  -27.0322  -30.3031   24.6150 C   0  0  0  0  0  0
  -27.6055  -32.4318   25.7497 C   0  0  0  0  0  0
  -27.5582  -37.1807   24.8467 C   0  0  0  0  0  0
  -21.4176  -29.3039   22.3696 N   0  0  0  0  0  0
  -26.4297  -37.3786   23.9409 N   0  0  0  0  0  0
  -24.6803  -31.0689   22.1001 N   0  0  0  0  0  0
  -23.4202  -28.8174   23.3012 O   0  0  0  0  0  0
  -28.3039  -26.4969   20.1813 O   0  0  0  0  0  0
  -26.5605  -34.8922   22.4685 O   0  0  0  0  0  0
  -23.5388  -32.1414   23.7425 O   0  0  0  0  0  0
  -32.3952  -18.6316   21.3037 C   0  0  0  0  0  0
  -31.5485  -19.7356   21.1188 C   0  0  0  0  0  0
  -31.8862  -17.3232   21.2488 C   0  0  0  0  0  0
  -29.6623  -18.2169   20.8239 C   0  0  0  0  0  0
  -30.1664  -19.5623   20.8963 C   0  0  0  0  0  0
  -30.5187  -17.0707   20.9749 C   0  0  0  0  0  0
  -29.6480  -21.7873   19.6024 C   0  0  0  0  0  0
  -29.3594  -21.7076   22.0789 C   0  0  0  0  0  0
  -28.8324  -23.1244   19.5486 C   0  0  0  0  0  0
  -28.5420  -23.0255   22.0141 C   0  0  0  0  0  0
  -29.2825  -20.8453   20.7909 C   0  0  2  0  0  0
  -28.9181  -23.9800   20.8441 C   0  0  2  0  0  0
  -27.9810  -25.2522   20.8855 C   0  0  0  0  0  0
  -30.0235  -15.6982   20.8955 N   0  0  0  0  0  0
  -31.4597  -12.4323   19.1528 H   0  0  0  0  0  0
  -30.3078  -11.3668   19.9011 H   0  0  0  0  0  0
  -29.7515  -11.7451   17.4734 H   0  0  0  0  0  0
  -29.6532  -13.4674   17.7488 H   0  0  0  0  0  0
  -27.8503  -11.2964   18.8673 H   0  0  0  0  0  0
  -27.3669  -12.5821   17.7942 H   0  0  0  0  0  0
  -27.6668  -14.2577   19.5157 H   0  0  0  0  0  0
  -28.6911  -12.0912   21.4142 H   0  0  0  0  0  0
  -28.4551  -13.7695   21.8211 H   0  0  0  0  0  0
  -25.2767   -9.5686   22.4765 H   0  0  0  0  0  0
  -24.0007   -7.4637   22.7474 H   0  0  0  0  0  0
  -21.0852   -8.8784   19.8952 H   0  0  0  0  0  0
  -22.3709  -10.9683   19.6173 H   0  0  0  0  0  0
  -21.2003   -7.6150   23.9720 H   0  0  0  0  0  0
  -21.1482   -6.0523   25.9078 H   0  0  0  0  0  0
  -22.0597   -2.7614   23.2841 H   0  0  0  0  0  0
  -22.4095  -11.9878   22.4794 H   0  0  0  0  0  0
  -21.1098  -13.1247   22.2625 H   0  0  0  0  0  0
  -24.6550  -15.8452   20.5147 H   0  0  0  0  0  0
  -26.2704  -15.6306   20.0706 H   0  0  0  0  0  0
  -26.7153  -32.5493   23.1144 H   0  0  0  0  0  0
  -25.0073  -33.9757   25.0465 H   0  0  0  0  0  0
  -22.7053  -31.3078   21.4086 H   0  0  0  0  0  0
  -23.3748  -35.9638   23.3307 H   0  0  0  0  0  0
  -24.3584  -36.8915   22.2052 H   0  0  0  0  0  0
  -23.7241  -37.6511   23.6650 H   0  0  0  0  0  0
  -26.0761  -31.5772   20.6076 H   0  0  0  0  0  0
  -26.8332  -30.8575   21.9990 H   0  0  0  0  0  0
  -28.1053  -29.0174   21.2054 H   0  0  0  0  0  0
  -26.0219  -25.9730   18.9666 H   0  0  0  0  0  0
  -23.9780  -27.3284   18.9868 H   0  0  0  0  0  0
  -23.7383  -30.6066   19.4055 H   0  0  0  0  0  0
  -22.7484  -29.2527   19.8605 H   0  0  0  0  0  0
  -25.1287  -36.1966   25.0829 H   0  0  0  0  0  0
  -20.9972  -28.3244   24.1414 H   0  0  0  0  0  0
  -20.5670  -26.2289   23.3606 H   0  0  0  0  0  0
  -21.6639  -26.7435   22.1203 H   0  0  0  0  0  0
  -19.6909  -25.6293   21.1235 H   0  0  0  0  0  0
  -19.6682  -27.3196   20.6743 H   0  0  0  0  0  0
  -17.4195  -26.6673   21.4026 H   0  0  0  0  0  0
  -18.0325  -26.0061   22.9018 H   0  0  0  0  0  0
  -19.7939  -30.7254   24.2279 H   0  0  0  0  0  0
  -17.5020  -31.6265   24.5157 H   0  0  0  0  0  0
  -15.5354  -30.2984   23.7646 H   0  0  0  0  0  0
  -15.8675  -28.0817   22.7064 H   0  0  0  0  0  0
  -24.5909  -30.7063   25.7806 H   0  0  0  0  0  0
  -24.8924  -32.2872   26.4919 H   0  0  0  0  0  0
  -25.8072  -30.8882   27.0237 H   0  0  0  0  0  0
  -26.2883  -29.6789   24.1185 H   0  0  0  0  0  0
  -27.4055  -29.7275   25.4630 H   0  0  0  0  0  0
  -27.8737  -30.4337   23.9343 H   0  0  0  0  0  0
  -27.2679  -33.3618   26.2083 H   0  0  0  0  0  0
  -28.3859  -32.6875   25.0318 H   0  0  0  0  0  0
  -28.0728  -31.8437   26.5407 H   0  0  0  0  0  0
  -28.2601  -38.0101   24.7508 H   0  0  0  0  0  0
  -28.1072  -36.2631   24.6297 H   0  0  0  0  0  0
  -27.2298  -37.1465   25.8870 H   0  0  0  0  0  0
  -20.9346  -29.8785   21.6933 H   0  0  0  0  0  0
  -26.0185  -38.2866   24.1401 H   0  0  0  0  0  0
  -33.4467  -18.7895   21.4989 H   0  0  0  0  0  0
  -31.9720  -20.7284   21.1762 H   0  0  0  0  0  0
  -32.5837  -16.5179   21.4245 H   0  0  0  0  0  0
  -28.6059  -18.0670   20.6493 H   0  0  0  0  0  0
  -30.7071  -22.0410   19.6526 H   0  0  0  0  0  0
  -29.5166  -21.2478   18.6638 H   0  0  0  0  0  0
  -29.0184  -21.1147   22.9284 H   0  0  0  0  0  0
  -30.3958  -21.9680   22.2946 H   0  0  0  0  0  0
  -27.7873  -22.8866   19.3453 H   0  0  0  0  0  0
  -29.1713  -23.7227   18.7018 H   0  0  0  0  0  0
  -28.6580  -23.5528   22.9619 H   0  0  0  0  0  0
  -27.4829  -22.7725   21.9449 H   0  0  0  0  0  0
  -28.2491  -20.5207   20.6596 H   0  0  0  0  0  0
  -29.9486  -24.3075   20.9879 H   0  0  0  0  0  0
  -27.9002  -25.5554   21.9307 H   0  0  0  0  0  0
  -26.9830  -24.8951   20.6335 H   0  0  0  0  0  0
  -29.0397  -15.5636   21.0715 H   0  0  0  0  0  0
  1 25  1  0  0  0
  1 30  2  0  0  0
  1 84  1  0  0  0
  2  3  1  0  0  0
  2 25  1  0  0  0
  2 85  1  0  0  0
  2 86  1  0  0  0
  3  4  1  0  0  0
  3 87  1  0  0  0
  3 88  1  0  0  0
  4  5  1  0  0  0
  4 89  1  0  0  0
  4 90  1  0  0  0
  5  6  1  0  0  0
  5 26  1  0  0  0
  5 91  1  0  0  0
  6 25  1  0  0  0
  6 92  1  0  0  0
  6 93  1  0  0  0
  7  8  2  0  0  0
  7 26  1  0  0  0
  7 29  1  0  0  0
  8  9  1  0  0  0
  8 22  1  0  0  0
  9 10  1  0  0  0
  9 27  2  0  0  0
 10 11  2  0  0  0
 10 15  1  0  0  0
 11 12  1  0  0  0
 11 94  1  0  0  0
 12 13  2  0  0  0
 12 95  1  0  0  0
 13 14  1  0  0  0
 13 31  1  0  0  0
 14 15  2  0  0  0
 14 96  1  0  0  0
 15 97  1  0  0  0
 16 17  2  0  0  0
 16 21  1  0  0  0
 16 31  1  0  0  0
 17 18  1  0  0  0
 17 98  1  0  0  0
 18 19  2  0  0  0
 18 99  1  0  0  0
 19 20  1  0  0  0
 19 24  1  0  0  0
 20 21  2  0  0  0
 20100  1  0  0  0
 21 23  1  0  0  0
 22 28  1  0  0  0
 22 32  2  0  0  0
 26 27  1  0  0  0
 28101  1  0  0  0
 28102  1  0  0  0
 29103  1  0  0  0
 29104  1  0  0  0
 33 34  1  0  0  0
 33 66  1  0  0  0
 33 70  2  0  0  0
 34 36  1  0  0  0
 34 59  1  0  0  0
 34105  1  0  0  0
 35 44  2  0  0  0
 35 45  1  0  0  0
 35 68  1  0  0  0
 36 56  1  0  0  0
 36106  1  0  0  0
 37 39  1  0  0  0
 37 47  1  0  0  0
 37 66  1  0  0  0
 37107  1  0  0  0
 38 43  2  0  0  0
 38 46  1  0  0  0
 38 47  1  0  0  0
 39 64  1  0  0  0
 39 67  2  0  0  0
 40 52  1  0  0  0
 40 53  2  0  0  0
 40 58  1  0  0  0
 41108  1  0  0  0
 41109  1  0  0  0
 41110  1  0  0  0
 41 48  1  0  0  0
 42 43  1  0  0  0
 42 66  1  0  0  0
 42111  1  0  0  0
 42112  1  0  0  0
 43 44  1  0  0  0
 44113  1  0  0  0
 45 46  2  0  0  0
 45114  1  0  0  0
 46115  1  0  0  0
 47116  1  0  0  0
 47117  1  0  0  0
 48 56  1  0  0  0
 48 65  1  0  0  0
 48118  1  0  0  0
 49 50  1  0  0  0
 49 53  1  0  0  0
 49 64  1  0  0  0
 49119  1  0  0  0
 50 51  1  0  0  0
 50120  1  0  0  0
 50121  1  0  0  0
 51 52  1  0  0  0
 51122  1  0  0  0
 51123  1  0  0  0
 52124  1  0  0  0
 52125  1  0  0  0
 53 54  1  0  0  0
 54 55  2  0  0  0
 54126  1  0  0  0
 55 57  1  0  0  0
 55127  1  0  0  0
 56 69  2  0  0  0
 57 58  2  0  0  0
 57128  1  0  0  0
 58129  1  0  0  0
 59 60  1  0  0  0
 59 61  1  0  0  0
 59 62  1  0  0  0
 60130  1  0  0  0
 60131  1  0  0  0
 60132  1  0  0  0
 61133  1  0  0  0
 61134  1  0  0  0
 61135  1  0  0  0
 62136  1  0  0  0
 62137  1  0  0  0
 62138  1  0  0  0
 63 65  1  0  0  0
 63139  1  0  0  0
 63140  1  0  0  0
 63141  1  0  0  0
 64142  1  0  0  0
 65143  1  0  0  0
 68 83  1  0  0  0
 71 72  2  0  0  0
 71 73  1  0  0  0
 71144  1  0  0  0
 72 75  1  0  0  0
 72145  1  0  0  0
 73 76  2  0  0  0
 73146  1  0  0  0
 74 75  2  0  0  0
 74 76  1  0  0  0
 74147  1  0  0  0
 75 81  1  0  0  0
 76 84  1  0  0  0
 77 79  1  0  0  0
 77 81  1  0  0  0
 77148  1  0  0  0
 77149  1  0  0  0
 78 80  1  0  0  0
 78 81  1  0  0  0
 78150  1  0  0  0
 78151  1  0  0  0
 79 82  1  0  0  0
 79152  1  0  0  0
 79153  1  0  0  0
 80 82  1  0  0  0
 80154  1  0  0  0
 80155  1  0  0  0
 81156  1  0  0  0
 82 83  1  0  0  0
 82157  1  0  0  0
 83158  1  0  0  0
 83159  1  0  0  0
 84160  1  0  0  0
M  ISO  4   1 100  68 101  83 101  84 100
M  END
> <chiral flag>
0

> <version>
0

> <s_m_source_file>
/data/baiqing/PycharmProjects/Reinvent-master-3.2/result/LINK_invent/BTK/process_docking_weight1_custom_product_contain_oxygen_bond_distance_aromatic_linkinvent_7_9_3/rearranged_h_0149.sdf

> <i_m_source_file_index>
87

> <r_mmod_Potential_Energy-OPLS-2005>
81.3016891479492

> <r_mmod_Stretch_Energy-OPLS-2005>
63.6011428833008

> <r_mmod_Bend_Energy-OPLS-2005>
122.261848449707

> <r_mmod_Torsional_Energy-OPLS-2005>
253.930267333984

> <r_mmod_Improper_Torsional_Energy-OPLS-2005>
4.47344636917114

> <r_mmod_Van_der_Waal_Energy-OPLS-2005>
157.178756713867

> <r_mmod_Electrostatic_Energy-OPLS-2005>
-359.534820556641

> <r_mmod_Solvation_Energy-OPLS-2005>
-197.36376953125

> <b_mmod_Minimization_Converged-OPLS-2005>
0

> <r_mmod_RMS_Derivative-OPLS-2005>
0.430582523345947

$$$$
87
                    3D
 Structure written by MMmdl.
142150  0  0  1  0            999 V2000
  -30.1475  -16.1987   20.2957 C   0  0  0  0  0  0
  -30.3537  -13.5248   19.5158 C   0  0  0  0  0  0
  -29.5531  -12.8135   18.3700 C   0  0  0  0  0  0
  -28.1859  -12.3298   18.8566 C   0  0  0  0  0  0
  -27.5760  -13.3739   19.8085 C   0  0  2  0  0  0
  -28.5532  -13.9635   20.8750 C   0  0  0  0  0  0
  -25.2227  -13.8395   20.5913 C   0  0  0  0  0  0
  -24.1678  -13.0453   20.9336 C   0  0  0  0  0  0
  -24.6470  -11.6992   20.8768 C   0  0  0  0  0  0
  -23.9184  -10.4307   21.0373 C   0  0  0  0  0  0
  -24.3695   -9.4216   21.9166 C   0  0  0  0  0  0
  -23.6339   -8.2264   22.0750 C   0  0  0  0  0  0
  -22.4317   -8.0304   21.3544 C   0  0  0  0  0  0
  -21.9977   -9.0283   20.4638 C   0  0  0  0  0  0
  -22.7338  -10.2146   20.3035 C   0  0  0  0  0  0
  -21.6868   -6.0753   22.5278 C   0  0  0  0  0  0
  -21.4026   -6.5650   23.8213 C   0  0  0  0  0  0
  -21.3663   -5.6798   24.9172 C   0  0  0  0  0  0
  -21.6043   -4.3061   24.7220 C   0  0  0  0  0  0
  -21.8817   -3.8156   23.4340 C   0  0  0  0  0  0
  -21.9197   -4.6977   22.3398 C   0  0  0  0  0  0
  -22.7670  -13.5126   21.1939 C   0  0  0  0  0  0
  -22.1663   -4.2161   21.0976 F   0  0  0  0  0  0
  -21.5626   -3.4541   25.7731 F   0  0  0  0  0  0
  -29.6142  -14.7647   20.1591 N   0  0  0  0  0  0
  -26.2763  -12.9858   20.3388 N   0  0  0  0  0  0
  -25.9448  -11.6849   20.5703 N   0  0  0  0  0  0
  -22.0351  -12.8085   22.0486 N   0  0  0  0  0  0
  -25.3724  -15.2150   20.4358 N   0  0  0  0  0  0
  -31.3829  -15.9363   20.2637 O   0  0  0  0  0  0
  -21.6663   -6.8908   21.4245 O   0  0  0  0  0  0
  -22.3326  -14.5415   20.6769 O   0  0  0  0  0  0
  -24.7206  -31.7544   23.1194 C   0  0  0  0  0  0
  -25.9600  -32.4243   23.7884 C   0  0  1  0  0  0
  -27.2412  -26.3141   20.2494 C   0  0  0  0  0  0
  -25.6017  -33.8091   24.1729 N   0  0  0  0  0  0
  -23.5642  -30.3387   21.4828 C   0  0  2  0  0  0
  -25.0248  -28.5973   20.1304 C   0  0  0  0  0  0
  -22.7931  -29.4073   22.4609 C   0  0  0  0  0  0
  -18.0363  -28.1442   22.8435 C   0  0  0  0  0  0
  -24.1497  -36.7058   23.2664 C   0  0  0  0  0  0
  -26.1590  -30.3585   21.4425 C   0  0  0  0  0  0
  -26.2201  -28.8796   20.8003 C   0  0  0  0  0  0
  -27.2938  -27.7800   20.8152 C   0  0  0  0  0  0
  -26.0094  -26.3417   19.5145 C   0  0  0  0  0  0
  -24.9819  -27.3580   19.4613 C   0  0  0  0  0  0
  -23.8394  -29.5997   20.1354 C   0  0  0  0  0  0
  -25.4162  -36.2765   24.0253 C   0  0  1  0  0  0
  -20.6015  -28.3818   23.1072 C   0  0  2  0  0  0
  -20.6808  -26.9441   22.5410 C   0  0  0  0  0  0
  -19.5791  -26.6358   21.5221 C   0  0  0  0  0  0
  -18.1974  -26.7961   22.1612 C   0  0  0  0  0  0
  -19.1638  -28.8963   23.2722 C   0  0  0  0  0  0
  -18.9537  -30.1536   23.8784 C   0  0  0  0  0  0
  -17.6522  -30.6613   24.0542 C   0  0  0  0  0  0
  -25.9165  -34.9165   23.4858 C   0  0  0  0  0  0
  -16.5409  -29.9087   23.6360 C   0  0  0  0  0  0
  -16.7340  -28.6513   23.0373 C   0  0  0  0  0  0
  -26.4656  -31.6445   25.0667 C   0  0  0  0  0  0
  -25.3620  -31.3869   26.1209 C   0  0  0  0  0  0
  -27.0652  -30.2744   24.6846 C   0  0  0  0  0  0
  -27.6028  -32.4401   25.7506 C   0  0  0  0  0  0
  -27.5551  -37.1685   24.8468 C   0  0  0  0  0  0
  -21.4544  -29.2988   22.3351 N   0  0  0  0  0  0
  -26.4256  -37.3568   23.9405 N   0  0  0  0  0  0
  -24.8430  -30.8600   22.0665 N   0  0  0  0  0  0
  -23.4193  -28.7737   23.3132 O   0  0  0  0  0  0
  -28.1546  -24.9186   20.3061 O   0  0  0  0  0  0
  -26.5862  -34.8819   22.4514 O   0  0  0  0  0  0
  -23.6143  -32.0799   23.5903 O   0  0  0  0  0  0
  -30.1755  -20.6473   20.3274 C   0  0  0  0  0  0
  -28.8721  -21.0909   20.2731 C   0  0  0  0  0  0
  -30.6461  -19.0437   20.3405 C   0  0  0  0  0  0
  -28.5191  -19.2409   20.2514 C   0  0  0  0  0  0
  -27.9971  -22.9696   20.2024 C   0  0  0  0  0  0
  -29.6568  -17.8352   20.2871 N   0  0  0  0  0  0
  -31.2923  -13.8545   19.0693 H   0  0  0  0  0  0
  -30.6632  -12.8041   20.2751 H   0  0  0  0  0  0
  -30.1254  -11.9807   17.9593 H   0  0  0  0  0  0
  -29.4111  -13.5208   17.5516 H   0  0  0  0  0  0
  -28.3245  -11.3900   19.3926 H   0  0  0  0  0  0
  -27.5221  -12.1189   18.0170 H   0  0  0  0  0  0
  -27.3563  -14.2076   19.1393 H   0  0  0  0  0  0
  -28.9505  -13.1942   21.5393 H   0  0  0  0  0  0
  -28.0123  -14.6543   21.5229 H   0  0  0  0  0  0
  -25.2829   -9.5685   22.4760 H   0  0  0  0  0  0
  -24.0031   -7.4659   22.7483 H   0  0  0  0  0  0
  -21.0904   -8.8820   19.8946 H   0  0  0  0  0  0
  -22.3796  -10.9688   19.6148 H   0  0  0  0  0  0
  -21.2024   -7.6158   23.9721 H   0  0  0  0  0  0
  -21.1485   -6.0526   25.9076 H   0  0  0  0  0  0
  -22.0591   -2.7618   23.2836 H   0  0  0  0  0  0
  -22.4018  -11.9777   22.4890 H   0  0  0  0  0  0
  -21.0945  -13.1048   22.2672 H   0  0  0  0  0  0
  -24.5987  -15.8600   20.5538 H   0  0  0  0  0  0
  -26.2228  -15.6677   20.1260 H   0  0  0  0  0  0
  -26.7725  -32.4628   23.0623 H   0  0  0  0  0  0
  -25.0009  -33.9062   24.9781 H   0  0  0  0  0  0
  -22.9120  -31.1856   21.2595 H   0  0  0  0  0  0
  -23.3785  -35.9359   23.3246 H   0  0  0  0  0  0
  -24.3549  -36.8824   22.2094 H   0  0  0  0  0  0
  -23.7238  -37.6191   23.6826 H   0  0  0  0  0  0
  -26.4008  -31.0560   20.6396 H   0  0  0  0  0  0
  -26.9964  -30.4405   22.1220 H   0  0  0  0  0  0
  -28.1859  -28.0203   21.3762 H   0  0  0  0  0  0
  -25.7778  -25.4326   18.9777 H   0  0  0  0  0  0
  -24.0924  -27.1249   18.8922 H   0  0  0  0  0  0
  -24.0467  -30.3431   19.3649 H   0  0  0  0  0  0
  -22.9364  -29.0858   19.8017 H   0  0  0  0  0  0
  -25.1392  -36.1471   25.0742 H   0  0  0  0  0  0
  -21.0082  -28.3472   24.1205 H   0  0  0  0  0  0
  -20.5637  -26.2453   23.3707 H   0  0  0  0  0  0
  -21.6667  -26.7324   22.1252 H   0  0  0  0  0  0
  -19.6941  -25.6239   21.1323 H   0  0  0  0  0  0
  -19.6747  -27.3106   20.6704 H   0  0  0  0  0  0
  -17.4246  -26.6706   21.4012 H   0  0  0  0  0  0
  -18.0347  -26.0130   22.9032 H   0  0  0  0  0  0
  -19.8013  -30.7379   24.2106 H   0  0  0  0  0  0
  -17.5072  -31.6281   24.5168 H   0  0  0  0  0  0
  -15.5405  -30.2955   23.7750 H   0  0  0  0  0  0
  -15.8740  -28.0795   22.7151 H   0  0  0  0  0  0
  -24.5857  -30.7170   25.7493 H   0  0  0  0  0  0
  -24.8758  -32.3123   26.4307 H   0  0  0  0  0  0
  -25.7707  -30.9242   27.0201 H   0  0  0  0  0  0
  -26.3440  -29.6234   24.1899 H   0  0  0  0  0  0
  -27.3987  -29.7352   25.5722 H   0  0  0  0  0  0
  -27.9451  -30.3787   24.0498 H   0  0  0  0  0  0
  -27.2518  -33.3820   26.1734 H   0  0  0  0  0  0
  -28.4012  -32.6774   25.0463 H   0  0  0  0  0  0
  -28.0505  -31.8773   26.5707 H   0  0  0  0  0  0
  -28.2518  -38.0024   24.7508 H   0  0  0  0  0  0
  -28.1095  -36.2540   24.6307 H   0  0  0  0  0  0
  -27.2262  -37.1325   25.8868 H   0  0  0  0  0  0
  -20.9941  -29.8584   21.6307 H   0  0  0  0  0  0
  -26.0048  -38.2599   24.1420 H   0  0  0  0  0  0
  -30.9736  -21.3766   20.3540 H   0  0  0  0  0  0
  -31.2565  -18.9042   21.2338 H   0  0  0  0  0  0
  -31.3344  -18.9144   19.5041 H   0  0  0  0  0  0
  -27.9074  -19.0808   19.3624 H   0  0  0  0  0  0
  -27.8341  -19.0711   21.0833 H   0  0  0  0  0  0
  -27.2189  -22.8224   20.9512 H   0  0  0  0  0  0
  -27.4625  -22.8823   19.2566 H   0  0  0  0  0  0
  1 25  1  0  0  0
  1 30  2  0  0  0
  1 76  1  0  0  0
  2  3  1  0  0  0
  2 25  1  0  0  0
  2 77  1  0  0  0
  2 78  1  0  0  0
  3  4  1  0  0  0
  3 79  1  0  0  0
  3 80  1  0  0  0
  4  5  1  0  0  0
  4 81  1  0  0  0
  4 82  1  0  0  0
  5  6  1  0  0  0
  5 26  1  0  0  0
  5 83  1  0  0  0
  6 25  1  0  0  0
  6 84  1  0  0  0
  6 85  1  0  0  0
  7  8  2  0  0  0
  7 26  1  0  0  0
  7 29  1  0  0  0
  8  9  1  0  0  0
  8 22  1  0  0  0
  9 10  1  0  0  0
  9 27  2  0  0  0
 10 11  2  0  0  0
 10 15  1  0  0  0
 11 12  1  0  0  0
 11 86  1  0  0  0
 12 13  2  0  0  0
 12 87  1  0  0  0
 13 14  1  0  0  0
 13 31  1  0  0  0
 14 15  2  0  0  0
 14 88  1  0  0  0
 15 89  1  0  0  0
 16 17  2  0  0  0
 16 21  1  0  0  0
 16 31  1  0  0  0
 17 18  1  0  0  0
 17 90  1  0  0  0
 18 19  2  0  0  0
 18 91  1  0  0  0
 19 20  1  0  0  0
 19 24  1  0  0  0
 20 21  2  0  0  0
 20 92  1  0  0  0
 21 23  1  0  0  0
 22 28  1  0  0  0
 22 32  2  0  0  0
 26 27  1  0  0  0
 28 93  1  0  0  0
 28 94  1  0  0  0
 29 95  1  0  0  0
 29 96  1  0  0  0
 33 34  1  0  0  0
 33 66  1  0  0  0
 33 70  2  0  0  0
 34 36  1  0  0  0
 34 59  1  0  0  0
 34 97  1  0  0  0
 35 44  2  0  0  0
 35 45  1  0  0  0
 35 68  1  0  0  0
 36 56  1  0  0  0
 36 98  1  0  0  0
 37 39  1  0  0  0
 37 47  1  0  0  0
 37 66  1  0  0  0
 37 99  1  0  0  0
 38 43  2  0  0  0
 38 46  1  0  0  0
 38 47  1  0  0  0
 39 64  1  0  0  0
 39 67  2  0  0  0
 40 52  1  0  0  0
 40 53  2  0  0  0
 40 58  1  0  0  0
 41100  1  0  0  0
 41101  1  0  0  0
 41102  1  0  0  0
 41 48  1  0  0  0
 42 43  1  0  0  0
 42 66  1  0  0  0
 42103  1  0  0  0
 42104  1  0  0  0
 43 44  1  0  0  0
 44105  1  0  0  0
 45 46  2  0  0  0
 45106  1  0  0  0
 46107  1  0  0  0
 47108  1  0  0  0
 47109  1  0  0  0
 48 56  1  0  0  0
 48 65  1  0  0  0
 48110  1  0  0  0
 49 50  1  0  0  0
 49 53  1  0  0  0
 49 64  1  0  0  0
 49111  1  0  0  0
 50 51  1  0  0  0
 50112  1  0  0  0
 50113  1  0  0  0
 51 52  1  0  0  0
 51114  1  0  0  0
 51115  1  0  0  0
 52116  1  0  0  0
 52117  1  0  0  0
 53 54  1  0  0  0
 54 55  2  0  0  0
 54118  1  0  0  0
 55 57  1  0  0  0
 55119  1  0  0  0
 56 69  2  0  0  0
 57 58  2  0  0  0
 57120  1  0  0  0
 58121  1  0  0  0
 59 60  1  0  0  0
 59 61  1  0  0  0
 59 62  1  0  0  0
 60122  1  0  0  0
 60123  1  0  0  0
 60124  1  0  0  0
 61125  1  0  0  0
 61126  1  0  0  0
 61127  1  0  0  0
 62128  1  0  0  0
 62129  1  0  0  0
 62130  1  0  0  0
 63 65  1  0  0  0
 63131  1  0  0  0
 63132  1  0  0  0
 63133  1  0  0  0
 64134  1  0  0  0
 65135  1  0  0  0
 68 75  1  0  0  0
 71 72  2  0  0  0
 71 73  1  0  0  0
 71136  1  0  0  0
 72 74  1  0  0  0
 72 75  1  0  0  0
 73 76  1  0  0  0
 73137  1  0  0  0
 73138  1  0  0  0
 74 76  1  0  0  0
 74139  1  0  0  0
 74140  1  0  0  0
 75141  1  0  0  0
 75142  1  0  0  0
M  ISO  4   1 100  68 101  75 101  76 100
M  END
> <chiral flag>
0

> <version>
0

> <s_m_source_file>
/data/baiqing/PycharmProjects/Reinvent-master-3.2/result/LINK_invent/BTK/process_docking_weight1_custom_product_contain_oxygen_bond_distance_aromatic_linkinvent_7_9_3/rearranged_h_0149.sdf

> <i_m_source_file_index>
88

> <r_mmod_Potential_Energy-OPLS-2005>
4940.07421875

> <r_mmod_Stretch_Energy-OPLS-2005>
1987.07788085938

> <r_mmod_Bend_Energy-OPLS-2005>
1150.21374511719

> <r_mmod_Torsional_Energy-OPLS-2005>
250.113845825195

> <r_mmod_Improper_Torsional_Energy-OPLS-2005>
5.64973449707031

> <r_mmod_Van_der_Waal_Energy-OPLS-2005>
115.324867248535

> <r_mmod_Electrostatic_Energy-OPLS-2005>
-267.703430175781

> <r_mmod_Solvation_Energy-OPLS-2005>
-217.814010620117

> <b_mmod_Minimization_Converged-OPLS-2005>
1

> <r_mmod_RMS_Derivative-OPLS-2005>
0.0414859168231487

$$$$
88
                    3D
 Structure written by MMmdl.
163172  0  0  1  0            999 V2000
  -30.6349  -14.7690   20.4318 C   0  0  0  0  0  0
  -30.4224  -12.4669   19.4847 C   0  0  0  0  0  0
  -29.5105  -12.5020   18.2394 C   0  0  0  0  0  0
  -28.0365  -12.3293   18.6515 C   0  0  0  0  0  0
  -27.6350  -13.2415   19.8415 C   0  0  2  0  0  0
  -28.6778  -13.2155   20.9801 C   0  0  0  0  0  0
  -25.2481  -13.8218   20.5710 C   0  0  0  0  0  0
  -24.1779  -13.0457   20.9220 C   0  0  0  0  0  0
  -24.6374  -11.6929   20.8727 C   0  0  0  0  0  0
  -23.9054  -10.4299   21.0383 C   0  0  0  0  0  0
  -24.3603   -9.4221   21.9167 C   0  0  0  0  0  0
  -23.6283   -8.2246   22.0743 C   0  0  0  0  0  0
  -22.4266   -8.0269   21.3538 C   0  0  0  0  0  0
  -21.9893   -9.0242   20.4645 C   0  0  0  0  0  0
  -22.7215  -10.2128   20.3047 C   0  0  0  0  0  0
  -21.6855   -6.0719   22.5274 C   0  0  0  0  0  0
  -21.4012   -6.5627   23.8202 C   0  0  0  0  0  0
  -21.3669   -5.6782   24.9170 C   0  0  0  0  0  0
  -21.6047   -4.3048   24.7225 C   0  0  0  0  0  0
  -21.8819   -3.8134   23.4347 C   0  0  0  0  0  0
  -21.9196   -4.6947   22.3404 C   0  0  0  0  0  0
  -22.7801  -13.5234   21.1872 C   0  0  0  0  0  0
  -22.1664   -4.2134   21.0980 F   0  0  0  0  0  0
  -21.5634   -3.4535   25.7742 F   0  0  0  0  0  0
  -29.9767  -13.5560   20.3902 N   0  0  0  0  0  0
  -26.2899  -12.9438   20.3240 N   0  0  0  0  0  0
  -25.9304  -11.6580   20.5711 N   0  0  0  0  0  0
  -22.0440  -12.8225   22.0433 N   0  0  0  0  0  0
  -25.4190  -15.1938   20.4134 N   0  0  0  0  0  0
  -31.8421  -14.7770   20.1800 O   0  0  0  0  0  0
  -21.6640   -6.8854   21.4231 O   0  0  0  0  0  0
  -22.3491  -14.5550   20.6744 O   0  0  0  0  0  0
  -24.6320  -31.8536   23.1951 C   0  0  0  0  0  0
  -25.9144  -32.4747   23.8300 C   0  0  1  0  0  0
  -27.2245  -27.2520   20.1388 C   0  0  0  0  0  0
  -25.5934  -33.8547   24.2237 N   0  0  0  0  0  0
  -23.4290  -30.4753   21.5377 C   0  0  2  0  0  0
  -24.8770  -28.9145   20.1122 C   0  0  0  0  0  0
  -22.7506  -29.4602   22.4895 C   0  0  0  0  0  0
  -18.0299  -28.1409   22.8487 C   0  0  0  0  0  0
  -24.1486  -36.7272   23.2641 C   0  0  0  0  0  0
  -25.9740  -30.7662   21.3735 C   0  0  0  0  0  0
  -26.0480  -29.3859   20.7182 C   0  0  0  0  0  0
  -27.2243  -28.5692   20.7149 C   0  0  0  0  0  0
  -26.0284  -26.8433   19.5099 C   0  0  0  0  0  0
  -24.8732  -27.6526   19.4964 C   0  0  0  0  0  0
  -23.6477  -29.8039   20.1556 C   0  0  0  0  0  0
  -25.4117  -36.3060   24.0321 C   0  0  1  0  0  0
  -20.5903  -28.3720   23.1269 C   0  0  2  0  0  0
  -20.6781  -26.9432   22.5424 C   0  0  0  0  0  0
  -19.5757  -26.6399   21.5226 C   0  0  0  0  0  0
  -18.1932  -26.7958   22.1624 C   0  0  0  0  0  0
  -19.1550  -28.8885   23.2877 C   0  0  0  0  0  0
  -18.9471  -30.1477   23.8906 C   0  0  0  0  0  0
  -17.6468  -30.6605   24.0573 C   0  0  0  0  0  0
  -25.9057  -34.9436   23.5083 C   0  0  0  0  0  0
  -16.5361  -29.9102   23.6332 C   0  0  0  0  0  0
  -16.7282  -28.6519   23.0359 C   0  0  0  0  0  0
  -26.4507  -31.6584   25.0702 C   0  0  0  0  0  0
  -25.3723  -31.3762   26.1426 C   0  0  0  0  0  0
  -27.0343  -30.2991   24.6200 C   0  0  0  0  0  0
  -27.6054  -32.4329   25.7480 C   0  0  0  0  0  0
  -27.5582  -37.1788   24.8461 C   0  0  0  0  0  0
  -21.4216  -29.3056   22.3650 N   0  0  0  0  0  0
  -26.4290  -37.3767   23.9410 N   0  0  0  0  0  0
  -24.6969  -31.0506   22.0918 N   0  0  0  0  0  0
  -23.4202  -28.8149   23.3003 O   0  0  0  0  0  0
  -28.3376  -26.3811   20.1887 O   0  0  0  0  0  0
  -26.5634  -34.8911   22.4652 O   0  0  0  0  0  0
  -23.5470  -32.1360   23.7246 O   0  0  0  0  0  0
  -31.8652  -18.8813   19.0286 C   0  0  0  0  0  0
  -31.1038  -20.0213   19.3323 C   0  0  0  0  0  0
  -31.4619  -17.5995   19.4380 C   0  0  0  0  0  0
  -29.5051  -18.5932   20.4911 C   0  0  0  0  0  0
  -29.9055  -19.9440   20.0743 C   0  0  0  0  0  0
  -30.2827  -17.3781   20.1956 C   0  0  0  0  0  0
  -29.1544  -21.2970   20.1946 C   0  0  0  0  0  0
  -31.3338  -23.6972   22.0303 C   0  0  0  0  0  0
  -30.1773  -24.6191   21.6696 C   0  0  0  0  0  0
  -30.9385  -22.3233   21.4853 C   0  0  0  0  0  0
  -29.5509  -24.0354   20.3903 C   0  0  2  0  0  0
  -30.4480  -24.3732   19.1772 C   0  0  0  0  0  0
  -28.1805  -24.8753   20.1830 C   0  0  0  0  0  0
  -29.7115  -22.4962   20.6610 N   0  0  0  0  0  0
  -29.9134  -15.9640   20.5593 N   0  0  0  0  0  0
  -27.9157  -21.3498   19.7238 N   0  3  0  0  0  0
  -31.4658  -12.5720   19.1828 H   0  0  0  0  0  0
  -30.3522  -11.5012   19.9877 H   0  0  0  0  0  0
  -29.7959  -11.7147   17.5409 H   0  0  0  0  0  0
  -29.6410  -13.4461   17.7089 H   0  0  0  0  0  0
  -27.8948  -11.2825   18.9237 H   0  0  0  0  0  0
  -27.3828  -12.5121   17.7974 H   0  0  0  0  0  0
  -27.6193  -14.2558   19.4422 H   0  0  0  0  0  0
  -28.7137  -12.2341   21.4551 H   0  0  0  0  0  0
  -28.4086  -13.9276   21.7625 H   0  0  0  0  0  0
  -25.2735   -9.5723   22.4753 H   0  0  0  0  0  0
  -24.0008   -7.4638   22.7462 H   0  0  0  0  0  0
  -21.0821   -8.8751   19.8949 H   0  0  0  0  0  0
  -22.3649  -10.9660   19.6164 H   0  0  0  0  0  0
  -21.1998   -7.6131   23.9702 H   0  0  0  0  0  0
  -21.1494   -6.0512   25.9070 H   0  0  0  0  0  0
  -22.0594   -2.7596   23.2854 H   0  0  0  0  0  0
  -22.4042  -11.9899   22.4856 H   0  0  0  0  0  0
  -21.1053  -13.1251   22.2617 H   0  0  0  0  0  0
  -24.6545  -15.8498   20.5236 H   0  0  0  0  0  0
  -26.2645  -15.6285   20.0666 H   0  0  0  0  0  0
  -26.7211  -32.5402   23.1041 H   0  0  0  0  0  0
  -25.0086  -33.9668   25.0384 H   0  0  0  0  0  0
  -22.7255  -31.2975   21.3889 H   0  0  0  0  0  0
  -23.3750  -35.9603   23.3305 H   0  0  0  0  0  0
  -24.3574  -36.8897   22.2056 H   0  0  0  0  0  0
  -23.7238  -37.6469   23.6669 H   0  0  0  0  0  0
  -26.1142  -31.5247   20.6022 H   0  0  0  0  0  0
  -26.8508  -30.8166   22.0078 H   0  0  0  0  0  0
  -28.1228  -28.9267   21.1982 H   0  0  0  0  0  0
  -25.9631  -25.8763   19.0329 H   0  0  0  0  0  0
  -23.9754  -27.2852   19.0184 H   0  0  0  0  0  0
  -23.7735  -30.5762   19.3957 H   0  0  0  0  0  0
  -22.7648  -29.2379   19.8528 H   0  0  0  0  0  0
  -25.1302  -36.1902   25.0815 H   0  0  0  0  0  0
  -21.0007  -28.3319   24.1388 H   0  0  0  0  0  0
  -20.5681  -26.2337   23.3638 H   0  0  0  0  0  0
  -21.6647  -26.7451   22.1226 H   0  0  0  0  0  0
  -19.6907  -25.6305   21.1267 H   0  0  0  0  0  0
  -19.6698  -27.3200   20.6746 H   0  0  0  0  0  0
  -17.4210  -26.6728   21.4015 H   0  0  0  0  0  0
  -18.0305  -26.0105   22.9019 H   0  0  0  0  0  0
  -19.7943  -30.7295   24.2287 H   0  0  0  0  0  0
  -17.5019  -31.6284   24.5174 H   0  0  0  0  0  0
  -15.5360  -30.3005   23.7655 H   0  0  0  0  0  0
  -15.8683  -28.0831   22.7084 H   0  0  0  0  0  0
  -24.5905  -30.7093   25.7781 H   0  0  0  0  0  0
  -24.8908  -32.2944   26.4799 H   0  0  0  0  0  0
  -25.8045  -30.8995   27.0234 H   0  0  0  0  0  0
  -26.2923  -29.6746   24.1216 H   0  0  0  0  0  0
  -27.4000  -29.7260   25.4730 H   0  0  0  0  0  0
  -27.8813  -30.4246   23.9451 H   0  0  0  0  0  0
  -27.2653  -33.3633   26.2037 H   0  0  0  0  0  0
  -28.3880  -32.6888   25.0325 H   0  0  0  0  0  0
  -28.0705  -31.8470   26.5418 H   0  0  0  0  0  0
  -28.2601  -38.0085   24.7513 H   0  0  0  0  0  0
  -28.1076  -36.2618   24.6277 H   0  0  0  0  0  0
  -27.2303  -37.1431   25.8864 H   0  0  0  0  0  0
  -20.9410  -29.8768   21.6840 H   0  0  0  0  0  0
  -26.0163  -38.2836   24.1421 H   0  0  0  0  0  0
  -32.7700  -18.9835   18.4450 H   0  0  0  0  0  0
  -31.4407  -20.9742   18.9450 H   0  0  0  0  0  0
  -32.0983  -16.7960   19.1108 H   0  0  0  0  0  0
  -28.5793  -18.4922   21.0395 H   0  0  0  0  0  0
  -31.5075  -23.6781   23.1072 H   0  0  0  0  0  0
  -32.2566  -24.0356   21.5565 H   0  0  0  0  0  0
  -30.5220  -25.6470   21.5431 H   0  0  0  0  0  0
  -29.4433  -24.6293   22.4772 H   0  0  0  0  0  0
  -30.7392  -21.6420   22.3146 H   0  0  0  0  0  0
  -31.7753  -21.9148   20.9205 H   0  0  0  0  0  0
  -30.8042  -25.4030   19.2152 H   0  0  0  0  0  0
  -29.8998  -24.2592   18.2423 H   0  0  0  0  0  0
  -31.3248  -23.7298   19.1088 H   0  0  0  0  0  0
  -27.4650  -24.5941   20.9564 H   0  0  0  0  0  0
  -27.7383  -24.5746   19.2333 H   0  0  0  0  0  0
  -28.9569  -15.8351   20.8516 H   0  0  0  0  0  0
  -27.5115  -20.5164   19.3258 H   0  0  0  0  0  0
  -27.3426  -22.1683   19.8276 H   0  0  0  0  0  0
  1 25  1  0  0  0
  1 30  2  0  0  0
  1 85  1  0  0  0
  2  3  1  0  0  0
  2 25  1  0  0  0
  2 87  1  0  0  0
  2 88  1  0  0  0
  3  4  1  0  0  0
  3 89  1  0  0  0
  3 90  1  0  0  0
  4  5  1  0  0  0
  4 91  1  0  0  0
  4 92  1  0  0  0
  5  6  1  0  0  0
  5 26  1  0  0  0
  5 93  1  0  0  0
  6 25  1  0  0  0
  6 94  1  0  0  0
  6 95  1  0  0  0
  7  8  2  0  0  0
  7 26  1  0  0  0
  7 29  1  0  0  0
  8  9  1  0  0  0
  8 22  1  0  0  0
  9 10  1  0  0  0
  9 27  2  0  0  0
 10 11  2  0  0  0
 10 15  1  0  0  0
 11 12  1  0  0  0
 11 96  1  0  0  0
 12 13  2  0  0  0
 12 97  1  0  0  0
 13 14  1  0  0  0
 13 31  1  0  0  0
 14 15  2  0  0  0
 14 98  1  0  0  0
 15 99  1  0  0  0
 16 17  2  0  0  0
 16 21  1  0  0  0
 16 31  1  0  0  0
 17 18  1  0  0  0
 17100  1  0  0  0
 18 19  2  0  0  0
 18101  1  0  0  0
 19 20  1  0  0  0
 19 24  1  0  0  0
 20 21  2  0  0  0
 20102  1  0  0  0
 21 23  1  0  0  0
 22 28  1  0  0  0
 22 32  2  0  0  0
 26 27  1  0  0  0
 28103  1  0  0  0
 28104  1  0  0  0
 29105  1  0  0  0
 29106  1  0  0  0
 33 34  1  0  0  0
 33 66  1  0  0  0
 33 70  2  0  0  0
 34 36  1  0  0  0
 34 59  1  0  0  0
 34107  1  0  0  0
 35 44  2  0  0  0
 35 45  1  0  0  0
 35 68  1  0  0  0
 36 56  1  0  0  0
 36108  1  0  0  0
 37 39  1  0  0  0
 37 47  1  0  0  0
 37 66  1  0  0  0
 37109  1  0  0  0
 38 43  2  0  0  0
 38 46  1  0  0  0
 38 47  1  0  0  0
 39 64  1  0  0  0
 39 67  2  0  0  0
 40 52  1  0  0  0
 40 53  2  0  0  0
 40 58  1  0  0  0
 41110  1  0  0  0
 41111  1  0  0  0
 41112  1  0  0  0
 41 48  1  0  0  0
 42 43  1  0  0  0
 42 66  1  0  0  0
 42113  1  0  0  0
 42114  1  0  0  0
 43 44  1  0  0  0
 44115  1  0  0  0
 45 46  2  0  0  0
 45116  1  0  0  0
 46117  1  0  0  0
 47118  1  0  0  0
 47119  1  0  0  0
 48 56  1  0  0  0
 48 65  1  0  0  0
 48120  1  0  0  0
 49 50  1  0  0  0
 49 53  1  0  0  0
 49 64  1  0  0  0
 49121  1  0  0  0
 50 51  1  0  0  0
 50122  1  0  0  0
 50123  1  0  0  0
 51 52  1  0  0  0
 51124  1  0  0  0
 51125  1  0  0  0
 52126  1  0  0  0
 52127  1  0  0  0
 53 54  1  0  0  0
 54 55  2  0  0  0
 54128  1  0  0  0
 55 57  1  0  0  0
 55129  1  0  0  0
 56 69  2  0  0  0
 57 58  2  0  0  0
 57130  1  0  0  0
 58131  1  0  0  0
 59 60  1  0  0  0
 59 61  1  0  0  0
 59 62  1  0  0  0
 60132  1  0  0  0
 60133  1  0  0  0
 60134  1  0  0  0
 61135  1  0  0  0
 61136  1  0  0  0
 61137  1  0  0  0
 62138  1  0  0  0
 62139  1  0  0  0
 62140  1  0  0  0
 63 65  1  0  0  0
 63141  1  0  0  0
 63142  1  0  0  0
 63143  1  0  0  0
 64144  1  0  0  0
 65145  1  0  0  0
 68 83  1  0  0  0
 71 72  2  0  0  0
 71 73  1  0  0  0
 71146  1  0  0  0
 72 75  1  0  0  0
 72147  1  0  0  0
 73 76  2  0  0  0
 73148  1  0  0  0
 74 75  2  0  0  0
 74 76  1  0  0  0
 74149  1  0  0  0
 75 77  1  0  0  0
 76 85  1  0  0  0
 77 84  1  0  0  0
 77 86  2  0  0  0
 78 79  1  0  0  0
 78 80  1  0  0  0
 78150  1  0  0  0
 78151  1  0  0  0
 79 81  1  0  0  0
 79152  1  0  0  0
 79153  1  0  0  0
 80 84  1  0  0  0
 80154  1  0  0  0
 80155  1  0  0  0
 81 82  1  0  0  0
 81 83  1  0  0  0
 81 84  1  0  0  0
 82156  1  0  0  0
 82157  1  0  0  0
 82158  1  0  0  0
 83159  1  0  0  0
 83160  1  0  0  0
 85161  1  0  0  0
 86162  1  0  0  0
 86163  1  0  0  0
M  CHG  1  86   1
M  ISO  4   1 100  68 101  83 101  85 100
M  END
> <chiral flag>
0

> <version>
0

> <s_m_source_file>
/data/baiqing/PycharmProjects/Reinvent-master-3.2/result/LINK_invent/BTK/process_docking_weight1_custom_product_contain_oxygen_bond_distance_aromatic_linkinvent_7_9_3/rearranged_h_0149.sdf

> <i_m_source_file_index>
89

> <r_mmod_Potential_Energy-OPLS-2005>
170.539352416992

> <r_mmod_Stretch_Energy-OPLS-2005>
153.574203491211

> <r_mmod_Bend_Energy-OPLS-2005>
240.352188110352

> <r_mmod_Torsional_Energy-OPLS-2005>
322.611633300781

> <r_mmod_Improper_Torsional_Energy-OPLS-2005>
6.10100507736206

> <r_mmod_Van_der_Waal_Energy-OPLS-2005>
146.616836547852

> <r_mmod_Electrostatic_Energy-OPLS-2005>
-399.325805664062

> <r_mmod_Solvation_Energy-OPLS-2005>
-393.160797119141

> <b_mmod_Minimization_Converged-OPLS-2005>
0

> <r_mmod_RMS_Derivative-OPLS-2005>
1.92766571044922

$$$$
89
                    3D
 Structure written by MMmdl.
151159  0  0  1  0            999 V2000
  -30.5670  -14.7800   20.4344 C   0  0  0  0  0  0
  -30.4397  -12.4752   19.4618 C   0  0  0  0  0  0
  -29.5154  -12.5310   18.2252 C   0  0  0  0  0  0
  -28.0371  -12.3612   18.6318 C   0  0  0  0  0  0
  -27.6454  -13.2365   19.8523 C   0  0  2  0  0  0
  -28.6945  -13.1451   20.9821 C   0  0  0  0  0  0
  -25.2534  -13.8192   20.5708 C   0  0  0  0  0  0
  -24.1828  -13.0430   20.9208 C   0  0  0  0  0  0
  -24.6426  -11.6910   20.8731 C   0  0  0  0  0  0
  -23.9095  -10.4283   21.0388 C   0  0  0  0  0  0
  -24.3638   -9.4197   21.9159 C   0  0  0  0  0  0
  -23.6307   -8.2232   22.0734 C   0  0  0  0  0  0
  -22.4285   -8.0269   21.3530 C   0  0  0  0  0  0
  -21.9921   -9.0252   20.4639 C   0  0  0  0  0  0
  -22.7256  -10.2135   20.3042 C   0  0  0  0  0  0
  -21.6865   -6.0730   22.5263 C   0  0  0  0  0  0
  -21.4022   -6.5640   23.8192 C   0  0  0  0  0  0
  -21.3666   -5.6796   24.9160 C   0  0  0  0  0  0
  -21.6051   -4.3056   24.7213 C   0  0  0  0  0  0
  -21.8818   -3.8142   23.4334 C   0  0  0  0  0  0
  -21.9194   -4.6960   22.3394 C   0  0  0  0  0  0
  -22.7839  -13.5209   21.1835 C   0  0  0  0  0  0
  -22.1654   -4.2142   21.0968 F   0  0  0  0  0  0
  -21.5640   -3.4538   25.7725 F   0  0  0  0  0  0
  -29.9896  -13.5251   20.4054 N   0  0  0  0  0  0
  -26.2973  -12.9415   20.3280 N   0  0  0  0  0  0
  -25.9365  -11.6551   20.5736 N   0  0  0  0  0  0
  -22.0488  -12.8218   22.0413 N   0  0  0  0  0  0
  -25.4240  -15.1913   20.4142 N   0  0  0  0  0  0
  -31.7428  -14.9183   20.0829 O   0  0  0  0  0  0
  -21.6645   -6.8865   21.4218 O   0  0  0  0  0  0
  -22.3517  -14.5500   20.6665 O   0  0  0  0  0  0
  -24.6354  -31.8518   23.1955 C   0  0  0  0  0  0
  -25.9171  -32.4737   23.8310 C   0  0  1  0  0  0
  -27.2124  -27.2311   20.1253 C   0  0  0  0  0  0
  -25.5939  -33.8536   24.2231 N   0  0  0  0  0  0
  -23.4323  -30.4766   21.5392 C   0  0  2  0  0  0
  -24.8747  -28.9184   20.1045 C   0  0  0  0  0  0
  -22.7519  -29.4606   22.4889 C   0  0  0  0  0  0
  -18.0296  -28.1411   22.8466 C   0  0  0  0  0  0
  -24.1484  -36.7294   23.2642 C   0  0  0  0  0  0
  -25.9797  -30.7519   21.3794 C   0  0  0  0  0  0
  -26.0456  -29.3728   20.7209 C   0  0  0  0  0  0
  -27.2129  -28.5407   20.7246 C   0  0  0  0  0  0
  -26.0111  -26.8454   19.4872 C   0  0  0  0  0  0
  -24.8639  -27.6637   19.4772 C   0  0  0  0  0  0
  -23.6491  -29.8127   20.1538 C   0  0  0  0  0  0
  -25.4111  -36.3071   24.0328 C   0  0  1  0  0  0
  -20.5899  -28.3740   23.1242 C   0  0  2  0  0  0
  -20.6793  -26.9457   22.5408 C   0  0  0  0  0  0
  -19.5772  -26.6391   21.5218 C   0  0  0  0  0  0
  -18.1947  -26.7949   22.1625 C   0  0  0  0  0  0
  -19.1547  -28.8894   23.2850 C   0  0  0  0  0  0
  -18.9480  -30.1482   23.8880 C   0  0  0  0  0  0
  -17.6479  -30.6609   24.0566 C   0  0  0  0  0  0
  -25.9057  -34.9437   23.5099 C   0  0  0  0  0  0
  -16.5368  -29.9108   23.6329 C   0  0  0  0  0  0
  -16.7280  -28.6531   23.0339 C   0  0  0  0  0  0
  -26.4489  -31.6579   25.0733 C   0  0  0  0  0  0
  -25.3682  -31.3764   26.1448 C   0  0  0  0  0  0
  -27.0342  -30.2986   24.6264 C   0  0  0  0  0  0
  -27.6025  -32.4334   25.7508 C   0  0  0  0  0  0
  -27.5587  -37.1805   24.8455 C   0  0  0  0  0  0
  -21.4227  -29.3072   22.3623 N   0  0  0  0  0  0
  -26.4283  -37.3782   23.9415 N   0  0  0  0  0  0
  -24.7021  -31.0461   22.0938 N   0  0  0  0  0  0
  -23.4203  -28.8156   23.3018 O   0  0  0  0  0  0
  -28.3130  -26.3403   20.2271 O   0  0  0  0  0  0
  -26.5641  -34.8923   22.4670 O   0  0  0  0  0  0
  -23.5499  -32.1346   23.7240 O   0  0  0  0  0  0
  -28.9495  -18.3950   20.9249 C   0  0  0  0  0  0
  -30.7004  -18.0127   19.6048 C   0  0  0  0  0  0
  -29.8290  -17.3398   20.4309 C   0  0  0  0  0  0
  -29.3499  -19.6169   20.3784 C   0  0  0  0  0  0
  -28.5581  -23.6550   20.4582 C   0  0  0  0  0  0
  -29.5470  -25.1187   18.5535 C   0  0  0  0  0  0
  -29.0711  -22.2403   19.8601 C   0  0  0  0  0  0
  -28.3902  -24.9867   19.5525 C   0  0  2  0  0  0
  -29.7442  -15.8700   20.7161 N   0  0  0  0  0  0
  -28.8023  -20.9459   20.6224 N   0  0  0  0  0  0
  -28.2387  -23.6949   21.6512 O   0  0  0  0  0  0
  -30.4199  -19.3818   19.5567 O   0  0  0  0  0  0
  -31.4796  -12.6154   19.1607 H   0  0  0  0  0  0
  -30.3938  -11.4918   19.9313 H   0  0  0  0  0  0
  -29.7990  -11.7588   17.5086 H   0  0  0  0  0  0
  -29.6438  -13.4867   17.7123 H   0  0  0  0  0  0
  -27.8812  -11.3088   18.8683 H   0  0  0  0  0  0
  -27.3863  -12.5840   17.7847 H   0  0  0  0  0  0
  -27.6468  -14.2668   19.4960 H   0  0  0  0  0  0
  -28.7415  -12.1336   21.3889 H   0  0  0  0  0  0
  -28.4284  -13.7944   21.8163 H   0  0  0  0  0  0
  -25.2785   -9.5690   22.4720 H   0  0  0  0  0  0
  -24.0026   -7.4637   22.7471 H   0  0  0  0  0  0
  -21.0833   -8.8769   19.8968 H   0  0  0  0  0  0
  -22.3686  -10.9665   19.6149 H   0  0  0  0  0  0
  -21.2003   -7.6145   23.9698 H   0  0  0  0  0  0
  -21.1499   -6.0520   25.9070 H   0  0  0  0  0  0
  -22.0594   -2.7603   23.2827 H   0  0  0  0  0  0
  -22.4144  -11.9942   22.4895 H   0  0  0  0  0  0
  -21.1064  -13.1203   22.2552 H   0  0  0  0  0  0
  -24.6568  -15.8432   20.5342 H   0  0  0  0  0  0
  -26.2651  -15.6295   20.0604 H   0  0  0  0  0  0
  -26.7242  -32.5354   23.1043 H   0  0  0  0  0  0
  -25.0052  -33.9649   25.0361 H   0  0  0  0  0  0
  -22.7321  -31.3014   21.3958 H   0  0  0  0  0  0
  -23.3757  -35.9622   23.3271 H   0  0  0  0  0  0
  -24.3581  -36.8950   22.2067 H   0  0  0  0  0  0
  -23.7229  -37.6483   23.6677 H   0  0  0  0  0  0
  -26.1270  -31.5070   20.6058 H   0  0  0  0  0  0
  -26.8554  -30.7954   22.0148 H   0  0  0  0  0  0
  -28.1047  -28.8831   21.2303 H   0  0  0  0  0  0
  -25.8931  -25.8829   19.0189 H   0  0  0  0  0  0
  -23.9660  -27.3051   18.9930 H   0  0  0  0  0  0
  -23.7801  -30.5920   19.4007 H   0  0  0  0  0  0
  -22.7625  -29.2543   19.8489 H   0  0  0  0  0  0
  -25.1296  -36.1913   25.0823 H   0  0  0  0  0  0
  -20.9983  -28.3349   24.1364 H   0  0  0  0  0  0
  -20.5709  -26.2371   23.3635 H   0  0  0  0  0  0
  -21.6660  -26.7500   22.1200 H   0  0  0  0  0  0
  -19.6944  -25.6292   21.1280 H   0  0  0  0  0  0
  -19.6706  -27.3174   20.6728 H   0  0  0  0  0  0
  -17.4221  -26.6671   21.4017 H   0  0  0  0  0  0
  -18.0358  -26.0104   22.9041 H   0  0  0  0  0  0
  -19.7957  -30.7292   24.2242 H   0  0  0  0  0  0
  -17.5045  -31.6276   24.5199 H   0  0  0  0  0  0
  -15.5374  -30.3023   23.7664 H   0  0  0  0  0  0
  -15.8675  -28.0866   22.7049 H   0  0  0  0  0  0
  -24.5824  -30.7150   25.7772 H   0  0  0  0  0  0
  -24.8907  -32.2952   26.4867 H   0  0  0  0  0  0
  -25.7968  -30.8927   27.0234 H   0  0  0  0  0  0
  -26.2947  -29.6738   24.1234 H   0  0  0  0  0  0
  -27.3939  -29.7258   25.4824 H   0  0  0  0  0  0
  -27.8859  -30.4258   23.9577 H   0  0  0  0  0  0
  -27.2614  -33.3640   26.2060 H   0  0  0  0  0  0
  -28.3836  -32.6889   25.0334 H   0  0  0  0  0  0
  -28.0681  -31.8474   26.5445 H   0  0  0  0  0  0
  -28.2580  -38.0127   24.7545 H   0  0  0  0  0  0
  -28.1105  -36.2663   24.6211 H   0  0  0  0  0  0
  -27.2311  -37.1382   25.8857 H   0  0  0  0  0  0
  -20.9435  -29.8777   21.6798 H   0  0  0  0  0  0
  -26.0161  -38.2855   24.1421 H   0  0  0  0  0  0
  -28.1184  -18.2728   21.6050 H   0  0  0  0  0  0
  -31.5325  -17.6990   18.9897 H   0  0  0  0  0  0
  -29.6533  -24.2230   17.9406 H   0  0  0  0  0  0
  -30.4923  -25.2924   19.0672 H   0  0  0  0  0  0
  -29.3759  -25.9568   17.8774 H   0  0  0  0  0  0
  -30.1494  -22.3277   19.7227 H   0  0  0  0  0  0
  -28.6548  -22.1468   18.8565 H   0  0  0  0  0  0
  -27.5032  -24.7959   18.9597 H   0  0  0  0  0  0
  -28.8589  -15.5819   21.1046 H   0  0  0  0  0  0
  -28.0305  -21.0239   21.2819 H   0  0  0  0  0  0
  1 25  1  0  0  0
  1 30  2  0  0  0
  1 79  1  0  0  0
  2  3  1  0  0  0
  2 25  1  0  0  0
  2 83  1  0  0  0
  2 84  1  0  0  0
  3  4  1  0  0  0
  3 85  1  0  0  0
  3 86  1  0  0  0
  4  5  1  0  0  0
  4 87  1  0  0  0
  4 88  1  0  0  0
  5  6  1  0  0  0
  5 26  1  0  0  0
  5 89  1  0  0  0
  6 25  1  0  0  0
  6 90  1  0  0  0
  6 91  1  0  0  0
  7  8  2  0  0  0
  7 26  1  0  0  0
  7 29  1  0  0  0
  8  9  1  0  0  0
  8 22  1  0  0  0
  9 10  1  0  0  0
  9 27  2  0  0  0
 10 11  2  0  0  0
 10 15  1  0  0  0
 11 12  1  0  0  0
 11 92  1  0  0  0
 12 13  2  0  0  0
 12 93  1  0  0  0
 13 14  1  0  0  0
 13 31  1  0  0  0
 14 15  2  0  0  0
 14 94  1  0  0  0
 15 95  1  0  0  0
 16 17  2  0  0  0
 16 21  1  0  0  0
 16 31  1  0  0  0
 17 18  1  0  0  0
 17 96  1  0  0  0
 18 19  2  0  0  0
 18 97  1  0  0  0
 19 20  1  0  0  0
 19 24  1  0  0  0
 20 21  2  0  0  0
 20 98  1  0  0  0
 21 23  1  0  0  0
 22 28  1  0  0  0
 22 32  2  0  0  0
 26 27  1  0  0  0
 28 99  1  0  0  0
 28100  1  0  0  0
 29101  1  0  0  0
 29102  1  0  0  0
 33 34  1  0  0  0
 33 66  1  0  0  0
 33 70  2  0  0  0
 34 36  1  0  0  0
 34 59  1  0  0  0
 34103  1  0  0  0
 35 44  2  0  0  0
 35 45  1  0  0  0
 35 68  1  0  0  0
 36 56  1  0  0  0
 36104  1  0  0  0
 37 39  1  0  0  0
 37 47  1  0  0  0
 37 66  1  0  0  0
 37105  1  0  0  0
 38 43  2  0  0  0
 38 46  1  0  0  0
 38 47  1  0  0  0
 39 64  1  0  0  0
 39 67  2  0  0  0
 40 52  1  0  0  0
 40 53  2  0  0  0
 40 58  1  0  0  0
 41106  1  0  0  0
 41107  1  0  0  0
 41108  1  0  0  0
 41 48  1  0  0  0
 42 43  1  0  0  0
 42 66  1  0  0  0
 42109  1  0  0  0
 42110  1  0  0  0
 43 44  1  0  0  0
 44111  1  0  0  0
 45 46  2  0  0  0
 45112  1  0  0  0
 46113  1  0  0  0
 47114  1  0  0  0
 47115  1  0  0  0
 48 56  1  0  0  0
 48 65  1  0  0  0
 48116  1  0  0  0
 49 50  1  0  0  0
 49 53  1  0  0  0
 49 64  1  0  0  0
 49117  1  0  0  0
 50 51  1  0  0  0
 50118  1  0  0  0
 50119  1  0  0  0
 51 52  1  0  0  0
 51120  1  0  0  0
 51121  1  0  0  0
 52122  1  0  0  0
 52123  1  0  0  0
 53 54  1  0  0  0
 54 55  2  0  0  0
 54124  1  0  0  0
 55 57  1  0  0  0
 55125  1  0  0  0
 56 69  2  0  0  0
 57 58  2  0  0  0
 57126  1  0  0  0
 58127  1  0  0  0
 59 60  1  0  0  0
 59 61  1  0  0  0
 59 62  1  0  0  0
 60128  1  0  0  0
 60129  1  0  0  0
 60130  1  0  0  0
 61131  1  0  0  0
 61132  1  0  0  0
 61133  1  0  0  0
 62134  1  0  0  0
 62135  1  0  0  0
 62136  1  0  0  0
 63 65  1  0  0  0
 63137  1  0  0  0
 63138  1  0  0  0
 63139  1  0  0  0
 64140  1  0  0  0
 65141  1  0  0  0
 68 78  1  0  0  0
 71 73  1  0  0  0
 71 74  2  0  0  0
 71142  1  0  0  0
 72 73  2  0  0  0
 72 82  1  0  0  0
 72143  1  0  0  0
 73 79  1  0  0  0
 74 80  1  0  0  0
 74 82  1  0  0  0
 75 77  1  0  0  0
 75 78  1  0  0  0
 75 81  2  0  0  0
 76144  1  0  0  0
 76145  1  0  0  0
 76146  1  0  0  0
 76 78  1  0  0  0
 77 80  1  0  0  0
 77147  1  0  0  0
 77148  1  0  0  0
 78149  1  0  0  0
 79150  1  0  0  0
 80151  1  0  0  0
M  ISO  4   1 100  68 101  78 101  79 100
M  END
> <chiral flag>
0

> <version>
0

> <s_m_source_file>
/data/baiqing/PycharmProjects/Reinvent-master-3.2/result/LINK_invent/BTK/process_docking_weight1_custom_product_contain_oxygen_bond_distance_aromatic_linkinvent_7_9_3/rearranged_h_0149.sdf

> <i_m_source_file_index>
90

> <r_mmod_Potential_Energy-OPLS-2005>
194.051284790039

> <r_mmod_Stretch_Energy-OPLS-2005>
132.593063354492

> <r_mmod_Bend_Energy-OPLS-2005>
198.176940917969

> <r_mmod_Torsional_Energy-OPLS-2005>
207.325012207031

> <r_mmod_Improper_Torsional_Energy-OPLS-2005>
4.49274349212646

> <r_mmod_Van_der_Waal_Energy-OPLS-2005>
115.028533935547

> <r_mmod_Electrostatic_Energy-OPLS-2005>
-318.268280029297

> <r_mmod_Solvation_Energy-OPLS-2005>
-247.523880004883

> <b_mmod_Minimization_Converged-OPLS-2005>
0

> <r_mmod_RMS_Derivative-OPLS-2005>
2.83191919326782

$$$$
90
                    3D
 Structure written by MMmdl.
155164  0  0  1  0            999 V2000
  -30.6847  -14.5551   20.5368 C   0  0  0  0  0  0
  -30.4230  -12.3478   19.4427 C   0  0  0  0  0  0
  -29.4980  -12.4990   18.2167 C   0  0  0  0  0  0
  -28.0215  -12.3499   18.6314 C   0  0  0  0  0  0
  -27.6551  -13.2150   19.8678 C   0  0  2  0  0  0
  -28.6987  -13.0533   20.9961 C   0  0  0  0  0  0
  -25.2580  -13.8173   20.5703 C   0  0  0  0  0  0
  -24.1838  -13.0437   20.9182 C   0  0  0  0  0  0
  -24.6402  -11.6910   20.8743 C   0  0  0  0  0  0
  -23.9070  -10.4295   21.0403 C   0  0  0  0  0  0
  -24.3620   -9.4214   21.9184 C   0  0  0  0  0  0
  -23.6293   -8.2251   22.0755 C   0  0  0  0  0  0
  -22.4276   -8.0289   21.3544 C   0  0  0  0  0  0
  -21.9916   -9.0263   20.4646 C   0  0  0  0  0  0
  -22.7244  -10.2139   20.3055 C   0  0  0  0  0  0
  -21.6855   -6.0743   22.5282 C   0  0  0  0  0  0
  -21.4012   -6.5644   23.8216 C   0  0  0  0  0  0
  -21.3659   -5.6796   24.9178 C   0  0  0  0  0  0
  -21.6044   -4.3058   24.7228 C   0  0  0  0  0  0
  -21.8818   -3.8153   23.4349 C   0  0  0  0  0  0
  -21.9194   -4.6971   22.3406 C   0  0  0  0  0  0
  -22.7864  -13.5235   21.1845 C   0  0  0  0  0  0
  -22.1663   -4.2158   21.0983 F   0  0  0  0  0  0
  -21.5630   -3.4542   25.7740 F   0  0  0  0  0  0
  -30.0197  -13.3655   20.4310 N   0  0  0  0  0  0
  -26.3007  -12.9353   20.3358 N   0  0  0  0  0  0
  -25.9334  -11.6506   20.5781 N   0  0  0  0  0  0
  -22.0508  -12.8222   22.0396 N   0  0  0  0  0  0
  -25.4308  -15.1889   20.4142 N   0  0  0  0  0  0
  -31.8333  -14.6916   20.1022 O   0  0  0  0  0  0
  -21.6639   -6.8886   21.4244 O   0  0  0  0  0  0
  -22.3557  -14.5551   20.6709 O   0  0  0  0  0  0
  -24.6211  -31.8634   23.2058 C   0  0  0  0  0  0
  -25.9084  -32.4793   23.8371 C   0  0  1  0  0  0
  -27.2300  -27.3721   20.1066 C   0  0  0  0  0  0
  -25.5924  -33.8592   24.2305 N   0  0  0  0  0  0
  -23.4119  -30.4876   21.5473 C   0  0  2  0  0  0
  -24.8586  -28.9515   20.1102 C   0  0  0  0  0  0
  -22.7444  -29.4643   22.4956 C   0  0  0  0  0  0
  -18.0283  -28.1372   22.8488 C   0  0  0  0  0  0
  -24.1489  -36.7306   23.2637 C   0  0  0  0  0  0
  -25.9475  -30.8127   21.3672 C   0  0  0  0  0  0
  -26.0240  -29.4435   20.7111 C   0  0  0  0  0  0
  -27.2122  -28.6639   20.7022 C   0  0  0  0  0  0
  -26.0417  -26.9197   19.4850 C   0  0  0  0  0  0
  -24.8668  -27.6925   19.4902 C   0  0  0  0  0  0
  -23.6231  -29.8236   20.1614 C   0  0  0  0  0  0
  -25.4108  -36.3091   24.0333 C   0  0  1  0  0  0
  -20.5876  -28.3672   23.1296 C   0  0  2  0  0  0
  -20.6771  -26.9401   22.5411 C   0  0  0  0  0  0
  -19.5750  -26.6381   21.5206 C   0  0  0  0  0  0
  -18.1928  -26.7917   22.1622 C   0  0  0  0  0  0
  -19.1531  -28.8837   23.2889 C   0  0  0  0  0  0
  -18.9458  -30.1437   23.8909 C   0  0  0  0  0  0
  -17.6462  -30.6580   24.0558 C   0  0  0  0  0  0
  -25.9044  -34.9459   23.5115 C   0  0  0  0  0  0
  -16.5353  -29.9082   23.6321 C   0  0  0  0  0  0
  -16.7272  -28.6495   23.0350 C   0  0  0  0  0  0
  -26.4494  -31.6577   25.0710 C   0  0  0  0  0  0
  -25.3748  -31.3696   26.1444 C   0  0  0  0  0  0
  -27.0323  -30.3013   24.6109 C   0  0  0  0  0  0
  -27.6070  -32.4288   25.7482 C   0  0  0  0  0  0
  -27.5577  -37.1801   24.8462 C   0  0  0  0  0  0
  -21.4165  -29.3037   22.3697 N   0  0  0  0  0  0
  -26.4288  -37.3779   23.9408 N   0  0  0  0  0  0
  -24.6788  -31.0693   22.0982 N   0  0  0  0  0  0
  -23.4187  -28.8182   23.3020 O   0  0  0  0  0  0
  -28.3716  -26.5718   20.1551 O   0  0  0  0  0  0
  -26.5603  -34.8919   22.4674 O   0  0  0  0  0  0
  -23.5388  -32.1409   23.7416 O   0  0  0  0  0  0
  -29.8485  -18.6279   23.1712 C   0  0  0  0  0  0
  -29.7859  -20.0021   22.8378 C   0  0  0  0  0  0
  -29.6945  -19.4580   20.4546 C   0  0  0  0  0  0
  -29.8463  -17.6809   22.1332 C   0  0  0  0  0  0
  -29.7822  -18.0795   20.8133 C   0  0  0  0  0  0
  -29.6982  -20.4468   21.4905 C   0  0  0  0  0  0
  -29.1804  -22.6752   20.3327 C   0  0  0  0  0  0
  -29.9274  -16.1705   22.2419 C   0  0  0  0  0  0
  -29.8488  -16.8351   19.9399 C   0  0  0  0  0  0
  -29.3778  -24.2218   20.4820 C   0  0  0  0  0  0
  -28.1944  -25.1278   19.9970 C   0  0  0  0  0  0
  -29.9350  -15.6520   20.8545 N   0  0  0  0  0  0
  -29.7087  -21.8803   21.2968 N   0  0  0  0  0  0
  -28.5756  -22.2235   19.3574 O   0  0  0  0  0  0
  -31.4676  -12.4448   19.1427 H   0  0  0  0  0  0
  -30.3300  -11.3500   19.8733 H   0  0  0  0  0  0
  -29.7480  -11.7525   17.4615 H   0  0  0  0  0  0
  -29.6553  -13.4722   17.7486 H   0  0  0  0  0  0
  -27.8490  -11.2964   18.8545 H   0  0  0  0  0  0
  -27.3661  -12.5912   17.7937 H   0  0  0  0  0  0
  -27.6804  -14.2540   19.5394 H   0  0  0  0  0  0
  -28.6914  -12.0343   21.3850 H   0  0  0  0  0  0
  -28.4543  -13.6975   21.8413 H   0  0  0  0  0  0
  -25.2764   -9.5690   22.4761 H   0  0  0  0  0  0
  -24.0004   -7.4642   22.7477 H   0  0  0  0  0  0
  -21.0848   -8.8782   19.8950 H   0  0  0  0  0  0
  -22.3705  -10.9681   19.6169 H   0  0  0  0  0  0
  -21.1999   -7.6151   23.9721 H   0  0  0  0  0  0
  -21.1483   -6.0527   25.9079 H   0  0  0  0  0  0
  -22.0594   -2.7617   23.2849 H   0  0  0  0  0  0
  -22.4116  -11.9864   22.4756 H   0  0  0  0  0  0
  -21.1134  -13.1259   22.2618 H   0  0  0  0  0  0
  -24.6688  -15.8476   20.5324 H   0  0  0  0  0  0
  -26.2967  -15.6310   20.1315 H   0  0  0  0  0  0
  -26.7152  -32.5496   23.1130 H   0  0  0  0  0  0
  -25.0071  -33.9742   25.0448 H   0  0  0  0  0  0
  -22.7039  -31.3070   21.4065 H   0  0  0  0  0  0
  -23.3747  -35.9643   23.3294 H   0  0  0  0  0  0
  -24.3596  -36.8925   22.2053 H   0  0  0  0  0  0
  -23.7242  -37.6510   23.6661 H   0  0  0  0  0  0
  -26.0648  -31.5776   20.5981 H   0  0  0  0  0  0
  -26.8334  -30.8670   21.9880 H   0  0  0  0  0  0
  -28.1074  -29.0367   21.1792 H   0  0  0  0  0  0
  -25.9931  -25.9594   18.9930 H   0  0  0  0  0  0
  -23.9748  -27.3098   19.0143 H   0  0  0  0  0  0
  -23.7351  -30.5994   19.4034 H   0  0  0  0  0  0
  -22.7461  -29.2464   19.8634 H   0  0  0  0  0  0
  -25.1281  -36.1951   25.0826 H   0  0  0  0  0  0
  -20.9973  -28.3242   24.1412 H   0  0  0  0  0  0
  -20.5672  -26.2281   23.3602 H   0  0  0  0  0  0
  -21.6640  -26.7434   22.1204 H   0  0  0  0  0  0
  -19.6917  -25.6296   21.1225 H   0  0  0  0  0  0
  -19.6687  -27.3196   20.6737 H   0  0  0  0  0  0
  -17.4195  -26.6662   21.4026 H   0  0  0  0  0  0
  -18.0336  -26.0054   22.9016 H   0  0  0  0  0  0
  -19.7934  -30.7240   24.2300 H   0  0  0  0  0  0
  -17.5017  -31.6263   24.5148 H   0  0  0  0  0  0
  -15.5353  -30.2988   23.7631 H   0  0  0  0  0  0
  -15.8673  -28.0813   22.7067 H   0  0  0  0  0  0
  -24.5936  -30.7027   25.7775 H   0  0  0  0  0  0
  -24.8926  -32.2854   26.4875 H   0  0  0  0  0  0
  -25.8085  -30.8877   27.0215 H   0  0  0  0  0  0
  -26.2864  -29.6769   24.1170 H   0  0  0  0  0  0
  -27.4090  -29.7255   25.4574 H   0  0  0  0  0  0
  -27.8710  -30.4319   23.9262 H   0  0  0  0  0  0
  -27.2705  -33.3599   26.2056 H   0  0  0  0  0  0
  -28.3893  -32.6816   25.0311 H   0  0  0  0  0  0
  -28.0723  -31.8403   26.5399 H   0  0  0  0  0  0
  -28.2579  -38.0109   24.7513 H   0  0  0  0  0  0
  -28.1085  -36.2640   24.6280 H   0  0  0  0  0  0
  -27.2304  -37.1436   25.8867 H   0  0  0  0  0  0
  -20.9331  -29.8767   21.6920 H   0  0  0  0  0  0
  -26.0176  -38.2855   24.1415 H   0  0  0  0  0  0
  -29.9110  -18.3158   24.2049 H   0  0  0  0  0  0
  -29.8084  -20.7240   23.6430 H   0  0  0  0  0  0
  -29.6569  -19.7469   19.4137 H   0  0  0  0  0  0
  -29.0654  -15.7870   22.7883 H   0  0  0  0  0  0
  -30.8308  -15.8866   22.7851 H   0  0  0  0  0  0
  -30.7101  -16.9022   19.2728 H   0  0  0  0  0  0
  -28.9523  -16.7609   19.3236 H   0  0  0  0  0  0
  -30.2786  -24.4926   19.9309 H   0  0  0  0  0  0
  -29.5861  -24.4500   21.5275 H   0  0  0  0  0  0
  -27.3059  -24.8117   20.5472 H   0  0  0  0  0  0
  -28.0071  -24.9179   18.9432 H   0  0  0  0  0  0
  -30.1191  -22.3996   22.0611 H   0  0  0  0  0  0
  1 25  1  0  0  0
  1 30  2  0  0  0
  1 82  1  0  0  0
  2  3  1  0  0  0
  2 25  1  0  0  0
  2 85  1  0  0  0
  2 86  1  0  0  0
  3  4  1  0  0  0
  3 87  1  0  0  0
  3 88  1  0  0  0
  4  5  1  0  0  0
  4 89  1  0  0  0
  4 90  1  0  0  0
  5  6  1  0  0  0
  5 26  1  0  0  0
  5 91  1  0  0  0
  6 25  1  0  0  0
  6 92  1  0  0  0
  6 93  1  0  0  0
  7  8  2  0  0  0
  7 26  1  0  0  0
  7 29  1  0  0  0
  8  9  1  0  0  0
  8 22  1  0  0  0
  9 10  1  0  0  0
  9 27  2  0  0  0
 10 11  2  0  0  0
 10 15  1  0  0  0
 11 12  1  0  0  0
 11 94  1  0  0  0
 12 13  2  0  0  0
 12 95  1  0  0  0
 13 14  1  0  0  0
 13 31  1  0  0  0
 14 15  2  0  0  0
 14 96  1  0  0  0
 15 97  1  0  0  0
 16 17  2  0  0  0
 16 21  1  0  0  0
 16 31  1  0  0  0
 17 18  1  0  0  0
 17 98  1  0  0  0
 18 19  2  0  0  0
 18 99  1  0  0  0
 19 20  1  0  0  0
 19 24  1  0  0  0
 20 21  2  0  0  0
 20100  1  0  0  0
 21 23  1  0  0  0
 22 28  1  0  0  0
 22 32  2  0  0  0
 26 27  1  0  0  0
 28101  1  0  0  0
 28102  1  0  0  0
 29103  1  0  0  0
 29104  1  0  0  0
 33 34  1  0  0  0
 33 66  1  0  0  0
 33 70  2  0  0  0
 34 36  1  0  0  0
 34 59  1  0  0  0
 34105  1  0  0  0
 35 44  2  0  0  0
 35 45  1  0  0  0
 35 68  1  0  0  0
 36 56  1  0  0  0
 36106  1  0  0  0
 37 39  1  0  0  0
 37 47  1  0  0  0
 37 66  1  0  0  0
 37107  1  0  0  0
 38 43  2  0  0  0
 38 46  1  0  0  0
 38 47  1  0  0  0
 39 64  1  0  0  0
 39 67  2  0  0  0
 40 52  1  0  0  0
 40 53  2  0  0  0
 40 58  1  0  0  0
 41108  1  0  0  0
 41109  1  0  0  0
 41110  1  0  0  0
 41 48  1  0  0  0
 42 43  1  0  0  0
 42 66  1  0  0  0
 42111  1  0  0  0
 42112  1  0  0  0
 43 44  1  0  0  0
 44113  1  0  0  0
 45 46  2  0  0  0
 45114  1  0  0  0
 46115  1  0  0  0
 47116  1  0  0  0
 47117  1  0  0  0
 48 56  1  0  0  0
 48 65  1  0  0  0
 48118  1  0  0  0
 49 50  1  0  0  0
 49 53  1  0  0  0
 49 64  1  0  0  0
 49119  1  0  0  0
 50 51  1  0  0  0
 50120  1  0  0  0
 50121  1  0  0  0
 51 52  1  0  0  0
 51122  1  0  0  0
 51123  1  0  0  0
 52124  1  0  0  0
 52125  1  0  0  0
 53 54  1  0  0  0
 54 55  2  0  0  0
 54126  1  0  0  0
 55 57  1  0  0  0
 55127  1  0  0  0
 56 69  2  0  0  0
 57 58  2  0  0  0
 57128  1  0  0  0
 58129  1  0  0  0
 59 60  1  0  0  0
 59 61  1  0  0  0
 59 62  1  0  0  0
 60130  1  0  0  0
 60131  1  0  0  0
 60132  1  0  0  0
 61133  1  0  0  0
 61134  1  0  0  0
 61135  1  0  0  0
 62136  1  0  0  0
 62137  1  0  0  0
 62138  1  0  0  0
 63 65  1  0  0  0
 63139  1  0  0  0
 63140  1  0  0  0
 63141  1  0  0  0
 64142  1  0  0  0
 65143  1  0  0  0
 68 81  1  0  0  0
 71 72  2  0  0  0
 71 74  1  0  0  0
 71144  1  0  0  0
 72 76  1  0  0  0
 72145  1  0  0  0
 73 75  1  0  0  0
 73 76  2  0  0  0
 73146  1  0  0  0
 74 75  2  0  0  0
 74 78  1  0  0  0
 75 79  1  0  0  0
 76 83  1  0  0  0
 77 80  1  0  0  0
 77 83  1  0  0  0
 77 84  2  0  0  0
 78 82  1  0  0  0
 78147  1  0  0  0
 78148  1  0  0  0
 79 82  1  0  0  0
 79149  1  0  0  0
 79150  1  0  0  0
 80 81  1  0  0  0
 80151  1  0  0  0
 80152  1  0  0  0
 81153  1  0  0  0
 81154  1  0  0  0
 83155  1  0  0  0
M  ISO  4   1 100  68 101  81 101  82 100
M  END
> <chiral flag>
0

> <version>
0

> <s_m_source_file>
/data/baiqing/PycharmProjects/Reinvent-master-3.2/result/LINK_invent/BTK/process_docking_weight1_custom_product_contain_oxygen_bond_distance_aromatic_linkinvent_7_9_3/rearranged_h_0149.sdf

> <i_m_source_file_index>
91

> <r_mmod_Potential_Energy-OPLS-2005>
76.6350250244141

> <r_mmod_Stretch_Energy-OPLS-2005>
57.9999046325684

> <r_mmod_Bend_Energy-OPLS-2005>
158.010787963867

> <r_mmod_Torsional_Energy-OPLS-2005>
271.28125

> <r_mmod_Improper_Torsional_Energy-OPLS-2005>
11.0378513336182

> <r_mmod_Van_der_Waal_Energy-OPLS-2005>
141.791290283203

> <r_mmod_Electrostatic_Energy-OPLS-2005>
-367.747192382812

> <r_mmod_Solvation_Energy-OPLS-2005>
-222.971466064453

> <b_mmod_Minimization_Converged-OPLS-2005>
0

> <r_mmod_RMS_Derivative-OPLS-2005>
0.930823445320129

$$$$
91
                    3D
 Structure written by MMmdl.
158167  0  0  1  0            999 V2000
  -30.6508  -14.5733   20.5176 C   0  0  0  0  0  0
  -30.4322  -12.3532   19.4433 C   0  0  0  0  0  0
  -29.5030  -12.5025   18.2187 C   0  0  0  0  0  0
  -28.0247  -12.3512   18.6300 C   0  0  0  0  0  0
  -27.6566  -13.2119   19.8681 C   0  0  2  0  0  0
  -28.6999  -13.0391   20.9955 C   0  0  0  0  0  0
  -25.2575  -13.8167   20.5684 C   0  0  0  0  0  0
  -24.1833  -13.0438   20.9187 C   0  0  0  0  0  0
  -24.6394  -11.6907   20.8737 C   0  0  0  0  0  0
  -23.9062  -10.4292   21.0406 C   0  0  0  0  0  0
  -24.3614   -9.4207   21.9184 C   0  0  0  0  0  0
  -23.6291   -8.2241   22.0753 C   0  0  0  0  0  0
  -22.4273   -8.0279   21.3544 C   0  0  0  0  0  0
  -21.9908   -9.0253   20.4645 C   0  0  0  0  0  0
  -22.7234  -10.2134   20.3055 C   0  0  0  0  0  0
  -21.6853   -6.0736   22.5279 C   0  0  0  0  0  0
  -21.4013   -6.5640   23.8213 C   0  0  0  0  0  0
  -21.3659   -5.6792   24.9175 C   0  0  0  0  0  0
  -21.6044   -4.3055   24.7225 C   0  0  0  0  0  0
  -21.8820   -3.8147   23.4347 C   0  0  0  0  0  0
  -21.9192   -4.6963   22.3403 C   0  0  0  0  0  0
  -22.7857  -13.5235   21.1851 C   0  0  0  0  0  0
  -22.1662   -4.2148   21.0982 F   0  0  0  0  0  0
  -21.5629   -3.4538   25.7738 F   0  0  0  0  0  0
  -30.0226  -13.3626   20.4367 N   0  0  0  0  0  0
  -26.3003  -12.9340   20.3338 N   0  0  0  0  0  0
  -25.9321  -11.6499   20.5761 N   0  0  0  0  0  0
  -22.0495  -12.8229   22.0404 N   0  0  0  0  0  0
  -25.4295  -15.1887   20.4092 N   0  0  0  0  0  0
  -31.8076  -14.7318   20.1160 O   0  0  0  0  0  0
  -21.6637   -6.8876   21.4242 O   0  0  0  0  0  0
  -22.3545  -14.5546   20.6703 O   0  0  0  0  0  0
  -24.6203  -31.8635   23.2059 C   0  0  0  0  0  0
  -25.9072  -32.4801   23.8373 C   0  0  1  0  0  0
  -27.2307  -27.3816   20.1138 C   0  0  0  0  0  0
  -25.5909  -33.8600   24.2303 N   0  0  0  0  0  0
  -23.4122  -30.4859   21.5470 C   0  0  2  0  0  0
  -24.8618  -28.9462   20.1123 C   0  0  0  0  0  0
  -22.7444  -29.4636   22.4961 C   0  0  0  0  0  0
  -18.0277  -28.1384   22.8491 C   0  0  0  0  0  0
  -24.1488  -36.7303   23.2636 C   0  0  0  0  0  0
  -25.9465  -30.8142   21.3670 C   0  0  0  0  0  0
  -26.0257  -29.4448   20.7134 C   0  0  0  0  0  0
  -27.2174  -28.6718   20.7080 C   0  0  0  0  0  0
  -26.0533  -26.9151   19.4946 C   0  0  0  0  0  0
  -24.8735  -27.6832   19.4958 C   0  0  0  0  0  0
  -23.6247  -29.8174   20.1624 C   0  0  0  0  0  0
  -25.4109  -36.3098   24.0334 C   0  0  1  0  0  0
  -20.5874  -28.3677   23.1303 C   0  0  2  0  0  0
  -20.6768  -26.9408   22.5415 C   0  0  0  0  0  0
  -19.5746  -26.6389   21.5214 C   0  0  0  0  0  0
  -18.1924  -26.7931   22.1625 C   0  0  0  0  0  0
  -19.1528  -28.8849   23.2892 C   0  0  0  0  0  0
  -18.9453  -30.1454   23.8902 C   0  0  0  0  0  0
  -17.6455  -30.6589   24.0566 C   0  0  0  0  0  0
  -25.9042  -34.9465   23.5118 C   0  0  0  0  0  0
  -16.5345  -29.9088   23.6332 C   0  0  0  0  0  0
  -16.7265  -28.6506   23.0350 C   0  0  0  0  0  0
  -26.4483  -31.6591   25.0718 C   0  0  0  0  0  0
  -25.3734  -31.3706   26.1456 C   0  0  0  0  0  0
  -27.0317  -30.3026   24.6119 C   0  0  0  0  0  0
  -27.6052  -32.4315   25.7485 C   0  0  0  0  0  0
  -27.5586  -37.1798   24.8459 C   0  0  0  0  0  0
  -21.4165  -29.3036   22.3703 N   0  0  0  0  0  0
  -26.4289  -37.3790   23.9418 N   0  0  0  0  0  0
  -24.6781  -31.0695   22.0980 N   0  0  0  0  0  0
  -23.4190  -28.8176   23.3023 O   0  0  0  0  0  0
  -28.3403  -26.5490   20.1327 O   0  0  0  0  0  0
  -26.5604  -34.8925   22.4679 O   0  0  0  0  0  0
  -23.5381  -32.1403   23.7424 O   0  0  0  0  0  0
  -30.9095  -19.1327   20.2626 C   0  0  0  0  0  0
  -31.1222  -17.7105   20.3225 C   0  0  0  0  0  0
  -29.6500  -19.5373   20.6351 C   0  0  0  0  0  0
  -30.0317  -16.9769   20.7425 C   0  0  0  0  0  0
  -29.2875  -21.8574   19.4586 C   0  0  0  0  0  0
  -29.5405  -21.7617   21.9420 C   0  0  0  0  0  0
  -28.6248  -23.2760   19.5650 C   0  0  0  0  0  0
  -28.8573  -23.1555   22.0566 C   0  0  0  0  0  0
  -29.0707  -20.9600   20.7097 C   0  0  2  0  0  0
  -29.0264  -24.0937   20.8249 C   0  0  2  0  0  0
  -28.2225  -25.4374   21.0683 C   0  0  0  0  0  0
  -29.8665  -15.6166   20.9092 N   0  0  0  0  0  0
  -30.4021  -24.4214   20.7609 O   0  0  0  0  0  0
  -28.7134  -18.1075   21.0718 S   0  0  0  0  0  0
  -31.4751  -12.4656   19.1416 H   0  0  0  0  0  0
  -30.3514  -11.3514   19.8684 H   0  0  0  0  0  0
  -29.7567  -11.7607   17.4601 H   0  0  0  0  0  0
  -29.6570  -13.4784   17.7554 H   0  0  0  0  0  0
  -27.8503  -11.2970   18.8487 H   0  0  0  0  0  0
  -27.3721  -12.5981   17.7917 H   0  0  0  0  0  0
  -27.6846  -14.2517   19.5421 H   0  0  0  0  0  0
  -28.6954  -12.0127   21.3653 H   0  0  0  0  0  0
  -28.4540  -13.6628   21.8563 H   0  0  0  0  0  0
  -25.2761   -9.5683   22.4756 H   0  0  0  0  0  0
  -24.0002   -7.4631   22.7470 H   0  0  0  0  0  0
  -21.0840   -8.8770   19.8950 H   0  0  0  0  0  0
  -22.3694  -10.9671   19.6161 H   0  0  0  0  0  0
  -21.2005   -7.6148   23.9716 H   0  0  0  0  0  0
  -21.1481   -6.0522   25.9078 H   0  0  0  0  0  0
  -22.0598   -2.7608   23.2846 H   0  0  0  0  0  0
  -22.4105  -11.9884   22.4786 H   0  0  0  0  0  0
  -21.1117  -13.1262   22.2613 H   0  0  0  0  0  0
  -24.6616  -15.8425   20.5163 H   0  0  0  0  0  0
  -26.2776  -15.6276   20.0742 H   0  0  0  0  0  0
  -26.7145  -32.5500   23.1134 H   0  0  0  0  0  0
  -25.0069  -33.9754   25.0455 H   0  0  0  0  0  0
  -22.7034  -31.3044   21.4051 H   0  0  0  0  0  0
  -23.3757  -35.9628   23.3288 H   0  0  0  0  0  0
  -24.3588  -36.8928   22.2053 H   0  0  0  0  0  0
  -23.7230  -37.6500   23.6659 H   0  0  0  0  0  0
  -26.0655  -31.5786   20.5978 H   0  0  0  0  0  0
  -26.8318  -30.8683   21.9890 H   0  0  0  0  0  0
  -28.1137  -29.0477   21.1817 H   0  0  0  0  0  0
  -26.0455  -25.9412   19.0254 H   0  0  0  0  0  0
  -23.9807  -27.2941   19.0256 H   0  0  0  0  0  0
  -23.7350  -30.5919   19.4026 H   0  0  0  0  0  0
  -22.7482  -29.2387   19.8657 H   0  0  0  0  0  0
  -25.1284  -36.1953   25.0826 H   0  0  0  0  0  0
  -20.9965  -28.3246   24.1424 H   0  0  0  0  0  0
  -20.5681  -26.2281   23.3606 H   0  0  0  0  0  0
  -21.6638  -26.7454   22.1202 H   0  0  0  0  0  0
  -19.6906  -25.6301   21.1240 H   0  0  0  0  0  0
  -19.6688  -27.3205   20.6749 H   0  0  0  0  0  0
  -17.4199  -26.6683   21.4024 H   0  0  0  0  0  0
  -18.0321  -26.0071   22.9020 H   0  0  0  0  0  0
  -19.7928  -30.7270   24.2271 H   0  0  0  0  0  0
  -17.5011  -31.6270   24.5165 H   0  0  0  0  0  0
  -15.5347  -30.2991   23.7657 H   0  0  0  0  0  0
  -15.8664  -28.0832   22.7056 H   0  0  0  0  0  0
  -24.5907  -30.7057   25.7786 H   0  0  0  0  0  0
  -24.8928  -32.2866   26.4902 H   0  0  0  0  0  0
  -25.8076  -30.8872   27.0216 H   0  0  0  0  0  0
  -26.2870  -29.6786   24.1163 H   0  0  0  0  0  0
  -27.4065  -29.7264   25.4588 H   0  0  0  0  0  0
  -27.8717  -30.4335   23.9292 H   0  0  0  0  0  0
  -27.2668  -33.3608   26.2077 H   0  0  0  0  0  0
  -28.3854  -32.6882   25.0308 H   0  0  0  0  0  0
  -28.0729  -31.8430   26.5387 H   0  0  0  0  0  0
  -28.2579  -38.0121   24.7550 H   0  0  0  0  0  0
  -28.1105  -36.2655   24.6226 H   0  0  0  0  0  0
  -27.2313  -37.1376   25.8862 H   0  0  0  0  0  0
  -20.9333  -29.8753   21.6916 H   0  0  0  0  0  0
  -26.0172  -38.2860   24.1443 H   0  0  0  0  0  0
  -31.6952  -19.8057   19.9490 H   0  0  0  0  0  0
  -32.0788  -17.2875   20.0500 H   0  0  0  0  0  0
  -30.3565  -21.9732   19.2766 H   0  0  0  0  0  0
  -28.8905  -21.3484   18.5797 H   0  0  0  0  0  0
  -29.3260  -21.1898   22.8455 H   0  0  0  0  0  0
  -30.6242  -21.8803   21.9145 H   0  0  0  0  0  0
  -27.5414  -23.1464   19.5704 H   0  0  0  0  0  0
  -28.8430  -23.8542   18.6660 H   0  0  0  0  0  0
  -29.2172  -23.6557   22.9572 H   0  0  0  0  0  0
  -27.7912  -22.9944   22.2257 H   0  0  0  0  0  0
  -27.9902  -20.8440   20.8128 H   0  0  0  0  0  0
  -28.5072  -25.8388   22.0423 H   0  0  0  0  0  0
  -27.1726  -25.1606   21.1807 H   0  0  0  0  0  0
  -28.9558  -15.3337   21.2384 H   0  0  0  0  0  0
  -30.8814  -23.6071   20.6648 H   0  0  0  0  0  0
  1 25  1  0  0  0
  1 30  2  0  0  0
  1 82  1  0  0  0
  2  3  1  0  0  0
  2 25  1  0  0  0
  2 85  1  0  0  0
  2 86  1  0  0  0
  3  4  1  0  0  0
  3 87  1  0  0  0
  3 88  1  0  0  0
  4  5  1  0  0  0
  4 89  1  0  0  0
  4 90  1  0  0  0
  5  6  1  0  0  0
  5 26  1  0  0  0
  5 91  1  0  0  0
  6 25  1  0  0  0
  6 92  1  0  0  0
  6 93  1  0  0  0
  7  8  2  0  0  0
  7 26  1  0  0  0
  7 29  1  0  0  0
  8  9  1  0  0  0
  8 22  1  0  0  0
  9 10  1  0  0  0
  9 27  2  0  0  0
 10 11  2  0  0  0
 10 15  1  0  0  0
 11 12  1  0  0  0
 11 94  1  0  0  0
 12 13  2  0  0  0
 12 95  1  0  0  0
 13 14  1  0  0  0
 13 31  1  0  0  0
 14 15  2  0  0  0
 14 96  1  0  0  0
 15 97  1  0  0  0
 16 17  2  0  0  0
 16 21  1  0  0  0
 16 31  1  0  0  0
 17 18  1  0  0  0
 17 98  1  0  0  0
 18 19  2  0  0  0
 18 99  1  0  0  0
 19 20  1  0  0  0
 19 24  1  0  0  0
 20 21  2  0  0  0
 20100  1  0  0  0
 21 23  1  0  0  0
 22 28  1  0  0  0
 22 32  2  0  0  0
 26 27  1  0  0  0
 28101  1  0  0  0
 28102  1  0  0  0
 29103  1  0  0  0
 29104  1  0  0  0
 33 34  1  0  0  0
 33 66  1  0  0  0
 33 70  2  0  0  0
 34 36  1  0  0  0
 34 59  1  0  0  0
 34105  1  0  0  0
 35 44  2  0  0  0
 35 45  1  0  0  0
 35 68  1  0  0  0
 36 56  1  0  0  0
 36106  1  0  0  0
 37 39  1  0  0  0
 37 47  1  0  0  0
 37 66  1  0  0  0
 37107  1  0  0  0
 38 43  2  0  0  0
 38 46  1  0  0  0
 38 47  1  0  0  0
 39 64  1  0  0  0
 39 67  2  0  0  0
 40 52  1  0  0  0
 40 53  2  0  0  0
 40 58  1  0  0  0
 41108  1  0  0  0
 41109  1  0  0  0
 41110  1  0  0  0
 41 48  1  0  0  0
 42 43  1  0  0  0
 42 66  1  0  0  0
 42111  1  0  0  0
 42112  1  0  0  0
 43 44  1  0  0  0
 44113  1  0  0  0
 45 46  2  0  0  0
 45114  1  0  0  0
 46115  1  0  0  0
 47116  1  0  0  0
 47117  1  0  0  0
 48 56  1  0  0  0
 48 65  1  0  0  0
 48118  1  0  0  0
 49 50  1  0  0  0
 49 53  1  0  0  0
 49 64  1  0  0  0
 49119  1  0  0  0
 50 51  1  0  0  0
 50120  1  0  0  0
 50121  1  0  0  0
 51 52  1  0  0  0
 51122  1  0  0  0
 51123  1  0  0  0
 52124  1  0  0  0
 52125  1  0  0  0
 53 54  1  0  0  0
 54 55  2  0  0  0
 54126  1  0  0  0
 55 57  1  0  0  0
 55127  1  0  0  0
 56 69  2  0  0  0
 57 58  2  0  0  0
 57128  1  0  0  0
 58129  1  0  0  0
 59 60  1  0  0  0
 59 61  1  0  0  0
 59 62  1  0  0  0
 60130  1  0  0  0
 60131  1  0  0  0
 60132  1  0  0  0
 61133  1  0  0  0
 61134  1  0  0  0
 61135  1  0  0  0
 62136  1  0  0  0
 62137  1  0  0  0
 62138  1  0  0  0
 63 65  1  0  0  0
 63139  1  0  0  0
 63140  1  0  0  0
 63141  1  0  0  0
 64142  1  0  0  0
 65143  1  0  0  0
 68 81  1  0  0  0
 71 72  1  0  0  0
 71 73  2  0  0  0
 71144  1  0  0  0
 72 74  2  0  0  0
 72145  1  0  0  0
 73 84  1  0  0  0
 73 79  1  0  0  0
 74 82  1  0  0  0
 74 84  1  0  0  0
 75 77  1  0  0  0
 75 79  1  0  0  0
 75146  1  0  0  0
 75147  1  0  0  0
 76 78  1  0  0  0
 76 79  1  0  0  0
 76148  1  0  0  0
 76149  1  0  0  0
 77 80  1  0  0  0
 77150  1  0  0  0
 77151  1  0  0  0
 78 80  1  0  0  0
 78152  1  0  0  0
 78153  1  0  0  0
 79154  1  0  0  0
 80 81  1  0  0  0
 80 83  1  0  0  0
 81155  1  0  0  0
 81156  1  0  0  0
 82157  1  0  0  0
 83158  1  0  0  0
M  ISO  4   1 100  68 101  81 101  82 100
M  END
> <chiral flag>
0

> <version>
0

> <s_m_source_file>
/data/baiqing/PycharmProjects/Reinvent-master-3.2/result/LINK_invent/BTK/process_docking_weight1_custom_product_contain_oxygen_bond_distance_aromatic_linkinvent_7_9_3/rearranged_h_0149.sdf

> <i_m_source_file_index>
92

> <r_mmod_Potential_Energy-OPLS-2005>
-28.504695892334

> <r_mmod_Stretch_Energy-OPLS-2005>
52.9087867736816

> <r_mmod_Bend_Energy-OPLS-2005>
121.378341674805

> <r_mmod_Torsional_Energy-OPLS-2005>
258.239959716797

> <r_mmod_Improper_Torsional_Energy-OPLS-2005>
4.05521726608276

> <r_mmod_Van_der_Waal_Energy-OPLS-2005>
122.688209533691

> <r_mmod_Electrostatic_Energy-OPLS-2005>
-402.503265380859

> <r_mmod_Solvation_Energy-OPLS-2005>
-214.317916870117

> <b_mmod_Minimization_Converged-OPLS-2005>
0

> <r_mmod_RMS_Derivative-OPLS-2005>
0.386149376630783

$$$$
