0
                    3D
 Structure written by MMmdl.
154162  0  0  1  0            999 V2000
  -30.5063  -15.0149   20.3879 C   0  0  0  0  0  0
  -30.4450  -12.6193   19.5244 C   0  0  0  0  0  0
  -29.5376  -12.5373   18.2721 C   0  0  0  0  0  0
  -28.0676  -12.3191   18.6762 C   0  0  0  0  0  0
  -27.6295  -13.2563   19.8339 C   0  0  2  0  0  0
  -28.6634  -13.2970   20.9754 C   0  0  0  0  0  0
  -25.2476  -13.8220   20.5702 C   0  0  0  0  0  0
  -24.1789  -13.0446   20.9209 C   0  0  0  0  0  0
  -24.6411  -11.6927   20.8736 C   0  0  0  0  0  0
  -23.9094  -10.4299   21.0390 C   0  0  0  0  0  0
  -24.3632   -9.4212   21.9157 C   0  0  0  0  0  0
  -23.6306   -8.2258   22.0738 C   0  0  0  0  0  0
  -22.4296   -8.0291   21.3533 C   0  0  0  0  0  0
  -21.9931   -9.0264   20.4645 C   0  0  0  0  0  0
  -22.7263  -10.2138   20.3044 C   0  0  0  0  0  0
  -21.6868   -6.0738   22.5279 C   0  0  0  0  0  0
  -21.4023   -6.5627   23.8210 C   0  0  0  0  0  0
  -21.3667   -5.6779   24.9173 C   0  0  0  0  0  0
  -21.6052   -4.3039   24.7225 C   0  0  0  0  0  0
  -21.8815   -3.8146   23.4339 C   0  0  0  0  0  0
  -21.9193   -4.6968   22.3398 C   0  0  0  0  0  0
  -22.7809  -13.5232   21.1850 C   0  0  0  0  0  0
  -22.1667   -4.2155   21.0978 F   0  0  0  0  0  0
  -21.5625   -3.4508   25.7729 F   0  0  0  0  0  0
  -29.9404  -13.7295   20.3908 N   0  0  0  0  0  0
  -26.2891  -12.9465   20.3187 N   0  0  0  0  0  0
  -25.9343  -11.6586   20.5699 N   0  0  0  0  0  0
  -22.0452  -12.8252   22.0422 N   0  0  0  0  0  0
  -25.4148  -15.1947   20.4167 N   0  0  0  0  0  0
  -31.7090  -15.0535   20.1053 O   0  0  0  0  0  0
  -21.6657   -6.8887   21.4244 O   0  0  0  0  0  0
  -22.3490  -14.5507   20.6641 O   0  0  0  0  0  0
  -24.6470  -31.8398   23.1834 C   0  0  0  0  0  0
  -25.9220  -32.4673   23.8265 C   0  0  1  0  0  0
  -27.2254  -27.0830   20.1734 C   0  0  0  0  0  0
  -25.5968  -33.8486   24.2183 N   0  0  0  0  0  0
  -23.4557  -30.4514   21.5294 C   0  0  2  0  0  0
  -24.9108  -28.8647   20.1168 C   0  0  0  0  0  0
  -22.7608  -29.4484   22.4851 C   0  0  0  0  0  0
  -18.0307  -28.1389   22.8462 C   0  0  0  0  0  0
  -24.1488  -36.7239   23.2642 C   0  0  0  0  0  0
  -26.0145  -30.6940   21.3942 C   0  0  0  0  0  0
  -26.0860  -29.2951   20.7472 C   0  0  0  0  0  0
  -27.2404  -28.4173   20.7625 C   0  0  0  0  0  0
  -26.0278  -26.7663   19.4985 C   0  0  0  0  0  0
  -24.8946  -27.6140   19.4791 C   0  0  0  0  0  0
  -23.6897  -29.7744   20.1525 C   0  0  0  0  0  0
  -25.4126  -36.3030   24.0316 C   0  0  1  0  0  0
  -20.5925  -28.3707   23.1234 C   0  0  2  0  0  0
  -20.6791  -26.9412   22.5408 C   0  0  0  0  0  0
  -19.5769  -26.6369   21.5214 C   0  0  0  0  0  0
  -18.1943  -26.7925   22.1621 C   0  0  0  0  0  0
  -19.1567  -28.8871   23.2830 C   0  0  0  0  0  0
  -18.9484  -30.1471   23.8842 C   0  0  0  0  0  0
  -17.6477  -30.6588   24.0545 C   0  0  0  0  0  0
  -25.9078  -34.9395   23.5068 C   0  0  0  0  0  0
  -16.5362  -29.9077   23.6336 C   0  0  0  0  0  0
  -16.7287  -28.6505   23.0340 C   0  0  0  0  0  0
  -26.4525  -31.6548   25.0718 C   0  0  0  0  0  0
  -25.3699  -31.3751   26.1410 C   0  0  0  0  0  0
  -27.0419  -30.2948   24.6327 C   0  0  0  0  0  0
  -27.6068  -32.4299   25.7493 C   0  0  0  0  0  0
  -27.5575  -37.1779   24.8468 C   0  0  0  0  0  0
  -21.4284  -29.3019   22.3602 N   0  0  0  0  0  0
  -26.4291  -37.3746   23.9402 N   0  0  0  0  0  0
  -24.7251  -31.0200   22.0895 N   0  0  0  0  0  0
  -23.4226  -28.8038   23.3026 O   0  0  0  0  0  0
  -28.2767  -26.0799   20.1804 O   0  0  0  0  0  0
  -26.5663  -34.8888   22.4640 O   0  0  0  0  0  0
  -23.5572  -32.1297   23.7010 O   0  0  0  0  0  0
  -26.9255  -20.0747   21.1226 C   0  0  0  0  0  0
  -27.7866  -18.9683   20.9373 C   0  0  0  0  0  0
  -27.3172  -21.4115   20.8825 C   0  0  0  0  0  0
  -29.1174  -19.0990   20.4809 C   0  0  0  0  0  0
  -28.6045  -21.7458   20.4185 C   0  0  0  0  0  0
  -29.4860  -20.5382   20.2068 C   0  0  0  0  0  0
  -29.9490  -17.7025   20.3427 C   0  0  0  0  0  0
  -29.6394  -16.3167   20.5593 C   0  0  0  0  0  0
  -31.9711  -20.8982   20.6770 C   0  0  0  0  0  0
  -30.8676  -20.7907   19.6193 C   0  0  0  0  0  0
  -28.9007  -23.3847   20.1939 C   0  0  0  0  0  0
  -27.8528  -24.5391   20.4368 N   0  0  0  0  0  0
  -31.4825  -12.7743   19.2221 H   0  0  0  0  0  0
  -30.4385  -11.6741   20.0695 H   0  0  0  0  0  0
  -29.8720  -11.7326   17.6153 H   0  0  0  0  0  0
  -29.6216  -13.4628   17.6994 H   0  0  0  0  0  0
  -27.9655  -11.2786   18.9883 H   0  0  0  0  0  0
  -27.4156  -12.4450   17.8112 H   0  0  0  0  0  0
  -27.5916  -14.2574   19.4014 H   0  0  0  0  0  0
  -28.7593  -12.3187   21.4504 H   0  0  0  0  0  0
  -28.3452  -13.9863   21.7581 H   0  0  0  0  0  0
  -25.2775   -9.5701   22.4728 H   0  0  0  0  0  0
  -24.0019   -7.4659   22.7453 H   0  0  0  0  0  0
  -21.0856   -8.8790   19.8965 H   0  0  0  0  0  0
  -22.3711  -10.9672   19.6148 H   0  0  0  0  0  0
  -21.2026   -7.6134   23.9729 H   0  0  0  0  0  0
  -21.1486   -6.0495   25.9073 H   0  0  0  0  0  0
  -22.0593   -2.7607   23.2828 H   0  0  0  0  0  0
  -22.4091  -11.9960   22.4881 H   0  0  0  0  0  0
  -21.1040  -13.1258   22.2568 H   0  0  0  0  0  0
  -24.6432  -15.8429   20.5288 H   0  0  0  0  0  0
  -26.2567  -15.6357   20.0685 H   0  0  0  0  0  0
  -26.7276  -32.5271   23.0984 H   0  0  0  0  0  0
  -25.0094  -33.9592   25.0319 H   0  0  0  0  0  0
  -22.7602  -31.2774   21.3672 H   0  0  0  0  0  0
  -23.3771  -35.9556   23.3301 H   0  0  0  0  0  0
  -24.3566  -36.8877   22.2060 H   0  0  0  0  0  0
  -23.7207  -37.6417   23.6679 H   0  0  0  0  0  0
  -26.1778  -31.4433   20.6183 H   0  0  0  0  0  0
  -26.8834  -30.7515   22.0386 H   0  0  0  0  0  0
  -28.1395  -28.7444   21.2654 H   0  0  0  0  0  0
  -25.9555  -25.8105   19.0015 H   0  0  0  0  0  0
  -24.0011  -27.2770   18.9721 H   0  0  0  0  0  0
  -23.8325  -30.5451   19.3948 H   0  0  0  0  0  0
  -22.8061  -29.2174   19.8376 H   0  0  0  0  0  0
  -25.1312  -36.1873   25.0813 H   0  0  0  0  0  0
  -21.0003  -28.3295   24.1362 H   0  0  0  0  0  0
  -20.5685  -26.2321   23.3624 H   0  0  0  0  0  0
  -21.6652  -26.7398   22.1203 H   0  0  0  0  0  0
  -19.6921  -25.6274   21.1263 H   0  0  0  0  0  0
  -19.6713  -27.3162   20.6731 H   0  0  0  0  0  0
  -17.4214  -26.6650   21.4020 H   0  0  0  0  0  0
  -18.0330  -26.0081   22.9034 H   0  0  0  0  0  0
  -19.7954  -30.7301   24.2183 H   0  0  0  0  0  0
  -17.5021  -31.6262   24.5161 H   0  0  0  0  0  0
  -15.5346  -30.2951   23.7702 H   0  0  0  0  0  0
  -15.8691  -28.0812   22.7061 H   0  0  0  0  0  0
  -24.5861  -30.7130   25.7701 H   0  0  0  0  0  0
  -24.8904  -32.2944   26.4792 H   0  0  0  0  0  0
  -25.7967  -30.8923   27.0217 H   0  0  0  0  0  0
  -26.3069  -29.6638   24.1322 H   0  0  0  0  0  0
  -27.4023  -29.7270   25.4915 H   0  0  0  0  0  0
  -27.8966  -30.4187   23.9674 H   0  0  0  0  0  0
  -27.2697  -33.3624   26.2026 H   0  0  0  0  0  0
  -28.3907  -32.6820   25.0339 H   0  0  0  0  0  0
  -28.0716  -31.8452   26.5442 H   0  0  0  0  0  0
  -28.2600  -38.0072   24.7529 H   0  0  0  0  0  0
  -28.1071  -36.2606   24.6301 H   0  0  0  0  0  0
  -27.2296  -37.1428   25.8873 H   0  0  0  0  0  0
  -20.9522  -29.8733   21.6767 H   0  0  0  0  0  0
  -26.0168  -38.2817   24.1421 H   0  0  0  0  0  0
  -25.9200  -19.8901   21.4735 H   0  0  0  0  0  0
  -27.3933  -17.9861   21.1553 H   0  0  0  0  0  0
  -26.5962  -22.1971   21.0566 H   0  0  0  0  0  0
  -30.9655  -17.8675   20.0149 H   0  0  0  0  0  0
  -28.6305  -16.1280   20.8894 H   0  0  0  0  0  0
  -32.9329  -21.1029   20.2033 H   0  0  0  0  0  0
  -32.0723  -19.9713   21.2428 H   0  0  0  0  0  0
  -31.7773  -21.7033   21.3852 H   0  0  0  0  0  0
  -30.8524  -21.6980   19.0123 H   0  0  0  0  0  0
  -31.1071  -19.9858   18.9247 H   0  0  0  0  0  0
  -29.2435  -23.4931   19.1651 H   0  0  0  0  0  0
  -29.7705  -23.6119   20.8118 H   0  0  0  0  0  0
  -27.5871  -24.5054   21.4175 H   0  0  0  0  0  0
  1 25  1  0  0  0
  1 30  2  0  0  0
  1 78  1  0  0  0
  2  3  1  0  0  0
  2 25  1  0  0  0
  2 83  1  0  0  0
  2 84  1  0  0  0
  3  4  1  0  0  0
  3 85  1  0  0  0
  3 86  1  0  0  0
  4  5  1  0  0  0
  4 87  1  0  0  0
  4 88  1  0  0  0
  5  6  1  0  0  0
  5 26  1  0  0  0
  5 89  1  0  0  0
  6 25  1  0  0  0
  6 90  1  0  0  0
  6 91  1  0  0  0
  7  8  2  0  0  0
  7 26  1  0  0  0
  7 29  1  0  0  0
  8  9  1  0  0  0
  8 22  1  0  0  0
  9 10  1  0  0  0
  9 27  2  0  0  0
 10 11  2  0  0  0
 10 15  1  0  0  0
 11 12  1  0  0  0
 11 92  1  0  0  0
 12 13  2  0  0  0
 12 93  1  0  0  0
 13 14  1  0  0  0
 13 31  1  0  0  0
 14 15  2  0  0  0
 14 94  1  0  0  0
 15 95  1  0  0  0
 16 17  2  0  0  0
 16 21  1  0  0  0
 16 31  1  0  0  0
 17 18  1  0  0  0
 17 96  1  0  0  0
 18 19  2  0  0  0
 18 97  1  0  0  0
 19 20  1  0  0  0
 19 24  1  0  0  0
 20 21  2  0  0  0
 20 98  1  0  0  0
 21 23  1  0  0  0
 22 28  1  0  0  0
 22 32  2  0  0  0
 26 27  1  0  0  0
 28 99  1  0  0  0
 28100  1  0  0  0
 29101  1  0  0  0
 29102  1  0  0  0
 33 34  1  0  0  0
 33 66  1  0  0  0
 33 70  2  0  0  0
 34 36  1  0  0  0
 34 59  1  0  0  0
 34103  1  0  0  0
 35 44  2  0  0  0
 35 45  1  0  0  0
 35 68  1  0  0  0
 36 56  1  0  0  0
 36104  1  0  0  0
 37 39  1  0  0  0
 37 47  1  0  0  0
 37 66  1  0  0  0
 37105  1  0  0  0
 38 43  2  0  0  0
 38 46  1  0  0  0
 38 47  1  0  0  0
 39 64  1  0  0  0
 39 67  2  0  0  0
 40 52  1  0  0  0
 40 53  2  0  0  0
 40 58  1  0  0  0
 41106  1  0  0  0
 41107  1  0  0  0
 41108  1  0  0  0
 41 48  1  0  0  0
 42 43  1  0  0  0
 42 66  1  0  0  0
 42109  1  0  0  0
 42110  1  0  0  0
 43 44  1  0  0  0
 44111  1  0  0  0
 45 46  2  0  0  0
 45112  1  0  0  0
 46113  1  0  0  0
 47114  1  0  0  0
 47115  1  0  0  0
 48 56  1  0  0  0
 48 65  1  0  0  0
 48116  1  0  0  0
 49 50  1  0  0  0
 49 53  1  0  0  0
 49 64  1  0  0  0
 49117  1  0  0  0
 50 51  1  0  0  0
 50118  1  0  0  0
 50119  1  0  0  0
 51 52  1  0  0  0
 51120  1  0  0  0
 51121  1  0  0  0
 52122  1  0  0  0
 52123  1  0  0  0
 53 54  1  0  0  0
 54 55  2  0  0  0
 54124  1  0  0  0
 55 57  1  0  0  0
 55125  1  0  0  0
 56 69  2  0  0  0
 57 58  2  0  0  0
 57126  1  0  0  0
 58127  1  0  0  0
 59 60  1  0  0  0
 59 61  1  0  0  0
 59 62  1  0  0  0
 60128  1  0  0  0
 60129  1  0  0  0
 60130  1  0  0  0
 61131  1  0  0  0
 61132  1  0  0  0
 61133  1  0  0  0
 62134  1  0  0  0
 62135  1  0  0  0
 62136  1  0  0  0
 63 65  1  0  0  0
 63137  1  0  0  0
 63138  1  0  0  0
 63139  1  0  0  0
 64140  1  0  0  0
 65141  1  0  0  0
 68 82  1  0  0  0
 71 72  2  0  0  0
 71 73  1  0  0  0
 71142  1  0  0  0
 72 74  1  0  0  0
 72143  1  0  0  0
 73 75  2  0  0  0
 73144  1  0  0  0
 74 76  2  0  0  0
 74 77  1  0  0  0
 75 76  1  0  0  0
 75 81  1  0  0  0
 76 80  1  0  0  0
 77 78  2  0  0  0
 77145  1  0  0  0
 78146  1  0  0  0
 79 80  1  0  0  0
 79147  1  0  0  0
 79148  1  0  0  0
 79149  1  0  0  0
 80150  1  0  0  0
 80151  1  0  0  0
 81 82  1  0  0  0
 81152  1  0  0  0
 81153  1  0  0  0
 82154  1  0  0  0
M  ISO  4   1 100  68 101  78 100  82 101
M  END
> <chiral flag>
0

> <version>
0

> <s_m_source_file>
/data/baiqing/PycharmProjects/Reinvent-master-3.2/result/LINK_invent/BTK/process_docking_weight1_custom_product_contain_oxygen_bond_distance_aromatic_linkinvent_7_9_3/rearranged_h_0036.sdf

> <i_m_source_file_index>
1

> <r_mmod_Potential_Energy-OPLS-2005>
573.682312011719

> <r_mmod_Stretch_Energy-OPLS-2005>
316.732452392578

> <r_mmod_Bend_Energy-OPLS-2005>
251.973739624023

> <r_mmod_Torsional_Energy-OPLS-2005>
184.322814941406

> <r_mmod_Improper_Torsional_Energy-OPLS-2005>
3.31107878684998

> <r_mmod_Van_der_Waal_Energy-OPLS-2005>
124.709159851074

> <r_mmod_Electrostatic_Energy-OPLS-2005>
-344.196594238281

> <r_mmod_Solvation_Energy-OPLS-2005>
-199.925735473633

> <b_mmod_Minimization_Converged-OPLS-2005>
0

> <r_mmod_RMS_Derivative-OPLS-2005>
3.11623001098633

$$$$
1
                    3D
 Structure written by MMmdl.
169178  0  0  1  0            999 V2000
  -30.7500  -14.4457   20.5546 C   0  0  0  0  0  0
  -30.4095  -12.2777   19.4380 C   0  0  0  0  0  0
  -29.4914  -12.4708   18.2146 C   0  0  0  0  0  0
  -28.0104  -12.3616   18.6228 C   0  0  0  0  0  0
  -27.6620  -13.2136   19.8731 C   0  0  2  0  0  0
  -28.7060  -13.0245   20.9992 C   0  0  0  0  0  0
  -25.2600  -13.8215   20.5697 C   0  0  0  0  0  0
  -24.1857  -13.0484   20.9180 C   0  0  0  0  0  0
  -24.6416  -11.6949   20.8766 C   0  0  0  0  0  0
  -23.9097  -10.4322   21.0445 C   0  0  0  0  0  0
  -24.3641   -9.4214   21.9211 C   0  0  0  0  0  0
  -23.6288   -8.2265   22.0779 C   0  0  0  0  0  0
  -22.4278   -8.0313   21.3553 C   0  0  0  0  0  0
  -21.9934   -9.0305   20.4655 C   0  0  0  0  0  0
  -22.7284  -10.2168   20.3069 C   0  0  0  0  0  0
  -21.6836   -6.0764   22.5283 C   0  0  0  0  0  0
  -21.4016   -6.5666   23.8225 C   0  0  0  0  0  0
  -21.3639   -5.6806   24.9178 C   0  0  0  0  0  0
  -21.6030   -4.3077   24.7228 C   0  0  0  0  0  0
  -21.8812   -3.8173   23.4344 C   0  0  0  0  0  0
  -21.9195   -4.6992   22.3398 C   0  0  0  0  0  0
  -22.7863  -13.5260   21.1824 C   0  0  0  0  0  0
  -22.1658   -4.2190   21.0960 F   0  0  0  0  0  0
  -21.5619   -3.4539   25.7736 F   0  0  0  0  0  0
  -30.0361  -13.2924   20.4358 N   0  0  0  0  0  0
  -26.3033  -12.9402   20.3400 N   0  0  0  0  0  0
  -25.9342  -11.6550   20.5818 N   0  0  0  0  0  0
  -22.0511  -12.8269   22.0377 N   0  0  0  0  0  0
  -25.4400  -15.1939   20.4121 N   0  0  0  0  0  0
  -31.8820  -14.5737   20.0802 O   0  0  0  0  0  0
  -21.6626   -6.8907   21.4245 O   0  0  0  0  0  0
  -22.3565  -14.5572   20.6662 O   0  0  0  0  0  0
  -24.6092  -31.8668   23.2050 C   0  0  0  0  0  0
  -25.8994  -32.4838   23.8362 C   0  0  1  0  0  0
  -27.2455  -27.4440   20.1265 C   0  0  0  0  0  0
  -25.5870  -33.8623   24.2298 N   0  0  0  0  0  0
  -23.3993  -30.4854   21.5425 C   0  0  2  0  0  0
  -24.8535  -28.9477   20.1177 C   0  0  0  0  0  0
  -22.7383  -29.4639   22.4956 C   0  0  0  0  0  0
  -18.0235  -28.1411   22.8460 C   0  0  0  0  0  0
  -24.1505  -36.7342   23.2636 C   0  0  0  0  0  0
  -25.9222  -30.8420   21.3523 C   0  0  0  0  0  0
  -26.0087  -29.4691   20.7147 C   0  0  0  0  0  0
  -27.2058  -28.7219   20.7199 C   0  0  0  0  0  0
  -26.0799  -26.9309   19.5182 C   0  0  0  0  0  0
  -24.8823  -27.6764   19.5116 C   0  0  0  0  0  0
  -23.6115  -29.8094   20.1591 C   0  0  0  0  0  0
  -25.4123  -36.3111   24.0341 C   0  0  1  0  0  0
  -20.5836  -28.3674   23.1325 C   0  0  2  0  0  0
  -20.6761  -26.9423   22.5423 C   0  0  0  0  0  0
  -19.5746  -26.6379   21.5229 C   0  0  0  0  0  0
  -18.1890  -26.7939   22.1610 C   0  0  0  0  0  0
  -19.1509  -28.8861   23.2858 C   0  0  0  0  0  0
  -18.9464  -30.1444   23.8900 C   0  0  0  0  0  0
  -17.6495  -30.6623   24.0562 C   0  0  0  0  0  0
  -25.9051  -34.9482   23.5104 C   0  0  0  0  0  0
  -16.5373  -29.9145   23.6342 C   0  0  0  0  0  0
  -16.7245  -28.6559   23.0362 C   0  0  0  0  0  0
  -26.4435  -31.6636   25.0700 C   0  0  0  0  0  0
  -25.3691  -31.3765   26.1447 C   0  0  0  0  0  0
  -27.0337  -30.3138   24.6029 C   0  0  0  0  0  0
  -27.5958  -32.4382   25.7501 C   0  0  0  0  0  0
  -27.5598  -37.1778   24.8436 C   0  0  0  0  0  0
  -21.4127  -29.3054   22.3766 N   0  0  0  0  0  0
  -26.4298  -37.3800   23.9406 N   0  0  0  0  0  0
  -24.6606  -31.0766   22.0940 N   0  0  0  0  0  0
  -23.4147  -28.8147   23.2980 O   0  0  0  0  0  0
  -28.4191  -26.7271   20.0990 O   0  0  0  0  0  0
  -26.5599  -34.8933   22.4667 O   0  0  0  0  0  0
  -23.5310  -32.1414   23.7492 O   0  0  0  0  0  0
  -29.5354  -18.6572   22.4248 C   0  0  0  0  0  0
  -29.8902  -18.0558   21.2016 C   0  0  0  0  0  0
  -29.5691  -18.7045   19.9820 C   0  0  0  0  0  0
  -29.0187  -20.0230   20.0108 C   0  0  0  0  0  0
  -28.6712  -20.6320   21.2571 C   0  0  0  0  0  0
  -28.9178  -19.9201   22.4613 C   0  0  0  0  0  0
  -30.5940  -24.7007   22.3396 C   0  0  0  0  0  0
  -29.8682  -25.9693   21.8606 C   0  0  0  0  0  0
  -29.6487  -23.4964   22.4922 C   0  0  0  0  0  0
  -28.5702  -24.3134   20.3626 C   0  0  0  0  0  0
  -28.5643  -25.6870   21.0832 C   0  0  2  0  0  0
  -29.8558  -17.9772   18.6634 C   0  0  0  0  0  0
  -28.8434  -20.8096   18.7076 C   0  0  0  0  0  0
  -30.7781  -16.8093   21.2479 C   0  0  0  0  0  0
  -28.0196  -22.0291   21.3151 C   0  0  0  0  0  0
  -30.1259  -15.5007   21.1035 N   0  0  0  0  0  0
  -29.0115  -23.1406   21.1977 N   0  3  2  0  0  0
  -28.5462  -20.5903   24.0156 Cl  0  0  0  0  0  0
  -31.4565  -12.3380   19.1408 H   0  0  0  0  0  0
  -30.2860  -11.2803   19.8618 H   0  0  0  0  0  0
  -29.7222  -11.7211   17.4545 H   0  0  0  0  0  0
  -29.6814  -13.4414   17.7571 H   0  0  0  0  0  0
  -27.7971  -11.3107   18.8184 H   0  0  0  0  0  0
  -27.3719  -12.6480   17.7887 H   0  0  0  0  0  0
  -27.7024  -14.2557   19.5587 H   0  0  0  0  0  0
  -28.6771  -12.0033   21.3845 H   0  0  0  0  0  0
  -28.4838  -13.6691   21.8500 H   0  0  0  0  0  0
  -25.2780   -9.5689   22.4794 H   0  0  0  0  0  0
  -23.9993   -7.4668   22.7506 H   0  0  0  0  0  0
  -21.0876   -8.8817   19.8970 H   0  0  0  0  0  0
  -22.3743  -10.9711   19.6186 H   0  0  0  0  0  0
  -21.1999   -7.6177   23.9739 H   0  0  0  0  0  0
  -21.1456   -6.0535   25.9080 H   0  0  0  0  0  0
  -22.0603   -2.7642   23.2821 H   0  0  0  0  0  0
  -22.4084  -11.9870   22.4692 H   0  0  0  0  0  0
  -21.1170  -13.1362   22.2652 H   0  0  0  0  0  0
  -24.6941  -15.8662   20.5435 H   0  0  0  0  0  0
  -26.3079  -15.6256   20.1211 H   0  0  0  0  0  0
  -26.7075  -32.5587   23.1145 H   0  0  0  0  0  0
  -25.0051  -33.9748   25.0473 H   0  0  0  0  0  0
  -22.6902  -31.3004   21.3955 H   0  0  0  0  0  0
  -23.3778  -35.9646   23.3257 H   0  0  0  0  0  0
  -24.3592  -36.9016   22.2055 H   0  0  0  0  0  0
  -23.7244  -37.6503   23.6728 H   0  0  0  0  0  0
  -26.0094  -31.5964   20.5681 H   0  0  0  0  0  0
  -26.8136  -30.9149   21.9611 H   0  0  0  0  0  0
  -28.0988  -29.1116   21.1891 H   0  0  0  0  0  0
  -26.1079  -25.9589   19.0435 H   0  0  0  0  0  0
  -24.0037  -27.2757   19.0256 H   0  0  0  0  0  0
  -23.7092  -30.5779   19.3918 H   0  0  0  0  0  0
  -22.7420  -29.2154   19.8739 H   0  0  0  0  0  0
  -25.1294  -36.1956   25.0829 H   0  0  0  0  0  0
  -20.9891  -28.3297   24.1452 H   0  0  0  0  0  0
  -20.5768  -26.2293   23.3610 H   0  0  0  0  0  0
  -21.6609  -26.7521   22.1162 H   0  0  0  0  0  0
  -19.6939  -25.6267   21.1301 H   0  0  0  0  0  0
  -19.6739  -27.3158   20.6723 H   0  0  0  0  0  0
  -17.4175  -26.6683   21.3997 H   0  0  0  0  0  0
  -18.0242  -26.0100   22.9036 H   0  0  0  0  0  0
  -19.7980  -30.7185   24.2348 H   0  0  0  0  0  0
  -17.5100  -31.6321   24.5136 H   0  0  0  0  0  0
  -15.5404  -30.3089   23.7671 H   0  0  0  0  0  0
  -15.8606  -28.0905   22.7111 H   0  0  0  0  0  0
  -24.5837  -30.7134   25.7789 H   0  0  0  0  0  0
  -24.8907  -32.2955   26.4846 H   0  0  0  0  0  0
  -25.7989  -30.8969   27.0254 H   0  0  0  0  0  0
  -26.2925  -29.6822   24.1146 H   0  0  0  0  0  0
  -27.4265  -29.7395   25.4410 H   0  0  0  0  0  0
  -27.8624  -30.4513   23.9093 H   0  0  0  0  0  0
  -27.2525  -33.3682   26.2045 H   0  0  0  0  0  0
  -28.3812  -32.6956   25.0383 H   0  0  0  0  0  0
  -28.0598  -31.8556   26.5472 H   0  0  0  0  0  0
  -28.2506  -38.0184   24.7614 H   0  0  0  0  0  0
  -28.1203  -36.2705   24.6128 H   0  0  0  0  0  0
  -27.2305  -37.1242   25.8821 H   0  0  0  0  0  0
  -20.9291  -29.8844   21.7049 H   0  0  0  0  0  0
  -26.0220  -38.2847   24.1485 H   0  0  0  0  0  0
  -29.7800  -18.1642   23.3566 H   0  0  0  0  0  0
  -31.1088  -24.9024   23.2817 H   0  0  0  0  0  0
  -31.3817  -24.4474   21.6325 H   0  0  0  0  0  0
  -30.5593  -26.5481   21.2462 H   0  0  0  0  0  0
  -29.6419  -26.6192   22.7085 H   0  0  0  0  0  0
  -28.8835  -23.7276   23.2358 H   0  0  0  0  0  0
  -30.2132  -22.6340   22.8544 H   0  0  0  0  0  0
  -29.2594  -24.3792   19.5175 H   0  0  0  0  0  0
  -27.5879  -24.1463   19.9302 H   0  0  0  0  0  0
  -27.7331  -25.7016   21.7949 H   0  0  0  0  0  0
  -29.5046  -16.9470   18.7297 H   0  0  0  0  0  0
  -30.9251  -17.9530   18.4430 H   0  0  0  0  0  0
  -29.3358  -18.3876   17.7955 H   0  0  0  0  0  0
  -29.5360  -20.5020   17.9257 H   0  0  0  0  0  0
  -29.0673  -21.8659   18.8491 H   0  0  0  0  0  0
  -27.8243  -20.7225   18.3280 H   0  0  0  0  0  0
  -31.3305  -16.8074   22.1896 H   0  0  0  0  0  0
  -31.5485  -16.9505   20.4846 H   0  0  0  0  0  0
  -27.4137  -22.1575   22.2134 H   0  0  0  0  0  0
  -27.2855  -22.0712   20.5077 H   0  0  0  0  0  0
  -29.1910  -15.3813   21.4630 H   0  0  0  0  0  0
  -29.7602  -22.7307   20.6554 H   0  0  0  0  0  0
  1 25  1  0  0  0
  1 30  2  0  0  0
  1 86  1  0  0  0
  2  3  1  0  0  0
  2 25  1  0  0  0
  2 89  1  0  0  0
  2 90  1  0  0  0
  3  4  1  0  0  0
  3 91  1  0  0  0
  3 92  1  0  0  0
  4  5  1  0  0  0
  4 93  1  0  0  0
  4 94  1  0  0  0
  5  6  1  0  0  0
  5 26  1  0  0  0
  5 95  1  0  0  0
  6 25  1  0  0  0
  6 96  1  0  0  0
  6 97  1  0  0  0
  7  8  2  0  0  0
  7 26  1  0  0  0
  7 29  1  0  0  0
  8  9  1  0  0  0
  8 22  1  0  0  0
  9 10  1  0  0  0
  9 27  2  0  0  0
 10 11  2  0  0  0
 10 15  1  0  0  0
 11 12  1  0  0  0
 11 98  1  0  0  0
 12 13  2  0  0  0
 12 99  1  0  0  0
 13 14  1  0  0  0
 13 31  1  0  0  0
 14 15  2  0  0  0
 14100  1  0  0  0
 15101  1  0  0  0
 16 17  2  0  0  0
 16 21  1  0  0  0
 16 31  1  0  0  0
 17 18  1  0  0  0
 17102  1  0  0  0
 18 19  2  0  0  0
 18103  1  0  0  0
 19 20  1  0  0  0
 19 24  1  0  0  0
 20 21  2  0  0  0
 20104  1  0  0  0
 21 23  1  0  0  0
 22 28  1  0  0  0
 22 32  2  0  0  0
 26 27  1  0  0  0
 28105  1  0  0  0
 28106  1  0  0  0
 29107  1  0  0  0
 29108  1  0  0  0
 33 34  1  0  0  0
 33 66  1  0  0  0
 33 70  2  0  0  0
 34 36  1  0  0  0
 34 59  1  0  0  0
 34109  1  0  0  0
 35 44  2  0  0  0
 35 45  1  0  0  0
 35 68  1  0  0  0
 36 56  1  0  0  0
 36110  1  0  0  0
 37 39  1  0  0  0
 37 47  1  0  0  0
 37 66  1  0  0  0
 37111  1  0  0  0
 38 43  2  0  0  0
 38 46  1  0  0  0
 38 47  1  0  0  0
 39 64  1  0  0  0
 39 67  2  0  0  0
 40 52  1  0  0  0
 40 53  2  0  0  0
 40 58  1  0  0  0
 41112  1  0  0  0
 41113  1  0  0  0
 41114  1  0  0  0
 41 48  1  0  0  0
 42 43  1  0  0  0
 42 66  1  0  0  0
 42115  1  0  0  0
 42116  1  0  0  0
 43 44  1  0  0  0
 44117  1  0  0  0
 45 46  2  0  0  0
 45118  1  0  0  0
 46119  1  0  0  0
 47120  1  0  0  0
 47121  1  0  0  0
 48 56  1  0  0  0
 48 65  1  0  0  0
 48122  1  0  0  0
 49 50  1  0  0  0
 49 53  1  0  0  0
 49 64  1  0  0  0
 49123  1  0  0  0
 50 51  1  0  0  0
 50124  1  0  0  0
 50125  1  0  0  0
 51 52  1  0  0  0
 51126  1  0  0  0
 51127  1  0  0  0
 52128  1  0  0  0
 52129  1  0  0  0
 53 54  1  0  0  0
 54 55  2  0  0  0
 54130  1  0  0  0
 55 57  1  0  0  0
 55131  1  0  0  0
 56 69  2  0  0  0
 57 58  2  0  0  0
 57132  1  0  0  0
 58133  1  0  0  0
 59 60  1  0  0  0
 59 61  1  0  0  0
 59 62  1  0  0  0
 60134  1  0  0  0
 60135  1  0  0  0
 60136  1  0  0  0
 61137  1  0  0  0
 61138  1  0  0  0
 61139  1  0  0  0
 62140  1  0  0  0
 62141  1  0  0  0
 62142  1  0  0  0
 63 65  1  0  0  0
 63143  1  0  0  0
 63144  1  0  0  0
 63145  1  0  0  0
 64146  1  0  0  0
 65147  1  0  0  0
 68 81  1  0  0  0
 71 72  2  0  0  0
 71 76  1  0  0  0
 71148  1  0  0  0
 72 73  1  0  0  0
 72 84  1  0  0  0
 73 74  2  0  0  0
 73 82  1  0  0  0
 74 75  1  0  0  0
 74 83  1  0  0  0
 75 76  2  0  0  0
 75 85  1  0  0  0
 76 88  1  0  0  0
 77 78  1  0  0  0
 77 79  1  0  0  0
 77149  1  0  0  0
 77150  1  0  0  0
 78 81  1  0  0  0
 78151  1  0  0  0
 78152  1  0  0  0
 79 87  1  0  0  0
 79153  1  0  0  0
 79154  1  0  0  0
 80 81  1  0  0  0
 80 87  1  0  0  0
 80155  1  0  0  0
 80156  1  0  0  0
 81157  1  0  0  0
 82158  1  0  0  0
 82159  1  0  0  0
 82160  1  0  0  0
 83161  1  0  0  0
 83162  1  0  0  0
 83163  1  0  0  0
 84 86  1  0  0  0
 84164  1  0  0  0
 84165  1  0  0  0
 85166  1  0  0  0
 85167  1  0  0  0
 85 87  1  0  0  0
 86168  1  0  0  0
 87169  1  0  0  0
M  CHG  1  87   1
M  ISO  4   1 100  68 101  81 101  86 100
M  END
> <chiral flag>
0

> <version>
0

> <s_m_source_file>
/data/baiqing/PycharmProjects/Reinvent-master-3.2/result/LINK_invent/BTK/process_docking_weight1_custom_product_contain_oxygen_bond_distance_aromatic_linkinvent_7_9_3/rearranged_h_0036.sdf

> <i_m_source_file_index>
2

> <r_mmod_Potential_Energy-OPLS-2005>
-125.19539642334

> <r_mmod_Stretch_Energy-OPLS-2005>
43.9232749938965

> <r_mmod_Bend_Energy-OPLS-2005>
105.447364807129

> <r_mmod_Torsional_Energy-OPLS-2005>
288.368225097656

> <r_mmod_Improper_Torsional_Energy-OPLS-2005>
3.55506801605225

> <r_mmod_Van_der_Waal_Energy-OPLS-2005>
160.570175170898

> <r_mmod_Electrostatic_Energy-OPLS-2005>
-334.439025878906

> <r_mmod_Solvation_Energy-OPLS-2005>
-405.913055419922

> <b_mmod_Minimization_Converged-OPLS-2005>
0

> <r_mmod_RMS_Derivative-OPLS-2005>
6.76590967178345

$$$$
2
                    3D
 Structure written by MMmdl.
174183  0  0  1  0            999 V2000
  -30.6205  -14.6109   20.5512 C   0  0  0  0  0  0
  -30.4442  -12.3831   19.4591 C   0  0  0  0  0  0
  -29.5155  -12.5201   18.2310 C   0  0  0  0  0  0
  -28.0325  -12.3709   18.6309 C   0  0  0  0  0  0
  -27.6605  -13.2190   19.8765 C   0  0  2  0  0  0
  -28.7001  -13.0290   21.0044 C   0  0  0  0  0  0
  -25.2584  -13.8186   20.5694 C   0  0  0  0  0  0
  -24.1838  -13.0444   20.9179 C   0  0  0  0  0  0
  -24.6410  -11.6924   20.8718 C   0  0  0  0  0  0
  -23.9067  -10.4311   21.0377 C   0  0  0  0  0  0
  -24.3608   -9.4238   21.9171 C   0  0  0  0  0  0
  -23.6288   -8.2274   22.0740 C   0  0  0  0  0  0
  -22.4266   -8.0304   21.3534 C   0  0  0  0  0  0
  -21.9904   -9.0284   20.4634 C   0  0  0  0  0  0
  -22.7238  -10.2156   20.3030 C   0  0  0  0  0  0
  -21.6850   -6.0765   22.5287 C   0  0  0  0  0  0
  -21.4028   -6.5656   23.8234 C   0  0  0  0  0  0
  -21.3657   -5.6784   24.9183 C   0  0  0  0  0  0
  -21.6051   -4.3052   24.7214 C   0  0  0  0  0  0
  -21.8821   -3.8159   23.4324 C   0  0  0  0  0  0
  -21.9197   -4.7000   22.3400 C   0  0  0  0  0  0
  -22.7864  -13.5246   21.1840 C   0  0  0  0  0  0
  -22.1645   -4.2185   21.0972 F   0  0  0  0  0  0
  -21.5620   -3.4532   25.7723 F   0  0  0  0  0  0
  -30.0228  -13.3808   20.4619 N   0  0  0  0  0  0
  -26.3020  -12.9371   20.3372 N   0  0  0  0  0  0
  -25.9340  -11.6518   20.5767 N   0  0  0  0  0  0
  -22.0489  -12.8251   22.0390 N   0  0  0  0  0  0
  -25.4266  -15.1922   20.4147 N   0  0  0  0  0  0
  -31.7519  -14.8138   20.0975 O   0  0  0  0  0  0
  -21.6619   -6.8916   21.4248 O   0  0  0  0  0  0
  -22.3557  -14.5560   20.6688 O   0  0  0  0  0  0
  -24.6221  -31.8633   23.2056 C   0  0  0  0  0  0
  -25.9079  -32.4800   23.8390 C   0  0  1  0  0  0
  -27.2283  -27.3585   20.1326 C   0  0  0  0  0  0
  -25.5920  -33.8601   24.2327 N   0  0  0  0  0  0
  -23.4142  -30.4836   21.5488 C   0  0  2  0  0  0
  -24.8629  -28.9345   20.1256 C   0  0  0  0  0  0
  -22.7441  -29.4629   22.4981 C   0  0  0  0  0  0
  -18.0272  -28.1373   22.8495 C   0  0  0  0  0  0
  -24.1479  -36.7289   23.2635 C   0  0  0  0  0  0
  -25.9484  -30.8040   21.3717 C   0  0  0  0  0  0
  -26.0250  -29.4247   20.7365 C   0  0  0  0  0  0
  -27.2147  -28.6445   20.7386 C   0  0  0  0  0  0
  -26.0535  -26.9053   19.5021 C   0  0  0  0  0  0
  -24.8744  -27.6748   19.5044 C   0  0  0  0  0  0
  -23.6287  -29.8125   20.1662 C   0  0  0  0  0  0
  -25.4107  -36.3098   24.0334 C   0  0  1  0  0  0
  -20.5863  -28.3671   23.1304 C   0  0  2  0  0  0
  -20.6764  -26.9401   22.5419 C   0  0  0  0  0  0
  -19.5741  -26.6388   21.5212 C   0  0  0  0  0  0
  -18.1918  -26.7931   22.1621 C   0  0  0  0  0  0
  -19.1523  -28.8843   23.2900 C   0  0  0  0  0  0
  -18.9451  -30.1448   23.8918 C   0  0  0  0  0  0
  -17.6453  -30.6590   24.0560 C   0  0  0  0  0  0
  -25.9045  -34.9463   23.5133 C   0  0  0  0  0  0
  -16.5340  -29.9086   23.6331 C   0  0  0  0  0  0
  -16.7261  -28.6493   23.0365 C   0  0  0  0  0  0
  -26.4496  -31.6574   25.0720 C   0  0  0  0  0  0
  -25.3760  -31.3648   26.1460 C   0  0  0  0  0  0
  -27.0340  -30.3025   24.6094 C   0  0  0  0  0  0
  -27.6077  -32.4285   25.7479 C   0  0  0  0  0  0
  -27.5577  -37.1802   24.8470 C   0  0  0  0  0  0
  -21.4159  -29.3038   22.3711 N   0  0  0  0  0  0
  -26.4290  -37.3792   23.9414 N   0  0  0  0  0  0
  -24.6796  -31.0669   22.0996 N   0  0  0  0  0  0
  -23.4160  -28.8178   23.3073 O   0  0  0  0  0  0
  -28.3585  -26.5583   20.0223 O   0  0  0  0  0  0
  -26.5599  -34.8913   22.4694 O   0  0  0  0  0  0
  -23.5397  -32.1425   23.7397 O   0  0  0  0  0  0
  -29.3812  -19.0471   19.4449 C   0  0  0  0  0  0
  -29.3129  -17.8597   21.9501 C   0  0  0  0  0  0
  -28.8735  -19.8326   20.5155 C   0  0  0  0  0  0
  -29.7747  -17.6824   19.5902 C   0  0  0  0  0  0
  -28.8829  -19.2135   21.7972 C   0  0  0  0  0  0
  -29.7209  -17.0393   20.8623 C   0  0  0  0  0  0
  -27.1337  -23.4831   20.8497 C   0  0  0  0  0  0
  -25.8735  -23.3704   20.3580 C   0  0  0  0  0  0
  -25.3030  -22.3752   19.4668 C   0  0  0  0  0  0
  -23.9793  -22.1864   19.3439 C   0  0  0  0  0  0
  -27.5446  -24.7128   21.6721 C   0  0  0  0  0  0
  -29.8136  -24.6040   20.5911 C   0  0  0  0  0  0
  -29.3627  -23.2746   19.8924 C   0  0  0  0  0  0
  -28.6792  -25.5727   21.0494 C   0  0  1  0  0  0
  -30.1499  -16.9218   18.3300 C   0  0  0  0  0  0
  -28.3593  -19.9516   23.0212 C   0  0  0  0  0  0
  -23.3498  -21.1419   18.4453 C   0  0  0  0  0  0
  -28.0402  -21.1246   20.1786 C   0  0  0  0  0  0
  -29.8515  -15.6003   21.0988 N   0  0  0  0  0  0
  -28.3303  -22.5337   20.6734 N   0  3  2  0  0  0
  -31.4852  -12.5158   19.1623 H   0  0  0  0  0  0
  -30.3835  -11.3778   19.8786 H   0  0  0  0  0  0
  -29.7750  -11.7738   17.4789 H   0  0  0  0  0  0
  -29.6732  -13.4913   17.7604 H   0  0  0  0  0  0
  -27.8497  -11.3149   18.8325 H   0  0  0  0  0  0
  -27.3874  -12.6344   17.7916 H   0  0  0  0  0  0
  -27.6932  -14.2642   19.5670 H   0  0  0  0  0  0
  -28.7011  -11.9940   21.3500 H   0  0  0  0  0  0
  -28.4402  -13.6258   21.8794 H   0  0  0  0  0  0
  -25.2742   -9.5730   22.4765 H   0  0  0  0  0  0
  -24.0021   -7.4658   22.7438 H   0  0  0  0  0  0
  -21.0847   -8.8807   19.8918 H   0  0  0  0  0  0
  -22.3714  -10.9695   19.6133 H   0  0  0  0  0  0
  -21.2040   -7.6158   23.9774 H   0  0  0  0  0  0
  -21.1438   -6.0486   25.9088 H   0  0  0  0  0  0
  -22.0595   -2.7625   23.2814 H   0  0  0  0  0  0
  -22.4040  -11.9866   22.4750 H   0  0  0  0  0  0
  -21.1125  -13.1319   22.2572 H   0  0  0  0  0  0
  -24.6577  -15.8440   20.5267 H   0  0  0  0  0  0
  -26.2914  -15.6414   20.1418 H   0  0  0  0  0  0
  -26.7132  -32.5493   23.1133 H   0  0  0  0  0  0
  -25.0108  -33.9767   25.0499 H   0  0  0  0  0  0
  -22.7058  -31.3023   21.4041 H   0  0  0  0  0  0
  -23.3764  -35.9600   23.3287 H   0  0  0  0  0  0
  -24.3593  -36.8931   22.2060 H   0  0  0  0  0  0
  -23.7192  -37.6466   23.6671 H   0  0  0  0  0  0
  -26.0632  -31.5560   20.5892 H   0  0  0  0  0  0
  -26.8342  -30.8691   21.9907 H   0  0  0  0  0  0
  -28.1151  -29.0253   21.1997 H   0  0  0  0  0  0
  -26.0530  -25.9495   18.9977 H   0  0  0  0  0  0
  -23.9867  -27.2964   19.0159 H   0  0  0  0  0  0
  -23.7375  -30.5841   19.4026 H   0  0  0  0  0  0
  -22.7519  -29.2347   19.8707 H   0  0  0  0  0  0
  -25.1283  -36.1968   25.0830 H   0  0  0  0  0  0
  -20.9948  -28.3239   24.1420 H   0  0  0  0  0  0
  -20.5672  -26.2281   23.3613 H   0  0  0  0  0  0
  -21.6631  -26.7446   22.1196 H   0  0  0  0  0  0
  -19.6898  -25.6301   21.1232 H   0  0  0  0  0  0
  -19.6674  -27.3206   20.6748 H   0  0  0  0  0  0
  -17.4186  -26.6695   21.4007 H   0  0  0  0  0  0
  -18.0297  -26.0054   22.8995 H   0  0  0  0  0  0
  -19.7925  -30.7262   24.2287 H   0  0  0  0  0  0
  -17.5006  -31.6272   24.5147 H   0  0  0  0  0  0
  -15.5349  -30.2998   23.7654 H   0  0  0  0  0  0
  -15.8647  -28.0821   22.7091 H   0  0  0  0  0  0
  -24.5950  -30.6981   25.7770 H   0  0  0  0  0  0
  -24.8923  -32.2777   26.4942 H   0  0  0  0  0  0
  -25.8122  -30.8786   27.0195 H   0  0  0  0  0  0
  -26.2874  -29.6760   24.1185 H   0  0  0  0  0  0
  -27.4163  -29.7286   25.4544 H   0  0  0  0  0  0
  -27.8692  -30.4359   23.9215 H   0  0  0  0  0  0
  -27.2727  -33.3612   26.2029 H   0  0  0  0  0  0
  -28.3902  -32.6791   25.0298 H   0  0  0  0  0  0
  -28.0716  -31.8404   26.5412 H   0  0  0  0  0  0
  -28.2585  -38.0108   24.7550 H   0  0  0  0  0  0
  -28.1092  -36.2649   24.6269 H   0  0  0  0  0  0
  -27.2305  -37.1396   25.8873 H   0  0  0  0  0  0
  -20.9327  -29.8781   21.6943 H   0  0  0  0  0  0
  -26.0179  -38.2871   24.1431 H   0  0  0  0  0  0
  -29.3622  -19.4694   18.4489 H   0  0  0  0  0  0
  -29.2594  -17.4142   22.9346 H   0  0  0  0  0  0
  -25.2039  -24.1812   20.6136 H   0  0  0  0  0  0
  -25.9358  -21.7670   18.8444 H   0  0  0  0  0  0
  -23.2908  -22.7957   19.9159 H   0  0  0  0  0  0
  -27.8819  -24.3504   22.6449 H   0  0  0  0  0  0
  -26.6776  -25.3344   21.8936 H   0  0  0  0  0  0
  -30.5171  -25.1397   19.9528 H   0  0  0  0  0  0
  -30.3891  -24.3281   21.4748 H   0  0  0  0  0  0
  -30.2270  -22.6320   19.7256 H   0  0  0  0  0  0
  -28.9576  -23.5062   18.9068 H   0  0  0  0  0  0
  -29.0815  -26.1849   21.8588 H   0  0  0  0  0  0
  -29.8492  -17.4673   17.4356 H   0  0  0  0  0  0
  -29.6555  -15.9514   18.2892 H   0  0  0  0  0  0
  -31.2277  -16.7738   18.2821 H   0  0  0  0  0  0
  -28.3005  -19.2936   23.8892 H   0  0  0  0  0  0
  -27.3573  -20.3476   22.8538 H   0  0  0  0  0  0
  -29.0204  -20.7787   23.2845 H   0  0  0  0  0  0
  -24.1015  -20.5015   17.9829 H   0  0  0  0  0  0
  -22.7715  -21.6158   17.6537 H   0  0  0  0  0  0
  -22.6827  -20.5064   19.0291 H   0  0  0  0  0  0
  -27.0583  -20.8504   20.5610 H   0  0  0  0  0  0
  -27.9468  -21.1770   19.0947 H   0  0  0  0  0  0
  -29.0985  -15.2173   21.6506 H   0  0  0  0  0  0
  -28.7292  -22.3850   21.5870 H   0  0  0  0  0  0
  1 25  1  0  0  0
  1 30  2  0  0  0
  1 89  1  0  0  0
  2  3  1  0  0  0
  2 25  1  0  0  0
  2 91  1  0  0  0
  2 92  1  0  0  0
  3  4  1  0  0  0
  3 93  1  0  0  0
  3 94  1  0  0  0
  4  5  1  0  0  0
  4 95  1  0  0  0
  4 96  1  0  0  0
  5  6  1  0  0  0
  5 26  1  0  0  0
  5 97  1  0  0  0
  6 25  1  0  0  0
  6 98  1  0  0  0
  6 99  1  0  0  0
  7  8  2  0  0  0
  7 26  1  0  0  0
  7 29  1  0  0  0
  8  9  1  0  0  0
  8 22  1  0  0  0
  9 10  1  0  0  0
  9 27  2  0  0  0
 10 11  2  0  0  0
 10 15  1  0  0  0
 11 12  1  0  0  0
 11100  1  0  0  0
 12 13  2  0  0  0
 12101  1  0  0  0
 13 14  1  0  0  0
 13 31  1  0  0  0
 14 15  2  0  0  0
 14102  1  0  0  0
 15103  1  0  0  0
 16 17  2  0  0  0
 16 21  1  0  0  0
 16 31  1  0  0  0
 17 18  1  0  0  0
 17104  1  0  0  0
 18 19  2  0  0  0
 18105  1  0  0  0
 19 20  1  0  0  0
 19 24  1  0  0  0
 20 21  2  0  0  0
 20106  1  0  0  0
 21 23  1  0  0  0
 22 28  1  0  0  0
 22 32  2  0  0  0
 26 27  1  0  0  0
 28107  1  0  0  0
 28108  1  0  0  0
 29109  1  0  0  0
 29110  1  0  0  0
 33 34  1  0  0  0
 33 66  1  0  0  0
 33 70  2  0  0  0
 34 36  1  0  0  0
 34 59  1  0  0  0
 34111  1  0  0  0
 35 44  2  0  0  0
 35 45  1  0  0  0
 35 68  1  0  0  0
 36 56  1  0  0  0
 36112  1  0  0  0
 37 39  1  0  0  0
 37 47  1  0  0  0
 37 66  1  0  0  0
 37113  1  0  0  0
 38 43  2  0  0  0
 38 46  1  0  0  0
 38 47  1  0  0  0
 39 64  1  0  0  0
 39 67  2  0  0  0
 40 52  1  0  0  0
 40 53  2  0  0  0
 40 58  1  0  0  0
 41114  1  0  0  0
 41115  1  0  0  0
 41116  1  0  0  0
 41 48  1  0  0  0
 42 43  1  0  0  0
 42 66  1  0  0  0
 42117  1  0  0  0
 42118  1  0  0  0
 43 44  1  0  0  0
 44119  1  0  0  0
 45 46  2  0  0  0
 45120  1  0  0  0
 46121  1  0  0  0
 47122  1  0  0  0
 47123  1  0  0  0
 48 56  1  0  0  0
 48 65  1  0  0  0
 48124  1  0  0  0
 49 50  1  0  0  0
 49 53  1  0  0  0
 49 64  1  0  0  0
 49125  1  0  0  0
 50 51  1  0  0  0
 50126  1  0  0  0
 50127  1  0  0  0
 51 52  1  0  0  0
 51128  1  0  0  0
 51129  1  0  0  0
 52130  1  0  0  0
 52131  1  0  0  0
 53 54  1  0  0  0
 54 55  2  0  0  0
 54132  1  0  0  0
 55 57  1  0  0  0
 55133  1  0  0  0
 56 69  2  0  0  0
 57 58  2  0  0  0
 57134  1  0  0  0
 58135  1  0  0  0
 59 60  1  0  0  0
 59 61  1  0  0  0
 59 62  1  0  0  0
 60136  1  0  0  0
 60137  1  0  0  0
 60138  1  0  0  0
 61139  1  0  0  0
 61140  1  0  0  0
 61141  1  0  0  0
 62142  1  0  0  0
 62143  1  0  0  0
 62144  1  0  0  0
 63 65  1  0  0  0
 63145  1  0  0  0
 63146  1  0  0  0
 63147  1  0  0  0
 64148  1  0  0  0
 65149  1  0  0  0
 68 84  1  0  0  0
 71 73  2  0  0  0
 71 74  1  0  0  0
 71150  1  0  0  0
 72 75  2  0  0  0
 72 76  1  0  0  0
 72151  1  0  0  0
 73 75  1  0  0  0
 73 88  1  0  0  0
 74 76  2  0  0  0
 74 85  1  0  0  0
 75 86  1  0  0  0
 76 89  1  0  0  0
 77 78  2  0  0  0
 77 81  1  0  0  0
 77 90  1  0  0  0
 78 79  1  0  0  0
 78152  1  0  0  0
 79 80  2  0  0  0
 79153  1  0  0  0
 80 87  1  0  0  0
 80154  1  0  0  0
 81 84  1  0  0  0
 81155  1  0  0  0
 81156  1  0  0  0
 82 83  1  0  0  0
 82 84  1  0  0  0
 82157  1  0  0  0
 82158  1  0  0  0
 83 90  1  0  0  0
 83159  1  0  0  0
 83160  1  0  0  0
 84161  1  0  0  0
 85162  1  0  0  0
 85163  1  0  0  0
 85164  1  0  0  0
 86165  1  0  0  0
 86166  1  0  0  0
 86167  1  0  0  0
 87168  1  0  0  0
 87169  1  0  0  0
 87170  1  0  0  0
 88171  1  0  0  0
 88172  1  0  0  0
 88 90  1  0  0  0
 89173  1  0  0  0
 90174  1  0  0  0
M  CHG  1  90   1
M  ISO  4   1 100  68 101  84 101  89 100
M  END
> <chiral flag>
0

> <version>
0

> <s_m_source_file>
/data/baiqing/PycharmProjects/Reinvent-master-3.2/result/LINK_invent/BTK/process_docking_weight1_custom_product_contain_oxygen_bond_distance_aromatic_linkinvent_7_9_3/rearranged_h_0036.sdf

> <i_m_source_file_index>
3

> <r_mmod_Potential_Energy-OPLS-2005>
6.16260147094727

> <r_mmod_Stretch_Energy-OPLS-2005>
72.552001953125

> <r_mmod_Bend_Energy-OPLS-2005>
190.014266967773

> <r_mmod_Torsional_Energy-OPLS-2005>
289.927642822266

> <r_mmod_Improper_Torsional_Energy-OPLS-2005>
7.37058782577515

> <r_mmod_Van_der_Waal_Energy-OPLS-2005>
140.235702514648

> <r_mmod_Electrostatic_Energy-OPLS-2005>
-301.259613037109

> <r_mmod_Solvation_Energy-OPLS-2005>
-425.907196044922

> <b_mmod_Minimization_Converged-OPLS-2005>
0

> <r_mmod_RMS_Derivative-OPLS-2005>
2.69327712059021

$$$$
3
                    3D
 Structure written by MMmdl.
159167  0  0  1  0            999 V2000
  -30.7522  -14.4579   20.6227 C   0  0  0  0  0  0
  -30.4154  -12.3270   19.4172 C   0  0  0  0  0  0
  -29.4850  -12.5200   18.2050 C   0  0  0  0  0  0
  -28.0114  -12.3708   18.6256 C   0  0  0  0  0  0
  -27.6585  -13.2164   19.8780 C   0  0  2  0  0  0
  -28.7036  -13.0159   20.9985 C   0  0  0  0  0  0
  -25.2491  -13.8126   20.5615 C   0  0  0  0  0  0
  -24.1781  -13.0389   20.9154 C   0  0  0  0  0  0
  -24.6392  -11.6880   20.8750 C   0  0  0  0  0  0
  -23.9065  -10.4267   21.0407 C   0  0  0  0  0  0
  -24.3615   -9.4187   21.9192 C   0  0  0  0  0  0
  -23.6293   -8.2225   22.0754 C   0  0  0  0  0  0
  -22.4276   -8.0273   21.3547 C   0  0  0  0  0  0
  -21.9910   -9.0241   20.4646 C   0  0  0  0  0  0
  -22.7234  -10.2117   20.3056 C   0  0  0  0  0  0
  -21.6848   -6.0728   22.5286 C   0  0  0  0  0  0
  -21.4009   -6.5634   23.8216 C   0  0  0  0  0  0
  -21.3655   -5.6789   24.9181 C   0  0  0  0  0  0
  -21.6045   -4.3053   24.7234 C   0  0  0  0  0  0
  -21.8819   -3.8141   23.4357 C   0  0  0  0  0  0
  -21.9190   -4.6956   22.3409 C   0  0  0  0  0  0
  -22.7813  -13.5189   21.1850 C   0  0  0  0  0  0
  -22.1665   -4.2139   21.0990 F   0  0  0  0  0  0
  -21.5625   -3.4540   25.7749 F   0  0  0  0  0  0
  -30.0358  -13.3133   20.4434 N   0  0  0  0  0  0
  -26.3006  -12.9363   20.3418 N   0  0  0  0  0  0
  -25.9341  -11.6500   20.5829 N   0  0  0  0  0  0
  -22.0473  -12.8188   22.0424 N   0  0  0  0  0  0
  -25.4058  -15.1813   20.3901 N   0  0  0  0  0  0
  -31.8403  -14.6466   20.0720 O   0  0  0  0  0  0
  -21.6633   -6.8876   21.4251 O   0  0  0  0  0  0
  -22.3490  -14.5497   20.6709 O   0  0  0  0  0  0
  -24.6130  -31.8673   23.2071 C   0  0  0  0  0  0
  -25.9023  -32.4821   23.8369 C   0  0  1  0  0  0
  -27.2463  -27.4290   20.0966 C   0  0  0  0  0  0
  -25.5881  -33.8617   24.2303 N   0  0  0  0  0  0
  -23.4009  -30.4894   21.5467 C   0  0  2  0  0  0
  -24.8484  -28.9465   20.1168 C   0  0  0  0  0  0
  -22.7401  -29.4657   22.4984 C   0  0  0  0  0  0
  -18.0280  -28.1371   22.8502 C   0  0  0  0  0  0
  -24.1491  -36.7309   23.2641 C   0  0  0  0  0  0
  -25.9274  -30.8305   21.3589 C   0  0  0  0  0  0
  -26.0057  -29.4623   20.7109 C   0  0  0  0  0  0
  -27.2013  -28.7100   20.6966 C   0  0  0  0  0  0
  -26.0620  -26.9196   19.5120 C   0  0  0  0  0  0
  -24.8708  -27.6743   19.5180 C   0  0  0  0  0  0
  -23.6110  -29.8153   20.1638 C   0  0  0  0  0  0
  -25.4109  -36.3112   24.0339 C   0  0  1  0  0  0
  -20.5871  -28.3651   23.1328 C   0  0  2  0  0  0
  -20.6769  -26.9386   22.5430 C   0  0  0  0  0  0
  -19.5750  -26.6382   21.5226 C   0  0  0  0  0  0
  -18.1925  -26.7928   22.1627 C   0  0  0  0  0  0
  -19.1532  -28.8824   23.2918 C   0  0  0  0  0  0
  -18.9458  -30.1442   23.8911 C   0  0  0  0  0  0
  -17.6461  -30.6578   24.0567 C   0  0  0  0  0  0
  -25.9034  -34.9476   23.5123 C   0  0  0  0  0  0
  -16.5350  -29.9083   23.6321 C   0  0  0  0  0  0
  -16.7271  -28.6506   23.0338 C   0  0  0  0  0  0
  -26.4444  -31.6607   25.0709 C   0  0  0  0  0  0
  -25.3717  -31.3729   26.1472 C   0  0  0  0  0  0
  -27.0271  -30.3060   24.6068 C   0  0  0  0  0  0
  -27.6017  -32.4325   25.7483 C   0  0  0  0  0  0
  -27.5574  -37.1805   24.8468 C   0  0  0  0  0  0
  -21.4132  -29.3030   22.3729 N   0  0  0  0  0  0
  -26.4294  -37.3795   23.9411 N   0  0  0  0  0  0
  -24.6653  -31.0779   22.0959 N   0  0  0  0  0  0
  -23.4185  -28.8196   23.3014 O   0  0  0  0  0  0
  -28.4581  -26.7611   20.1025 O   0  0  0  0  0  0
  -26.5612  -34.8930   22.4695 O   0  0  0  0  0  0
  -23.5323  -32.1423   23.7464 O   0  0  0  0  0  0
  -30.6395  -20.4747   21.7927 C   0  0  0  0  0  0
  -28.4073  -19.6009   21.4879 C   0  0  0  0  0  0
  -29.2597  -20.7133   21.6457 C   0  0  0  0  0  0
  -31.1558  -19.1565   21.8302 C   0  0  0  0  0  0
  -30.2935  -18.0226   21.7218 C   0  0  0  0  0  0
  -28.9029  -18.2783   21.5424 C   0  0  0  0  0  0
  -32.6543  -18.9980   22.0512 C   0  0  0  0  0  0
  -30.8962  -16.6031   21.9301 C   0  0  0  0  0  0
  -28.6847  -22.1281   21.8035 C   0  0  0  0  0  0
  -28.3091  -24.4022   20.8540 C   0  0  0  0  0  0
  -28.5838  -25.3887   19.6900 C   0  0  0  0  0  0
  -30.2107  -15.3981   21.4197 N   0  0  0  0  0  0
  -28.8451  -23.0229   20.6303 N   0  3  0  0  0  0
  -27.7297  -17.0163   21.4766 Cl  0  0  0  0  0  0
  -31.4580  -12.4204   19.1084 H   0  0  0  0  0  0
  -30.3202  -11.3167   19.8174 H   0  0  0  0  0  0
  -29.7241  -11.7932   17.4274 H   0  0  0  0  0  0
  -29.6470  -13.5070   17.7681 H   0  0  0  0  0  0
  -27.8332  -11.3146   18.8310 H   0  0  0  0  0  0
  -27.3532  -12.6355   17.7972 H   0  0  0  0  0  0
  -27.6965  -14.2636   19.5758 H   0  0  0  0  0  0
  -28.6839  -11.9867   21.3597 H   0  0  0  0  0  0
  -28.4563  -13.6318   21.8636 H   0  0  0  0  0  0
  -25.2756   -9.5659   22.4772 H   0  0  0  0  0  0
  -23.9994   -7.4609   22.7466 H   0  0  0  0  0  0
  -21.0839   -8.8751   19.8955 H   0  0  0  0  0  0
  -22.3689  -10.9655   19.6163 H   0  0  0  0  0  0
  -21.2001   -7.6142   23.9719 H   0  0  0  0  0  0
  -21.1478   -6.0521   25.9082 H   0  0  0  0  0  0
  -22.0602   -2.7607   23.2860 H   0  0  0  0  0  0
  -22.4094  -11.9847   22.4799 H   0  0  0  0  0  0
  -21.1100  -13.1214   22.2662 H   0  0  0  0  0  0
  -24.6465  -15.8353   20.5417 H   0  0  0  0  0  0
  -26.2918  -15.6398   20.2157 H   0  0  0  0  0  0
  -26.7087  -32.5521   23.1128 H   0  0  0  0  0  0
  -25.0032  -33.9788   25.0448 H   0  0  0  0  0  0
  -22.6894  -31.3050   21.4035 H   0  0  0  0  0  0
  -23.3753  -35.9646   23.3326 H   0  0  0  0  0  0
  -24.3588  -36.8904   22.2053 H   0  0  0  0  0  0
  -23.7247  -37.6519   23.6647 H   0  0  0  0  0  0
  -26.0413  -31.5926   20.5864 H   0  0  0  0  0  0
  -26.8140  -30.8857   21.9776 H   0  0  0  0  0  0
  -28.0972  -29.1099   21.1526 H   0  0  0  0  0  0
  -26.0330  -25.9471   19.0457 H   0  0  0  0  0  0
  -23.9768  -27.2669   19.0653 H   0  0  0  0  0  0
  -23.7191  -30.5859   19.3990 H   0  0  0  0  0  0
  -22.7340  -29.2353   19.8710 H   0  0  0  0  0  0
  -25.1296  -36.1962   25.0831 H   0  0  0  0  0  0
  -20.9982  -28.3205   24.1445 H   0  0  0  0  0  0
  -20.5686  -26.2245   23.3607 H   0  0  0  0  0  0
  -21.6632  -26.7439   22.1206 H   0  0  0  0  0  0
  -19.6908  -25.6308   21.1226 H   0  0  0  0  0  0
  -19.6683  -27.3215   20.6774 H   0  0  0  0  0  0
  -17.4199  -26.6696   21.4024 H   0  0  0  0  0  0
  -18.0302  -26.0072   22.9018 H   0  0  0  0  0  0
  -19.7936  -30.7267   24.2265 H   0  0  0  0  0  0
  -17.5017  -31.6267   24.5166 H   0  0  0  0  0  0
  -15.5354  -30.2985   23.7646 H   0  0  0  0  0  0
  -15.8678  -28.0839   22.7013 H   0  0  0  0  0  0
  -24.5904  -30.7037   25.7841 H   0  0  0  0  0  0
  -24.8897  -32.2899   26.4892 H   0  0  0  0  0  0
  -25.8104  -30.8948   27.0239 H   0  0  0  0  0  0
  -26.2808  -29.6852   24.1104 H   0  0  0  0  0  0
  -27.4044  -29.7268   25.4501 H   0  0  0  0  0  0
  -27.8638  -30.4401   23.9205 H   0  0  0  0  0  0
  -27.2620  -33.3620   26.2057 H   0  0  0  0  0  0
  -28.3830  -32.6889   25.0315 H   0  0  0  0  0  0
  -28.0670  -31.8454   26.5408 H   0  0  0  0  0  0
  -28.2599  -38.0096   24.7513 H   0  0  0  0  0  0
  -28.1062  -36.2626   24.6303 H   0  0  0  0  0  0
  -27.2300  -37.1475   25.8876 H   0  0  0  0  0  0
  -20.9276  -29.8752   21.6967 H   0  0  0  0  0  0
  -26.0185  -38.2876   24.1409 H   0  0  0  0  0  0
  -31.3059  -21.3159   21.9359 H   0  0  0  0  0  0
  -27.3418  -19.7534   21.3915 H   0  0  0  0  0  0
  -33.1491  -19.9613   22.1783 H   0  0  0  0  0  0
  -33.1241  -18.5035   21.1995 H   0  0  0  0  0  0
  -32.8522  -18.4138   22.9495 H   0  0  0  0  0  0
  -30.9930  -16.4667   23.0085 H   0  0  0  0  0  0
  -31.9187  -16.5962   21.5559 H   0  0  0  0  0  0
  -29.1587  -22.5887   22.6719 H   0  0  0  0  0  0
  -27.6237  -22.0550   22.0462 H   0  0  0  0  0  0
  -27.2378  -24.3558   21.0520 H   0  0  0  0  0  0
  -28.7723  -24.8061   21.7560 H   0  0  0  0  0  0
  -27.9989  -25.1539   18.8025 H   0  0  0  0  0  0
  -29.6234  -25.2745   19.3805 H   0  0  0  0  0  0
  -29.2852  -15.2168   21.7799 H   0  0  0  0  0  0
  -28.3873  -22.5935   19.8421 H   0  0  0  0  0  0
  -29.8288  -23.0753   20.4145 H   0  0  0  0  0  0
  1 25  1  0  0  0
  1 30  2  0  0  0
  1 82  1  0  0  0
  2  3  1  0  0  0
  2 25  1  0  0  0
  2 85  1  0  0  0
  2 86  1  0  0  0
  3  4  1  0  0  0
  3 87  1  0  0  0
  3 88  1  0  0  0
  4  5  1  0  0  0
  4 89  1  0  0  0
  4 90  1  0  0  0
  5  6  1  0  0  0
  5 26  1  0  0  0
  5 91  1  0  0  0
  6 25  1  0  0  0
  6 92  1  0  0  0
  6 93  1  0  0  0
  7  8  2  0  0  0
  7 26  1  0  0  0
  7 29  1  0  0  0
  8  9  1  0  0  0
  8 22  1  0  0  0
  9 10  1  0  0  0
  9 27  2  0  0  0
 10 11  2  0  0  0
 10 15  1  0  0  0
 11 12  1  0  0  0
 11 94  1  0  0  0
 12 13  2  0  0  0
 12 95  1  0  0  0
 13 14  1  0  0  0
 13 31  1  0  0  0
 14 15  2  0  0  0
 14 96  1  0  0  0
 15 97  1  0  0  0
 16 17  2  0  0  0
 16 21  1  0  0  0
 16 31  1  0  0  0
 17 18  1  0  0  0
 17 98  1  0  0  0
 18 19  2  0  0  0
 18 99  1  0  0  0
 19 20  1  0  0  0
 19 24  1  0  0  0
 20 21  2  0  0  0
 20100  1  0  0  0
 21 23  1  0  0  0
 22 28  1  0  0  0
 22 32  2  0  0  0
 26 27  1  0  0  0
 28101  1  0  0  0
 28102  1  0  0  0
 29103  1  0  0  0
 29104  1  0  0  0
 33 34  1  0  0  0
 33 66  1  0  0  0
 33 70  2  0  0  0
 34 36  1  0  0  0
 34 59  1  0  0  0
 34105  1  0  0  0
 35 44  2  0  0  0
 35 45  1  0  0  0
 35 68  1  0  0  0
 36 56  1  0  0  0
 36106  1  0  0  0
 37 39  1  0  0  0
 37 47  1  0  0  0
 37 66  1  0  0  0
 37107  1  0  0  0
 38 43  2  0  0  0
 38 46  1  0  0  0
 38 47  1  0  0  0
 39 64  1  0  0  0
 39 67  2  0  0  0
 40 52  1  0  0  0
 40 53  2  0  0  0
 40 58  1  0  0  0
 41108  1  0  0  0
 41109  1  0  0  0
 41110  1  0  0  0
 41 48  1  0  0  0
 42 43  1  0  0  0
 42 66  1  0  0  0
 42111  1  0  0  0
 42112  1  0  0  0
 43 44  1  0  0  0
 44113  1  0  0  0
 45 46  2  0  0  0
 45114  1  0  0  0
 46115  1  0  0  0
 47116  1  0  0  0
 47117  1  0  0  0
 48 56  1  0  0  0
 48 65  1  0  0  0
 48118  1  0  0  0
 49 50  1  0  0  0
 49 53  1  0  0  0
 49 64  1  0  0  0
 49119  1  0  0  0
 50 51  1  0  0  0
 50120  1  0  0  0
 50121  1  0  0  0
 51 52  1  0  0  0
 51122  1  0  0  0
 51123  1  0  0  0
 52124  1  0  0  0
 52125  1  0  0  0
 53 54  1  0  0  0
 54 55  2  0  0  0
 54126  1  0  0  0
 55 57  1  0  0  0
 55127  1  0  0  0
 56 69  2  0  0  0
 57 58  2  0  0  0
 57128  1  0  0  0
 58129  1  0  0  0
 59 60  1  0  0  0
 59 61  1  0  0  0
 59 62  1  0  0  0
 60130  1  0  0  0
 60131  1  0  0  0
 60132  1  0  0  0
 61133  1  0  0  0
 61134  1  0  0  0
 61135  1  0  0  0
 62136  1  0  0  0
 62137  1  0  0  0
 62138  1  0  0  0
 63 65  1  0  0  0
 63139  1  0  0  0
 63140  1  0  0  0
 63141  1  0  0  0
 64142  1  0  0  0
 65143  1  0  0  0
 68 81  1  0  0  0
 71 73  2  0  0  0
 71 74  1  0  0  0
 71144  1  0  0  0
 72 73  1  0  0  0
 72 76  2  0  0  0
 72145  1  0  0  0
 73 79  1  0  0  0
 74 75  2  0  0  0
 74 77  1  0  0  0
 75 76  1  0  0  0
 75 78  1  0  0  0
 76 84  1  0  0  0
 77146  1  0  0  0
 77147  1  0  0  0
 77148  1  0  0  0
 78 82  1  0  0  0
 78149  1  0  0  0
 78150  1  0  0  0
 79 83  1  0  0  0
 79151  1  0  0  0
 79152  1  0  0  0
 80 81  1  0  0  0
 80 83  1  0  0  0
 80153  1  0  0  0
 80154  1  0  0  0
 81155  1  0  0  0
 81156  1  0  0  0
 82157  1  0  0  0
 83158  1  0  0  0
 83159  1  0  0  0
M  CHG  1  83   1
M  ISO  4   1 100  68 101  81 101  82 100
M  END
> <chiral flag>
0

> <version>
0

> <s_m_source_file>
/data/baiqing/PycharmProjects/Reinvent-master-3.2/result/LINK_invent/BTK/process_docking_weight1_custom_product_contain_oxygen_bond_distance_aromatic_linkinvent_7_9_3/rearranged_h_0036.sdf

> <i_m_source_file_index>
4

> <r_mmod_Potential_Energy-OPLS-2005>
-254.917068481445

> <r_mmod_Stretch_Energy-OPLS-2005>
42.6303291320801

> <r_mmod_Bend_Energy-OPLS-2005>
117.159065246582

> <r_mmod_Torsional_Energy-OPLS-2005>
176.854904174805

> <r_mmod_Improper_Torsional_Energy-OPLS-2005>
2.86991763114929

> <r_mmod_Van_der_Waal_Energy-OPLS-2005>
157.560241699219

> <r_mmod_Electrostatic_Energy-OPLS-2005>
-308.788391113281

> <r_mmod_Solvation_Energy-OPLS-2005>
-455.732757568359

> <b_mmod_Minimization_Converged-OPLS-2005>
0

> <r_mmod_RMS_Derivative-OPLS-2005>
1.95263385772705

$$$$
4
                    3D
 Structure written by MMmdl.
167176  0  0  1  0            999 V2000
  -29.8314  -16.8884   20.2336 C   0  0  0  0  0  0
  -30.2706  -14.0313   19.5128 C   0  0  0  0  0  0
  -29.5677  -13.0761   18.4394 C   0  0  0  0  0  0
  -28.2824  -12.4361   18.9603 C   0  0  0  0  0  0
  -27.5785  -13.4824   19.8310 C   0  0  2  0  0  0
  -28.4896  -14.3000   20.8450 C   0  0  0  0  0  0
  -25.2161  -13.8578   20.6027 C   0  0  0  0  0  0
  -24.1701  -13.0493   20.9358 C   0  0  0  0  0  0
  -24.6628  -11.7090   20.8725 C   0  0  0  0  0  0
  -23.9350  -10.4347   21.0316 C   0  0  0  0  0  0
  -24.3804   -9.4238   21.9131 C   0  0  0  0  0  0
  -23.6395   -8.2314   22.0734 C   0  0  0  0  0  0
  -22.4377   -8.0348   21.3538 C   0  0  0  0  0  0
  -22.0074   -9.0339   20.4635 C   0  0  0  0  0  0
  -22.7483  -10.2178   20.2995 C   0  0  0  0  0  0
  -21.6879   -6.0783   22.5281 C   0  0  0  0  0  0
  -21.4046   -6.5662   23.8222 C   0  0  0  0  0  0
  -21.3671   -5.6804   24.9169 C   0  0  0  0  0  0
  -21.6039   -4.3067   24.7210 C   0  0  0  0  0  0
  -21.8819   -3.8176   23.4325 C   0  0  0  0  0  0
  -21.9207   -4.7005   22.3394 C   0  0  0  0  0  0
  -22.7658  -13.5074   21.1953 C   0  0  0  0  0  0
  -22.1667   -4.2176   21.0972 F   0  0  0  0  0  0
  -21.5621   -3.4545   25.7724 F   0  0  0  0  0  0
  -29.4459  -15.2979   20.1299 N   0  0  0  0  0  0
  -26.2899  -13.0313   20.3630 N   0  0  0  0  0  0
  -25.9663  -11.7157   20.5679 N   0  0  0  0  0  0
  -22.0381  -12.8001   22.0491 N   0  0  0  0  0  0
  -25.3405  -15.2346   20.4408 N   0  0  0  0  0  0
  -31.0832  -16.6194   20.1872 O   0  0  0  0  0  0
  -21.6704   -6.8962   21.4246 O   0  0  0  0  0  0
  -22.3276  -14.5355   20.6805 O   0  0  0  0  0  0
  -24.7698  -31.6863   23.0822 C   0  0  0  0  0  0
  -25.9831  -32.3894   23.7678 C   0  0  1  0  0  0
  -27.3034  -25.8425   20.2531 C   0  0  0  0  0  0
  -25.6056  -33.7777   24.1454 N   0  0  0  0  0  0
  -23.6376  -30.2478   21.4546 C   0  0  2  0  0  0
  -25.1161  -28.4130   20.1387 C   0  0  0  0  0  0
  -22.8131  -29.3705   22.4458 C   0  0  0  0  0  0
  -18.0391  -28.1453   22.8371 C   0  0  0  0  0  0
  -24.1520  -36.6922   23.2669 C   0  0  0  0  0  0
  -26.2428  -30.1329   21.4785 C   0  0  0  0  0  0
  -26.3168  -28.6022   20.8358 C   0  0  0  0  0  0
  -27.3526  -27.3807   20.8461 C   0  0  0  0  0  0
  -26.0664  -26.0956   19.5034 C   0  0  0  0  0  0
  -25.0809  -27.1816   19.4471 C   0  0  0  0  0  0
  -23.9400  -29.4587   20.1333 C   0  0  0  0  0  0
  -25.4188  -36.2548   24.0217 C   0  0  1  0  0  0
  -20.6062  -28.3850   23.0945 C   0  0  2  0  0  0
  -20.6800  -26.9417   22.5397 C   0  0  0  0  0  0
  -19.5826  -26.6333   21.5163 C   0  0  0  0  0  0
  -18.2003  -26.7954   22.1550 C   0  0  0  0  0  0
  -19.1680  -28.8997   23.2609 C   0  0  0  0  0  0
  -18.9579  -30.1547   23.8709 C   0  0  0  0  0  0
  -17.6570  -30.6612   24.0525 C   0  0  0  0  0  0
  -25.9206  -34.8961   23.4718 C   0  0  0  0  0  0
  -16.5442  -29.9086   23.6383 C   0  0  0  0  0  0
  -16.7362  -28.6514   23.0372 C   0  0  0  0  0  0
  -26.4758  -31.6307   25.0643 C   0  0  0  0  0  0
  -25.3615  -31.3867   26.1108 C   0  0  0  0  0  0
  -27.0827  -30.2564   24.7130 C   0  0  0  0  0  0
  -27.6042  -32.4369   25.7513 C   0  0  0  0  0  0
  -27.5534  -37.1603   24.8467 C   0  0  0  0  0  0
  -21.4701  -29.2908   22.3164 N   0  0  0  0  0  0
  -26.4235  -37.3413   23.9391 N   0  0  0  0  0  0
  -24.9178  -30.7422   22.0581 N   0  0  0  0  0  0
  -23.4106  -28.7466   23.3235 O   0  0  0  0  0  0
  -27.9475  -24.1257   20.2220 O   0  0  0  0  0  0
  -26.5971  -34.8729   22.4414 O   0  0  0  0  0  0
  -23.6541  -32.0330   23.5214 O   0  0  0  0  0  0
  -29.4331  -23.5837   18.7949 C   0  0  0  0  0  0
  -28.6916  -21.9292   21.5001 C   0  0  0  0  0  0
  -28.8531  -21.9039   18.9571 C   0  0  0  0  0  0
  -29.9696  -24.5647   20.2922 C   0  0  0  0  0  0
  -28.8858  -20.7205   20.2382 C   0  0  0  0  0  0
  -29.2968  -23.6073   21.7693 C   0  0  0  0  0  0
  -33.4851  -23.6044   21.0048 C   0  0  0  0  0  0
  -34.7391  -24.0757   20.8573 C   0  0  0  0  0  0
  -33.0215  -22.3333   21.8183 C   0  0  0  0  0  0
  -31.6031  -21.6156   21.3554 C   0  0  0  0  0  0
  -31.8646  -22.9110   19.3567 C   0  0  0  0  0  0
  -30.6526  -22.4768   20.3409 C   0  0  2  0  0  0
  -28.6385  -21.2636   17.6021 C   0  0  0  0  0  0
  -35.1775  -25.1579   19.8837 C   0  0  0  0  0  0
  -31.3966  -25.2044   20.2904 C   0  0  0  0  0  0
  -29.0776  -18.5913   20.2413 N   0  0  0  0  0  0
  -32.3673  -24.0528   20.1231 N   0  3  1  0  0  0
  -29.4380  -24.2384   23.3684 Cl  0  0  0  0  0  0
  -31.1381  -14.4439   18.9970 H   0  0  0  0  0  0
  -30.7216  -13.4318   20.3069 H   0  0  0  0  0  0
  -30.2580  -12.3055   18.0952 H   0  0  0  0  0  0
  -29.3286  -13.6755   17.5605 H   0  0  0  0  0  0
  -28.5385  -11.5688   19.5721 H   0  0  0  0  0  0
  -27.6492  -12.0831   18.1464 H   0  0  0  0  0  0
  -27.2960  -14.2309   19.0870 H   0  0  0  0  0  0
  -28.9917  -13.6424   21.5557 H   0  0  0  0  0  0
  -27.8461  -14.9130   21.4751 H   0  0  0  0  0  0
  -25.2916   -9.5691   22.4739 H   0  0  0  0  0  0
  -24.0064   -7.4719   22.7476 H   0  0  0  0  0  0
  -21.0999   -8.8910   19.8937 H   0  0  0  0  0  0
  -22.3956  -10.9716   19.6104 H   0  0  0  0  0  0
  -21.2057   -7.6170   23.9731 H   0  0  0  0  0  0
  -21.1479   -6.0531   25.9078 H   0  0  0  0  0  0
  -22.0583   -2.7622   23.2827 H   0  0  0  0  0  0
  -22.4100  -11.9689   22.4883 H   0  0  0  0  0  0
  -21.0938  -13.0878   22.2635 H   0  0  0  0  0  0
  -24.5496  -15.8622   20.5400 H   0  0  0  0  0  0
  -26.1818  -15.6964   20.1185 H   0  0  0  0  0  0
  -26.7997  -32.4240   23.0472 H   0  0  0  0  0  0
  -25.0002  -33.8654   24.9471 H   0  0  0  0  0  0
  -23.0128  -31.1025   21.1827 H   0  0  0  0  0  0
  -23.3792  -35.9231   23.3186 H   0  0  0  0  0  0
  -24.3570  -36.8774   22.2110 H   0  0  0  0  0  0
  -23.7276  -37.6025   23.6913 H   0  0  0  0  0  0
  -26.5268  -30.8002   20.6643 H   0  0  0  0  0  0
  -27.0679  -30.2307   22.1716 H   0  0  0  0  0  0
  -28.2205  -27.5671   21.4641 H   0  0  0  0  0  0
  -25.7551  -25.2341   18.9275 H   0  0  0  0  0  0
  -24.2050  -26.9929   18.8419 H   0  0  0  0  0  0
  -24.1714  -30.1749   19.3437 H   0  0  0  0  0  0
  -23.0302  -28.9534   19.8066 H   0  0  0  0  0  0
  -25.1433  -36.1172   25.0703 H   0  0  0  0  0  0
  -21.0098  -28.3550   24.1089 H   0  0  0  0  0  0
  -20.5531  -26.2495   23.3734 H   0  0  0  0  0  0
  -21.6666  -26.7202   22.1307 H   0  0  0  0  0  0
  -19.6987  -25.6209   21.1287 H   0  0  0  0  0  0
  -19.6824  -27.3060   20.6631 H   0  0  0  0  0  0
  -17.4259  -26.6649   21.3957 H   0  0  0  0  0  0
  -18.0418  -26.0140   22.9007 H   0  0  0  0  0  0
  -19.8071  -30.7387   24.1986 H   0  0  0  0  0  0
  -17.5138  -31.6277   24.5160 H   0  0  0  0  0  0
  -15.5439  -30.2943   23.7836 H   0  0  0  0  0  0
  -15.8743  -28.0790   22.7196 H   0  0  0  0  0  0
  -24.5917  -30.7082   25.7401 H   0  0  0  0  0  0
  -24.8723  -32.3175   26.4003 H   0  0  0  0  0  0
  -25.7655  -30.9392   27.0199 H   0  0  0  0  0  0
  -26.3699  -29.5891   24.2277 H   0  0  0  0  0  0
  -27.4050  -29.7379   25.6162 H   0  0  0  0  0  0
  -27.9741  -30.3493   24.0920 H   0  0  0  0  0  0
  -27.2462  -33.3849   26.1549 H   0  0  0  0  0  0
  -28.4155  -32.6605   25.0569 H   0  0  0  0  0  0
  -28.0367  -31.8852   26.5874 H   0  0  0  0  0  0
  -28.2451  -37.9986   24.7504 H   0  0  0  0  0  0
  -28.1139  -36.2487   24.6316 H   0  0  0  0  0  0
  -27.2254  -37.1234   25.8875 H   0  0  0  0  0  0
  -21.0198  -29.8382   21.5958 H   0  0  0  0  0  0
  -25.9977  -38.2404   24.1438 H   0  0  0  0  0  0
  -29.6185  -23.9828   17.8058 H   0  0  0  0  0  0
  -28.4453  -21.4661   22.4448 H   0  0  0  0  0  0
  -35.5397  -23.6010   21.4063 H   0  0  0  0  0  0
  -32.9263  -22.6651   22.8568 H   0  0  0  0  0  0
  -33.8180  -21.5840   21.8270 H   0  0  0  0  0  0
  -31.0876  -21.1917   22.2293 H   0  0  0  0  0  0
  -31.8853  -20.7090   20.8118 H   0  0  0  0  0  0
  -31.6825  -23.1854   18.3176 H   0  0  0  0  0  0
  -32.6224  -22.1348   19.2355 H   0  0  0  0  0  0
  -31.1130  -22.8194   21.2414 H   0  0  0  0  0  0
  -29.4586  -20.5766   17.3797 H   0  0  0  0  0  0
  -28.5952  -22.0096   16.8071 H   0  0  0  0  0  0
  -27.7042  -20.7019   17.5844 H   0  0  0  0  0  0
  -34.3649  -25.8332   19.6132 H   0  0  0  0  0  0
  -35.5737  -24.7093   18.9688 H   0  0  0  0  0  0
  -35.9725  -25.7561   20.3298 H   0  0  0  0  0  0
  -31.5696  -25.7410   21.2244 H   0  0  0  0  0  0
  -31.5008  -25.9102   19.4689 H   0  0  0  0  0  0
  -28.1132  -18.2869   20.2571 H   0  0  0  0  0  0
  -31.7433  -23.7483   20.8499 H   0  0  0  0  0  0
  1 25  1  0  0  0
  1 30  2  0  0  0
  1 86  1  0  0  0
  2  3  1  0  0  0
  2 25  1  0  0  0
  2 89  1  0  0  0
  2 90  1  0  0  0
  3  4  1  0  0  0
  3 91  1  0  0  0
  3 92  1  0  0  0
  4  5  1  0  0  0
  4 93  1  0  0  0
  4 94  1  0  0  0
  5  6  1  0  0  0
  5 26  1  0  0  0
  5 95  1  0  0  0
  6 25  1  0  0  0
  6 96  1  0  0  0
  6 97  1  0  0  0
  7  8  2  0  0  0
  7 26  1  0  0  0
  7 29  1  0  0  0
  8  9  1  0  0  0
  8 22  1  0  0  0
  9 10  1  0  0  0
  9 27  2  0  0  0
 10 11  2  0  0  0
 10 15  1  0  0  0
 11 12  1  0  0  0
 11 98  1  0  0  0
 12 13  2  0  0  0
 12 99  1  0  0  0
 13 14  1  0  0  0
 13 31  1  0  0  0
 14 15  2  0  0  0
 14100  1  0  0  0
 15101  1  0  0  0
 16 17  2  0  0  0
 16 21  1  0  0  0
 16 31  1  0  0  0
 17 18  1  0  0  0
 17102  1  0  0  0
 18 19  2  0  0  0
 18103  1  0  0  0
 19 20  1  0  0  0
 19 24  1  0  0  0
 20 21  2  0  0  0
 20104  1  0  0  0
 21 23  1  0  0  0
 22 28  1  0  0  0
 22 32  2  0  0  0
 26 27  1  0  0  0
 28105  1  0  0  0
 28106  1  0  0  0
 29107  1  0  0  0
 29108  1  0  0  0
 33 34  1  0  0  0
 33 66  1  0  0  0
 33 70  2  0  0  0
 34 36  1  0  0  0
 34 59  1  0  0  0
 34109  1  0  0  0
 35 44  2  0  0  0
 35 45  1  0  0  0
 35 68  1  0  0  0
 36 56  1  0  0  0
 36110  1  0  0  0
 37 39  1  0  0  0
 37 47  1  0  0  0
 37 66  1  0  0  0
 37111  1  0  0  0
 38 43  2  0  0  0
 38 46  1  0  0  0
 38 47  1  0  0  0
 39 64  1  0  0  0
 39 67  2  0  0  0
 40 52  1  0  0  0
 40 53  2  0  0  0
 40 58  1  0  0  0
 41112  1  0  0  0
 41113  1  0  0  0
 41114  1  0  0  0
 41 48  1  0  0  0
 42 43  1  0  0  0
 42 66  1  0  0  0
 42115  1  0  0  0
 42116  1  0  0  0
 43 44  1  0  0  0
 44117  1  0  0  0
 45 46  2  0  0  0
 45118  1  0  0  0
 46119  1  0  0  0
 47120  1  0  0  0
 47121  1  0  0  0
 48 56  1  0  0  0
 48 65  1  0  0  0
 48122  1  0  0  0
 49 50  1  0  0  0
 49 53  1  0  0  0
 49 64  1  0  0  0
 49123  1  0  0  0
 50 51  1  0  0  0
 50124  1  0  0  0
 50125  1  0  0  0
 51 52  1  0  0  0
 51126  1  0  0  0
 51127  1  0  0  0
 52128  1  0  0  0
 52129  1  0  0  0
 53 54  1  0  0  0
 54 55  2  0  0  0
 54130  1  0  0  0
 55 57  1  0  0  0
 55131  1  0  0  0
 56 69  2  0  0  0
 57 58  2  0  0  0
 57132  1  0  0  0
 58133  1  0  0  0
 59 60  1  0  0  0
 59 61  1  0  0  0
 59 62  1  0  0  0
 60134  1  0  0  0
 60135  1  0  0  0
 60136  1  0  0  0
 61137  1  0  0  0
 61138  1  0  0  0
 61139  1  0  0  0
 62140  1  0  0  0
 62141  1  0  0  0
 62142  1  0  0  0
 63 65  1  0  0  0
 63143  1  0  0  0
 63144  1  0  0  0
 63145  1  0  0  0
 64146  1  0  0  0
 65147  1  0  0  0
 68 82  1  0  0  0
 71 73  2  0  0  0
 71 74  1  0  0  0
 71148  1  0  0  0
 72 75  2  0  0  0
 72 76  1  0  0  0
 72149  1  0  0  0
 73 75  1  0  0  0
 73 83  1  0  0  0
 74 76  2  0  0  0
 74 85  1  0  0  0
 75 86  1  0  0  0
 76 88  1  0  0  0
 77 78  2  0  0  0
 77 79  1  0  0  0
 77 87  1  0  0  0
 78 84  1  0  0  0
 78150  1  0  0  0
 79 80  1  0  0  0
 79151  1  0  0  0
 79152  1  0  0  0
 80 82  1  0  0  0
 80153  1  0  0  0
 80154  1  0  0  0
 81 82  1  0  0  0
 81 87  1  0  0  0
 81155  1  0  0  0
 81156  1  0  0  0
 82157  1  0  0  0
 83158  1  0  0  0
 83159  1  0  0  0
 83160  1  0  0  0
 84161  1  0  0  0
 84162  1  0  0  0
 84163  1  0  0  0
 85164  1  0  0  0
 85165  1  0  0  0
 85 87  1  0  0  0
 86166  1  0  0  0
 87167  1  0  0  0
M  CHG  1  87   1
M  ISO  4   1 100  68 101  82 101  86 100
M  END
> <chiral flag>
0

> <version>
0

> <s_m_source_file>
/data/baiqing/PycharmProjects/Reinvent-master-3.2/result/LINK_invent/BTK/process_docking_weight1_custom_product_contain_oxygen_bond_distance_aromatic_linkinvent_7_9_3/rearranged_h_0036.sdf

> <i_m_source_file_index>
5

> <r_mmod_Potential_Energy-OPLS-2005>
15806.404296875

> <r_mmod_Stretch_Energy-OPLS-2005>
8572.2041015625

> <r_mmod_Bend_Energy-OPLS-2005>
1512.77551269531

> <r_mmod_Torsional_Energy-OPLS-2005>
445.649444580078

> <r_mmod_Improper_Torsional_Energy-OPLS-2005>
27.5291328430176

> <r_mmod_Van_der_Waal_Energy-OPLS-2005>
2162.2802734375

> <r_mmod_Electrostatic_Energy-OPLS-2005>
-284.041259765625

> <r_mmod_Solvation_Energy-OPLS-2005>
-442.860198974609

> <b_mmod_Minimization_Converged-OPLS-2005>
0

> <r_mmod_RMS_Derivative-OPLS-2005>
8.39828205108643

$$$$
5
                    3D
 Structure written by MMmdl.
170179  0  0  1  0            999 V2000
  -30.5985  -14.7434   20.3967 C   0  0  0  0  0  0
  -30.4301  -12.4418   19.4701 C   0  0  0  0  0  0
  -29.5121  -12.4987   18.2299 C   0  0  0  0  0  0
  -28.0345  -12.3350   18.6404 C   0  0  0  0  0  0
  -27.6387  -13.2340   19.8434 C   0  0  2  0  0  0
  -28.6839  -13.1756   20.9765 C   0  0  0  0  0  0
  -25.2505  -13.8183   20.5695 C   0  0  0  0  0  0
  -24.1804  -13.0424   20.9209 C   0  0  0  0  0  0
  -24.6393  -11.6908   20.8741 C   0  0  0  0  0  0
  -23.9071  -10.4292   21.0404 C   0  0  0  0  0  0
  -24.3615   -9.4212   21.9183 C   0  0  0  0  0  0
  -23.6291   -8.2253   22.0761 C   0  0  0  0  0  0
  -22.4279   -8.0291   21.3551 C   0  0  0  0  0  0
  -21.9913   -9.0255   20.4645 C   0  0  0  0  0  0
  -22.7242  -10.2132   20.3050 C   0  0  0  0  0  0
  -21.6856   -6.0739   22.5282 C   0  0  0  0  0  0
  -21.4014   -6.5634   23.8213 C   0  0  0  0  0  0
  -21.3661   -5.6789   24.9169 C   0  0  0  0  0  0
  -21.6047   -4.3054   24.7218 C   0  0  0  0  0  0
  -21.8818   -3.8154   23.4332 C   0  0  0  0  0  0
  -21.9191   -4.6973   22.3394 C   0  0  0  0  0  0
  -22.7827  -13.5226   21.1867 C   0  0  0  0  0  0
  -22.1669   -4.2170   21.0968 F   0  0  0  0  0  0
  -21.5626   -3.4527   25.7715 F   0  0  0  0  0  0
  -29.9831  -13.5142   20.3845 N   0  0  0  0  0  0
  -26.2927  -12.9404   20.3250 N   0  0  0  0  0  0
  -25.9320  -11.6546   20.5720 N   0  0  0  0  0  0
  -22.0461  -12.8230   22.0408 N   0  0  0  0  0  0
  -25.4142  -15.1902   20.4073 N   0  0  0  0  0  0
  -31.8197  -14.7988   20.2331 O   0  0  0  0  0  0
  -21.6651   -6.8879   21.4244 O   0  0  0  0  0  0
  -22.3523  -14.5541   20.6712 O   0  0  0  0  0  0
  -24.6306  -31.8533   23.1968 C   0  0  0  0  0  0
  -25.9128  -32.4743   23.8314 C   0  0  1  0  0  0
  -27.2162  -27.2696   20.1356 C   0  0  0  0  0  0
  -25.5936  -33.8548   24.2257 N   0  0  0  0  0  0
  -23.4271  -30.4732   21.5404 C   0  0  2  0  0  0
  -24.8730  -28.9138   20.1179 C   0  0  0  0  0  0
  -22.7504  -29.4563   22.4917 C   0  0  0  0  0  0
  -18.0283  -28.1374   22.8483 C   0  0  0  0  0  0
  -24.1491  -36.7277   23.2650 C   0  0  0  0  0  0
  -25.9699  -30.7740   21.3656 C   0  0  0  0  0  0
  -26.0443  -29.3926   20.7196 C   0  0  0  0  0  0
  -27.2234  -28.5826   20.7113 C   0  0  0  0  0  0
  -26.0258  -26.8474   19.5145 C   0  0  0  0  0  0
  -24.8676  -27.6505   19.5051 C   0  0  0  0  0  0
  -23.6442  -29.8010   20.1602 C   0  0  0  0  0  0
  -25.4116  -36.3065   24.0333 C   0  0  1  0  0  0
  -20.5894  -28.3659   23.1298 C   0  0  2  0  0  0
  -20.6766  -26.9372   22.5415 C   0  0  0  0  0  0
  -19.5736  -26.6375   21.5218 C   0  0  0  0  0  0
  -18.1920  -26.7925   22.1628 C   0  0  0  0  0  0
  -19.1534  -28.8833   23.2884 C   0  0  0  0  0  0
  -18.9462  -30.1448   23.8883 C   0  0  0  0  0  0
  -17.6452  -30.6569   24.0562 C   0  0  0  0  0  0
  -25.9051  -34.9435   23.5091 C   0  0  0  0  0  0
  -16.5345  -29.9055   23.6341 C   0  0  0  0  0  0
  -16.7275  -28.6486   23.0349 C   0  0  0  0  0  0
  -26.4491  -31.6557   25.0689 C   0  0  0  0  0  0
  -25.3722  -31.3678   26.1422 C   0  0  0  0  0  0
  -27.0344  -30.3006   24.6116 C   0  0  0  0  0  0
  -27.6055  -32.4290   25.7465 C   0  0  0  0  0  0
  -27.5575  -37.1801   24.8476 C   0  0  0  0  0  0
  -21.4205  -29.3019   22.3698 N   0  0  0  0  0  0
  -26.4285  -37.3772   23.9429 N   0  0  0  0  0  0
  -24.6956  -31.0520   22.0922 N   0  0  0  0  0  0
  -23.4215  -28.8077   23.2979 O   0  0  0  0  0  0
  -28.3144  -26.3909   20.1258 O   0  0  0  0  0  0
  -26.5635  -34.8914   22.4663 O   0  0  0  0  0  0
  -23.5458  -32.1328   23.7287 O   0  0  0  0  0  0
  -30.3498  -20.0509   19.0644 C   0  0  0  0  0  0
  -31.1503  -19.0106   18.5701 C   0  0  0  0  0  0
  -29.2793  -19.7876   19.9349 C   0  0  0  0  0  0
  -30.9464  -17.6604   18.9270 C   0  0  0  0  0  0
  -29.1421  -18.4016   20.3983 C   0  0  0  0  0  0
  -29.9955  -17.2990   19.9370 C   0  0  0  0  0  0
  -28.2394  -22.6250   22.1182 C   0  0  0  0  0  0
  -27.0922  -22.3249   22.7715 C   0  0  0  0  0  0
  -29.2549  -23.6306   22.6529 C   0  0  0  0  0  0
  -29.3089  -24.9254   21.7890 C   0  0  0  0  0  0
  -28.2084  -23.6517   19.8767 C   0  0  0  0  0  0
  -28.1803  -25.0268   20.7377 C   0  0  2  0  0  0
  -31.7231  -16.6630   18.0764 C   0  0  0  0  0  0
  -28.0071  -18.0648   21.3543 C   0  0  0  0  0  0
  -25.8370  -21.6406   22.2575 C   0  0  0  0  0  0
  -28.2206  -20.9781   20.0946 C   0  0  0  0  0  0
  -29.7894  -15.8775   20.3756 N   0  0  0  0  0  0
  -28.5599  -22.3750   20.6736 N   0  3  2  0  0  0
  -31.4735  -12.5605   19.1739 H   0  0  0  0  0  0
  -30.3648  -11.4674   19.9579 H   0  0  0  0  0  0
  -29.7918  -11.7202   17.5185 H   0  0  0  0  0  0
  -29.6483  -13.4502   17.7136 H   0  0  0  0  0  0
  -27.8834  -11.2852   18.8960 H   0  0  0  0  0  0
  -27.3812  -12.5367   17.7912 H   0  0  0  0  0  0
  -27.6266  -14.2551   19.4620 H   0  0  0  0  0  0
  -28.7131  -12.1829   21.4281 H   0  0  0  0  0  0
  -28.4265  -13.8704   21.7779 H   0  0  0  0  0  0
  -25.2751   -9.5706   22.4758 H   0  0  0  0  0  0
  -24.0008   -7.4645   22.7475 H   0  0  0  0  0  0
  -21.0853   -8.8744   19.8943 H   0  0  0  0  0  0
  -22.3684  -10.9658   19.6158 H   0  0  0  0  0  0
  -21.2014   -7.6138   23.9722 H   0  0  0  0  0  0
  -21.1487   -6.0512   25.9071 H   0  0  0  0  0  0
  -22.0601   -2.7626   23.2811 H   0  0  0  0  0  0
  -22.4064  -11.9870   22.4770 H   0  0  0  0  0  0
  -21.1069  -13.1263   22.2585 H   0  0  0  0  0  0
  -24.6255  -15.8228   20.4884 H   0  0  0  0  0  0
  -26.2313  -15.6300   20.0063 H   0  0  0  0  0  0
  -26.7165  -32.5396   23.1029 H   0  0  0  0  0  0
  -25.0098  -33.9684   25.0416 H   0  0  0  0  0  0
  -22.7218  -31.2923   21.3880 H   0  0  0  0  0  0
  -23.3753  -35.9605   23.3300 H   0  0  0  0  0  0
  -24.3592  -36.8920   22.2072 H   0  0  0  0  0  0
  -23.7233  -37.6478   23.6662 H   0  0  0  0  0  0
  -26.1014  -31.5216   20.5823 H   0  0  0  0  0  0
  -26.8547  -30.8351   21.9896 H   0  0  0  0  0  0
  -28.1261  -28.9475   21.1794 H   0  0  0  0  0  0
  -25.9847  -25.8761   19.0407 H   0  0  0  0  0  0
  -23.9683  -27.2770   19.0356 H   0  0  0  0  0  0
  -23.7715  -30.5721   19.3999 H   0  0  0  0  0  0
  -22.7603  -29.2358   19.8581 H   0  0  0  0  0  0
  -25.1286  -36.1921   25.0821 H   0  0  0  0  0  0
  -20.9981  -28.3205   24.1420 H   0  0  0  0  0  0
  -20.5695  -26.2236   23.3604 H   0  0  0  0  0  0
  -21.6617  -26.7403   22.1163 H   0  0  0  0  0  0
  -19.6887  -25.6311   21.1189 H   0  0  0  0  0  0
  -19.6679  -27.3229   20.6788 H   0  0  0  0  0  0
  -17.4195  -26.6707   21.4020 H   0  0  0  0  0  0
  -18.0274  -26.0073   22.9021 H   0  0  0  0  0  0
  -19.7933  -30.7279   24.2232 H   0  0  0  0  0  0
  -17.5002  -31.6250   24.5161 H   0  0  0  0  0  0
  -15.5349  -30.2946   23.7677 H   0  0  0  0  0  0
  -15.8681  -28.0804   22.7055 H   0  0  0  0  0  0
  -24.5899  -30.7012   25.7763 H   0  0  0  0  0  0
  -24.8888  -32.2828   26.4854 H   0  0  0  0  0  0
  -25.8048  -30.8859   27.0203 H   0  0  0  0  0  0
  -26.2914  -29.6767   24.1140 H   0  0  0  0  0  0
  -27.4087  -29.7245   25.4587 H   0  0  0  0  0  0
  -27.8739  -30.4325   23.9290 H   0  0  0  0  0  0
  -27.2667  -33.3615   26.1982 H   0  0  0  0  0  0
  -28.3892  -32.6821   25.0308 H   0  0  0  0  0  0
  -28.0669  -31.8442   26.5433 H   0  0  0  0  0  0
  -28.2578  -38.0116   24.7549 H   0  0  0  0  0  0
  -28.1072  -36.2648   24.6238 H   0  0  0  0  0  0
  -27.2298  -37.1404   25.8880 H   0  0  0  0  0  0
  -20.9375  -29.8792   21.6963 H   0  0  0  0  0  0
  -26.0154  -38.2844   24.1429 H   0  0  0  0  0  0
  -30.5050  -21.0466   18.6718 H   0  0  0  0  0  0
  -31.8949  -19.2581   17.8252 H   0  0  0  0  0  0
  -27.0105  -22.6601   23.7968 H   0  0  0  0  0  0
  -30.2408  -23.1713   22.7257 H   0  0  0  0  0  0
  -28.9830  -23.9097   23.6727 H   0  0  0  0  0  0
  -30.2676  -24.9817   21.2716 H   0  0  0  0  0  0
  -29.2800  -25.8001   22.4384 H   0  0  0  0  0  0
  -28.9350  -23.7461   19.0694 H   0  0  0  0  0  0
  -27.2351  -23.5251   19.4047 H   0  0  0  0  0  0
  -27.2387  -25.0276   21.2897 H   0  0  0  0  0  0
  -31.9053  -17.0747   17.0837 H   0  0  0  0  0  0
  -31.1730  -15.7375   17.9060 H   0  0  0  0  0  0
  -32.6979  -16.4448   18.5129 H   0  0  0  0  0  0
  -27.8060  -18.8810   22.0463 H   0  0  0  0  0  0
  -28.2387  -17.1969   21.9706 H   0  0  0  0  0  0
  -27.0947  -17.8554   20.7947 H   0  0  0  0  0  0
  -25.6959  -21.7742   21.1849 H   0  0  0  0  0  0
  -24.9634  -22.0851   22.7383 H   0  0  0  0  0  0
  -25.8407  -20.5775   22.5057 H   0  0  0  0  0  0
  -27.3501  -20.5528   20.5727 H   0  0  0  0  0  0
  -27.8714  -21.1650   19.0779 H   0  0  0  0  0  0
  -28.8427  -15.6696   20.6525 H   0  0  0  0  0  0
  -29.5671  -22.3613   20.6328 H   0  0  0  0  0  0
  1 25  1  0  0  0
  1 30  2  0  0  0
  1 87  1  0  0  0
  2  3  1  0  0  0
  2 25  1  0  0  0
  2 89  1  0  0  0
  2 90  1  0  0  0
  3  4  1  0  0  0
  3 91  1  0  0  0
  3 92  1  0  0  0
  4  5  1  0  0  0
  4 93  1  0  0  0
  4 94  1  0  0  0
  5  6  1  0  0  0
  5 26  1  0  0  0
  5 95  1  0  0  0
  6 25  1  0  0  0
  6 96  1  0  0  0
  6 97  1  0  0  0
  7  8  2  0  0  0
  7 26  1  0  0  0
  7 29  1  0  0  0
  8  9  1  0  0  0
  8 22  1  0  0  0
  9 10  1  0  0  0
  9 27  2  0  0  0
 10 11  2  0  0  0
 10 15  1  0  0  0
 11 12  1  0  0  0
 11 98  1  0  0  0
 12 13  2  0  0  0
 12 99  1  0  0  0
 13 14  1  0  0  0
 13 31  1  0  0  0
 14 15  2  0  0  0
 14100  1  0  0  0
 15101  1  0  0  0
 16 17  2  0  0  0
 16 21  1  0  0  0
 16 31  1  0  0  0
 17 18  1  0  0  0
 17102  1  0  0  0
 18 19  2  0  0  0
 18103  1  0  0  0
 19 20  1  0  0  0
 19 24  1  0  0  0
 20 21  2  0  0  0
 20104  1  0  0  0
 21 23  1  0  0  0
 22 28  1  0  0  0
 22 32  2  0  0  0
 26 27  1  0  0  0
 28105  1  0  0  0
 28106  1  0  0  0
 29107  1  0  0  0
 29108  1  0  0  0
 33 34  1  0  0  0
 33 66  1  0  0  0
 33 70  2  0  0  0
 34 36  1  0  0  0
 34 59  1  0  0  0
 34109  1  0  0  0
 35 44  2  0  0  0
 35 45  1  0  0  0
 35 68  1  0  0  0
 36 56  1  0  0  0
 36110  1  0  0  0
 37 39  1  0  0  0
 37 47  1  0  0  0
 37 66  1  0  0  0
 37111  1  0  0  0
 38 43  2  0  0  0
 38 46  1  0  0  0
 38 47  1  0  0  0
 39 64  1  0  0  0
 39 67  2  0  0  0
 40 52  1  0  0  0
 40 53  2  0  0  0
 40 58  1  0  0  0
 41112  1  0  0  0
 41113  1  0  0  0
 41114  1  0  0  0
 41 48  1  0  0  0
 42 43  1  0  0  0
 42 66  1  0  0  0
 42115  1  0  0  0
 42116  1  0  0  0
 43 44  1  0  0  0
 44117  1  0  0  0
 45 46  2  0  0  0
 45118  1  0  0  0
 46119  1  0  0  0
 47120  1  0  0  0
 47121  1  0  0  0
 48 56  1  0  0  0
 48 65  1  0  0  0
 48122  1  0  0  0
 49 50  1  0  0  0
 49 53  1  0  0  0
 49 64  1  0  0  0
 49123  1  0  0  0
 50 51  1  0  0  0
 50124  1  0  0  0
 50125  1  0  0  0
 51 52  1  0  0  0
 51126  1  0  0  0
 51127  1  0  0  0
 52128  1  0  0  0
 52129  1  0  0  0
 53 54  1  0  0  0
 54 55  2  0  0  0
 54130  1  0  0  0
 55 57  1  0  0  0
 55131  1  0  0  0
 56 69  2  0  0  0
 57 58  2  0  0  0
 57132  1  0  0  0
 58133  1  0  0  0
 59 60  1  0  0  0
 59 61  1  0  0  0
 59 62  1  0  0  0
 60134  1  0  0  0
 60135  1  0  0  0
 60136  1  0  0  0
 61137  1  0  0  0
 61138  1  0  0  0
 61139  1  0  0  0
 62140  1  0  0  0
 62141  1  0  0  0
 62142  1  0  0  0
 63 65  1  0  0  0
 63143  1  0  0  0
 63144  1  0  0  0
 63145  1  0  0  0
 64146  1  0  0  0
 65147  1  0  0  0
 68 82  1  0  0  0
 71 72  2  0  0  0
 71 73  1  0  0  0
 71148  1  0  0  0
 72 74  1  0  0  0
 72149  1  0  0  0
 73 75  2  0  0  0
 73 86  1  0  0  0
 74 76  2  0  0  0
 74 83  1  0  0  0
 75 76  1  0  0  0
 75 84  1  0  0  0
 76 87  1  0  0  0
 77 78  2  0  0  0
 77 79  1  0  0  0
 77 88  1  0  0  0
 78 85  1  0  0  0
 78150  1  0  0  0
 79 80  1  0  0  0
 79151  1  0  0  0
 79152  1  0  0  0
 80 82  1  0  0  0
 80153  1  0  0  0
 80154  1  0  0  0
 81 82  1  0  0  0
 81 88  1  0  0  0
 81155  1  0  0  0
 81156  1  0  0  0
 82157  1  0  0  0
 83158  1  0  0  0
 83159  1  0  0  0
 83160  1  0  0  0
 84161  1  0  0  0
 84162  1  0  0  0
 84163  1  0  0  0
 85164  1  0  0  0
 85165  1  0  0  0
 85166  1  0  0  0
 86167  1  0  0  0
 86168  1  0  0  0
 86 88  1  0  0  0
 87169  1  0  0  0
 88170  1  0  0  0
M  CHG  1  88   1
M  ISO  4   1 100  68 101  82 101  87 100
M  END
> <chiral flag>
0

> <version>
0

> <s_m_source_file>
/data/baiqing/PycharmProjects/Reinvent-master-3.2/result/LINK_invent/BTK/process_docking_weight1_custom_product_contain_oxygen_bond_distance_aromatic_linkinvent_7_9_3/rearranged_h_0036.sdf

> <i_m_source_file_index>
6

> <r_mmod_Potential_Energy-OPLS-2005>
157.97705078125

> <r_mmod_Stretch_Energy-OPLS-2005>
135.529556274414

> <r_mmod_Bend_Energy-OPLS-2005>
202.550216674805

> <r_mmod_Torsional_Energy-OPLS-2005>
307.222106933594

> <r_mmod_Improper_Torsional_Energy-OPLS-2005>
8.39767932891846

> <r_mmod_Van_der_Waal_Energy-OPLS-2005>
148.731430053711

> <r_mmod_Electrostatic_Energy-OPLS-2005>
-312.980377197266

> <r_mmod_Solvation_Energy-OPLS-2005>
-417.073638916016

> <b_mmod_Minimization_Converged-OPLS-2005>
0

> <r_mmod_RMS_Derivative-OPLS-2005>
3.28567433357239

$$$$
6
                    3D
 Structure written by MMmdl.
167176  0  0  1  0            999 V2000
  -30.7689  -14.4610   20.6305 C   0  0  0  0  0  0
  -30.4209  -12.3200   19.4321 C   0  0  0  0  0  0
  -29.4967  -12.4780   18.2100 C   0  0  0  0  0  0
  -28.0214  -12.3363   18.6252 C   0  0  0  0  0  0
  -27.6602  -13.2058   19.8613 C   0  0  2  0  0  0
  -28.7026  -13.0384   20.9933 C   0  0  0  0  0  0
  -25.2569  -13.8182   20.5635 C   0  0  0  0  0  0
  -24.1824  -13.0451   20.9145 C   0  0  0  0  0  0
  -24.6378  -11.6915   20.8718 C   0  0  0  0  0  0
  -23.9029  -10.4305   21.0393 C   0  0  0  0  0  0
  -24.3595   -9.4224   21.9163 C   0  0  0  0  0  0
  -23.6268   -8.2261   22.0740 C   0  0  0  0  0  0
  -22.4237   -8.0294   21.3553 C   0  0  0  0  0  0
  -21.9859   -9.0273   20.4673 C   0  0  0  0  0  0
  -22.7188  -10.2149   20.3059 C   0  0  0  0  0  0
  -21.6855   -6.0698   22.5273 C   0  0  0  0  0  0
  -21.4026   -6.5612   23.8205 C   0  0  0  0  0  0
  -21.3664   -5.6778   24.9174 C   0  0  0  0  0  0
  -21.6028   -4.3037   24.7244 C   0  0  0  0  0  0
  -21.8819   -3.8109   23.4371 C   0  0  0  0  0  0
  -21.9213   -4.6924   22.3412 C   0  0  0  0  0  0
  -22.7846  -13.5247   21.1806 C   0  0  0  0  0  0
  -22.1682   -4.2091   21.1006 F   0  0  0  0  0  0
  -21.5626   -3.4539   25.7764 F   0  0  0  0  0  0
  -30.0367  -13.3250   20.4420 N   0  0  0  0  0  0
  -26.3004  -12.9339   20.3297 N   0  0  0  0  0  0
  -25.9301  -11.6502   20.5748 N   0  0  0  0  0  0
  -22.0441  -12.8262   22.0343 N   0  0  0  0  0  0
  -25.4272  -15.1915   20.4066 N   0  0  0  0  0  0
  -31.8638  -14.6357   20.0931 O   0  0  0  0  0  0
  -21.6645   -6.8852   21.4235 O   0  0  0  0  0  0
  -22.3559  -14.5560   20.6628 O   0  0  0  0  0  0
  -24.6191  -31.8690   23.2144 C   0  0  0  0  0  0
  -25.9075  -32.4825   23.8428 C   0  0  1  0  0  0
  -27.2096  -27.3933   20.1256 C   0  0  0  0  0  0
  -25.5964  -33.8619   24.2388 N   0  0  0  0  0  0
  -23.4103  -30.4958   21.5532 C   0  0  2  0  0  0
  -24.8585  -28.9765   20.1022 C   0  0  0  0  0  0
  -22.7438  -29.4654   22.4945 C   0  0  0  0  0  0
  -18.0276  -28.1393   22.8475 C   0  0  0  0  0  0
  -24.1472  -36.7273   23.2633 C   0  0  0  0  0  0
  -25.9418  -30.8245   21.3754 C   0  0  0  0  0  0
  -26.0181  -29.4551   20.7270 C   0  0  0  0  0  0
  -27.1996  -28.6678   20.7439 C   0  0  0  0  0  0
  -26.0559  -26.9827   19.4225 C   0  0  0  0  0  0
  -24.8742  -27.7403   19.4411 C   0  0  0  0  0  0
  -23.6247  -29.8500   20.1576 C   0  0  0  0  0  0
  -25.4092  -36.3104   24.0344 C   0  0  1  0  0  0
  -20.5873  -28.3704   23.1265 C   0  0  2  0  0  0
  -20.6759  -26.9432   22.5401 C   0  0  0  0  0  0
  -19.5751  -26.6411   21.5189 C   0  0  0  0  0  0
  -18.1929  -26.7939   22.1613 C   0  0  0  0  0  0
  -19.1526  -28.8854   23.2885 C   0  0  0  0  0  0
  -18.9476  -30.1450   23.8928 C   0  0  0  0  0  0
  -17.6481  -30.6601   24.0567 C   0  0  0  0  0  0
  -25.9033  -34.9465   23.5154 C   0  0  0  0  0  0
  -16.5362  -29.9118   23.6307 C   0  0  0  0  0  0
  -16.7270  -28.6528   23.0329 C   0  0  0  0  0  0
  -26.4494  -31.6554   25.0725 C   0  0  0  0  0  0
  -25.3771  -31.3643   26.1480 C   0  0  0  0  0  0
  -27.0303  -30.3000   24.6044 C   0  0  0  0  0  0
  -27.6099  -32.4206   25.7527 C   0  0  0  0  0  0
  -27.5567  -37.1796   24.8487 C   0  0  0  0  0  0
  -21.4163  -29.3054   22.3671 N   0  0  0  0  0  0
  -26.4282  -37.3786   23.9437 N   0  0  0  0  0  0
  -24.6753  -31.0754   22.1080 N   0  0  0  0  0  0
  -23.4180  -28.8158   23.2974 O   0  0  0  0  0  0
  -28.2981  -26.5374   20.1858 O   0  0  0  0  0  0
  -26.5568  -34.8916   22.4702 O   0  0  0  0  0  0
  -23.5380  -32.1463   23.7522 O   0  0  0  0  0  0
  -29.9697  -20.0941   20.2754 C   0  0  0  0  0  0
  -29.7290  -18.4373   22.5145 C   0  0  0  0  0  0
  -29.7953  -18.6982   20.1031 C   0  0  0  0  0  0
  -29.9582  -19.8263   22.6919 C   0  0  0  0  0  0
  -30.0544  -20.6846   21.5583 C   0  0  0  0  0  0
  -29.6315  -17.8526   21.2329 C   0  0  0  0  0  0
  -29.3243  -24.3635   20.9108 C   0  0  0  0  0  0
  -26.7567  -23.3369   21.8865 C   0  0  0  0  0  0
  -26.8220  -24.6165   21.0354 C   0  0  0  0  0  0
  -28.1083  -22.9340   22.4927 C   0  0  0  0  0  0
  -28.1679  -25.3926   21.0987 C   0  0  2  0  0  0
  -29.7888  -18.1386   18.6907 C   0  0  0  0  0  0
  -30.0954  -20.3545   24.1155 C   0  0  0  0  0  0
  -30.3594  -22.2013   21.6648 C   0  0  0  0  0  0
  -29.2607  -16.3563   21.1016 C   0  0  0  0  0  0
  -29.2358  -23.1720   21.5814 N   0  0  0  0  0  0
  -30.3047  -15.3941   21.4822 N   0  0  0  0  0  0
  -30.2811  -24.6547   20.1850 O   0  0  0  0  0  0
  -31.4655  -12.4002   19.1269 H   0  0  0  0  0  0
  -30.3222  -11.3172   19.8500 H   0  0  0  0  0  0
  -29.7425  -11.7233   17.4622 H   0  0  0  0  0  0
  -29.6594  -13.4459   17.7331 H   0  0  0  0  0  0
  -27.8438  -11.2833   18.8514 H   0  0  0  0  0  0
  -27.3719  -12.5743   17.7827 H   0  0  0  0  0  0
  -27.6912  -14.2422   19.5255 H   0  0  0  0  0  0
  -28.6829  -12.0227   21.3922 H   0  0  0  0  0  0
  -28.4469  -13.6831   21.8353 H   0  0  0  0  0  0
  -25.2760   -9.5685   22.4704 H   0  0  0  0  0  0
  -23.9985   -7.4669   22.7457 H   0  0  0  0  0  0
  -21.0745   -8.8790   19.9040 H   0  0  0  0  0  0
  -22.3614  -10.9664   19.6166 H   0  0  0  0  0  0
  -21.1998   -7.6121   23.9684 H   0  0  0  0  0  0
  -21.1498   -6.0522   25.9070 H   0  0  0  0  0  0
  -22.0590   -2.7554   23.2912 H   0  0  0  0  0  0
  -22.4039  -11.9937   22.4782 H   0  0  0  0  0  0
  -21.1067  -13.1292   22.2546 H   0  0  0  0  0  0
  -24.6577  -15.8416   20.5195 H   0  0  0  0  0  0
  -26.2723  -15.6346   20.0681 H   0  0  0  0  0  0
  -26.7128  -32.5563   23.1185 H   0  0  0  0  0  0
  -25.0238  -33.9785   25.0616 H   0  0  0  0  0  0
  -22.7050  -31.3181   21.4201 H   0  0  0  0  0  0
  -23.3749  -35.9593   23.3332 H   0  0  0  0  0  0
  -24.3578  -36.8855   22.2044 H   0  0  0  0  0  0
  -23.7177  -37.6469   23.6609 H   0  0  0  0  0  0
  -26.0413  -31.5852   20.6007 H   0  0  0  0  0  0
  -26.8327  -30.8922   21.9854 H   0  0  0  0  0  0
  -28.0877  -29.0171   21.2534 H   0  0  0  0  0  0
  -26.0513  -26.0496   18.8814 H   0  0  0  0  0  0
  -23.9980  -27.3764   18.9252 H   0  0  0  0  0  0
  -23.7619  -30.6436   19.4228 H   0  0  0  0  0  0
  -22.7410  -29.2958   19.8322 H   0  0  0  0  0  0
  -25.1236  -36.2002   25.0824 H   0  0  0  0  0  0
  -20.9976  -28.3309   24.1382 H   0  0  0  0  0  0
  -20.5655  -26.2334   23.3605 H   0  0  0  0  0  0
  -21.6639  -26.7471   22.1211 H   0  0  0  0  0  0
  -19.6951  -25.6330   21.1212 H   0  0  0  0  0  0
  -19.6679  -27.3233   20.6722 H   0  0  0  0  0  0
  -17.4184  -26.6666   21.4027 H   0  0  0  0  0  0
  -18.0379  -26.0085   22.9017 H   0  0  0  0  0  0
  -19.7961  -30.7229   24.2350 H   0  0  0  0  0  0
  -17.5043  -31.6288   24.5180 H   0  0  0  0  0  0
  -15.5369  -30.3038   23.7606 H   0  0  0  0  0  0
  -15.8666  -28.0850   22.7029 H   0  0  0  0  0  0
  -24.6014  -30.6903   25.7834 H   0  0  0  0  0  0
  -24.8870  -32.2777   26.4861 H   0  0  0  0  0  0
  -25.8158  -30.8903   27.0272 H   0  0  0  0  0  0
  -26.2842  -29.6807   24.1074 H   0  0  0  0  0  0
  -27.4066  -29.7178   25.4454 H   0  0  0  0  0  0
  -27.8659  -30.4318   23.9181 H   0  0  0  0  0  0
  -27.2782  -33.3520   26.2135 H   0  0  0  0  0  0
  -28.3958  -32.6727   25.0393 H   0  0  0  0  0  0
  -28.0695  -31.8268   26.5448 H   0  0  0  0  0  0
  -28.2587  -38.0082   24.7529 H   0  0  0  0  0  0
  -28.1056  -36.2623   24.6319 H   0  0  0  0  0  0
  -27.2308  -37.1458   25.8895 H   0  0  0  0  0  0
  -20.9362  -29.8814   21.6895 H   0  0  0  0  0  0
  -26.0180  -38.2855   24.1495 H   0  0  0  0  0  0
  -30.0611  -20.7286   19.4034 H   0  0  0  0  0  0
  -29.6137  -17.8007   23.3840 H   0  0  0  0  0  0
  -26.3840  -22.5233   21.2609 H   0  0  0  0  0  0
  -26.0217  -23.4491   22.6844 H   0  0  0  0  0  0
  -25.9985  -25.2571   21.3510 H   0  0  0  0  0  0
  -26.6336  -24.3277   20.0009 H   0  0  0  0  0  0
  -28.0399  -21.8910   22.7883 H   0  0  0  0  0  0
  -28.2820  -23.5017   23.4097 H   0  0  0  0  0  0
  -28.2811  -25.7958   22.1067 H   0  0  0  0  0  0
  -30.1625  -18.8746   17.9769 H   0  0  0  0  0  0
  -28.7829  -17.8463   18.3849 H   0  0  0  0  0  0
  -30.4391  -17.2677   18.6137 H   0  0  0  0  0  0
  -30.0451  -19.5448   24.8482 H   0  0  0  0  0  0
  -29.2949  -21.0491   24.3630 H   0  0  0  0  0  0
  -31.0463  -20.8644   24.2645 H   0  0  0  0  0  0
  -31.0920  -22.4159   20.8834 H   0  0  0  0  0  0
  -30.8937  -22.4126   22.5908 H   0  0  0  0  0  0
  -28.8979  -16.1503   20.0980 H   0  0  0  0  0  0
  -28.4022  -16.1779   21.7503 H   0  0  0  0  0  0
  -31.0584  -15.8711   21.9538 H   0  0  0  0  0  0
  1 25  1  0  0  0
  1 30  2  0  0  0
  1 87  1  0  0  0
  2  3  1  0  0  0
  2 25  1  0  0  0
  2 89  1  0  0  0
  2 90  1  0  0  0
  3  4  1  0  0  0
  3 91  1  0  0  0
  3 92  1  0  0  0
  4  5  1  0  0  0
  4 93  1  0  0  0
  4 94  1  0  0  0
  5  6  1  0  0  0
  5 26  1  0  0  0
  5 95  1  0  0  0
  6 25  1  0  0  0
  6 96  1  0  0  0
  6 97  1  0  0  0
  7  8  2  0  0  0
  7 26  1  0  0  0
  7 29  1  0  0  0
  8  9  1  0  0  0
  8 22  1  0  0  0
  9 10  1  0  0  0
  9 27  2  0  0  0
 10 11  2  0  0  0
 10 15  1  0  0  0
 11 12  1  0  0  0
 11 98  1  0  0  0
 12 13  2  0  0  0
 12 99  1  0  0  0
 13 14  1  0  0  0
 13 31  1  0  0  0
 14 15  2  0  0  0
 14100  1  0  0  0
 15101  1  0  0  0
 16 17  2  0  0  0
 16 21  1  0  0  0
 16 31  1  0  0  0
 17 18  1  0  0  0
 17102  1  0  0  0
 18 19  2  0  0  0
 18103  1  0  0  0
 19 20  1  0  0  0
 19 24  1  0  0  0
 20 21  2  0  0  0
 20104  1  0  0  0
 21 23  1  0  0  0
 22 28  1  0  0  0
 22 32  2  0  0  0
 26 27  1  0  0  0
 28105  1  0  0  0
 28106  1  0  0  0
 29107  1  0  0  0
 29108  1  0  0  0
 33 34  1  0  0  0
 33 66  1  0  0  0
 33 70  2  0  0  0
 34 36  1  0  0  0
 34 59  1  0  0  0
 34109  1  0  0  0
 35 44  2  0  0  0
 35 45  1  0  0  0
 35 68  1  0  0  0
 36 56  1  0  0  0
 36110  1  0  0  0
 37 39  1  0  0  0
 37 47  1  0  0  0
 37 66  1  0  0  0
 37111  1  0  0  0
 38 43  2  0  0  0
 38 46  1  0  0  0
 38 47  1  0  0  0
 39 64  1  0  0  0
 39 67  2  0  0  0
 40 52  1  0  0  0
 40 53  2  0  0  0
 40 58  1  0  0  0
 41112  1  0  0  0
 41113  1  0  0  0
 41114  1  0  0  0
 41 48  1  0  0  0
 42 43  1  0  0  0
 42 66  1  0  0  0
 42115  1  0  0  0
 42116  1  0  0  0
 43 44  1  0  0  0
 44117  1  0  0  0
 45 46  2  0  0  0
 45118  1  0  0  0
 46119  1  0  0  0
 47120  1  0  0  0
 47121  1  0  0  0
 48 56  1  0  0  0
 48 65  1  0  0  0
 48122  1  0  0  0
 49 50  1  0  0  0
 49 53  1  0  0  0
 49 64  1  0  0  0
 49123  1  0  0  0
 50 51  1  0  0  0
 50124  1  0  0  0
 50125  1  0  0  0
 51 52  1  0  0  0
 51126  1  0  0  0
 51127  1  0  0  0
 52128  1  0  0  0
 52129  1  0  0  0
 53 54  1  0  0  0
 54 55  2  0  0  0
 54130  1  0  0  0
 55 57  1  0  0  0
 55131  1  0  0  0
 56 69  2  0  0  0
 57 58  2  0  0  0
 57132  1  0  0  0
 58133  1  0  0  0
 59 60  1  0  0  0
 59 61  1  0  0  0
 59 62  1  0  0  0
 60134  1  0  0  0
 60135  1  0  0  0
 60136  1  0  0  0
 61137  1  0  0  0
 61138  1  0  0  0
 61139  1  0  0  0
 62140  1  0  0  0
 62141  1  0  0  0
 62142  1  0  0  0
 63 65  1  0  0  0
 63143  1  0  0  0
 63144  1  0  0  0
 63145  1  0  0  0
 64146  1  0  0  0
 65147  1  0  0  0
 68 81  1  0  0  0
 71 73  2  0  0  0
 71 75  1  0  0  0
 71148  1  0  0  0
 72 74  1  0  0  0
 72 76  2  0  0  0
 72149  1  0  0  0
 73 76  1  0  0  0
 73 82  1  0  0  0
 74 75  2  0  0  0
 74 83  1  0  0  0
 75 84  1  0  0  0
 76 85  1  0  0  0
 77 81  1  0  0  0
 77 86  1  0  0  0
 77 88  2  0  0  0
 78 79  1  0  0  0
 78 80  1  0  0  0
 78150  1  0  0  0
 78151  1  0  0  0
 79 81  1  0  0  0
 79152  1  0  0  0
 79153  1  0  0  0
 80 86  1  0  0  0
 80154  1  0  0  0
 80155  1  0  0  0
 81156  1  0  0  0
 82157  1  0  0  0
 82158  1  0  0  0
 82159  1  0  0  0
 83160  1  0  0  0
 83161  1  0  0  0
 83162  1  0  0  0
 84 86  1  0  0  0
 84163  1  0  0  0
 84164  1  0  0  0
 85 87  1  0  0  0
 85165  1  0  0  0
 85166  1  0  0  0
 87167  1  0  0  0
M  ISO  4   1 100  68 101  81 101  87 100
M  END
> <chiral flag>
0

> <version>
0

> <s_m_source_file>
/data/baiqing/PycharmProjects/Reinvent-master-3.2/result/LINK_invent/BTK/process_docking_weight1_custom_product_contain_oxygen_bond_distance_aromatic_linkinvent_7_9_3/rearranged_h_0036.sdf

> <i_m_source_file_index>
7

> <r_mmod_Potential_Energy-OPLS-2005>
65.6516799926758

> <r_mmod_Stretch_Energy-OPLS-2005>
53.6334342956543

> <r_mmod_Bend_Energy-OPLS-2005>
117.007484436035

> <r_mmod_Torsional_Energy-OPLS-2005>
322.328002929688

> <r_mmod_Improper_Torsional_Energy-OPLS-2005>
7.15364122390747

> <r_mmod_Van_der_Waal_Energy-OPLS-2005>
163.597930908203

> <r_mmod_Electrostatic_Energy-OPLS-2005>
-394.500701904297

> <r_mmod_Solvation_Energy-OPLS-2005>
-228.01579284668

> <b_mmod_Minimization_Converged-OPLS-2005>
0

> <r_mmod_RMS_Derivative-OPLS-2005>
4.34037494659424

$$$$
7
                    3D
 Structure written by MMmdl.
167176  0  0  1  0            999 V2000
  -30.7577  -14.6406   20.4423 C   0  0  0  0  0  0
  -30.4194  -12.3906   19.4541 C   0  0  0  0  0  0
  -29.4995  -12.4870   18.2196 C   0  0  0  0  0  0
  -28.0214  -12.3569   18.6211 C   0  0  0  0  0  0
  -27.6522  -13.2392   19.8457 C   0  0  2  0  0  0
  -28.7132  -13.1759   20.9721 C   0  0  0  0  0  0
  -25.2573  -13.8253   20.5651 C   0  0  0  0  0  0
  -24.1858  -13.0487   20.9226 C   0  0  0  0  0  0
  -24.6472  -11.6976   20.8772 C   0  0  0  0  0  0
  -23.9097  -10.4364   21.0430 C   0  0  0  0  0  0
  -24.3648   -9.4285   21.9207 C   0  0  0  0  0  0
  -23.6312   -8.2312   22.0762 C   0  0  0  0  0  0
  -22.4298   -8.0334   21.3557 C   0  0  0  0  0  0
  -21.9923   -9.0310   20.4651 C   0  0  0  0  0  0
  -22.7261  -10.2185   20.3091 C   0  0  0  0  0  0
  -21.6891   -6.0788   22.5298 C   0  0  0  0  0  0
  -21.4023   -6.5687   23.8229 C   0  0  0  0  0  0
  -21.3681   -5.6826   24.9191 C   0  0  0  0  0  0
  -21.6046   -4.3077   24.7197 C   0  0  0  0  0  0
  -21.8815   -3.8169   23.4314 C   0  0  0  0  0  0
  -21.9210   -4.7001   22.3377 C   0  0  0  0  0  0
  -22.7878  -13.5274   21.1882 C   0  0  0  0  0  0
  -22.1662   -4.2210   21.0942 F   0  0  0  0  0  0
  -21.5639   -3.4552   25.7706 F   0  0  0  0  0  0
  -30.0259  -13.4761   20.3760 N   0  0  0  0  0  0
  -26.3035  -12.9484   20.3261 N   0  0  0  0  0  0
  -25.9419  -11.6627   20.5730 N   0  0  0  0  0  0
  -22.0520  -12.8301   22.0445 N   0  0  0  0  0  0
  -25.4202  -15.1937   20.3963 N   0  0  0  0  0  0
  -31.9512  -14.6406   20.1428 O   0  0  0  0  0  0
  -21.6655   -6.8918   21.4248 O   0  0  0  0  0  0
  -22.3544  -14.5563   20.6695 O   0  0  0  0  0  0
  -24.6141  -31.8647   23.2060 C   0  0  0  0  0  0
  -25.9047  -32.4786   23.8356 C   0  0  1  0  0  0
  -27.2617  -27.4290   20.0879 C   0  0  0  0  0  0
  -25.5888  -33.8583   24.2296 N   0  0  0  0  0  0
  -23.4049  -30.4835   21.5437 C   0  0  2  0  0  0
  -24.8574  -28.9457   20.1044 C   0  0  0  0  0  0
  -22.7412  -29.4644   22.4968 C   0  0  0  0  0  0
  -18.0277  -28.1386   22.8495 C   0  0  0  0  0  0
  -24.1473  -36.7271   23.2648 C   0  0  0  0  0  0
  -25.9340  -30.8218   21.3695 C   0  0  0  0  0  0
  -26.0110  -29.4587   20.7091 C   0  0  0  0  0  0
  -27.2035  -28.7014   20.7041 C   0  0  0  0  0  0
  -26.0897  -26.9302   19.4706 C   0  0  0  0  0  0
  -24.8933  -27.6826   19.4841 C   0  0  0  0  0  0
  -23.6145  -29.8062   20.1595 C   0  0  0  0  0  0
  -25.4100  -36.3075   24.0338 C   0  0  1  0  0  0
  -20.5869  -28.3670   23.1303 C   0  0  2  0  0  0
  -20.6766  -26.9406   22.5418 C   0  0  0  0  0  0
  -19.5739  -26.6388   21.5228 C   0  0  0  0  0  0
  -18.1914  -26.7944   22.1635 C   0  0  0  0  0  0
  -19.1522  -28.8855   23.2896 C   0  0  0  0  0  0
  -18.9459  -30.1466   23.8878 C   0  0  0  0  0  0
  -17.6448  -30.6593   24.0570 C   0  0  0  0  0  0
  -25.9031  -34.9443   23.5125 C   0  0  0  0  0  0
  -16.5344  -29.9071   23.6350 C   0  0  0  0  0  0
  -16.7257  -28.6504   23.0363 C   0  0  0  0  0  0
  -26.4499  -31.6588   25.0697 C   0  0  0  0  0  0
  -25.3761  -31.3675   26.1434 C   0  0  0  0  0  0
  -27.0357  -30.3010   24.6141 C   0  0  0  0  0  0
  -27.6053  -32.4346   25.7447 C   0  0  0  0  0  0
  -27.5572  -37.1781   24.8478 C   0  0  0  0  0  0
  -21.4151  -29.3010   22.3685 N   0  0  0  0  0  0
  -26.4285  -37.3767   23.9419 N   0  0  0  0  0  0
  -24.6672  -31.0735   22.0960 N   0  0  0  0  0  0
  -23.4180  -28.8230   23.3055 O   0  0  0  0  0  0
  -28.4477  -26.7273   20.2073 O   0  0  0  0  0  0
  -26.5613  -34.8919   22.4694 O   0  0  0  0  0  0
  -23.5326  -32.1421   23.7430 O   0  0  0  0  0  0
  -28.1690  -19.9722   19.8511 C   0  0  0  0  0  0
  -28.9399  -21.1370   19.7538 C   0  0  0  0  0  0
  -28.7394  -18.7399   20.2362 C   0  0  0  0  0  0
  -30.3150  -21.1014   20.0365 C   0  0  0  0  0  0
  -30.1512  -18.5866   20.3340 C   0  0  0  0  0  0
  -30.9241  -19.8100   20.2478 C   0  0  0  0  0  0
  -31.5782  -24.6100   18.9513 C   0  0  0  0  0  0
  -32.7689  -24.8519   19.5293 C   0  0  0  0  0  0
  -30.9653  -25.4144   17.8227 C   0  0  0  0  0  0
  -29.9069  -26.3671   18.4073 C   0  0  0  0  0  0
  -29.5126  -24.5247   20.2108 C   0  0  0  0  0  0
  -28.8798  -25.6694   19.3309 C   0  0  1  0  0  0
  -27.7646  -17.6649   20.6650 C   0  0  0  0  0  0
  -30.8504  -17.1955   20.6259 C   0  0  0  0  0  0
  -31.0553  -22.4593   20.2294 C   0  0  0  0  0  0
  -30.1377  -15.8476   20.6103 N   0  0  0  0  0  0
  -30.5338  -23.6803   19.4918 N   0  3  2  0  0  0
  -32.6419  -19.7364   20.4672 Cl  0  0  0  0  0  0
  -31.4606  -12.4632   19.1353 H   0  0  0  0  0  0
  -30.3227  -11.4168   19.9399 H   0  0  0  0  0  0
  -29.7578  -11.7115   17.4981 H   0  0  0  0  0  0
  -29.6538  -13.4426   17.7172 H   0  0  0  0  0  0
  -27.8253  -11.3039   18.8314 H   0  0  0  0  0  0
  -27.3903  -12.6251   17.7745 H   0  0  0  0  0  0
  -27.6476  -14.2624   19.4755 H   0  0  0  0  0  0
  -28.7393  -12.1871   21.4376 H   0  0  0  0  0  0
  -28.4713  -13.8893   21.7609 H   0  0  0  0  0  0
  -25.2808   -9.5775   22.4759 H   0  0  0  0  0  0
  -24.0095   -7.4707   22.7417 H   0  0  0  0  0  0
  -21.0903   -8.8800   19.8889 H   0  0  0  0  0  0
  -22.3756  -10.9722   19.6166 H   0  0  0  0  0  0
  -21.2015   -7.6179   23.9779 H   0  0  0  0  0  0
  -21.1503   -6.0510   25.9112 H   0  0  0  0  0  0
  -22.0561   -2.7632   23.2775 H   0  0  0  0  0  0
  -22.4020  -11.9915   22.4841 H   0  0  0  0  0  0
  -21.1126  -13.1361   22.2564 H   0  0  0  0  0  0
  -24.6520  -15.8487   20.4867 H   0  0  0  0  0  0
  -26.2754  -15.6304   20.0813 H   0  0  0  0  0  0
  -26.7106  -32.5492   23.1110 H   0  0  0  0  0  0
  -25.0016  -33.9754   25.0425 H   0  0  0  0  0  0
  -22.6941  -31.2994   21.3977 H   0  0  0  0  0  0
  -23.3748  -35.9595   23.3321 H   0  0  0  0  0  0
  -24.3564  -36.8873   22.2060 H   0  0  0  0  0  0
  -23.7216  -37.6469   23.6663 H   0  0  0  0  0  0
  -26.0713  -31.5927   20.6096 H   0  0  0  0  0  0
  -26.8120  -30.8589   22.0018 H   0  0  0  0  0  0
  -28.0919  -29.0894   21.1856 H   0  0  0  0  0  0
  -26.0692  -25.9592   18.9984 H   0  0  0  0  0  0
  -24.0062  -27.2799   19.0145 H   0  0  0  0  0  0
  -23.7076  -30.5754   19.3914 H   0  0  0  0  0  0
  -22.7438  -29.2119   19.8752 H   0  0  0  0  0  0
  -25.1286  -36.1930   25.0830 H   0  0  0  0  0  0
  -20.9974  -28.3255   24.1423 H   0  0  0  0  0  0
  -20.5685  -26.2283   23.3617 H   0  0  0  0  0  0
  -21.6629  -26.7458   22.1197 H   0  0  0  0  0  0
  -19.6895  -25.6302   21.1239 H   0  0  0  0  0  0
  -19.6680  -27.3214   20.6770 H   0  0  0  0  0  0
  -17.4205  -26.6722   21.4020 H   0  0  0  0  0  0
  -18.0288  -26.0075   22.9006 H   0  0  0  0  0  0
  -19.7924  -30.7312   24.2218 H   0  0  0  0  0  0
  -17.4993  -31.6271   24.5170 H   0  0  0  0  0  0
  -15.5337  -30.2963   23.7693 H   0  0  0  0  0  0
  -15.8669  -28.0812   22.7083 H   0  0  0  0  0  0
  -24.5938  -30.7048   25.7736 H   0  0  0  0  0  0
  -24.8971  -32.2815   26.4923 H   0  0  0  0  0  0
  -25.8103  -30.8787   27.0158 H   0  0  0  0  0  0
  -26.2906  -29.6708   24.1262 H   0  0  0  0  0  0
  -27.4162  -29.7321   25.4640 H   0  0  0  0  0  0
  -27.8737  -30.4294   23.9285 H   0  0  0  0  0  0
  -27.2659  -33.3642   26.2024 H   0  0  0  0  0  0
  -28.3842  -32.6919   25.0258 H   0  0  0  0  0  0
  -28.0762  -31.8489   26.5356 H   0  0  0  0  0  0
  -28.2605  -38.0065   24.7517 H   0  0  0  0  0  0
  -28.1055  -36.2596   24.6316 H   0  0  0  0  0  0
  -27.2293  -37.1434   25.8885 H   0  0  0  0  0  0
  -20.9336  -29.8635   21.6812 H   0  0  0  0  0  0
  -26.0168  -38.2843   24.1420 H   0  0  0  0  0  0
  -27.0971  -20.0701   19.7348 H   0  0  0  0  0  0
  -28.4291  -22.0663   19.5464 H   0  0  0  0  0  0
  -33.4327  -25.6124   19.1379 H   0  0  0  0  0  0
  -33.0934  -24.3362   20.4237 H   0  0  0  0  0  0
  -30.5176  -24.7449   17.0872 H   0  0  0  0  0  0
  -31.7367  -25.9835   17.2978 H   0  0  0  0  0  0
  -29.3930  -26.8946   17.6017 H   0  0  0  0  0  0
  -30.4195  -27.1377   18.9864 H   0  0  0  0  0  0
  -28.7174  -23.9136   20.6359 H   0  0  0  0  0  0
  -30.0092  -24.9829   21.0623 H   0  0  0  0  0  0
  -28.0838  -25.2548   18.7156 H   0  0  0  0  0  0
  -26.8215  -18.1221   20.9790 H   0  0  0  0  0  0
  -28.1275  -17.1326   21.5420 H   0  0  0  0  0  0
  -27.5641  -16.9593   19.8628 H   0  0  0  0  0  0
  -31.2853  -17.2927   21.6198 H   0  0  0  0  0  0
  -31.7029  -17.1454   19.9439 H   0  0  0  0  0  0
  -32.1003  -22.3008   19.9635 H   0  0  0  0  0  0
  -31.0567  -22.6736   21.3011 H   0  0  0  0  0  0
  -29.1420  -15.8396   20.7651 H   0  0  0  0  0  0
  -30.0693  -23.2920   18.6841 H   0  0  0  0  0  0
  1 25  1  0  0  0
  1 30  2  0  0  0
  1 86  1  0  0  0
  2  3  1  0  0  0
  2 25  1  0  0  0
  2 89  1  0  0  0
  2 90  1  0  0  0
  3  4  1  0  0  0
  3 91  1  0  0  0
  3 92  1  0  0  0
  4  5  1  0  0  0
  4 93  1  0  0  0
  4 94  1  0  0  0
  5  6  1  0  0  0
  5 26  1  0  0  0
  5 95  1  0  0  0
  6 25  1  0  0  0
  6 96  1  0  0  0
  6 97  1  0  0  0
  7  8  2  0  0  0
  7 26  1  0  0  0
  7 29  1  0  0  0
  8  9  1  0  0  0
  8 22  1  0  0  0
  9 10  1  0  0  0
  9 27  2  0  0  0
 10 11  2  0  0  0
 10 15  1  0  0  0
 11 12  1  0  0  0
 11 98  1  0  0  0
 12 13  2  0  0  0
 12 99  1  0  0  0
 13 14  1  0  0  0
 13 31  1  0  0  0
 14 15  2  0  0  0
 14100  1  0  0  0
 15101  1  0  0  0
 16 17  2  0  0  0
 16 21  1  0  0  0
 16 31  1  0  0  0
 17 18  1  0  0  0
 17102  1  0  0  0
 18 19  2  0  0  0
 18103  1  0  0  0
 19 20  1  0  0  0
 19 24  1  0  0  0
 20 21  2  0  0  0
 20104  1  0  0  0
 21 23  1  0  0  0
 22 28  1  0  0  0
 22 32  2  0  0  0
 26 27  1  0  0  0
 28105  1  0  0  0
 28106  1  0  0  0
 29107  1  0  0  0
 29108  1  0  0  0
 33 34  1  0  0  0
 33 66  1  0  0  0
 33 70  2  0  0  0
 34 36  1  0  0  0
 34 59  1  0  0  0
 34109  1  0  0  0
 35 44  2  0  0  0
 35 45  1  0  0  0
 35 68  1  0  0  0
 36 56  1  0  0  0
 36110  1  0  0  0
 37 39  1  0  0  0
 37 47  1  0  0  0
 37 66  1  0  0  0
 37111  1  0  0  0
 38 43  2  0  0  0
 38 46  1  0  0  0
 38 47  1  0  0  0
 39 64  1  0  0  0
 39 67  2  0  0  0
 40 52  1  0  0  0
 40 53  2  0  0  0
 40 58  1  0  0  0
 41112  1  0  0  0
 41113  1  0  0  0
 41114  1  0  0  0
 41 48  1  0  0  0
 42 43  1  0  0  0
 42 66  1  0  0  0
 42115  1  0  0  0
 42116  1  0  0  0
 43 44  1  0  0  0
 44117  1  0  0  0
 45 46  2  0  0  0
 45118  1  0  0  0
 46119  1  0  0  0
 47120  1  0  0  0
 47121  1  0  0  0
 48 56  1  0  0  0
 48 65  1  0  0  0
 48122  1  0  0  0
 49 50  1  0  0  0
 49 53  1  0  0  0
 49 64  1  0  0  0
 49123  1  0  0  0
 50 51  1  0  0  0
 50124  1  0  0  0
 50125  1  0  0  0
 51 52  1  0  0  0
 51126  1  0  0  0
 51127  1  0  0  0
 52128  1  0  0  0
 52129  1  0  0  0
 53 54  1  0  0  0
 54 55  2  0  0  0
 54130  1  0  0  0
 55 57  1  0  0  0
 55131  1  0  0  0
 56 69  2  0  0  0
 57 58  2  0  0  0
 57132  1  0  0  0
 58133  1  0  0  0
 59 60  1  0  0  0
 59 61  1  0  0  0
 59 62  1  0  0  0
 60134  1  0  0  0
 60135  1  0  0  0
 60136  1  0  0  0
 61137  1  0  0  0
 61138  1  0  0  0
 61139  1  0  0  0
 62140  1  0  0  0
 62141  1  0  0  0
 62142  1  0  0  0
 63 65  1  0  0  0
 63143  1  0  0  0
 63144  1  0  0  0
 63145  1  0  0  0
 64146  1  0  0  0
 65147  1  0  0  0
 68 82  1  0  0  0
 71 72  2  0  0  0
 71 73  1  0  0  0
 71148  1  0  0  0
 72 74  1  0  0  0
 72149  1  0  0  0
 73 75  2  0  0  0
 73 83  1  0  0  0
 74 76  2  0  0  0
 74 85  1  0  0  0
 75 76  1  0  0  0
 75 84  1  0  0  0
 76 88  1  0  0  0
 77 78  2  0  0  0
 77 79  1  0  0  0
 77 87  1  0  0  0
 78150  1  0  0  0
 78151  1  0  0  0
 79 80  1  0  0  0
 79152  1  0  0  0
 79153  1  0  0  0
 80 82  1  0  0  0
 80154  1  0  0  0
 80155  1  0  0  0
 81 82  1  0  0  0
 81 87  1  0  0  0
 81156  1  0  0  0
 81157  1  0  0  0
 82158  1  0  0  0
 83159  1  0  0  0
 83160  1  0  0  0
 83161  1  0  0  0
 84 86  1  0  0  0
 84162  1  0  0  0
 84163  1  0  0  0
 85164  1  0  0  0
 85165  1  0  0  0
 85 87  1  0  0  0
 86166  1  0  0  0
 87167  1  0  0  0
M  CHG  1  87   1
M  ISO  4   1 100  68 101  82 101  86 100
M  END
> <chiral flag>
0

> <version>
0

> <s_m_source_file>
/data/baiqing/PycharmProjects/Reinvent-master-3.2/result/LINK_invent/BTK/process_docking_weight1_custom_product_contain_oxygen_bond_distance_aromatic_linkinvent_7_9_3/rearranged_h_0036.sdf

> <i_m_source_file_index>
8

> <r_mmod_Potential_Energy-OPLS-2005>
-31.9715614318848

> <r_mmod_Stretch_Energy-OPLS-2005>
75.3876571655273

> <r_mmod_Bend_Energy-OPLS-2005>
169.535751342773

> <r_mmod_Torsional_Energy-OPLS-2005>
249.362777709961

> <r_mmod_Improper_Torsional_Energy-OPLS-2005>
6.67510604858398

> <r_mmod_Van_der_Waal_Energy-OPLS-2005>
154.498107910156

> <r_mmod_Electrostatic_Energy-OPLS-2005>
-308.891052246094

> <r_mmod_Solvation_Energy-OPLS-2005>
-423.499176025391

> <b_mmod_Minimization_Converged-OPLS-2005>
0

> <r_mmod_RMS_Derivative-OPLS-2005>
7.04867029190063

$$$$
8
                    3D
 Structure written by MMmdl.
166175  0  0  1  0            999 V2000
  -30.6994  -14.4685   20.6118 C   0  0  0  0  0  0
  -30.4362  -12.3254   19.4326 C   0  0  0  0  0  0
  -29.5031  -12.5179   18.2226 C   0  0  0  0  0  0
  -28.0277  -12.3546   18.6406 C   0  0  0  0  0  0
  -27.6655  -13.2068   19.8871 C   0  0  2  0  0  0
  -28.7028  -12.9789   21.0086 C   0  0  0  0  0  0
  -25.2593  -13.8212   20.5702 C   0  0  0  0  0  0
  -24.1848  -13.0491   20.9197 C   0  0  0  0  0  0
  -24.6423  -11.6953   20.8812 C   0  0  0  0  0  0
  -23.9111  -10.4312   21.0462 C   0  0  0  0  0  0
  -24.3638   -9.4200   21.9228 C   0  0  0  0  0  0
  -23.6288   -8.2241   22.0762 C   0  0  0  0  0  0
  -22.4249   -8.0310   21.3559 C   0  0  0  0  0  0
  -21.9929   -9.0315   20.4662 C   0  0  0  0  0  0
  -22.7295  -10.2177   20.3100 C   0  0  0  0  0  0
  -21.6824   -6.0752   22.5286 C   0  0  0  0  0  0
  -21.4006   -6.5654   23.8232 C   0  0  0  0  0  0
  -21.3660   -5.6804   24.9190 C   0  0  0  0  0  0
  -21.6055   -4.3065   24.7233 C   0  0  0  0  0  0
  -21.8813   -3.8164   23.4348 C   0  0  0  0  0  0
  -21.9178   -4.6987   22.3408 C   0  0  0  0  0  0
  -22.7845  -13.5277   21.1842 C   0  0  0  0  0  0
  -22.1630   -4.2185   21.0974 F   0  0  0  0  0  0
  -21.5632   -3.4540   25.7734 F   0  0  0  0  0  0
  -30.0327  -13.2951   20.4566 N   0  0  0  0  0  0
  -26.3032  -12.9390   20.3433 N   0  0  0  0  0  0
  -25.9344  -11.6554   20.5839 N   0  0  0  0  0  0
  -22.0461  -12.8296   22.0390 N   0  0  0  0  0  0
  -25.4413  -15.1924   20.4067 N   0  0  0  0  0  0
  -31.8233  -14.6678   20.1390 O   0  0  0  0  0  0
  -21.6612   -6.8902   21.4239 O   0  0  0  0  0  0
  -22.3540  -14.5574   20.6651 O   0  0  0  0  0  0
  -24.6119  -31.8661   23.2155 C   0  0  0  0  0  0
  -25.9062  -32.4792   23.8411 C   0  0  1  0  0  0
  -27.2472  -27.4592   20.0941 C   0  0  0  0  0  0
  -25.5944  -33.8598   24.2334 N   0  0  0  0  0  0
  -23.3945  -30.4915   21.5532 C   0  0  2  0  0  0
  -24.8438  -28.9495   20.1258 C   0  0  0  0  0  0
  -22.7344  -29.4678   22.5030 C   0  0  0  0  0  0
  -18.0247  -28.1358   22.8484 C   0  0  0  0  0  0
  -24.1455  -36.7329   23.2630 C   0  0  0  0  0  0
  -25.9193  -30.8414   21.3601 C   0  0  0  0  0  0
  -26.0014  -29.4744   20.7171 C   0  0  0  0  0  0
  -27.2047  -28.7350   20.7004 C   0  0  0  0  0  0
  -26.0748  -26.9419   19.5031 C   0  0  0  0  0  0
  -24.8734  -27.6793   19.5236 C   0  0  0  0  0  0
  -23.6023  -29.8143   20.1712 C   0  0  0  0  0  0
  -25.4067  -36.3070   24.0313 C   0  0  1  0  0  0
  -20.5836  -28.3655   23.1324 C   0  0  2  0  0  0
  -20.6731  -26.9391   22.5427 C   0  0  0  0  0  0
  -19.5732  -26.6384   21.5196 C   0  0  0  0  0  0
  -18.1907  -26.7903   22.1600 C   0  0  0  0  0  0
  -19.1494  -28.8819   23.2903 C   0  0  0  0  0  0
  -18.9426  -30.1424   23.8907 C   0  0  0  0  0  0
  -17.6437  -30.6575   24.0555 C   0  0  0  0  0  0
  -25.9002  -34.9451   23.5101 C   0  0  0  0  0  0
  -16.5328  -29.9073   23.6321 C   0  0  0  0  0  0
  -16.7236  -28.6493   23.0338 C   0  0  0  0  0  0
  -26.4522  -31.6554   25.0722 C   0  0  0  0  0  0
  -25.3843  -31.3667   26.1509 C   0  0  0  0  0  0
  -27.0363  -30.2992   24.6096 C   0  0  0  0  0  0
  -27.6085  -32.4278   25.7512 C   0  0  0  0  0  0
  -27.5531  -37.1805   24.8449 C   0  0  0  0  0  0
  -21.4081  -29.3041   22.3744 N   0  0  0  0  0  0
  -26.4228  -37.3778   23.9415 N   0  0  0  0  0  0
  -24.6590  -31.0809   22.1015 N   0  0  0  0  0  0
  -23.4129  -28.8217   23.3055 O   0  0  0  0  0  0
  -28.4441  -26.7800   20.0302 O   0  0  0  0  0  0
  -26.5538  -34.8905   22.4637 O   0  0  0  0  0  0
  -23.5338  -32.1417   23.7586 O   0  0  0  0  0  0
  -28.1314  -19.6687   20.7668 C   0  0  0  0  0  0
  -28.9036  -20.4772   19.8994 C   0  0  0  0  0  0
  -30.1623  -19.9847   19.4631 C   0  0  0  0  0  0
  -29.9140  -17.9893   20.9067 C   0  0  0  0  0  0
  -28.6223  -18.4457   21.2629 C   0  0  0  0  0  0
  -30.6659  -18.7587   19.9777 C   0  0  0  0  0  0
  -29.9890  -24.0993   22.1669 C   0  0  0  0  0  0
  -29.8153  -25.4439   21.4369 C   0  0  0  0  0  0
  -29.1137  -22.9605   21.5888 C   0  0  0  0  0  0
  -28.4989  -24.3400   19.5924 C   0  0  0  0  0  0
  -28.5066  -25.4870   20.6420 C   0  0  2  0  0  0
  -31.0045  -20.7539   18.4479 C   0  0  0  0  0  0
  -30.5241  -16.7668   21.6195 C   0  0  0  0  0  0
  -28.3494  -21.8479   19.4690 C   0  0  0  0  0  0
  -30.0146  -15.4390   21.2418 N   0  0  0  0  0  0
  -29.0217  -23.0252   20.1024 N   0  3  2  0  0  0
  -27.6214  -17.5393   22.3434 Cl  0  0  0  0  0  0
  -32.2422  -18.2285   19.4860 Cl  0  0  0  0  0  0
  -31.4798  -12.4456   19.1343 H   0  0  0  0  0  0
  -30.3597  -11.3136   19.8304 H   0  0  0  0  0  0
  -29.7564  -11.8045   17.4367 H   0  0  0  0  0  0
  -29.6611  -13.5134   17.8030 H   0  0  0  0  0  0
  -27.8599  -11.2970   18.8576 H   0  0  0  0  0  0
  -27.3703  -12.6002   17.8070 H   0  0  0  0  0  0
  -27.7181  -14.2558   19.5918 H   0  0  0  0  0  0
  -28.6812  -11.9368   21.3327 H   0  0  0  0  0  0
  -28.4575  -13.5556   21.9019 H   0  0  0  0  0  0
  -25.2789   -9.5645   22.4810 H   0  0  0  0  0  0
  -23.9998   -7.4615   22.7466 H   0  0  0  0  0  0
  -21.0866   -8.8902   19.8944 H   0  0  0  0  0  0
  -22.3819  -10.9744   19.6216 H   0  0  0  0  0  0
  -21.1984   -7.6157   23.9760 H   0  0  0  0  0  0
  -21.1474   -6.0510   25.9105 H   0  0  0  0  0  0
  -22.0577   -2.7623   23.2843 H   0  0  0  0  0  0
  -22.4003  -11.9949   22.4818 H   0  0  0  0  0  0
  -21.1100  -13.1392   22.2587 H   0  0  0  0  0  0
  -24.6985  -15.8710   20.5363 H   0  0  0  0  0  0
  -26.3190  -15.6145   20.1367 H   0  0  0  0  0  0
  -26.7127  -32.5514   23.1176 H   0  0  0  0  0  0
  -25.0198  -33.9757   25.0545 H   0  0  0  0  0  0
  -22.6838  -31.3076   21.4117 H   0  0  0  0  0  0
  -23.3662  -35.9717   23.3265 H   0  0  0  0  0  0
  -24.3571  -36.8988   22.2056 H   0  0  0  0  0  0
  -23.7262  -37.6543   23.6679 H   0  0  0  0  0  0
  -26.0184  -31.6068   20.5879 H   0  0  0  0  0  0
  -26.8099  -30.9047   21.9721 H   0  0  0  0  0  0
  -28.0981  -29.1420   21.1540 H   0  0  0  0  0  0
  -26.0881  -25.9850   19.0035 H   0  0  0  0  0  0
  -23.9842  -27.2687   19.0637 H   0  0  0  0  0  0
  -23.6989  -30.5813   19.4015 H   0  0  0  0  0  0
  -22.7274  -29.2270   19.8847 H   0  0  0  0  0  0
  -25.1230  -36.1902   25.0802 H   0  0  0  0  0  0
  -20.9930  -28.3213   24.1440 H   0  0  0  0  0  0
  -20.5588  -26.2260   23.3606 H   0  0  0  0  0  0
  -21.6605  -26.7410   22.1249 H   0  0  0  0  0  0
  -19.6891  -25.6297   21.1207 H   0  0  0  0  0  0
  -19.6666  -27.3192   20.6721 H   0  0  0  0  0  0
  -17.4172  -26.6646   21.4006 H   0  0  0  0  0  0
  -18.0314  -26.0030   22.8986 H   0  0  0  0  0  0
  -19.7912  -30.7235   24.2275 H   0  0  0  0  0  0
  -17.4995  -31.6250   24.5151 H   0  0  0  0  0  0
  -15.5326  -30.2983   23.7641 H   0  0  0  0  0  0
  -15.8632  -28.0823   22.7042 H   0  0  0  0  0  0
  -24.6018  -30.6978   25.7901 H   0  0  0  0  0  0
  -24.9058  -32.2836   26.4969 H   0  0  0  0  0  0
  -25.8289  -30.8873   27.0245 H   0  0  0  0  0  0
  -26.2909  -29.6719   24.1194 H   0  0  0  0  0  0
  -27.4163  -29.7265   25.4566 H   0  0  0  0  0  0
  -27.8727  -30.4273   23.9220 H   0  0  0  0  0  0
  -27.2671  -33.3558   26.2120 H   0  0  0  0  0  0
  -28.3926  -32.6866   25.0378 H   0  0  0  0  0  0
  -28.0714  -31.8378   26.5432 H   0  0  0  0  0  0
  -28.2528  -38.0110   24.7446 H   0  0  0  0  0  0
  -28.1021  -36.2634   24.6277 H   0  0  0  0  0  0
  -27.2270  -37.1476   25.8859 H   0  0  0  0  0  0
  -20.9212  -29.8767   21.6993 H   0  0  0  0  0  0
  -26.0070  -38.2822   24.1488 H   0  0  0  0  0  0
  -27.1467  -19.9843   21.0818 H   0  0  0  0  0  0
  -29.7493  -24.2253   23.2235 H   0  0  0  0  0  0
  -31.0426  -23.8191   22.1326 H   0  0  0  0  0  0
  -30.6532  -25.5983   20.7557 H   0  0  0  0  0  0
  -29.8531  -26.2703   22.1454 H   0  0  0  0  0  0
  -28.1047  -23.0057   22.0036 H   0  0  0  0  0  0
  -29.5451  -22.0139   21.9136 H   0  0  0  0  0  0
  -29.1247  -24.6351   18.7501 H   0  0  0  0  0  0
  -27.4884  -24.2205   19.2007 H   0  0  0  0  0  0
  -27.6838  -25.3626   21.3471 H   0  0  0  0  0  0
  -31.8598  -21.2222   18.9332 H   0  0  0  0  0  0
  -30.4669  -21.5244   17.8993 H   0  0  0  0  0  0
  -31.3808  -20.0651   17.6929 H   0  0  0  0  0  0
  -30.3183  -16.8915   22.6824 H   0  0  0  0  0  0
  -31.6117  -16.7898   21.5741 H   0  0  0  0  0  0
  -27.2887  -21.8869   19.7104 H   0  0  0  0  0  0
  -28.3965  -21.9416   18.3819 H   0  0  0  0  0  0
  -29.0855  -15.2025   21.5596 H   0  0  0  0  0  0
  -29.9792  -22.9747   19.7903 H   0  0  0  0  0  0
  1 25  1  0  0  0
  1 30  2  0  0  0
  1 85  1  0  0  0
  2  3  1  0  0  0
  2 25  1  0  0  0
  2 89  1  0  0  0
  2 90  1  0  0  0
  3  4  1  0  0  0
  3 91  1  0  0  0
  3 92  1  0  0  0
  4  5  1  0  0  0
  4 93  1  0  0  0
  4 94  1  0  0  0
  5  6  1  0  0  0
  5 26  1  0  0  0
  5 95  1  0  0  0
  6 25  1  0  0  0
  6 96  1  0  0  0
  6 97  1  0  0  0
  7  8  2  0  0  0
  7 26  1  0  0  0
  7 29  1  0  0  0
  8  9  1  0  0  0
  8 22  1  0  0  0
  9 10  1  0  0  0
  9 27  2  0  0  0
 10 11  2  0  0  0
 10 15  1  0  0  0
 11 12  1  0  0  0
 11 98  1  0  0  0
 12 13  2  0  0  0
 12 99  1  0  0  0
 13 14  1  0  0  0
 13 31  1  0  0  0
 14 15  2  0  0  0
 14100  1  0  0  0
 15101  1  0  0  0
 16 17  2  0  0  0
 16 21  1  0  0  0
 16 31  1  0  0  0
 17 18  1  0  0  0
 17102  1  0  0  0
 18 19  2  0  0  0
 18103  1  0  0  0
 19 20  1  0  0  0
 19 24  1  0  0  0
 20 21  2  0  0  0
 20104  1  0  0  0
 21 23  1  0  0  0
 22 28  1  0  0  0
 22 32  2  0  0  0
 26 27  1  0  0  0
 28105  1  0  0  0
 28106  1  0  0  0
 29107  1  0  0  0
 29108  1  0  0  0
 33 34  1  0  0  0
 33 66  1  0  0  0
 33 70  2  0  0  0
 34 36  1  0  0  0
 34 59  1  0  0  0
 34109  1  0  0  0
 35 44  2  0  0  0
 35 45  1  0  0  0
 35 68  1  0  0  0
 36 56  1  0  0  0
 36110  1  0  0  0
 37 39  1  0  0  0
 37 47  1  0  0  0
 37 66  1  0  0  0
 37111  1  0  0  0
 38 43  2  0  0  0
 38 46  1  0  0  0
 38 47  1  0  0  0
 39 64  1  0  0  0
 39 67  2  0  0  0
 40 52  1  0  0  0
 40 53  2  0  0  0
 40 58  1  0  0  0
 41112  1  0  0  0
 41113  1  0  0  0
 41114  1  0  0  0
 41 48  1  0  0  0
 42 43  1  0  0  0
 42 66  1  0  0  0
 42115  1  0  0  0
 42116  1  0  0  0
 43 44  1  0  0  0
 44117  1  0  0  0
 45 46  2  0  0  0
 45118  1  0  0  0
 46119  1  0  0  0
 47120  1  0  0  0
 47121  1  0  0  0
 48 56  1  0  0  0
 48 65  1  0  0  0
 48122  1  0  0  0
 49 50  1  0  0  0
 49 53  1  0  0  0
 49 64  1  0  0  0
 49123  1  0  0  0
 50 51  1  0  0  0
 50124  1  0  0  0
 50125  1  0  0  0
 51 52  1  0  0  0
 51126  1  0  0  0
 51127  1  0  0  0
 52128  1  0  0  0
 52129  1  0  0  0
 53 54  1  0  0  0
 54 55  2  0  0  0
 54130  1  0  0  0
 55 57  1  0  0  0
 55131  1  0  0  0
 56 69  2  0  0  0
 57 58  2  0  0  0
 57132  1  0  0  0
 58133  1  0  0  0
 59 60  1  0  0  0
 59 61  1  0  0  0
 59 62  1  0  0  0
 60134  1  0  0  0
 60135  1  0  0  0
 60136  1  0  0  0
 61137  1  0  0  0
 61138  1  0  0  0
 61139  1  0  0  0
 62140  1  0  0  0
 62141  1  0  0  0
 62142  1  0  0  0
 63 65  1  0  0  0
 63143  1  0  0  0
 63144  1  0  0  0
 63145  1  0  0  0
 64146  1  0  0  0
 65147  1  0  0  0
 68 81  1  0  0  0
 71 72  2  0  0  0
 71 75  1  0  0  0
 71148  1  0  0  0
 72 73  1  0  0  0
 72 84  1  0  0  0
 73 76  2  0  0  0
 73 82  1  0  0  0
 74 75  2  0  0  0
 74 76  1  0  0  0
 74 83  1  0  0  0
 75 87  1  0  0  0
 76 88  1  0  0  0
 77 78  1  0  0  0
 77 79  1  0  0  0
 77149  1  0  0  0
 77150  1  0  0  0
 78 81  1  0  0  0
 78151  1  0  0  0
 78152  1  0  0  0
 79 86  1  0  0  0
 79153  1  0  0  0
 79154  1  0  0  0
 80 81  1  0  0  0
 80 86  1  0  0  0
 80155  1  0  0  0
 80156  1  0  0  0
 81157  1  0  0  0
 82158  1  0  0  0
 82159  1  0  0  0
 82160  1  0  0  0
 83 85  1  0  0  0
 83161  1  0  0  0
 83162  1  0  0  0
 84163  1  0  0  0
 84164  1  0  0  0
 84 86  1  0  0  0
 85165  1  0  0  0
 86166  1  0  0  0
M  CHG  1  86   1
M  ISO  4   1 100  68 101  81 101  85 100
M  END
> <chiral flag>
0

> <version>
0

> <s_m_source_file>
/data/baiqing/PycharmProjects/Reinvent-master-3.2/result/LINK_invent/BTK/process_docking_weight1_custom_product_contain_oxygen_bond_distance_aromatic_linkinvent_7_9_3/rearranged_h_0036.sdf

> <i_m_source_file_index>
9

> <r_mmod_Potential_Energy-OPLS-2005>
-114.890319824219

> <r_mmod_Stretch_Energy-OPLS-2005>
42.1772727966309

> <r_mmod_Bend_Energy-OPLS-2005>
102.994300842285

> <r_mmod_Torsional_Energy-OPLS-2005>
264.070159912109

> <r_mmod_Improper_Torsional_Energy-OPLS-2005>
2.81624269485474

> <r_mmod_Van_der_Waal_Energy-OPLS-2005>
158.364059448242

> <r_mmod_Electrostatic_Energy-OPLS-2005>
-262.463104248047

> <r_mmod_Solvation_Energy-OPLS-2005>
-434.123046875

> <b_mmod_Minimization_Converged-OPLS-2005>
0

> <r_mmod_RMS_Derivative-OPLS-2005>
4.25483894348145

$$$$
9
                    3D
 Structure written by MMmdl.
167176  0  0  1  0            999 V2000
  -29.6338  -15.6848   20.6867 C   0  0  0  0  0  0
  -30.2701  -13.2116   19.7082 C   0  0  0  0  0  0
  -29.5234  -12.7250   18.4241 C   0  0  0  0  0  0
  -28.0991  -12.2759   18.7768 C   0  0  0  0  0  0
  -27.4991  -13.2409   19.8212 C   0  0  2  0  0  0
  -28.3697  -13.4567   21.0541 C   0  0  0  0  0  0
  -25.1661  -13.7909   20.5142 C   0  0  0  0  0  0
  -24.1232  -13.0214   20.9182 C   0  0  0  0  0  0
  -24.5953  -11.6730   20.8809 C   0  0  0  0  0  0
  -23.8789  -10.4148   21.0504 C   0  0  0  0  0  0
  -24.3464   -9.4109   21.9236 C   0  0  0  0  0  0
  -23.6206   -8.2121   22.0757 C   0  0  0  0  0  0
  -22.4197   -8.0156   21.3537 C   0  0  0  0  0  0
  -21.9771   -9.0094   20.4647 C   0  0  0  0  0  0
  -22.7021  -10.1997   20.3097 C   0  0  0  0  0  0
  -21.6811   -6.0665   22.5286 C   0  0  0  0  0  0
  -21.3975   -6.5594   23.8209 C   0  0  0  0  0  0
  -21.3659   -5.6766   24.9184 C   0  0  0  0  0  0
  -21.6056   -4.3029   24.7245 C   0  0  0  0  0  0
  -21.8830   -3.8103   23.4373 C   0  0  0  0  0  0
  -21.9180   -4.6905   22.3420 C   0  0  0  0  0  0
  -22.7375  -13.5080   21.1964 C   0  0  0  0  0  0
  -22.1661   -4.2094   21.0999 F   0  0  0  0  0  0
  -21.5646   -3.4521   25.7766 F   0  0  0  0  0  0
  -29.4363  -14.2491   20.5213 N   0  0  0  0  0  0
  -26.1901  -12.9080   20.2669 N   0  0  0  0  0  0
  -25.8781  -11.6291   20.5591 N   0  0  0  0  0  0
  -22.0127  -12.8123   22.0628 N   0  0  0  0  0  0
  -25.3187  -15.1506   20.2915 N   0  0  0  0  0  0
  -30.8742  -15.7819   20.4324 O   0  0  0  0  0  0
  -21.6581   -6.8761   21.4231 O   0  0  0  0  0  0
  -22.3099  -14.5390   20.6793 O   0  0  0  0  0  0
  -24.6669  -31.9519   23.2297 C   0  0  0  0  0  0
  -25.9610  -32.5118   23.8644 C   0  0  1  0  0  0
  -26.5545  -27.1980   20.1551 C   0  0  0  0  0  0
  -25.6484  -33.8872   24.2596 N   0  0  0  0  0  0
  -23.4565  -30.6253   21.5930 C   0  0  2  0  0  0
  -24.8476  -29.2546   19.9018 C   0  0  0  0  0  0
  -23.0048  -29.5701   22.6369 C   0  0  0  0  0  0
  -18.5470  -27.5821   22.5585 C   0  0  0  0  0  0
  -24.1530  -36.7359   23.2584 C   0  0  0  0  0  0
  -26.0004  -30.7998   21.4545 C   0  0  0  0  0  0
  -25.9505  -29.4687   20.7222 C   0  0  0  0  0  0
  -26.8644  -28.4001   20.8726 C   0  0  0  0  0  0
  -25.9072  -27.2811   18.9582 C   0  0  0  0  0  0
  -24.8745  -28.2149   18.9530 C   0  0  0  0  0  0
  -23.6453  -30.1572   20.1109 C   0  0  0  0  0  0
  -25.4150  -36.3215   24.0309 C   0  0  1  0  0  0
  -21.2441  -28.0651   23.4613 C   0  0  2  0  0  0
  -22.2391  -26.5861   22.7102 C   0  0  0  0  0  0
  -20.6892  -25.2684   21.1729 C   0  0  0  0  0  0
  -18.8578  -26.1550   21.5200 C   0  0  0  0  0  0
  -19.5740  -28.3686   23.3319 C   0  0  0  0  0  0
  -19.1625  -29.6408   23.9238 C   0  0  0  0  0  0
  -17.8536  -30.1806   23.9243 C   0  0  0  0  0  0
  -25.9191  -34.9631   23.5137 C   0  0  0  0  0  0
  -16.8496  -29.4048   23.3303 C   0  0  0  0  0  0
  -17.1995  -28.1676   22.6828 C   0  0  0  0  0  0
  -26.4651  -31.6691   25.0973 C   0  0  0  0  0  0
  -25.3727  -31.3886   26.1543 C   0  0  0  0  0  0
  -27.0440  -30.3049   24.6527 C   0  0  0  0  0  0
  -27.6180  -32.4300   25.7894 C   0  0  0  0  0  0
  -27.5617  -37.1881   24.8440 C   0  0  0  0  0  0
  -21.7309  -29.3307   22.8514 N   0  0  0  0  0  0
  -26.4290  -37.3925   23.9451 N   0  0  0  0  0  0
  -24.7264  -31.1899   22.1068 N   0  0  0  0  0  0
  -23.8223  -28.9981   23.3524 O   0  0  0  0  0  0
  -25.8482  -26.1341   20.7134 O   0  0  0  0  0  0
  -26.5518  -34.9028   22.4558 O   0  0  0  0  0  0
  -23.5839  -32.2350   23.7686 O   0  0  0  0  0  0
  -26.6795  -19.5382   21.4325 C   0  0  0  0  0  0
  -26.2360  -17.2970   22.0978 C   0  0  0  0  0  0
  -25.2935  -20.3147   21.9317 C   0  0  0  0  0  0
  -24.5139  -19.2159   22.4248 C   0  0  0  0  0  0
  -27.2614  -17.9796   21.4126 C   0  0  0  0  0  0
  -24.9836  -17.8443   22.5359 C   0  0  0  0  0  0
  -23.6816  -24.3229   20.8110 C   0  0  0  0  0  0
  -23.6548  -23.7054   19.6186 C   0  0  0  0  0  0
  -20.8993  -27.4416   21.1642 C   0  0  0  0  0  0
  -20.4022  -25.6019   23.3205 C   0  0  0  0  0  0
  -22.6174  -26.9762   20.3327 C   0  0  0  0  0  0
  -21.8671  -24.0327   23.1795 C   0  0  0  0  0  0
  -24.1446  -25.9049   20.8212 C   0  0  2  0  0  0
  -23.1058  -19.5042   22.9403 C   0  0  0  0  0  0
  -24.5552  -22.0993   22.3175 C   0  0  0  0  0  0
  -28.6995  -17.0043   20.9379 N   0  0  0  0  0  0
  -23.2127  -23.3626   22.0869 N   0  3  2  0  0  0
  -23.9684  -16.6885   23.3324 Cl  0  0  0  0  0  0
  -31.2282  -13.6355   19.4043 H   0  0  0  0  0  0
  -30.5320  -12.3595   20.3372 H   0  0  0  0  0  0
  -30.0743  -11.9206   17.9355 H   0  0  0  0  0  0
  -29.4746  -13.5482   17.7076 H   0  0  0  0  0  0
  -28.1485  -11.2713   19.1971 H   0  0  0  0  0  0
  -27.4725  -12.2144   17.8855 H   0  0  0  0  0  0
  -27.4002  -14.1865   19.2871 H   0  0  0  0  0  0
  -28.6857  -12.5241   21.5231 H   0  0  0  0  0  0
  -27.8419  -14.0357   21.8160 H   0  0  0  0  0  0
  -25.2595   -9.5660   22.4807 H   0  0  0  0  0  0
  -23.9954   -7.4502   22.7446 H   0  0  0  0  0  0
  -21.0714   -8.8569   19.8931 H   0  0  0  0  0  0
  -22.3443  -10.9551   19.6240 H   0  0  0  0  0  0
  -21.1942   -7.6096   23.9698 H   0  0  0  0  0  0
  -21.1483   -6.0495   25.9087 H   0  0  0  0  0  0
  -22.0612   -2.7561   23.2884 H   0  0  0  0  0  0
  -22.3780  -11.9808   22.5023 H   0  0  0  0  0  0
  -21.0785  -13.1176   22.2933 H   0  0  0  0  0  0
  -24.5429  -15.7926   20.4092 H   0  0  0  0  0  0
  -26.1481  -15.5879   19.9135 H   0  0  0  0  0  0
  -26.7753  -32.5615   23.1431 H   0  0  0  0  0  0
  -25.0881  -34.0057   25.0908 H   0  0  0  0  0  0
  -22.6940  -31.4065   21.5730 H   0  0  0  0  0  0
  -23.3834  -35.9641   23.3169 H   0  0  0  0  0  0
  -24.3667  -36.9039   22.2018 H   0  0  0  0  0  0
  -23.7227  -37.6523   23.6629 H   0  0  0  0  0  0
  -26.2590  -31.5746   20.7311 H   0  0  0  0  0  0
  -26.8446  -30.7313   22.1276 H   0  0  0  0  0  0
  -27.5700  -28.4031   21.6914 H   0  0  0  0  0  0
  -25.7797  -26.4117   18.3280 H   0  0  0  0  0  0
  -24.0849  -28.1262   18.2177 H   0  0  0  0  0  0
  -23.8232  -31.0490   19.5079 H   0  0  0  0  0  0
  -22.7207  -29.7586   19.6944 H   0  0  0  0  0  0
  -25.1285  -36.2059   25.0784 H   0  0  0  0  0  0
  -21.4884  -28.1246   24.5228 H   0  0  0  0  0  0
  -22.7079  -26.1138   23.5744 H   0  0  0  0  0  0
  -23.1243  -27.0987   22.4825 H   0  0  0  0  0  0
  -20.5485  -24.1940   21.2881 H   0  0  0  0  0  0
  -20.9294  -25.2641   20.1047 H   0  0  0  0  0  0
  -18.4333  -26.4156   20.5485 H   0  0  0  0  0  0
  -18.1486  -25.3874   21.8349 H   0  0  0  0  0  0
  -19.9158  -30.2243   24.4373 H   0  0  0  0  0  0
  -17.6344  -31.1278   24.3976 H   0  0  0  0  0  0
  -15.8268  -29.7562   23.3189 H   0  0  0  0  0  0
  -16.3956  -27.6447   22.1829 H   0  0  0  0  0  0
  -24.5889  -30.7322   25.7746 H   0  0  0  0  0  0
  -24.8966  -32.3090   26.4924 H   0  0  0  0  0  0
  -25.7877  -30.9016   27.0378 H   0  0  0  0  0  0
  -26.3076  -29.6905   24.1343 H   0  0  0  0  0  0
  -27.3799  -29.7214   25.5113 H   0  0  0  0  0  0
  -27.9135  -30.4221   24.0056 H   0  0  0  0  0  0
  -27.2796  -33.3592   26.2502 H   0  0  0  0  0  0
  -28.4093  -32.6857   25.0835 H   0  0  0  0  0  0
  -28.0733  -31.8370   26.5839 H   0  0  0  0  0  0
  -28.2508  -38.0301   24.7662 H   0  0  0  0  0  0
  -28.1246  -36.2845   24.6035 H   0  0  0  0  0  0
  -27.2365  -37.1247   25.8840 H   0  0  0  0  0  0
  -21.0425  -29.8841   22.3620 H   0  0  0  0  0  0
  -26.0139  -38.2946   24.1609 H   0  0  0  0  0  0
  -27.4058  -20.2382   21.0451 H   0  0  0  0  0  0
  -26.4062  -16.2528   22.3090 H   0  0  0  0  0  0
  -23.9340  -24.2480   18.7262 H   0  0  0  0  0  0
  -23.3583  -22.6741   19.4949 H   0  0  0  0  0  0
  -20.5809  -28.4789   21.1158 H   0  0  0  0  0  0
  -20.3277  -27.3474   20.2318 H   0  0  0  0  0  0
  -19.4449  -25.0899   23.4538 H   0  0  0  0  0  0
  -20.4737  -26.0003   24.3364 H   0  0  0  0  0  0
  -23.0196  -27.9220   20.5170 H   0  0  0  0  0  0
  -22.4654  -26.9021   19.2555 H   0  0  0  0  0  0
  -21.2488  -23.1411   23.2780 H   0  0  0  0  0  0
  -22.3608  -24.0413   24.1509 H   0  0  0  0  0  0
  -24.3614  -25.8611   21.8791 H   0  0  0  0  0  0
  -22.6613  -20.3926   22.4978 H   0  0  0  0  0  0
  -23.1072  -19.6144   24.0262 H   0  0  0  0  0  0
  -22.4185  -18.6973   22.6836 H   0  0  0  0  0  0
  -25.4113  -22.6980   22.0068 H   0  0  0  0  0  0
  -24.6411  -22.1144   23.4042 H   0  0  0  0  0  0
  -29.4030  -17.7058   20.7499 H   0  0  0  0  0  0
  -22.5859  -22.7154   21.6362 H   0  0  0  0  0  0
  1 25  1  0  0  0
  1 30  2  0  0  0
  1 86  1  0  0  0
  2  3  1  0  0  0
  2 25  1  0  0  0
  2 89  1  0  0  0
  2 90  1  0  0  0
  3  4  1  0  0  0
  3 91  1  0  0  0
  3 92  1  0  0  0
  4  5  1  0  0  0
  4 93  1  0  0  0
  4 94  1  0  0  0
  5  6  1  0  0  0
  5 26  1  0  0  0
  5 95  1  0  0  0
  6 25  1  0  0  0
  6 96  1  0  0  0
  6 97  1  0  0  0
  7  8  2  0  0  0
  7 26  1  0  0  0
  7 29  1  0  0  0
  8  9  1  0  0  0
  8 22  1  0  0  0
  9 10  1  0  0  0
  9 27  2  0  0  0
 10 11  2  0  0  0
 10 15  1  0  0  0
 11 12  1  0  0  0
 11 98  1  0  0  0
 12 13  2  0  0  0
 12 99  1  0  0  0
 13 14  1  0  0  0
 13 31  1  0  0  0
 14 15  2  0  0  0
 14100  1  0  0  0
 15101  1  0  0  0
 16 17  2  0  0  0
 16 21  1  0  0  0
 16 31  1  0  0  0
 17 18  1  0  0  0
 17102  1  0  0  0
 18 19  2  0  0  0
 18103  1  0  0  0
 19 20  1  0  0  0
 19 24  1  0  0  0
 20 21  2  0  0  0
 20104  1  0  0  0
 21 23  1  0  0  0
 22 28  1  0  0  0
 22 32  2  0  0  0
 26 27  1  0  0  0
 28105  1  0  0  0
 28106  1  0  0  0
 29107  1  0  0  0
 29108  1  0  0  0
 33 34  1  0  0  0
 33 66  1  0  0  0
 33 70  2  0  0  0
 34 36  1  0  0  0
 34 59  1  0  0  0
 34109  1  0  0  0
 35 44  2  0  0  0
 35 45  1  0  0  0
 35 68  1  0  0  0
 36 56  1  0  0  0
 36110  1  0  0  0
 37 39  1  0  0  0
 37 47  1  0  0  0
 37 66  1  0  0  0
 37111  1  0  0  0
 38 43  2  0  0  0
 38 46  1  0  0  0
 38 47  1  0  0  0
 39 64  1  0  0  0
 39 67  2  0  0  0
 40 52  1  0  0  0
 40 53  2  0  0  0
 40 58  1  0  0  0
 41112  1  0  0  0
 41113  1  0  0  0
 41114  1  0  0  0
 41 48  1  0  0  0
 42 43  1  0  0  0
 42 66  1  0  0  0
 42115  1  0  0  0
 42116  1  0  0  0
 43 44  1  0  0  0
 44117  1  0  0  0
 45 46  2  0  0  0
 45118  1  0  0  0
 46119  1  0  0  0
 47120  1  0  0  0
 47121  1  0  0  0
 48 56  1  0  0  0
 48 65  1  0  0  0
 48122  1  0  0  0
 49 50  1  0  0  0
 49 53  1  0  0  0
 49 64  1  0  0  0
 49123  1  0  0  0
 50 51  1  0  0  0
 50124  1  0  0  0
 50125  1  0  0  0
 51 52  1  0  0  0
 51126  1  0  0  0
 51127  1  0  0  0
 52128  1  0  0  0
 52129  1  0  0  0
 53 54  1  0  0  0
 54 55  2  0  0  0
 54130  1  0  0  0
 55 57  1  0  0  0
 55131  1  0  0  0
 56 69  2  0  0  0
 57 58  2  0  0  0
 57132  1  0  0  0
 58133  1  0  0  0
 59 60  1  0  0  0
 59 61  1  0  0  0
 59 62  1  0  0  0
 60134  1  0  0  0
 60135  1  0  0  0
 60136  1  0  0  0
 61137  1  0  0  0
 61138  1  0  0  0
 61139  1  0  0  0
 62140  1  0  0  0
 62141  1  0  0  0
 62142  1  0  0  0
 63 65  1  0  0  0
 63143  1  0  0  0
 63144  1  0  0  0
 63145  1  0  0  0
 64146  1  0  0  0
 65147  1  0  0  0
 68 83  1  0  0  0
 71 73  2  0  0  0
 71 75  1  0  0  0
 71148  1  0  0  0
 72 75  2  0  0  0
 72 76  1  0  0  0
 72149  1  0  0  0
 73 74  1  0  0  0
 73 85  1  0  0  0
 74 76  2  0  0  0
 74 84  1  0  0  0
 75 86  1  0  0  0
 76 88  1  0  0  0
 77 78  2  0  0  0
 77 83  1  0  0  0
 77 87  1  0  0  0
 78150  1  0  0  0
 78151  1  0  0  0
 79 80  1  0  0  0
 79 81  1  0  0  0
 79152  1  0  0  0
 79153  1  0  0  0
 80 82  1  0  0  0
 80154  1  0  0  0
 80155  1  0  0  0
 81 83  1  0  0  0
 81156  1  0  0  0
 81157  1  0  0  0
 82 87  1  0  0  0
 82158  1  0  0  0
 82159  1  0  0  0
 83160  1  0  0  0
 84161  1  0  0  0
 84162  1  0  0  0
 84163  1  0  0  0
 85164  1  0  0  0
 85165  1  0  0  0
 85 87  1  0  0  0
 86166  1  0  0  0
 87167  1  0  0  0
M  CHG  1  87   1
M  ISO  4   1 100  68 101  83 101  86 100
M  END
> <chiral flag>
0

> <version>
0

> <s_m_source_file>
/data/baiqing/PycharmProjects/Reinvent-master-3.2/result/LINK_invent/BTK/process_docking_weight1_custom_product_contain_oxygen_bond_distance_aromatic_linkinvent_7_9_3/rearranged_h_0036.sdf

> <i_m_source_file_index>
10

> <r_mmod_Potential_Energy-OPLS-2005>
12755.005859375

> <r_mmod_Stretch_Energy-OPLS-2005>
6474.86279296875

> <r_mmod_Bend_Energy-OPLS-2005>
1452.39025878906

> <r_mmod_Torsional_Energy-OPLS-2005>
506.986633300781

> <r_mmod_Improper_Torsional_Energy-OPLS-2005>
29.570463180542

> <r_mmod_Van_der_Waal_Energy-OPLS-2005>
2069.07861328125

> <r_mmod_Electrostatic_Energy-OPLS-2005>
-275.796356201172

> <r_mmod_Solvation_Energy-OPLS-2005>
-427.8427734375

> <b_mmod_Minimization_Converged-OPLS-2005>
0

> <r_mmod_RMS_Derivative-OPLS-2005>
4.56482648849487

$$$$
10
                    3D
 Structure written by MMmdl.
170179  0  0  1  0            999 V2000
  -30.6883  -14.5105   20.5487 C   0  0  0  0  0  0
  -30.4251  -12.3210   19.4371 C   0  0  0  0  0  0
  -29.4986  -12.4924   18.2140 C   0  0  0  0  0  0
  -28.0213  -12.3468   18.6281 C   0  0  0  0  0  0
  -27.6596  -13.2049   19.8693 C   0  0  2  0  0  0
  -28.7018  -13.0153   20.9954 C   0  0  0  0  0  0
  -25.2596  -13.8152   20.5682 C   0  0  0  0  0  0
  -24.1847  -13.0445   20.9189 C   0  0  0  0  0  0
  -24.6384  -11.6910   20.8741 C   0  0  0  0  0  0
  -23.9052  -10.4295   21.0411 C   0  0  0  0  0  0
  -24.3617   -9.4206   21.9180 C   0  0  0  0  0  0
  -23.6290   -8.2249   22.0756 C   0  0  0  0  0  0
  -22.4267   -8.0285   21.3551 C   0  0  0  0  0  0
  -21.9905   -9.0256   20.4651 C   0  0  0  0  0  0
  -22.7234  -10.2131   20.3051 C   0  0  0  0  0  0
  -21.6846   -6.0738   22.5276 C   0  0  0  0  0  0
  -21.4012   -6.5644   23.8212 C   0  0  0  0  0  0
  -21.3658   -5.6798   24.9177 C   0  0  0  0  0  0
  -21.6042   -4.3061   24.7226 C   0  0  0  0  0  0
  -21.8821   -3.8149   23.4350 C   0  0  0  0  0  0
  -21.9193   -4.6965   22.3403 C   0  0  0  0  0  0
  -22.7871  -13.5240   21.1854 C   0  0  0  0  0  0
  -22.1661   -4.2157   21.0981 F   0  0  0  0  0  0
  -21.5626   -3.4537   25.7738 F   0  0  0  0  0  0
  -30.0291  -13.3228   20.4401 N   0  0  0  0  0  0
  -26.3010  -12.9324   20.3332 N   0  0  0  0  0  0
  -25.9301  -11.6490   20.5763 N   0  0  0  0  0  0
  -22.0516  -12.8224   22.0407 N   0  0  0  0  0  0
  -25.4350  -15.1878   20.4101 N   0  0  0  0  0  0
  -31.8304  -14.6781   20.1129 O   0  0  0  0  0  0
  -21.6640   -6.8876   21.4236 O   0  0  0  0  0  0
  -22.3563  -14.5546   20.6694 O   0  0  0  0  0  0
  -24.6165  -31.8667   23.2087 C   0  0  0  0  0  0
  -25.9041  -32.4822   23.8398 C   0  0  1  0  0  0
  -27.2365  -27.4225   20.1169 C   0  0  0  0  0  0
  -25.5903  -33.8625   24.2343 N   0  0  0  0  0  0
  -23.4081  -30.4890   21.5478 C   0  0  2  0  0  0
  -24.8590  -28.9568   20.1114 C   0  0  0  0  0  0
  -22.7450  -29.4648   22.4972 C   0  0  0  0  0  0
  -18.0302  -28.1383   22.8504 C   0  0  0  0  0  0
  -24.1479  -36.7314   23.2628 C   0  0  0  0  0  0
  -25.9354  -30.8337   21.3614 C   0  0  0  0  0  0
  -26.0187  -29.4674   20.7102 C   0  0  0  0  0  0
  -27.2150  -28.7094   20.7082 C   0  0  0  0  0  0
  -26.0660  -26.9369   19.4958 C   0  0  0  0  0  0
  -24.8792  -27.6930   19.4962 C   0  0  0  0  0  0
  -23.6192  -29.8217   20.1615 C   0  0  0  0  0  0
  -25.4093  -36.3114   24.0339 C   0  0  1  0  0  0
  -20.5894  -28.3688   23.1319 C   0  0  2  0  0  0
  -20.6806  -26.9420   22.5429 C   0  0  0  0  0  0
  -19.5778  -26.6356   21.5250 C   0  0  0  0  0  0
  -18.1965  -26.7907   22.1672 C   0  0  0  0  0  0
  -19.1546  -28.8855   23.2908 C   0  0  0  0  0  0
  -18.9469  -30.1468   23.8898 C   0  0  0  0  0  0
  -17.6467  -30.6607   24.0538 C   0  0  0  0  0  0
  -25.9018  -34.9477   23.5135 C   0  0  0  0  0  0
  -16.5368  -29.9099   23.6314 C   0  0  0  0  0  0
  -16.7291  -28.6503   23.0362 C   0  0  0  0  0  0
  -26.4458  -31.6590   25.0725 C   0  0  0  0  0  0
  -25.3721  -31.3685   26.1462 C   0  0  0  0  0  0
  -27.0278  -30.3028   24.6111 C   0  0  0  0  0  0
  -27.6026  -32.4304   25.7511 C   0  0  0  0  0  0
  -27.5573  -37.1812   24.8461 C   0  0  0  0  0  0
  -21.4172  -29.3059   22.3728 N   0  0  0  0  0  0
  -26.4283  -37.3798   23.9405 N   0  0  0  0  0  0
  -24.6714  -31.0776   22.0981 N   0  0  0  0  0  0
  -23.4219  -28.8166   23.2998 O   0  0  0  0  0  0
  -28.3540  -26.6118   20.1854 O   0  0  0  0  0  0
  -26.5579  -34.8914   22.4693 O   0  0  0  0  0  0
  -23.5351  -32.1419   23.7451 O   0  0  0  0  0  0
  -28.4456  -17.6269   22.4125 C   0  0  0  0  0  0
  -27.3226  -19.7804   22.3153 C   0  0  0  0  0  0
  -29.3259  -18.0194   21.3832 C   0  0  0  0  0  0
  -28.1944  -20.2458   21.3045 C   0  0  0  0  0  0
  -29.2335  -19.3570   20.8636 C   0  0  0  0  0  0
  -27.4571  -18.5026   22.8794 C   0  0  0  0  0  0
  -27.8687  -23.2726   22.6055 C   0  0  0  0  0  0
  -26.6353  -22.9846   23.0745 C   0  0  0  0  0  0
  -28.8668  -24.2709   23.1957 C   0  0  0  0  0  0
  -29.1095  -25.4760   22.2450 C   0  0  0  0  0  0
  -28.3137  -24.0632   20.2920 C   0  0  0  0  0  0
  -28.1699  -25.4389   21.0221 C   0  0  2  0  0  0
  -30.2321  -19.8107   19.8065 C   0  0  0  0  0  0
  -26.0339  -23.4436   24.3883 C   0  0  0  0  0  0
  -30.3528  -16.9818   20.8712 C   0  0  0  0  0  0
  -27.8596  -21.6073   20.6189 C   0  0  0  0  0  0
  -29.9574  -15.5578   20.9872 N   0  0  0  0  0  0
  -28.3582  -22.8870   21.2371 N   0  3  2  0  0  0
  -26.3769  -17.9915   24.1219 Cl  0  0  0  0  0  0
  -31.4713  -12.4203   19.1388 H   0  0  0  0  0  0
  -30.3302  -11.3174   19.8547 H   0  0  0  0  0  0
  -29.7495  -11.7507   17.4540 H   0  0  0  0  0  0
  -29.6597  -13.4689   17.7548 H   0  0  0  0  0  0
  -27.8483  -11.2925   18.8483 H   0  0  0  0  0  0
  -27.3658  -12.5922   17.7919 H   0  0  0  0  0  0
  -27.6974  -14.2468   19.5514 H   0  0  0  0  0  0
  -28.6825  -11.9868   21.3607 H   0  0  0  0  0  0
  -28.4629  -13.6401   21.8567 H   0  0  0  0  0  0
  -25.2761   -9.5689   22.4753 H   0  0  0  0  0  0
  -24.0008   -7.4635   22.7463 H   0  0  0  0  0  0
  -21.0844   -8.8763   19.8945 H   0  0  0  0  0  0
  -22.3690  -10.9673   19.6160 H   0  0  0  0  0  0
  -21.2007   -7.6151   23.9723 H   0  0  0  0  0  0
  -21.1476   -6.0525   25.9084 H   0  0  0  0  0  0
  -22.0602   -2.7610   23.2845 H   0  0  0  0  0  0
  -22.4141  -11.9870   22.4769 H   0  0  0  0  0  0
  -21.1133  -13.1249   22.2620 H   0  0  0  0  0  0
  -24.6719  -15.8453   20.5256 H   0  0  0  0  0  0
  -26.2872  -15.6241   20.0833 H   0  0  0  0  0  0
  -26.7128  -32.5537   23.1186 H   0  0  0  0  0  0
  -25.0088  -33.9789   25.0512 H   0  0  0  0  0  0
  -22.6952  -31.3032   21.4053 H   0  0  0  0  0  0
  -23.3725  -35.9664   23.3316 H   0  0  0  0  0  0
  -24.3569  -36.8899   22.2034 H   0  0  0  0  0  0
  -23.7239  -37.6534   23.6621 H   0  0  0  0  0  0
  -26.0466  -31.5966   20.5885 H   0  0  0  0  0  0
  -26.8221  -30.8904   21.9799 H   0  0  0  0  0  0
  -28.1048  -29.0920   21.1903 H   0  0  0  0  0  0
  -26.0662  -25.9614   19.0306 H   0  0  0  0  0  0
  -23.9893  -27.2933   19.0298 H   0  0  0  0  0  0
  -23.7312  -30.5966   19.4014 H   0  0  0  0  0  0
  -22.7442  -29.2398   19.8660 H   0  0  0  0  0  0
  -25.1268  -36.1990   25.0835 H   0  0  0  0  0  0
  -20.9994  -28.3263   24.1443 H   0  0  0  0  0  0
  -21.6677  -26.7464   22.1225 H   0  0  0  0  0  0
  -20.5734  -26.2317   23.3638 H   0  0  0  0  0  0
  -19.6937  -25.6244   21.1352 H   0  0  0  0  0  0
  -19.6704  -27.3114   20.6739 H   0  0  0  0  0  0
  -17.4221  -26.6603   21.4108 H   0  0  0  0  0  0
  -18.0393  -26.0089   22.9112 H   0  0  0  0  0  0
  -19.7930  -30.7319   24.2264 H   0  0  0  0  0  0
  -17.5010  -31.6303   24.5108 H   0  0  0  0  0  0
  -15.5360  -30.2990   23.7610 H   0  0  0  0  0  0
  -15.8704  -28.0793   22.7093 H   0  0  0  0  0  0
  -25.8037  -30.8836   27.0222 H   0  0  0  0  0  0
  -24.5892  -30.7044   25.7797 H   0  0  0  0  0  0
  -24.8897  -32.2826   26.4928 H   0  0  0  0  0  0
  -26.2806  -29.6770   24.1226 H   0  0  0  0  0  0
  -27.4102  -29.7289   25.4558 H   0  0  0  0  0  0
  -27.8612  -30.4312   23.9207 H   0  0  0  0  0  0
  -27.2643  -33.3577   26.2144 H   0  0  0  0  0  0
  -28.3824  -32.6911   25.0348 H   0  0  0  0  0  0
  -28.0718  -31.8400   26.5391 H   0  0  0  0  0  0
  -28.2611  -38.0093   24.7500 H   0  0  0  0  0  0
  -28.1047  -36.2625   24.6294 H   0  0  0  0  0  0
  -27.2299  -37.1486   25.8870 H   0  0  0  0  0  0
  -20.9324  -29.8810   21.6982 H   0  0  0  0  0  0
  -26.0171  -38.2882   24.1393 H   0  0  0  0  0  0
  -28.5102  -16.6422   22.8501 H   0  0  0  0  0  0
  -26.4974  -20.3745   22.6630 H   0  0  0  0  0  0
  -25.9673  -22.3683   22.4959 H   0  0  0  0  0  0
  -29.8048  -23.7525   23.3957 H   0  0  0  0  0  0
  -28.5383  -24.6380   24.1657 H   0  0  0  0  0  0
  -30.1473  -25.4806   21.9107 H   0  0  0  0  0  0
  -28.9628  -26.4085   22.7910 H   0  0  0  0  0  0
  -29.2246  -24.0526   19.6928 H   0  0  0  0  0  0
  -27.4828  -23.9547   19.5956 H   0  0  0  0  0  0
  -27.1569  -25.4692   21.4315 H   0  0  0  0  0  0
  -31.2312  -19.4363   20.0333 H   0  0  0  0  0  0
  -30.3244  -20.8950   19.7440 H   0  0  0  0  0  0
  -29.9375  -19.4320   18.8282 H   0  0  0  0  0  0
  -26.5309  -24.3120   24.8172 H   0  0  0  0  0  0
  -26.0758  -22.6316   25.1153 H   0  0  0  0  0  0
  -24.9868  -23.7105   24.2405 H   0  0  0  0  0  0
  -30.5631  -17.1711   19.8172 H   0  0  0  0  0  0
  -31.2912  -17.1345   21.4085 H   0  0  0  0  0  0
  -26.7773  -21.6753   20.5034 H   0  0  0  0  0  0
  -28.2226  -21.5631   19.5930 H   0  0  0  0  0  0
  -29.0123  -15.3647   21.2781 H   0  0  0  0  0  0
  -29.3445  -22.7082   21.3513 H   0  0  0  0  0  0
  1 25  1  0  0  0
  1 30  2  0  0  0
  1 87  1  0  0  0
  2  3  1  0  0  0
  2 25  1  0  0  0
  2 90  1  0  0  0
  2 91  1  0  0  0
  3  4  1  0  0  0
  3 92  1  0  0  0
  3 93  1  0  0  0
  4  5  1  0  0  0
  4 94  1  0  0  0
  4 95  1  0  0  0
  5  6  1  0  0  0
  5 26  1  0  0  0
  5 96  1  0  0  0
  6 25  1  0  0  0
  6 97  1  0  0  0
  6 98  1  0  0  0
  7  8  2  0  0  0
  7 26  1  0  0  0
  7 29  1  0  0  0
  8  9  1  0  0  0
  8 22  1  0  0  0
  9 10  1  0  0  0
  9 27  2  0  0  0
 10 11  2  0  0  0
 10 15  1  0  0  0
 11 12  1  0  0  0
 11 99  1  0  0  0
 12 13  2  0  0  0
 12100  1  0  0  0
 13 14  1  0  0  0
 13 31  1  0  0  0
 14 15  2  0  0  0
 14101  1  0  0  0
 15102  1  0  0  0
 16 17  2  0  0  0
 16 21  1  0  0  0
 16 31  1  0  0  0
 17 18  1  0  0  0
 17103  1  0  0  0
 18 19  2  0  0  0
 18104  1  0  0  0
 19 20  1  0  0  0
 19 24  1  0  0  0
 20 21  2  0  0  0
 20105  1  0  0  0
 21 23  1  0  0  0
 22 28  1  0  0  0
 22 32  2  0  0  0
 26 27  1  0  0  0
 28106  1  0  0  0
 28107  1  0  0  0
 29108  1  0  0  0
 29109  1  0  0  0
 33 34  1  0  0  0
 33 66  1  0  0  0
 33 70  2  0  0  0
 34 36  1  0  0  0
 34 59  1  0  0  0
 34110  1  0  0  0
 35 44  2  0  0  0
 35 45  1  0  0  0
 35 68  1  0  0  0
 36 56  1  0  0  0
 36111  1  0  0  0
 37 39  1  0  0  0
 37 47  1  0  0  0
 37 66  1  0  0  0
 37112  1  0  0  0
 38 43  2  0  0  0
 38 46  1  0  0  0
 38 47  1  0  0  0
 39 64  1  0  0  0
 39 67  2  0  0  0
 40 52  1  0  0  0
 40 53  2  0  0  0
 40 58  1  0  0  0
 41113  1  0  0  0
 41114  1  0  0  0
 41115  1  0  0  0
 41 48  1  0  0  0
 42 43  1  0  0  0
 42 66  1  0  0  0
 42116  1  0  0  0
 42117  1  0  0  0
 43 44  1  0  0  0
 44118  1  0  0  0
 45 46  2  0  0  0
 45119  1  0  0  0
 46120  1  0  0  0
 47121  1  0  0  0
 47122  1  0  0  0
 48 56  1  0  0  0
 48 65  1  0  0  0
 48123  1  0  0  0
 49 50  1  0  0  0
 49 53  1  0  0  0
 49 64  1  0  0  0
 49124  1  0  0  0
 50 51  1  0  0  0
 50125  1  0  0  0
 50126  1  0  0  0
 51 52  1  0  0  0
 51127  1  0  0  0
 51128  1  0  0  0
 52129  1  0  0  0
 52130  1  0  0  0
 53 54  1  0  0  0
 54 55  2  0  0  0
 54131  1  0  0  0
 55 57  1  0  0  0
 55132  1  0  0  0
 56 69  2  0  0  0
 57 58  2  0  0  0
 57133  1  0  0  0
 58134  1  0  0  0
 59 60  1  0  0  0
 59 61  1  0  0  0
 59 62  1  0  0  0
 60135  1  0  0  0
 60136  1  0  0  0
 60137  1  0  0  0
 61138  1  0  0  0
 61139  1  0  0  0
 61140  1  0  0  0
 62141  1  0  0  0
 62142  1  0  0  0
 62143  1  0  0  0
 63 65  1  0  0  0
 63144  1  0  0  0
 63145  1  0  0  0
 63146  1  0  0  0
 64147  1  0  0  0
 65148  1  0  0  0
 68 82  1  0  0  0
 71 73  2  0  0  0
 71 76  1  0  0  0
 71149  1  0  0  0
 72 74  1  0  0  0
 72 76  2  0  0  0
 72150  1  0  0  0
 73 75  1  0  0  0
 73 85  1  0  0  0
 74 75  2  0  0  0
 74 86  1  0  0  0
 75 83  1  0  0  0
 76 89  1  0  0  0
 77 78  2  0  0  0
 77 79  1  0  0  0
 77 88  1  0  0  0
 78 84  1  0  0  0
 78151  1  0  0  0
 79 80  1  0  0  0
 79152  1  0  0  0
 79153  1  0  0  0
 80 82  1  0  0  0
 80154  1  0  0  0
 80155  1  0  0  0
 81 82  1  0  0  0
 81 88  1  0  0  0
 81156  1  0  0  0
 81157  1  0  0  0
 82158  1  0  0  0
 83159  1  0  0  0
 83160  1  0  0  0
 83161  1  0  0  0
 84162  1  0  0  0
 84163  1  0  0  0
 84164  1  0  0  0
 85 87  1  0  0  0
 85165  1  0  0  0
 85166  1  0  0  0
 86167  1  0  0  0
 86168  1  0  0  0
 86 88  1  0  0  0
 87169  1  0  0  0
 88170  1  0  0  0
M  CHG  1  88   1
M  ISO  4   1 100  68 101  82 101  87 100
M  END
> <chiral flag>
0

> <version>
0

> <s_m_source_file>
/data/baiqing/PycharmProjects/Reinvent-master-3.2/result/LINK_invent/BTK/process_docking_weight1_custom_product_contain_oxygen_bond_distance_aromatic_linkinvent_7_9_3/rearranged_h_0036.sdf

> <i_m_source_file_index>
11

> <r_mmod_Potential_Energy-OPLS-2005>
-127.733261108398

> <r_mmod_Stretch_Energy-OPLS-2005>
54.6763763427734

> <r_mmod_Bend_Energy-OPLS-2005>
115.885665893555

> <r_mmod_Torsional_Energy-OPLS-2005>
258.312683105469

> <r_mmod_Improper_Torsional_Energy-OPLS-2005>
5.59280776977539

> <r_mmod_Van_der_Waal_Energy-OPLS-2005>
162.690017700195

> <r_mmod_Electrostatic_Energy-OPLS-2005>
-320.589904785156

> <r_mmod_Solvation_Energy-OPLS-2005>
-424.215087890625

> <b_mmod_Minimization_Converged-OPLS-2005>
0

> <r_mmod_RMS_Derivative-OPLS-2005>
2.77149963378906

$$$$
11
                    3D
 Structure written by MMmdl.
170179  0  0  1  0            999 V2000
  -30.6788  -14.5658   20.5194 C   0  0  0  0  0  0
  -30.4378  -12.3541   19.4416 C   0  0  0  0  0  0
  -29.5141  -12.5253   18.2160 C   0  0  0  0  0  0
  -28.0341  -12.3678   18.6232 C   0  0  0  0  0  0
  -27.6674  -13.2137   19.8730 C   0  0  2  0  0  0
  -28.7145  -13.0348   20.9984 C   0  0  0  0  0  0
  -25.2622  -13.8144   20.5676 C   0  0  0  0  0  0
  -24.1881  -13.0452   20.9189 C   0  0  0  0  0  0
  -24.6430  -11.6900   20.8733 C   0  0  0  0  0  0
  -23.9096  -10.4291   21.0389 C   0  0  0  0  0  0
  -24.3632   -9.4208   21.9175 C   0  0  0  0  0  0
  -23.6282   -8.2259   22.0776 C   0  0  0  0  0  0
  -22.4247   -8.0313   21.3578 C   0  0  0  0  0  0
  -21.9917   -9.0283   20.4668 C   0  0  0  0  0  0
  -22.7266  -10.2135   20.3040 C   0  0  0  0  0  0
  -21.6857   -6.0760   22.5285 C   0  0  0  0  0  0
  -21.4015   -6.5655   23.8225 C   0  0  0  0  0  0
  -21.3645   -5.6799   24.9184 C   0  0  0  0  0  0
  -21.6049   -4.3070   24.7214 C   0  0  0  0  0  0
  -21.8816   -3.8167   23.4334 C   0  0  0  0  0  0
  -21.9182   -4.6986   22.3397 C   0  0  0  0  0  0
  -22.7897  -13.5267   21.1857 C   0  0  0  0  0  0
  -22.1680   -4.2191   21.0981 F   0  0  0  0  0  0
  -21.5623   -3.4540   25.7704 F   0  0  0  0  0  0
  -30.0423  -13.3570   20.4460 N   0  0  0  0  0  0
  -26.3079  -12.9333   20.3377 N   0  0  0  0  0  0
  -25.9374  -11.6500   20.5782 N   0  0  0  0  0  0
  -22.0486  -12.8262   22.0365 N   0  0  0  0  0  0
  -25.4412  -15.1856   20.4034 N   0  0  0  0  0  0
  -31.7952  -14.7480   20.0282 O   0  0  0  0  0  0
  -21.6629   -6.8902   21.4250 O   0  0  0  0  0  0
  -22.3620  -14.5614   20.6727 O   0  0  0  0  0  0
  -24.6188  -31.8661   23.2099 C   0  0  0  0  0  0
  -25.9099  -32.4799   23.8372 C   0  0  1  0  0  0
  -27.2131  -27.3938   20.1076 C   0  0  0  0  0  0
  -25.5932  -33.8589   24.2288 N   0  0  0  0  0  0
  -23.4040  -30.4953   21.5514 C   0  0  2  0  0  0
  -24.8413  -28.9547   20.1221 C   0  0  0  0  0  0
  -22.7407  -29.4690   22.5006 C   0  0  0  0  0  0
  -18.0290  -28.1379   22.8563 C   0  0  0  0  0  0
  -24.1494  -36.7269   23.2651 C   0  0  0  0  0  0
  -25.9407  -30.8205   21.3699 C   0  0  0  0  0  0
  -26.0100  -29.4564   20.7077 C   0  0  0  0  0  0
  -27.2010  -28.6863   20.6879 C   0  0  0  0  0  0
  -26.0185  -26.9166   19.5179 C   0  0  0  0  0  0
  -24.8423  -27.6835   19.5295 C   0  0  0  0  0  0
  -23.6072  -29.8272   20.1683 C   0  0  0  0  0  0
  -25.4134  -36.3075   24.0340 C   0  0  1  0  0  0
  -20.5884  -28.3674   23.1335 C   0  0  2  0  0  0
  -20.6752  -26.9405   22.5422 C   0  0  0  0  0  0
  -19.5722  -26.6379   21.5237 C   0  0  0  0  0  0
  -18.1910  -26.7938   22.1652 C   0  0  0  0  0  0
  -19.1531  -28.8844   23.2949 C   0  0  0  0  0  0
  -18.9446  -30.1451   23.8953 C   0  0  0  0  0  0
  -17.6448  -30.6588   24.0592 C   0  0  0  0  0  0
  -25.9062  -34.9437   23.5097 C   0  0  0  0  0  0
  -16.5335  -29.9088   23.6356 C   0  0  0  0  0  0
  -16.7261  -28.6500   23.0420 C   0  0  0  0  0  0
  -26.4513  -31.6666   25.0752 C   0  0  0  0  0  0
  -25.3772  -31.3752   26.1477 C   0  0  0  0  0  0
  -27.0370  -30.3103   24.6201 C   0  0  0  0  0  0
  -27.6047  -32.4463   25.7521 C   0  0  0  0  0  0
  -27.5618  -37.1786   24.8452 C   0  0  0  0  0  0
  -21.4127  -29.3057   22.3727 N   0  0  0  0  0  0
  -26.4302  -37.3803   23.9441 N   0  0  0  0  0  0
  -24.6718  -31.0761   22.0989 N   0  0  0  0  0  0
  -23.4176  -28.8237   23.3033 O   0  0  0  0  0  0
  -28.3655  -26.6191   20.1507 O   0  0  0  0  0  0
  -26.5635  -34.8914   22.4668 O   0  0  0  0  0  0
  -23.5370  -32.1386   23.7499 O   0  0  0  0  0  0
  -30.0503  -18.8906   19.2005 C   0  0  0  0  0  0
  -30.3556  -17.5508   19.5655 C   0  0  0  0  0  0
  -29.2234  -19.7170   20.0059 C   0  0  0  0  0  0
  -29.1616  -17.8482   21.6548 C   0  0  0  0  0  0
  -29.8778  -16.9856   20.7764 C   0  0  0  0  0  0
  -28.7909  -19.1725   21.2478 C   0  0  0  0  0  0
  -29.1785  -23.3926   18.5641 C   0  0  0  0  0  0
  -30.1930  -23.3342   17.6787 C   0  0  0  0  0  0
  -28.2311  -24.5789   18.7209 C   0  0  0  0  0  0
  -29.3235  -24.5141   21.0622 C   0  0  0  0  0  0
  -29.3874  -22.9395   21.0025 C   0  0  0  0  0  0
  -28.2257  -25.1705   20.1660 C   0  0  1  0  0  0
  -31.2724  -22.2799   17.5764 C   0  0  0  0  0  0
  -27.4624  -16.5665   23.1069 C   0  0  0  0  0  0
  -28.7845  -17.3518   23.0516 C   0  0  0  0  0  0
  -28.5668  -20.9953   19.3825 C   0  0  0  0  0  0
  -29.9802  -15.5724   21.1062 N   0  0  0  0  0  0
  -28.9048  -22.4392   19.6879 N   0  3  2  0  0  0
  -27.6992  -20.0882   22.2338 Cl  0  0  0  0  0  0
  -31.4830  -12.4469   19.1435 H   0  0  0  0  0  0
  -30.3434  -11.3480   19.8508 H   0  0  0  0  0  0
  -29.7721  -11.8027   17.4407 H   0  0  0  0  0  0
  -29.6686  -13.5132   17.7791 H   0  0  0  0  0  0
  -27.8478  -11.3091   18.8091 H   0  0  0  0  0  0
  -27.3878  -12.6430   17.7894 H   0  0  0  0  0  0
  -27.6992  -14.2590   19.5617 H   0  0  0  0  0  0
  -28.7064  -12.0085   21.3694 H   0  0  0  0  0  0
  -28.4704  -13.6550   21.8578 H   0  0  0  0  0  0
  -25.2777   -9.5696   22.4737 H   0  0  0  0  0  0
  -24.0014   -7.4672   22.7491 H   0  0  0  0  0  0
  -21.0851   -8.8781   19.8965 H   0  0  0  0  0  0
  -22.3740  -10.9672   19.6136 H   0  0  0  0  0  0
  -21.2033   -7.6161   23.9738 H   0  0  0  0  0  0
  -21.1474   -6.0538   25.9079 H   0  0  0  0  0  0
  -22.0591   -2.7625   23.2829 H   0  0  0  0  0  0
  -22.4019  -11.9865   22.4719 H   0  0  0  0  0  0
  -21.1140  -13.1388   22.2594 H   0  0  0  0  0  0
  -24.6846  -15.8530   20.4903 H   0  0  0  0  0  0
  -26.3114  -15.6127   20.1162 H   0  0  0  0  0  0
  -26.7174  -32.5438   23.1110 H   0  0  0  0  0  0
  -25.0112  -33.9740   25.0448 H   0  0  0  0  0  0
  -22.6957  -31.3144   21.4129 H   0  0  0  0  0  0
  -23.3782  -35.9551   23.3197 H   0  0  0  0  0  0
  -24.3661  -36.8989   22.2092 H   0  0  0  0  0  0
  -23.7143  -37.6406   23.6725 H   0  0  0  0  0  0
  -26.0861  -31.5971   20.6170 H   0  0  0  0  0  0
  -26.8139  -30.8417   22.0097 H   0  0  0  0  0  0
  -28.1029  -29.0710   21.1423 H   0  0  0  0  0  0
  -25.9572  -25.9428   19.0591 H   0  0  0  0  0  0
  -23.9393  -27.2780   19.0960 H   0  0  0  0  0  0
  -23.7151  -30.5970   19.4023 H   0  0  0  0  0  0
  -22.7261  -29.2526   19.8795 H   0  0  0  0  0  0
  -25.1319  -36.1905   25.0836 H   0  0  0  0  0  0
  -21.0041  -28.3204   24.1432 H   0  0  0  0  0  0
  -20.5662  -26.2284   23.3626 H   0  0  0  0  0  0
  -21.6616  -26.7461   22.1188 H   0  0  0  0  0  0
  -19.6871  -25.6282   21.1301 H   0  0  0  0  0  0
  -19.6636  -27.3168   20.6753 H   0  0  0  0  0  0
  -17.4191  -26.6766   21.4027 H   0  0  0  0  0  0
  -18.0256  -26.0013   22.8964 H   0  0  0  0  0  0
  -19.7893  -30.7269   24.2346 H   0  0  0  0  0  0
  -17.4972  -31.6294   24.5124 H   0  0  0  0  0  0
  -15.5335  -30.2999   23.7645 H   0  0  0  0  0  0
  -15.8656  -28.0788   22.7200 H   0  0  0  0  0  0
  -24.5891  -30.7219   25.7749 H   0  0  0  0  0  0
  -24.9054  -32.2886   26.5068 H   0  0  0  0  0  0
  -25.8100  -30.8762   27.0132 H   0  0  0  0  0  0
  -26.2888  -29.6837   24.1319 H   0  0  0  0  0  0
  -27.4143  -29.7435   25.4719 H   0  0  0  0  0  0
  -27.8753  -30.4390   23.9342 H   0  0  0  0  0  0
  -27.2606  -33.3713   26.2159 H   0  0  0  0  0  0
  -28.3835  -32.7157   25.0374 H   0  0  0  0  0  0
  -28.0754  -31.8581   26.5399 H   0  0  0  0  0  0
  -28.2555  -38.0174   24.7708 H   0  0  0  0  0  0
  -28.1199  -36.2733   24.6014 H   0  0  0  0  0  0
  -27.2388  -37.1129   25.8859 H   0  0  0  0  0  0
  -20.9239  -29.8794   21.6998 H   0  0  0  0  0  0
  -26.0143  -38.2849   24.1485 H   0  0  0  0  0  0
  -30.3736  -19.2398   18.2272 H   0  0  0  0  0  0
  -30.9129  -16.9440   18.8648 H   0  0  0  0  0  0
  -30.2996  -24.1527   16.9790 H   0  0  0  0  0  0
  -27.2347  -24.2314   18.4479 H   0  0  0  0  0  0
  -28.4856  -25.3518   17.9933 H   0  0  0  0  0  0
  -30.2897  -24.9113   20.7529 H   0  0  0  0  0  0
  -29.1972  -24.8448   22.0952 H   0  0  0  0  0  0
  -28.7748  -22.5213   21.7979 H   0  0  0  0  0  0
  -30.4105  -22.6125   21.1838 H   0  0  0  0  0  0
  -27.2746  -24.9161   20.6368 H   0  0  0  0  0  0
  -31.0988  -21.4404   18.2467 H   0  0  0  0  0  0
  -32.2344  -22.7269   17.8271 H   0  0  0  0  0  0
  -31.3442  -21.9155   16.5506 H   0  0  0  0  0  0
  -27.1315  -16.4401   24.1400 H   0  0  0  0  0  0
  -27.5551  -15.5719   22.6740 H   0  0  0  0  0  0
  -26.6723  -17.0924   22.5720 H   0  0  0  0  0  0
  -28.7433  -18.1985   23.7335 H   0  0  0  0  0  0
  -29.5972  -16.7417   23.4494 H   0  0  0  0  0  0
  -27.5030  -20.9267   19.6104 H   0  0  0  0  0  0
  -28.5876  -20.8837   18.2975 H   0  0  0  0  0  0
  -29.2480  -15.2422   21.7124 H   0  0  0  0  0  0
  -27.9386  -22.6598   19.8720 H   0  0  0  0  0  0
  1 25  1  0  0  0
  1 30  2  0  0  0
  1 87  1  0  0  0
  2  3  1  0  0  0
  2 25  1  0  0  0
  2 90  1  0  0  0
  2 91  1  0  0  0
  3  4  1  0  0  0
  3 92  1  0  0  0
  3 93  1  0  0  0
  4  5  1  0  0  0
  4 94  1  0  0  0
  4 95  1  0  0  0
  5  6  1  0  0  0
  5 26  1  0  0  0
  5 96  1  0  0  0
  6 25  1  0  0  0
  6 97  1  0  0  0
  6 98  1  0  0  0
  7  8  2  0  0  0
  7 26  1  0  0  0
  7 29  1  0  0  0
  8  9  1  0  0  0
  8 22  1  0  0  0
  9 10  1  0  0  0
  9 27  2  0  0  0
 10 11  2  0  0  0
 10 15  1  0  0  0
 11 12  1  0  0  0
 11 99  1  0  0  0
 12 13  2  0  0  0
 12100  1  0  0  0
 13 14  1  0  0  0
 13 31  1  0  0  0
 14 15  2  0  0  0
 14101  1  0  0  0
 15102  1  0  0  0
 16 17  2  0  0  0
 16 21  1  0  0  0
 16 31  1  0  0  0
 17 18  1  0  0  0
 17103  1  0  0  0
 18 19  2  0  0  0
 18104  1  0  0  0
 19 20  1  0  0  0
 19 24  1  0  0  0
 20 21  2  0  0  0
 20105  1  0  0  0
 21 23  1  0  0  0
 22 28  1  0  0  0
 22 32  2  0  0  0
 26 27  1  0  0  0
 28106  1  0  0  0
 28107  1  0  0  0
 29108  1  0  0  0
 29109  1  0  0  0
 33 34  1  0  0  0
 33 66  1  0  0  0
 33 70  2  0  0  0
 34 36  1  0  0  0
 34 59  1  0  0  0
 34110  1  0  0  0
 35 44  2  0  0  0
 35 45  1  0  0  0
 35 68  1  0  0  0
 36 56  1  0  0  0
 36111  1  0  0  0
 37 39  1  0  0  0
 37 47  1  0  0  0
 37 66  1  0  0  0
 37112  1  0  0  0
 38 43  2  0  0  0
 38 46  1  0  0  0
 38 47  1  0  0  0
 39 64  1  0  0  0
 39 67  2  0  0  0
 40 52  1  0  0  0
 40 53  2  0  0  0
 40 58  1  0  0  0
 41113  1  0  0  0
 41114  1  0  0  0
 41115  1  0  0  0
 41 48  1  0  0  0
 42 43  1  0  0  0
 42 66  1  0  0  0
 42116  1  0  0  0
 42117  1  0  0  0
 43 44  1  0  0  0
 44118  1  0  0  0
 45 46  2  0  0  0
 45119  1  0  0  0
 46120  1  0  0  0
 47121  1  0  0  0
 47122  1  0  0  0
 48 56  1  0  0  0
 48 65  1  0  0  0
 48123  1  0  0  0
 49 50  1  0  0  0
 49 53  1  0  0  0
 49 64  1  0  0  0
 49124  1  0  0  0
 50 51  1  0  0  0
 50125  1  0  0  0
 50126  1  0  0  0
 51 52  1  0  0  0
 51127  1  0  0  0
 51128  1  0  0  0
 52129  1  0  0  0
 52130  1  0  0  0
 53 54  1  0  0  0
 54 55  2  0  0  0
 54131  1  0  0  0
 55 57  1  0  0  0
 55132  1  0  0  0
 56 69  2  0  0  0
 57 58  2  0  0  0
 57133  1  0  0  0
 58134  1  0  0  0
 59 60  1  0  0  0
 59 61  1  0  0  0
 59 62  1  0  0  0
 60135  1  0  0  0
 60136  1  0  0  0
 60137  1  0  0  0
 61138  1  0  0  0
 61139  1  0  0  0
 61140  1  0  0  0
 62141  1  0  0  0
 62142  1  0  0  0
 62143  1  0  0  0
 63 65  1  0  0  0
 63144  1  0  0  0
 63145  1  0  0  0
 63146  1  0  0  0
 64147  1  0  0  0
 65148  1  0  0  0
 68 82  1  0  0  0
 71 72  2  0  0  0
 71 73  1  0  0  0
 71149  1  0  0  0
 72 75  1  0  0  0
 72150  1  0  0  0
 73 76  2  0  0  0
 73 86  1  0  0  0
 74 75  2  0  0  0
 74 76  1  0  0  0
 74 85  1  0  0  0
 75 87  1  0  0  0
 76 89  1  0  0  0
 77 78  2  0  0  0
 77 79  1  0  0  0
 77 88  1  0  0  0
 78 83  1  0  0  0
 78151  1  0  0  0
 79 82  1  0  0  0
 79152  1  0  0  0
 79153  1  0  0  0
 80 81  1  0  0  0
 80 82  1  0  0  0
 80154  1  0  0  0
 80155  1  0  0  0
 81 88  1  0  0  0
 81156  1  0  0  0
 81157  1  0  0  0
 82158  1  0  0  0
 83159  1  0  0  0
 83160  1  0  0  0
 83161  1  0  0  0
 84 85  1  0  0  0
 84162  1  0  0  0
 84163  1  0  0  0
 84164  1  0  0  0
 85165  1  0  0  0
 85166  1  0  0  0
 86167  1  0  0  0
 86168  1  0  0  0
 86 88  1  0  0  0
 87169  1  0  0  0
 88170  1  0  0  0
M  CHG  1  88   1
M  ISO  4   1 100  68 101  82 101  87 100
M  END
> <chiral flag>
0

> <version>
0

> <s_m_source_file>
/data/baiqing/PycharmProjects/Reinvent-master-3.2/result/LINK_invent/BTK/process_docking_weight1_custom_product_contain_oxygen_bond_distance_aromatic_linkinvent_7_9_3/rearranged_h_0036.sdf

> <i_m_source_file_index>
12

> <r_mmod_Potential_Energy-OPLS-2005>
-13.3512487411499

> <r_mmod_Stretch_Energy-OPLS-2005>
62.0204620361328

> <r_mmod_Bend_Energy-OPLS-2005>
189.053787231445

> <r_mmod_Torsional_Energy-OPLS-2005>
275.510528564453

> <r_mmod_Improper_Torsional_Energy-OPLS-2005>
6.26326894760132

> <r_mmod_Van_der_Waal_Energy-OPLS-2005>
151.449859619141

> <r_mmod_Electrostatic_Energy-OPLS-2005>
-294.533172607422

> <r_mmod_Solvation_Energy-OPLS-2005>
-428.806091308594

> <b_mmod_Minimization_Converged-OPLS-2005>
0

> <r_mmod_RMS_Derivative-OPLS-2005>
5.06597280502319

$$$$
12
                    3D
 Structure written by MMmdl.
173182  0  0  1  0            999 V2000
  -29.9191  -15.2576   20.5907 C   0  0  0  0  0  0
  -30.3922  -12.8574   19.6089 C   0  0  0  0  0  0
  -29.5375  -12.6191   18.3300 C   0  0  0  0  0  0
  -28.0761  -12.2849   18.6961 C   0  0  0  0  0  0
  -27.5688  -13.2004   19.8360 C   0  0  2  0  0  0
  -28.5226  -13.2291   21.0318 C   0  0  0  0  0  0
  -25.2268  -13.7833   20.5720 C   0  0  0  0  0  0
  -24.1559  -13.0213   20.9260 C   0  0  0  0  0  0
  -24.6130  -11.6710   20.8723 C   0  0  0  0  0  0
  -23.8867  -10.4170   21.0432 C   0  0  0  0  0  0
  -24.3503   -9.4149   21.9214 C   0  0  0  0  0  0
  -23.6220   -8.2181   22.0789 C   0  0  0  0  0  0
  -22.4218   -8.0202   21.3558 C   0  0  0  0  0  0
  -21.9786   -9.0149   20.4673 C   0  0  0  0  0  0
  -22.7067  -10.2033   20.3068 C   0  0  0  0  0  0
  -21.6835   -6.0692   22.5279 C   0  0  0  0  0  0
  -21.4013   -6.5625   23.8200 C   0  0  0  0  0  0
  -21.3649   -5.6791   24.9165 C   0  0  0  0  0  0
  -21.6037   -4.3053   24.7226 C   0  0  0  0  0  0
  -21.8829   -3.8131   23.4355 C   0  0  0  0  0  0
  -21.9197   -4.6931   22.3405 C   0  0  0  0  0  0
  -22.7678  -13.5154   21.1959 C   0  0  0  0  0  0
  -22.1677   -4.2121   21.0983 F   0  0  0  0  0  0
  -21.5610   -3.4543   25.7745 F   0  0  0  0  0  0
  -29.6980  -13.8682   20.5038 N   0  0  0  0  0  0
  -26.2410  -12.8960   20.2915 N   0  0  0  0  0  0
  -25.8962  -11.6178   20.5491 N   0  0  0  0  0  0
  -22.0284  -12.8186   22.0511 N   0  0  0  0  0  0
  -25.4202  -15.1441   20.4327 N   0  0  0  0  0  0
  -31.1005  -15.5278   20.2649 O   0  0  0  0  0  0
  -21.6614   -6.8800   21.4233 O   0  0  0  0  0  0
  -22.3491  -14.5527   20.6833 O   0  0  0  0  0  0
  -24.6689  -31.9460   23.2076 C   0  0  0  0  0  0
  -25.9570  -32.5060   23.8529 C   0  0  1  0  0  0
  -26.2568  -27.1524   20.3784 C   0  0  0  0  0  0
  -25.6428  -33.8815   24.2520 N   0  0  0  0  0  0
  -23.4473  -30.6171   21.5769 C   0  0  2  0  0  0
  -24.7746  -29.2154   19.8882 C   0  0  0  0  0  0
  -23.0195  -29.5764   22.6224 C   0  0  0  0  0  0
  -18.6071  -27.8316   22.4273 C   0  0  0  0  0  0
  -24.1521  -36.7334   23.2610 C   0  0  0  0  0  0
  -25.9783  -30.8075   21.3983 C   0  0  0  0  0  0
  -25.8971  -29.4699   20.6839 C   0  0  0  0  0  0
  -26.8014  -28.3993   20.8367 C   0  0  0  0  0  0
  -25.8159  -27.1646   19.0847 C   0  0  0  0  0  0
  -24.8077  -28.1347   18.9713 C   0  0  0  0  0  0
  -23.5662  -30.0719   20.1150 C   0  0  0  0  0  0
  -25.4156  -36.3210   24.0327 C   0  0  1  0  0  0
  -21.2278  -28.2365   23.5106 C   0  0  2  0  0  0
  -22.2205  -26.6356   23.0784 C   0  0  0  0  0  0
  -20.5951  -25.4251   21.3060 C   0  0  0  0  0  0
  -18.9867  -26.5184   21.3471 C   0  0  0  0  0  0
  -19.5984  -28.5713   23.2555 C   0  0  0  0  0  0
  -19.1442  -29.7848   23.9125 C   0  0  0  0  0  0
  -17.8154  -30.2667   23.9392 C   0  0  0  0  0  0
  -25.9189  -34.9610   23.5130 C   0  0  0  0  0  0
  -16.8335  -29.4860   23.3241 C   0  0  0  0  0  0
  -17.2286  -28.3133   22.6002 C   0  0  0  0  0  0
  -26.4581  -31.6655   25.0894 C   0  0  0  0  0  0
  -25.3655  -31.3783   26.1463 C   0  0  0  0  0  0
  -27.0343  -30.3047   24.6382 C   0  0  0  0  0  0
  -27.6142  -32.4238   25.7817 C   0  0  0  0  0  0
  -27.5616  -37.1876   24.8463 C   0  0  0  0  0  0
  -21.7477  -29.4612   22.9121 N   0  0  0  0  0  0
  -26.4320  -37.3909   23.9431 N   0  0  0  0  0  0
  -24.7182  -31.1912   22.0751 N   0  0  0  0  0  0
  -23.8370  -28.9144   23.2480 O   0  0  0  0  0  0
  -25.0889  -26.7172   21.1071 O   0  0  0  0  0  0
  -26.5559  -34.9033   22.4585 O   0  0  0  0  0  0
  -23.5887  -32.2245   23.7536 O   0  0  0  0  0  0
  -26.3096  -21.4263   22.3417 C   0  0  0  0  0  0
  -27.2988  -20.3472   22.0146 C   0  0  0  0  0  0
  -24.8610  -21.4733   22.1476 C   0  0  0  0  0  0
  -24.6072  -20.1780   21.4949 C   0  0  0  0  0  0
  -25.6214  -19.1328   21.0617 C   0  0  0  0  0  0
  -27.0662  -19.0320   21.3854 C   0  0  0  0  0  0
  -21.2394  -24.3795   23.5385 C   0  0  0  0  0  0
  -20.9752  -23.5646   24.5737 C   0  0  0  0  0  0
  -20.1959  -25.9324   23.3920 C   0  0  0  0  0  0
  -21.4733  -27.4176   21.1939 C   0  0  0  0  0  0
  -23.3088  -24.8071   21.2720 C   0  0  0  0  0  0
  -23.3151  -26.4991   20.8383 C   0  0  2  0  0  0
  -28.7456  -20.7088   22.3151 C   0  0  0  0  0  0
  -23.1342  -19.8688   21.2490 C   0  0  0  0  0  0
  -25.1199  -18.1544   20.0241 C   0  0  0  0  0  0
  -28.3662  -17.8809   20.8752 C   0  0  0  0  0  0
  -23.7393  -22.6588   22.8768 C   0  0  0  0  0  0
  -28.7892  -16.2285   20.9047 N   0  0  0  0  0  0
  -22.6577  -23.8950   22.4553 N   0  3  2  0  0  0
  -31.3927  -13.1981   19.3391 H   0  0  0  0  0  0
  -30.5373  -11.9199   20.1481 H   0  0  0  0  0  0
  -29.9717  -11.8251   17.7186 H   0  0  0  0  0  0
  -29.5572  -13.5205   17.7161 H   0  0  0  0  0  0
  -28.0374  -11.2423   19.0124 H   0  0  0  0  0  0
  -27.4305  -12.3669   17.8205 H   0  0  0  0  0  0
  -27.5155  -14.1942   19.3903 H   0  0  0  0  0  0
  -28.7245  -12.2333   21.4279 H   0  0  0  0  0  0
  -28.1083  -13.8105   21.8593 H   0  0  0  0  0  0
  -25.2644   -9.5700   22.4772 H   0  0  0  0  0  0
  -23.9957   -7.4600   22.7521 H   0  0  0  0  0  0
  -21.0708   -8.8639   19.9002 H   0  0  0  0  0  0
  -22.3509  -10.9573   19.6190 H   0  0  0  0  0  0
  -21.2030   -7.6143   23.9673 H   0  0  0  0  0  0
  -21.1453   -6.0544   25.9056 H   0  0  0  0  0  0
  -22.0622   -2.7595   23.2858 H   0  0  0  0  0  0
  -22.3821  -11.9798   22.4879 H   0  0  0  0  0  0
  -21.0918  -13.1285   22.2676 H   0  0  0  0  0  0
  -24.6316  -15.7745   20.5007 H   0  0  0  0  0  0
  -26.2150  -15.5476   19.9601 H   0  0  0  0  0  0
  -26.7702  -32.5540   23.1306 H   0  0  0  0  0  0
  -25.0710  -33.9958   25.0767 H   0  0  0  0  0  0
  -22.6904  -31.4041   21.5510 H   0  0  0  0  0  0
  -23.3834  -35.9612   23.3246 H   0  0  0  0  0  0
  -24.3621  -36.8964   22.2027 H   0  0  0  0  0  0
  -23.7182  -37.6507   23.6614 H   0  0  0  0  0  0
  -26.2260  -31.5785   20.6665 H   0  0  0  0  0  0
  -26.8289  -30.7370   22.0646 H   0  0  0  0  0  0
  -27.5819  -28.4489   21.5824 H   0  0  0  0  0  0
  -25.6769  -26.2494   18.5269 H   0  0  0  0  0  0
  -24.0169  -27.9999   18.2469 H   0  0  0  0  0  0
  -23.6294  -30.9171   19.4301 H   0  0  0  0  0  0
  -22.6724  -29.5383   19.8060 H   0  0  0  0  0  0
  -25.1302  -36.2095   25.0815 H   0  0  0  0  0  0
  -21.3796  -28.3821   24.5818 H   0  0  0  0  0  0
  -22.3813  -26.2616   24.1013 H   0  0  0  0  0  0
  -23.3013  -26.7026   23.0307 H   0  0  0  0  0  0
  -20.2650  -24.3895   21.4370 H   0  0  0  0  0  0
  -20.9490  -25.2938   20.2787 H   0  0  0  0  0  0
  -18.8586  -26.9445   20.3516 H   0  0  0  0  0  0
  -18.1469  -25.8261   21.3967 H   0  0  0  0  0  0
  -19.8701  -30.3539   24.4753 H   0  0  0  0  0  0
  -17.5630  -31.1735   24.4677 H   0  0  0  0  0  0
  -15.7941  -29.7862   23.3516 H   0  0  0  0  0  0
  -16.4446  -27.7845   22.0746 H   0  0  0  0  0  0
  -24.5843  -30.7206   25.7609 H   0  0  0  0  0  0
  -24.8862  -32.2946   26.4928 H   0  0  0  0  0  0
  -25.7838  -30.8836   27.0242 H   0  0  0  0  0  0
  -26.2936  -29.6921   24.1235 H   0  0  0  0  0  0
  -27.3752  -29.7212   25.4944 H   0  0  0  0  0  0
  -27.8973  -30.4244   23.9829 H   0  0  0  0  0  0
  -27.2788  -33.3519   26.2467 H   0  0  0  0  0  0
  -28.4031  -32.6789   25.0723 H   0  0  0  0  0  0
  -28.0697  -31.8248   26.5712 H   0  0  0  0  0  0
  -28.2604  -38.0212   24.7622 H   0  0  0  0  0  0
  -28.1161  -36.2755   24.6177 H   0  0  0  0  0  0
  -27.2344  -37.1386   25.8868 H   0  0  0  0  0  0
  -21.0745  -30.0958   22.5036 H   0  0  0  0  0  0
  -26.0199  -38.2985   24.1480 H   0  0  0  0  0  0
  -26.7140  -22.3073   22.8237 H   0  0  0  0  0  0
  -20.1791  -23.8030   25.2637 H   0  0  0  0  0  0
  -21.5276  -22.6633   24.7736 H   0  0  0  0  0  0
  -20.1753  -26.3407   24.4073 H   0  0  0  0  0  0
  -19.1814  -25.5255   23.3718 H   0  0  0  0  0  0
  -21.2939  -28.4608   20.9854 H   0  0  0  0  0  0
  -21.0468  -27.3219   20.1867 H   0  0  0  0  0  0
  -24.3587  -24.5055   21.2514 H   0  0  0  0  0  0
  -22.9387  -24.2998   20.3831 H   0  0  0  0  0  0
  -23.2564  -26.4204   19.7574 H   0  0  0  0  0  0
  -28.8475  -21.7191   22.7135 H   0  0  0  0  0  0
  -29.3434  -20.6778   21.4030 H   0  0  0  0  0  0
  -29.1826  -20.0268   23.0433 H   0  0  0  0  0  0
  -22.4801  -20.4791   21.8725 H   0  0  0  0  0  0
  -22.9044  -18.8354   21.5105 H   0  0  0  0  0  0
  -22.8607  -20.0363   20.2061 H   0  0  0  0  0  0
  -24.6742  -18.6974   19.1897 H   0  0  0  0  0  0
  -24.3595  -17.4915   20.4315 H   0  0  0  0  0  0
  -25.9359  -17.5795   19.5924 H   0  0  0  0  0  0
  -29.2833  -18.3399   21.2415 H   0  0  0  0  0  0
  -28.4065  -18.0904   19.8062 H   0  0  0  0  0  0
  -24.3917  -23.1745   23.5812 H   0  0  0  0  0  0
  -23.1476  -22.0180   23.5229 H   0  0  0  0  0  0
  -27.9759  -15.6938   21.1643 H   0  0  0  0  0  0
  -22.1442  -23.3008   21.8204 H   0  0  0  0  0  0
  1 25  1  0  0  0
  1 30  2  0  0  0
  1 88  1  0  0  0
  2  3  1  0  0  0
  2 25  1  0  0  0
  2 90  1  0  0  0
  2 91  1  0  0  0
  3  4  1  0  0  0
  3 92  1  0  0  0
  3 93  1  0  0  0
  4  5  1  0  0  0
  4 94  1  0  0  0
  4 95  1  0  0  0
  5  6  1  0  0  0
  5 26  1  0  0  0
  5 96  1  0  0  0
  6 25  1  0  0  0
  6 97  1  0  0  0
  6 98  1  0  0  0
  7  8  2  0  0  0
  7 26  1  0  0  0
  7 29  1  0  0  0
  8  9  1  0  0  0
  8 22  1  0  0  0
  9 10  1  0  0  0
  9 27  2  0  0  0
 10 11  2  0  0  0
 10 15  1  0  0  0
 11 12  1  0  0  0
 11 99  1  0  0  0
 12 13  2  0  0  0
 12100  1  0  0  0
 13 14  1  0  0  0
 13 31  1  0  0  0
 14 15  2  0  0  0
 14101  1  0  0  0
 15102  1  0  0  0
 16 17  2  0  0  0
 16 21  1  0  0  0
 16 31  1  0  0  0
 17 18  1  0  0  0
 17103  1  0  0  0
 18 19  2  0  0  0
 18104  1  0  0  0
 19 20  1  0  0  0
 19 24  1  0  0  0
 20 21  2  0  0  0
 20105  1  0  0  0
 21 23  1  0  0  0
 22 28  1  0  0  0
 22 32  2  0  0  0
 26 27  1  0  0  0
 28106  1  0  0  0
 28107  1  0  0  0
 29108  1  0  0  0
 29109  1  0  0  0
 33 34  1  0  0  0
 33 66  1  0  0  0
 33 70  2  0  0  0
 34 36  1  0  0  0
 34 59  1  0  0  0
 34110  1  0  0  0
 35 44  2  0  0  0
 35 45  1  0  0  0
 35 68  1  0  0  0
 36 56  1  0  0  0
 36111  1  0  0  0
 37 39  1  0  0  0
 37 47  1  0  0  0
 37 66  1  0  0  0
 37112  1  0  0  0
 38 43  2  0  0  0
 38 46  1  0  0  0
 38 47  1  0  0  0
 39 64  1  0  0  0
 39 67  2  0  0  0
 40 52  1  0  0  0
 40 53  2  0  0  0
 40 58  1  0  0  0
 41113  1  0  0  0
 41114  1  0  0  0
 41115  1  0  0  0
 41 48  1  0  0  0
 42 43  1  0  0  0
 42 66  1  0  0  0
 42116  1  0  0  0
 42117  1  0  0  0
 43 44  1  0  0  0
 44118  1  0  0  0
 45 46  2  0  0  0
 45119  1  0  0  0
 46120  1  0  0  0
 47121  1  0  0  0
 47122  1  0  0  0
 48 56  1  0  0  0
 48 65  1  0  0  0
 48123  1  0  0  0
 49 50  1  0  0  0
 49 53  1  0  0  0
 49 64  1  0  0  0
 49124  1  0  0  0
 50 51  1  0  0  0
 50125  1  0  0  0
 50126  1  0  0  0
 51 52  1  0  0  0
 51127  1  0  0  0
 51128  1  0  0  0
 52129  1  0  0  0
 52130  1  0  0  0
 53 54  1  0  0  0
 54 55  2  0  0  0
 54131  1  0  0  0
 55 57  1  0  0  0
 55132  1  0  0  0
 56 69  2  0  0  0
 57 58  2  0  0  0
 57133  1  0  0  0
 58134  1  0  0  0
 59 60  1  0  0  0
 59 61  1  0  0  0
 59 62  1  0  0  0
 60135  1  0  0  0
 60136  1  0  0  0
 60137  1  0  0  0
 61138  1  0  0  0
 61139  1  0  0  0
 61140  1  0  0  0
 62141  1  0  0  0
 62142  1  0  0  0
 62143  1  0  0  0
 63 65  1  0  0  0
 63144  1  0  0  0
 63145  1  0  0  0
 63146  1  0  0  0
 64147  1  0  0  0
 65148  1  0  0  0
 68 82  1  0  0  0
 71 72  2  0  0  0
 71 73  1  0  0  0
 71149  1  0  0  0
 72 76  1  0  0  0
 72 83  1  0  0  0
 73 74  2  0  0  0
 73 87  1  0  0  0
 74 75  1  0  0  0
 74 84  1  0  0  0
 75 76  2  0  0  0
 75 85  1  0  0  0
 76 86  1  0  0  0
 77 78  2  0  0  0
 77 79  1  0  0  0
 77 89  1  0  0  0
 78150  1  0  0  0
 78151  1  0  0  0
 79 80  1  0  0  0
 79152  1  0  0  0
 79153  1  0  0  0
 80 82  1  0  0  0
 80154  1  0  0  0
 80155  1  0  0  0
 81 82  1  0  0  0
 81 89  1  0  0  0
 81156  1  0  0  0
 81157  1  0  0  0
 82158  1  0  0  0
 83159  1  0  0  0
 83160  1  0  0  0
 83161  1  0  0  0
 84162  1  0  0  0
 84163  1  0  0  0
 84164  1  0  0  0
 85165  1  0  0  0
 85166  1  0  0  0
 85167  1  0  0  0
 86 88  1  0  0  0
 86168  1  0  0  0
 86169  1  0  0  0
 87170  1  0  0  0
 87171  1  0  0  0
 87 89  1  0  0  0
 88172  1  0  0  0
 89173  1  0  0  0
M  CHG  1  89   1
M  ISO  4   1 100  68 101  82 101  88 100
M  END
> <chiral flag>
0

> <version>
0

> <s_m_source_file>
/data/baiqing/PycharmProjects/Reinvent-master-3.2/result/LINK_invent/BTK/process_docking_weight1_custom_product_contain_oxygen_bond_distance_aromatic_linkinvent_7_9_3/rearranged_h_0036.sdf

> <i_m_source_file_index>
13

> <r_mmod_Potential_Energy-OPLS-2005>
11865.87109375

> <r_mmod_Stretch_Energy-OPLS-2005>
5895.87255859375

> <r_mmod_Bend_Energy-OPLS-2005>
1146.82666015625

> <r_mmod_Torsional_Energy-OPLS-2005>
513.454467773438

> <r_mmod_Improper_Torsional_Energy-OPLS-2005>
40.9189147949219

> <r_mmod_Van_der_Waal_Energy-OPLS-2005>
2118.60498046875

> <r_mmod_Electrostatic_Energy-OPLS-2005>
-350.300628662109

> <r_mmod_Solvation_Energy-OPLS-2005>
-405.891357421875

> <b_mmod_Minimization_Converged-OPLS-2005>
0

> <r_mmod_RMS_Derivative-OPLS-2005>
7.09234571456909

$$$$
13
                    3D
 Structure written by MMmdl.
170179  0  0  1  0            999 V2000
  -30.6687  -14.5578   20.4470 C   0  0  0  0  0  0
  -30.4216  -12.3316   19.4407 C   0  0  0  0  0  0
  -29.4975  -12.4810   18.2136 C   0  0  0  0  0  0
  -28.0192  -12.3389   18.6270 C   0  0  0  0  0  0
  -27.6497  -13.2144   19.8544 C   0  0  2  0  0  0
  -28.6964  -13.0778   20.9831 C   0  0  0  0  0  0
  -25.2555  -13.8176   20.5683 C   0  0  0  0  0  0
  -24.1828  -13.0444   20.9206 C   0  0  0  0  0  0
  -24.6391  -11.6913   20.8751 C   0  0  0  0  0  0
  -23.9062  -10.4294   21.0412 C   0  0  0  0  0  0
  -24.3614   -9.4208   21.9187 C   0  0  0  0  0  0
  -23.6291   -8.2242   22.0753 C   0  0  0  0  0  0
  -22.4273   -8.0279   21.3543 C   0  0  0  0  0  0
  -21.9910   -9.0256   20.4646 C   0  0  0  0  0  0
  -22.7236  -10.2138   20.3059 C   0  0  0  0  0  0
  -21.6853   -6.0736   22.5279 C   0  0  0  0  0  0
  -21.4014   -6.5640   23.8213 C   0  0  0  0  0  0
  -21.3660   -5.6792   24.9175 C   0  0  0  0  0  0
  -21.6044   -4.3055   24.7226 C   0  0  0  0  0  0
  -21.8819   -3.8148   23.4346 C   0  0  0  0  0  0
  -21.9193   -4.6964   22.3403 C   0  0  0  0  0  0
  -22.7850  -13.5235   21.1867 C   0  0  0  0  0  0
  -22.1662   -4.2149   21.0980 F   0  0  0  0  0  0
  -21.5628   -3.4538   25.7739 F   0  0  0  0  0  0
  -30.0179  -13.3625   20.4090 N   0  0  0  0  0  0
  -26.2973  -12.9352   20.3292 N   0  0  0  0  0  0
  -25.9313  -11.6511   20.5757 N   0  0  0  0  0  0
  -22.0490  -12.8223   22.0416 N   0  0  0  0  0  0
  -25.4259  -15.1899   20.4080 N   0  0  0  0  0  0
  -31.8822  -14.6450   20.2566 O   0  0  0  0  0  0
  -21.6637   -6.8877   21.4240 O   0  0  0  0  0  0
  -22.3539  -14.5543   20.6715 O   0  0  0  0  0  0
  -24.6191  -31.8652   23.2084 C   0  0  0  0  0  0
  -25.9068  -32.4808   23.8383 C   0  0  1  0  0  0
  -27.2332  -27.3947   20.0858 C   0  0  0  0  0  0
  -25.5908  -33.8607   24.2312 N   0  0  0  0  0  0
  -23.4084  -30.4898   21.5506 C   0  0  2  0  0  0
  -24.8528  -28.9503   20.1186 C   0  0  0  0  0  0
  -22.7430  -29.4650   22.4982 C   0  0  0  0  0  0
  -18.0274  -28.1379   22.8492 C   0  0  0  0  0  0
  -24.1487  -36.7311   23.2637 C   0  0  0  0  0  0
  -25.9432  -30.8149   21.3702 C   0  0  0  0  0  0
  -26.0182  -29.4459   20.7172 C   0  0  0  0  0  0
  -27.2085  -28.6727   20.7048 C   0  0  0  0  0  0
  -26.0323  -26.9123   19.5151 C   0  0  0  0  0  0
  -24.8553  -27.6814   19.5191 C   0  0  0  0  0  0
  -23.6192  -29.8245   20.1656 C   0  0  0  0  0  0
  -25.4109  -36.3103   24.0333 C   0  0  1  0  0  0
  -20.5867  -28.3671   23.1312 C   0  0  2  0  0  0
  -20.6766  -26.9403   22.5419 C   0  0  0  0  0  0
  -19.5745  -26.6385   21.5214 C   0  0  0  0  0  0
  -18.1923  -26.7926   22.1624 C   0  0  0  0  0  0
  -19.1523  -28.8843   23.2898 C   0  0  0  0  0  0
  -18.9449  -30.1450   23.8905 C   0  0  0  0  0  0
  -17.6450  -30.6585   24.0568 C   0  0  0  0  0  0
  -25.9040  -34.9469   23.5121 C   0  0  0  0  0  0
  -16.5343  -29.9086   23.6329 C   0  0  0  0  0  0
  -16.7262  -28.6505   23.0348 C   0  0  0  0  0  0
  -26.4480  -31.6596   25.0724 C   0  0  0  0  0  0
  -25.3734  -31.3710   26.1464 C   0  0  0  0  0  0
  -27.0318  -30.3031   24.6132 C   0  0  0  0  0  0
  -27.6048  -32.4322   25.7488 C   0  0  0  0  0  0
  -27.5583  -37.1807   24.8459 C   0  0  0  0  0  0
  -21.4152  -29.3034   22.3717 N   0  0  0  0  0  0
  -26.4292  -37.3791   23.9408 N   0  0  0  0  0  0
  -24.6754  -31.0717   22.1009 N   0  0  0  0  0  0
  -23.4183  -28.8188   23.3037 O   0  0  0  0  0  0
  -28.3903  -26.6210   20.0750 O   0  0  0  0  0  0
  -26.5603  -34.8923   22.4684 O   0  0  0  0  0  0
  -23.5373  -32.1425   23.7454 O   0  0  0  0  0  0
  -30.7706  -19.6400   19.0740 C   0  0  0  0  0  0
  -31.2985  -18.5240   18.4115 C   0  0  0  0  0  0
  -29.8140  -19.4852   20.1007 C   0  0  0  0  0  0
  -29.5603  -18.1519   20.5851 C   0  0  0  0  0  0
  -30.1599  -16.9982   19.9620 C   0  0  0  0  0  0
  -30.9504  -17.2186   18.7922 C   0  0  0  0  0  0
  -28.4880  -23.3090   19.9871 C   0  0  0  0  0  0
  -27.7314  -23.6526   21.0528 C   0  0  0  0  0  0
  -28.7228  -22.2716   17.2173 C   0  0  0  0  0  0
  -28.5189  -23.7705   17.4753 C   0  0  0  0  0  0
  -28.1826  -21.4427   18.3858 C   0  0  0  0  0  0
  -28.9799  -24.2818   18.8735 C   0  0  1  0  0  0
  -28.6303  -17.9544   21.7775 C   0  0  0  0  0  0
  -27.1354  -22.7476   22.1116 C   0  0  0  0  0  0
  -29.0792  -20.7665   20.6237 C   0  0  0  0  0  0
  -28.6501  -25.8368   18.8871 C   0  0  0  0  0  0
  -29.8708  -15.6599   20.4542 N   0  0  0  0  0  0
  -28.8956  -21.8719   19.6093 N   0  3  1  0  0  0
  -31.4385  -15.9679   17.6960 Cl  0  0  0  0  0  0
  -31.4665  -12.4291   19.1405 H   0  0  0  0  0  0
  -30.3233  -11.3389   19.8823 H   0  0  0  0  0  0
  -29.7473  -11.7330   17.4601 H   0  0  0  0  0  0
  -29.6566  -13.4527   17.7433 H   0  0  0  0  0  0
  -27.8439  -11.2876   18.8581 H   0  0  0  0  0  0
  -27.3673  -12.5758   17.7853 H   0  0  0  0  0  0
  -27.6641  -14.2465   19.5052 H   0  0  0  0  0  0
  -28.6830  -12.0710   21.4029 H   0  0  0  0  0  0
  -28.4698  -13.7556   21.8081 H   0  0  0  0  0  0
  -25.2759   -9.5685   22.4763 H   0  0  0  0  0  0
  -24.0002   -7.4633   22.7470 H   0  0  0  0  0  0
  -21.0842   -8.8776   19.8949 H   0  0  0  0  0  0
  -22.3694  -10.9680   19.6170 H   0  0  0  0  0  0
  -21.2004   -7.6148   23.9718 H   0  0  0  0  0  0
  -21.1483   -6.0521   25.9079 H   0  0  0  0  0  0
  -22.0597   -2.7609   23.2848 H   0  0  0  0  0  0
  -22.4104  -11.9880   22.4801 H   0  0  0  0  0  0
  -21.1107  -13.1248   22.2620 H   0  0  0  0  0  0
  -24.6525  -15.8381   20.5089 H   0  0  0  0  0  0
  -26.2619  -15.6275   20.0444 H   0  0  0  0  0  0
  -26.7133  -32.5505   23.1137 H   0  0  0  0  0  0
  -25.0053  -33.9760   25.0454 H   0  0  0  0  0  0
  -22.6987  -31.3080   21.4110 H   0  0  0  0  0  0
  -23.3749  -35.9644   23.3298 H   0  0  0  0  0  0
  -24.3578  -36.8931   22.2051 H   0  0  0  0  0  0
  -23.7239  -37.6513   23.6659 H   0  0  0  0  0  0
  -26.0622  -31.5789   20.6007 H   0  0  0  0  0  0
  -26.8288  -30.8664   21.9919 H   0  0  0  0  0  0
  -28.1091  -29.0538   21.1660 H   0  0  0  0  0  0
  -25.9845  -25.9262   19.0759 H   0  0  0  0  0  0
  -23.9546  -27.2849   19.0709 H   0  0  0  0  0  0
  -23.7342  -30.6001   19.4076 H   0  0  0  0  0  0
  -22.7408  -29.2500   19.8664 H   0  0  0  0  0  0
  -25.1286  -36.1965   25.0826 H   0  0  0  0  0  0
  -20.9951  -28.3237   24.1436 H   0  0  0  0  0  0
  -20.5676  -26.2273   23.3605 H   0  0  0  0  0  0
  -21.6638  -26.7449   22.1211 H   0  0  0  0  0  0
  -19.6908  -25.6299   21.1236 H   0  0  0  0  0  0
  -19.6688  -27.3202   20.6750 H   0  0  0  0  0  0
  -17.4195  -26.6677   21.4022 H   0  0  0  0  0  0
  -18.0321  -26.0062   22.9014 H   0  0  0  0  0  0
  -19.7923  -30.7267   24.2275 H   0  0  0  0  0  0
  -17.5004  -31.6265   24.5171 H   0  0  0  0  0  0
  -15.5343  -30.2993   23.7650 H   0  0  0  0  0  0
  -15.8661  -28.0833   22.7052 H   0  0  0  0  0  0
  -24.5911  -30.7051   25.7799 H   0  0  0  0  0  0
  -24.8918  -32.2868   26.4903 H   0  0  0  0  0  0
  -25.8079  -30.8884   27.0228 H   0  0  0  0  0  0
  -26.2876  -29.6784   24.1178 H   0  0  0  0  0  0
  -27.4061  -29.7276   25.4610 H   0  0  0  0  0  0
  -27.8724  -30.4332   23.9310 H   0  0  0  0  0  0
  -27.2660  -33.3612   26.2085 H   0  0  0  0  0  0
  -28.3846  -32.6899   25.0308 H   0  0  0  0  0  0
  -28.0731  -31.8435   26.5386 H   0  0  0  0  0  0
  -28.2595  -38.0111   24.7524 H   0  0  0  0  0  0
  -28.1085  -36.2643   24.6267 H   0  0  0  0  0  0
  -27.2302  -37.1437   25.8861 H   0  0  0  0  0  0
  -20.9314  -29.8759   21.6941 H   0  0  0  0  0  0
  -26.0181  -38.2867   24.1420 H   0  0  0  0  0  0
  -31.0596  -20.6160   18.7123 H   0  0  0  0  0  0
  -31.9408  -18.6729   17.5553 H   0  0  0  0  0  0
  -27.4907  -24.6941   21.1975 H   0  0  0  0  0  0
  -29.7813  -22.0594   17.0592 H   0  0  0  0  0  0
  -28.2175  -21.9840   16.2943 H   0  0  0  0  0  0
  -27.4529  -23.9766   17.3603 H   0  0  0  0  0  0
  -29.0171  -24.3374   16.6869 H   0  0  0  0  0  0
  -28.3197  -20.3852   18.1627 H   0  0  0  0  0  0
  -27.1086  -21.5873   18.5127 H   0  0  0  0  0  0
  -30.0681  -24.2103   18.9205 H   0  0  0  0  0  0
  -28.6909  -18.7887   22.4756 H   0  0  0  0  0  0
  -28.8831  -17.0660   22.3556 H   0  0  0  0  0  0
  -27.5973  -17.8590   21.4421 H   0  0  0  0  0  0
  -26.5720  -21.9294   21.6640 H   0  0  0  0  0  0
  -26.4351  -23.3178   22.7228 H   0  0  0  0  0  0
  -27.9040  -22.3510   22.7752 H   0  0  0  0  0  0
  -29.6344  -21.1544   21.4781 H   0  0  0  0  0  0
  -28.0956  -20.4712   20.9814 H   0  0  0  0  0  0
  -27.9176  -26.0581   18.1120 H   0  0  0  0  0  0
  -29.5356  -26.3163   18.4680 H   0  0  0  0  0  0
  -28.9230  -15.4978   20.7517 H   0  0  0  0  0  0
  -29.8472  -21.9562   19.2904 H   0  0  0  0  0  0
  1 25  1  0  0  0
  1 30  2  0  0  0
  1 87  1  0  0  0
  2  3  1  0  0  0
  2 25  1  0  0  0
  2 90  1  0  0  0
  2 91  1  0  0  0
  3  4  1  0  0  0
  3 92  1  0  0  0
  3 93  1  0  0  0
  4  5  1  0  0  0
  4 94  1  0  0  0
  4 95  1  0  0  0
  5  6  1  0  0  0
  5 26  1  0  0  0
  5 96  1  0  0  0
  6 25  1  0  0  0
  6 97  1  0  0  0
  6 98  1  0  0  0
  7  8  2  0  0  0
  7 26  1  0  0  0
  7 29  1  0  0  0
  8  9  1  0  0  0
  8 22  1  0  0  0
  9 10  1  0  0  0
  9 27  2  0  0  0
 10 11  2  0  0  0
 10 15  1  0  0  0
 11 12  1  0  0  0
 11 99  1  0  0  0
 12 13  2  0  0  0
 12100  1  0  0  0
 13 14  1  0  0  0
 13 31  1  0  0  0
 14 15  2  0  0  0
 14101  1  0  0  0
 15102  1  0  0  0
 16 17  2  0  0  0
 16 21  1  0  0  0
 16 31  1  0  0  0
 17 18  1  0  0  0
 17103  1  0  0  0
 18 19  2  0  0  0
 18104  1  0  0  0
 19 20  1  0  0  0
 19 24  1  0  0  0
 20 21  2  0  0  0
 20105  1  0  0  0
 21 23  1  0  0  0
 22 28  1  0  0  0
 22 32  2  0  0  0
 26 27  1  0  0  0
 28106  1  0  0  0
 28107  1  0  0  0
 29108  1  0  0  0
 29109  1  0  0  0
 33 34  1  0  0  0
 33 66  1  0  0  0
 33 70  2  0  0  0
 34 36  1  0  0  0
 34 59  1  0  0  0
 34110  1  0  0  0
 35 44  2  0  0  0
 35 45  1  0  0  0
 35 68  1  0  0  0
 36 56  1  0  0  0
 36111  1  0  0  0
 37 39  1  0  0  0
 37 47  1  0  0  0
 37 66  1  0  0  0
 37112  1  0  0  0
 38 43  2  0  0  0
 38 46  1  0  0  0
 38 47  1  0  0  0
 39 64  1  0  0  0
 39 67  2  0  0  0
 40 52  1  0  0  0
 40 53  2  0  0  0
 40 58  1  0  0  0
 41113  1  0  0  0
 41114  1  0  0  0
 41115  1  0  0  0
 41 48  1  0  0  0
 42 43  1  0  0  0
 42 66  1  0  0  0
 42116  1  0  0  0
 42117  1  0  0  0
 43 44  1  0  0  0
 44118  1  0  0  0
 45 46  2  0  0  0
 45119  1  0  0  0
 46120  1  0  0  0
 47121  1  0  0  0
 47122  1  0  0  0
 48 56  1  0  0  0
 48 65  1  0  0  0
 48123  1  0  0  0
 49 50  1  0  0  0
 49 53  1  0  0  0
 49 64  1  0  0  0
 49124  1  0  0  0
 50 51  1  0  0  0
 50125  1  0  0  0
 50126  1  0  0  0
 51 52  1  0  0  0
 51127  1  0  0  0
 51128  1  0  0  0
 52129  1  0  0  0
 52130  1  0  0  0
 53 54  1  0  0  0
 54 55  2  0  0  0
 54131  1  0  0  0
 55 57  1  0  0  0
 55132  1  0  0  0
 56 69  2  0  0  0
 57 58  2  0  0  0
 57133  1  0  0  0
 58134  1  0  0  0
 59 60  1  0  0  0
 59 61  1  0  0  0
 59 62  1  0  0  0
 60135  1  0  0  0
 60136  1  0  0  0
 60137  1  0  0  0
 61138  1  0  0  0
 61139  1  0  0  0
 61140  1  0  0  0
 62141  1  0  0  0
 62142  1  0  0  0
 62143  1  0  0  0
 63 65  1  0  0  0
 63144  1  0  0  0
 63145  1  0  0  0
 63146  1  0  0  0
 64147  1  0  0  0
 65148  1  0  0  0
 68 86  1  0  0  0
 71 72  2  0  0  0
 71 73  1  0  0  0
 71149  1  0  0  0
 72 76  1  0  0  0
 72150  1  0  0  0
 73 74  2  0  0  0
 73 85  1  0  0  0
 74 75  1  0  0  0
 74 83  1  0  0  0
 75 76  2  0  0  0
 75 87  1  0  0  0
 76 89  1  0  0  0
 77 78  2  0  0  0
 77 82  1  0  0  0
 77 88  1  0  0  0
 78 84  1  0  0  0
 78151  1  0  0  0
 79 80  1  0  0  0
 79 81  1  0  0  0
 79152  1  0  0  0
 79153  1  0  0  0
 80 82  1  0  0  0
 80154  1  0  0  0
 80155  1  0  0  0
 81 88  1  0  0  0
 81156  1  0  0  0
 81157  1  0  0  0
 82 86  1  0  0  0
 82158  1  0  0  0
 83159  1  0  0  0
 83160  1  0  0  0
 83161  1  0  0  0
 84162  1  0  0  0
 84163  1  0  0  0
 84164  1  0  0  0
 85165  1  0  0  0
 85166  1  0  0  0
 85 88  1  0  0  0
 86167  1  0  0  0
 86168  1  0  0  0
 87169  1  0  0  0
 88170  1  0  0  0
M  CHG  1  88   1
M  ISO  4   1 100  68 101  86 101  87 100
M  END
> <chiral flag>
0

> <version>
0

> <s_m_source_file>
/data/baiqing/PycharmProjects/Reinvent-master-3.2/result/LINK_invent/BTK/process_docking_weight1_custom_product_contain_oxygen_bond_distance_aromatic_linkinvent_7_9_3/rearranged_h_0036.sdf

> <i_m_source_file_index>
14

> <r_mmod_Potential_Energy-OPLS-2005>
2.90643882751465

> <r_mmod_Stretch_Energy-OPLS-2005>
68.5625152587891

> <r_mmod_Bend_Energy-OPLS-2005>
164.546630859375

> <r_mmod_Torsional_Energy-OPLS-2005>
284.893035888672

> <r_mmod_Improper_Torsional_Energy-OPLS-2005>
6.73349523544312

> <r_mmod_Van_der_Waal_Energy-OPLS-2005>
166.769424438477

> <r_mmod_Electrostatic_Energy-OPLS-2005>
-276.299377441406

> <r_mmod_Solvation_Energy-OPLS-2005>
-444.380065917969

> <b_mmod_Minimization_Converged-OPLS-2005>
0

> <r_mmod_RMS_Derivative-OPLS-2005>
0.425035536289215

$$$$
14
                    3D
 Structure written by MMmdl.
159167  0  0  1  0            999 V2000
  -30.6560  -14.5394   20.5065 C   0  0  0  0  0  0
  -30.4389  -12.3347   19.4381 C   0  0  0  0  0  0
  -29.5035  -12.4893   18.2215 C   0  0  0  0  0  0
  -28.0243  -12.3479   18.6361 C   0  0  0  0  0  0
  -27.6588  -13.2020   19.8796 C   0  0  2  0  0  0
  -28.7055  -13.0247   21.0012 C   0  0  0  0  0  0
  -25.2568  -13.8143   20.5671 C   0  0  0  0  0  0
  -24.1819  -13.0418   20.9174 C   0  0  0  0  0  0
  -24.6392  -11.6904   20.8807 C   0  0  0  0  0  0
  -23.9073  -10.4287   21.0429 C   0  0  0  0  0  0
  -24.3612   -9.4188   21.9183 C   0  0  0  0  0  0
  -23.6290   -8.2230   22.0752 C   0  0  0  0  0  0
  -22.4267   -8.0273   21.3532 C   0  0  0  0  0  0
  -21.9912   -9.0258   20.4642 C   0  0  0  0  0  0
  -22.7253  -10.2138   20.3056 C   0  0  0  0  0  0
  -21.6849   -6.0739   22.5285 C   0  0  0  0  0  0
  -21.4018   -6.5637   23.8220 C   0  0  0  0  0  0
  -21.3658   -5.6787   24.9177 C   0  0  0  0  0  0
  -21.6035   -4.3050   24.7218 C   0  0  0  0  0  0
  -21.8834   -3.8156   23.4341 C   0  0  0  0  0  0
  -21.9200   -4.6964   22.3398 C   0  0  0  0  0  0
  -22.7839  -13.5231   21.1838 C   0  0  0  0  0  0
  -22.1657   -4.2152   21.0972 F   0  0  0  0  0  0
  -21.5630   -3.4533   25.7732 F   0  0  0  0  0  0
  -30.0241  -13.3380   20.4276 N   0  0  0  0  0  0
  -26.3023  -12.9316   20.3448 N   0  0  0  0  0  0
  -25.9331  -11.6481   20.5879 N   0  0  0  0  0  0
  -22.0487  -12.8236   22.0432 N   0  0  0  0  0  0
  -25.4247  -15.1858   20.4011 N   0  0  0  0  0  0
  -31.8275  -14.7025   20.1567 O   0  0  0  0  0  0
  -21.6636   -6.8871   21.4245 O   0  0  0  0  0  0
  -22.3514  -14.5510   20.6667 O   0  0  0  0  0  0
  -24.6164  -31.8675   23.2101 C   0  0  0  0  0  0
  -25.9066  -32.4817   23.8396 C   0  0  1  0  0  0
  -27.2457  -27.4215   20.1160 C   0  0  0  0  0  0
  -25.5912  -33.8618   24.2329 N   0  0  0  0  0  0
  -23.4034  -30.4867   21.5527 C   0  0  2  0  0  0
  -24.8540  -28.9366   20.1314 C   0  0  0  0  0  0
  -22.7448  -29.4655   22.5074 C   0  0  0  0  0  0
  -18.0319  -28.1394   22.8524 C   0  0  0  0  0  0
  -24.1496  -36.7313   23.2640 C   0  0  0  0  0  0
  -25.9324  -30.8261   21.3648 C   0  0  0  0  0  0
  -26.0118  -29.4533   20.7276 C   0  0  0  0  0  0
  -27.2109  -28.7017   20.7170 C   0  0  0  0  0  0
  -26.0710  -26.9147   19.5250 C   0  0  0  0  0  0
  -24.8775  -27.6649   19.5299 C   0  0  0  0  0  0
  -23.6137  -29.8049   20.1732 C   0  0  0  0  0  0
  -25.4117  -36.3112   24.0347 C   0  0  1  0  0  0
  -20.5884  -28.3743   23.1434 C   0  0  2  0  0  0
  -20.6847  -26.9535   22.5443 C   0  0  0  0  0  0
  -19.5852  -26.6588   21.5206 C   0  0  0  0  0  0
  -18.2040  -26.7935   22.1683 C   0  0  0  0  0  0
  -19.1525  -28.8879   23.2969 C   0  0  0  0  0  0
  -18.9407  -30.1499   23.8958 C   0  0  0  0  0  0
  -17.6394  -30.6610   24.0547 C   0  0  0  0  0  0
  -25.9033  -34.9475   23.5127 C   0  0  0  0  0  0
  -16.5313  -29.9081   23.6269 C   0  0  0  0  0  0
  -16.7289  -28.6490   23.0331 C   0  0  0  0  0  0
  -26.4479  -31.6588   25.0720 C   0  0  0  0  0  0
  -25.3733  -31.3696   26.1452 C   0  0  0  0  0  0
  -27.0302  -30.3038   24.6087 C   0  0  0  0  0  0
  -27.6047  -32.4305   25.7483 C   0  0  0  0  0  0
  -27.5590  -37.1807   24.8471 C   0  0  0  0  0  0
  -21.4149  -29.3183   22.3947 N   0  0  0  0  0  0
  -26.4312  -37.3795   23.9395 N   0  0  0  0  0  0
  -24.6694  -31.0752   22.1007 N   0  0  0  0  0  0
  -23.4243  -28.8100   23.3006 O   0  0  0  0  0  0
  -28.4334  -26.7346   19.9897 O   0  0  0  0  0  0
  -26.5594  -34.8927   22.4691 O   0  0  0  0  0  0
  -23.5364  -32.1442   23.7457 O   0  0  0  0  0  0
  -28.1654  -20.5541   19.1528 C   0  0  0  0  0  0
  -28.2075  -19.3570   18.4144 C   0  0  0  0  0  0
  -29.4218  -19.4624   20.9282 C   0  0  0  0  0  0
  -28.7570  -20.6155   20.4294 C   0  0  0  0  0  0
  -28.8285  -18.1969   18.9287 C   0  0  0  0  0  0
  -29.4608  -18.2344   20.2083 C   0  0  0  0  0  0
  -28.8014  -16.9396   18.0756 C   0  0  0  0  0  0
  -30.1898  -17.0319   20.8748 C   0  0  0  0  0  0
  -28.5814  -21.8751   21.2980 C   0  0  0  0  0  0
  -28.2572  -24.2367   20.3570 C   0  0  0  0  0  0
  -28.7050  -25.6375   20.8783 C   0  0  0  0  0  0
  -29.8519  -15.5906   20.7977 N   0  0  0  0  0  0
  -29.1858  -23.1260   20.7600 N   0  3  0  0  0  0
  -31.4809  -12.4578   19.1351 H   0  0  0  0  0  0
  -30.3682  -11.3327   19.8600 H   0  0  0  0  0  0
  -29.7453  -11.7401   17.4675 H   0  0  0  0  0  0
  -29.6641  -13.4637   17.7538 H   0  0  0  0  0  0
  -27.8390  -11.2958   18.8465 H   0  0  0  0  0  0
  -27.3770  -12.6059   17.7965 H   0  0  0  0  0  0
  -27.6839  -14.2406   19.5590 H   0  0  0  0  0  0
  -28.7014  -12.0025   21.3823 H   0  0  0  0  0  0
  -28.4748  -13.6613   21.8574 H   0  0  0  0  0  0
  -25.2759   -9.5677   22.4744 H   0  0  0  0  0  0
  -24.0004   -7.4631   22.7470 H   0  0  0  0  0  0
  -21.0837   -8.8787   19.8941 H   0  0  0  0  0  0
  -22.3710  -10.9674   19.6158 H   0  0  0  0  0  0
  -21.2004   -7.6147   23.9725 H   0  0  0  0  0  0
  -21.1457   -6.0508   25.9074 H   0  0  0  0  0  0
  -22.0616   -2.7616   23.2841 H   0  0  0  0  0  0
  -22.4123  -11.9906   22.4822 H   0  0  0  0  0  0
  -21.1116  -13.1293   22.2702 H   0  0  0  0  0  0
  -24.6372  -15.8216   20.4423 H   0  0  0  0  0  0
  -26.2824  -15.6474   20.1273 H   0  0  0  0  0  0
  -26.7144  -32.5538   23.1165 H   0  0  0  0  0  0
  -25.0109  -33.9786   25.0506 H   0  0  0  0  0  0
  -22.6940  -31.3053   21.4067 H   0  0  0  0  0  0
  -23.3757  -35.9643   23.3320 H   0  0  0  0  0  0
  -24.3600  -36.8903   22.2047 H   0  0  0  0  0  0
  -23.7245  -37.6532   23.6637 H   0  0  0  0  0  0
  -26.0393  -31.5788   20.5822 H   0  0  0  0  0  0
  -26.8237  -30.8925   21.9778 H   0  0  0  0  0  0
  -28.1113  -29.1059   21.1569 H   0  0  0  0  0  0
  -26.0910  -25.9502   19.0384 H   0  0  0  0  0  0
  -23.9891  -27.2577   19.0627 H   0  0  0  0  0  0
  -23.7114  -30.5688   19.4018 H   0  0  0  0  0  0
  -22.7400  -29.2167   19.8889 H   0  0  0  0  0  0
  -25.1286  -36.1995   25.0847 H   0  0  0  0  0  0
  -20.9970  -28.3310   24.1556 H   0  0  0  0  0  0
  -20.5757  -26.2302   23.3530 H   0  0  0  0  0  0
  -21.6735  -26.7641   22.1247 H   0  0  0  0  0  0
  -19.7135  -25.6607   21.1030 H   0  0  0  0  0  0
  -19.6716  -27.3594   20.6880 H   0  0  0  0  0  0
  -17.4262  -26.6536   21.4176 H   0  0  0  0  0  0
  -18.0613  -26.0089   22.9126 H   0  0  0  0  0  0
  -19.7844  -30.7335   24.2371 H   0  0  0  0  0  0
  -17.4869  -31.6303   24.5095 H   0  0  0  0  0  0
  -15.5311  -30.2983   23.7539 H   0  0  0  0  0  0
  -15.8706  -28.0813   22.6997 H   0  0  0  0  0  0
  -24.5896  -30.7059   25.7791 H   0  0  0  0  0  0
  -24.8915  -32.2837   26.4923 H   0  0  0  0  0  0
  -25.8068  -30.8845   27.0198 H   0  0  0  0  0  0
  -26.2833  -29.6788   24.1175 H   0  0  0  0  0  0
  -27.4120  -29.7299   25.4535 H   0  0  0  0  0  0
  -27.8655  -30.4371   23.9211 H   0  0  0  0  0  0
  -27.2674  -33.3590   26.2108 H   0  0  0  0  0  0
  -28.3841  -32.6889   25.0301 H   0  0  0  0  0  0
  -28.0742  -31.8394   26.5351 H   0  0  0  0  0  0
  -28.2617  -38.0098   24.7508 H   0  0  0  0  0  0
  -28.1078  -36.2620   24.6315 H   0  0  0  0  0  0
  -27.2298  -37.1488   25.8878 H   0  0  0  0  0  0
  -20.9272  -29.9245   21.7505 H   0  0  0  0  0  0
  -26.0210  -38.2887   24.1372 H   0  0  0  0  0  0
  -27.6494  -21.4102   18.7400 H   0  0  0  0  0  0
  -27.7387  -19.3358   17.4401 H   0  0  0  0  0  0
  -29.8775  -19.4984   21.9071 H   0  0  0  0  0  0
  -28.2265  -17.0851   17.1597 H   0  0  0  0  0  0
  -28.3301  -16.1232   18.6139 H   0  0  0  0  0  0
  -29.8106  -16.6404   17.7944 H   0  0  0  0  0  0
  -30.6845  -16.9447   19.9069 H   0  0  0  0  0  0
  -29.1578  -16.9632   21.2214 H   0  0  0  0  0  0
  -29.0595  -21.6948   22.2624 H   0  0  0  0  0  0
  -27.5209  -22.0051   21.5209 H   0  0  0  0  0  0
  -28.2074  -24.2491   19.2687 H   0  0  0  0  0  0
  -27.2357  -24.0531   20.6938 H   0  0  0  0  0  0
  -29.7893  -25.6413   21.0045 H   0  0  0  0  0  0
  -28.2982  -25.8331   21.8710 H   0  0  0  0  0  0
  -28.8977  -15.3541   21.0214 H   0  0  0  0  0  0
  -29.8042  -22.8857   20.0022 H   0  0  0  0  0  0
  -29.7766  -23.4738   21.5003 H   0  0  0  0  0  0
  1 25  1  0  0  0
  1 30  2  0  0  0
  1 82  1  0  0  0
  2  3  1  0  0  0
  2 25  1  0  0  0
  2 84  1  0  0  0
  2 85  1  0  0  0
  3  4  1  0  0  0
  3 86  1  0  0  0
  3 87  1  0  0  0
  4  5  1  0  0  0
  4 88  1  0  0  0
  4 89  1  0  0  0
  5  6  1  0  0  0
  5 26  1  0  0  0
  5 90  1  0  0  0
  6 25  1  0  0  0
  6 91  1  0  0  0
  6 92  1  0  0  0
  7  8  2  0  0  0
  7 26  1  0  0  0
  7 29  1  0  0  0
  8  9  1  0  0  0
  8 22  1  0  0  0
  9 10  1  0  0  0
  9 27  2  0  0  0
 10 11  2  0  0  0
 10 15  1  0  0  0
 11 12  1  0  0  0
 11 93  1  0  0  0
 12 13  2  0  0  0
 12 94  1  0  0  0
 13 14  1  0  0  0
 13 31  1  0  0  0
 14 15  2  0  0  0
 14 95  1  0  0  0
 15 96  1  0  0  0
 16 17  2  0  0  0
 16 21  1  0  0  0
 16 31  1  0  0  0
 17 18  1  0  0  0
 17 97  1  0  0  0
 18 19  2  0  0  0
 18 98  1  0  0  0
 19 20  1  0  0  0
 19 24  1  0  0  0
 20 21  2  0  0  0
 20 99  1  0  0  0
 21 23  1  0  0  0
 22 28  1  0  0  0
 22 32  2  0  0  0
 26 27  1  0  0  0
 28100  1  0  0  0
 28101  1  0  0  0
 29102  1  0  0  0
 29103  1  0  0  0
 33 34  1  0  0  0
 33 66  1  0  0  0
 33 70  2  0  0  0
 34 36  1  0  0  0
 34 59  1  0  0  0
 34104  1  0  0  0
 35 44  2  0  0  0
 35 45  1  0  0  0
 35 68  1  0  0  0
 36 56  1  0  0  0
 36105  1  0  0  0
 37 39  1  0  0  0
 37 47  1  0  0  0
 37 66  1  0  0  0
 37106  1  0  0  0
 38 43  2  0  0  0
 38 46  1  0  0  0
 38 47  1  0  0  0
 39 64  1  0  0  0
 39 67  2  0  0  0
 40 52  1  0  0  0
 40 53  2  0  0  0
 40 58  1  0  0  0
 41107  1  0  0  0
 41108  1  0  0  0
 41109  1  0  0  0
 41 48  1  0  0  0
 42 43  1  0  0  0
 42 66  1  0  0  0
 42110  1  0  0  0
 42111  1  0  0  0
 43 44  1  0  0  0
 44112  1  0  0  0
 45 46  2  0  0  0
 45113  1  0  0  0
 46114  1  0  0  0
 47115  1  0  0  0
 47116  1  0  0  0
 48 56  1  0  0  0
 48 65  1  0  0  0
 48117  1  0  0  0
 49 50  1  0  0  0
 49 53  1  0  0  0
 49 64  1  0  0  0
 49118  1  0  0  0
 50 51  1  0  0  0
 50119  1  0  0  0
 50120  1  0  0  0
 51 52  1  0  0  0
 51121  1  0  0  0
 51122  1  0  0  0
 52123  1  0  0  0
 52124  1  0  0  0
 53 54  1  0  0  0
 54 55  2  0  0  0
 54125  1  0  0  0
 55 57  1  0  0  0
 55126  1  0  0  0
 56 69  2  0  0  0
 57 58  2  0  0  0
 57127  1  0  0  0
 58128  1  0  0  0
 59 60  1  0  0  0
 59 61  1  0  0  0
 59 62  1  0  0  0
 60129  1  0  0  0
 60130  1  0  0  0
 60131  1  0  0  0
 61132  1  0  0  0
 61133  1  0  0  0
 61134  1  0  0  0
 62135  1  0  0  0
 62136  1  0  0  0
 62137  1  0  0  0
 63 65  1  0  0  0
 63138  1  0  0  0
 63139  1  0  0  0
 63140  1  0  0  0
 64141  1  0  0  0
 65142  1  0  0  0
 68 81  1  0  0  0
 71 72  2  0  0  0
 71 74  1  0  0  0
 71143  1  0  0  0
 72 75  1  0  0  0
 72144  1  0  0  0
 73 74  2  0  0  0
 73 76  1  0  0  0
 73145  1  0  0  0
 74 79  1  0  0  0
 75 76  2  0  0  0
 75 77  1  0  0  0
 76 78  1  0  0  0
 77146  1  0  0  0
 77147  1  0  0  0
 77148  1  0  0  0
 78 82  1  0  0  0
 78149  1  0  0  0
 78150  1  0  0  0
 79 83  1  0  0  0
 79151  1  0  0  0
 79152  1  0  0  0
 80 81  1  0  0  0
 80 83  1  0  0  0
 80153  1  0  0  0
 80154  1  0  0  0
 81155  1  0  0  0
 81156  1  0  0  0
 82157  1  0  0  0
 83158  1  0  0  0
 83159  1  0  0  0
M  CHG  1  83   1
M  ISO  4   1 100  68 101  81 101  82 100
M  END
> <chiral flag>
0

> <version>
0

> <s_m_source_file>
/data/baiqing/PycharmProjects/Reinvent-master-3.2/result/LINK_invent/BTK/process_docking_weight1_custom_product_contain_oxygen_bond_distance_aromatic_linkinvent_7_9_3/rearranged_h_0036.sdf

> <i_m_source_file_index>
15

> <r_mmod_Potential_Energy-OPLS-2005>
-13.3452339172363

> <r_mmod_Stretch_Energy-OPLS-2005>
44.0704498291016

> <r_mmod_Bend_Energy-OPLS-2005>
315.723052978516

> <r_mmod_Torsional_Energy-OPLS-2005>
240.103225708008

> <r_mmod_Improper_Torsional_Energy-OPLS-2005>
5.17586708068848

> <r_mmod_Van_der_Waal_Energy-OPLS-2005>
146.175445556641

> <r_mmod_Electrostatic_Energy-OPLS-2005>
-327.688659667969

> <r_mmod_Solvation_Energy-OPLS-2005>
-457.024536132812

> <b_mmod_Minimization_Converged-OPLS-2005>
0

> <r_mmod_RMS_Derivative-OPLS-2005>
4.64644241333008

$$$$
15
                    3D
 Structure written by MMmdl.
156164  0  0  1  0            999 V2000
  -30.6925  -14.4918   20.5006 C   0  0  0  0  0  0
  -30.4176  -12.2999   19.4316 C   0  0  0  0  0  0
  -29.4939  -12.4778   18.2088 C   0  0  0  0  0  0
  -28.0139  -12.3510   18.6222 C   0  0  0  0  0  0
  -27.6550  -13.2090   19.8664 C   0  0  2  0  0  0
  -28.6999  -13.0273   20.9900 C   0  0  0  0  0  0
  -25.2573  -13.8167   20.5691 C   0  0  0  0  0  0
  -24.1827  -13.0447   20.9188 C   0  0  0  0  0  0
  -24.6384  -11.6907   20.8745 C   0  0  0  0  0  0
  -23.9049  -10.4294   21.0416 C   0  0  0  0  0  0
  -24.3602   -9.4204   21.9192 C   0  0  0  0  0  0
  -23.6278   -8.2237   22.0754 C   0  0  0  0  0  0
  -22.4261   -8.0279   21.3545 C   0  0  0  0  0  0
  -21.9895   -9.0253   20.4648 C   0  0  0  0  0  0
  -22.7224  -10.2133   20.3064 C   0  0  0  0  0  0
  -21.6840   -6.0729   22.5284 C   0  0  0  0  0  0
  -21.4012   -6.5635   23.8219 C   0  0  0  0  0  0
  -21.3661   -5.6786   24.9180 C   0  0  0  0  0  0
  -21.6039   -4.3048   24.7226 C   0  0  0  0  0  0
  -21.8817   -3.8140   23.4348 C   0  0  0  0  0  0
  -21.9189   -4.6957   22.3405 C   0  0  0  0  0  0
  -22.7850  -13.5252   21.1844 C   0  0  0  0  0  0
  -22.1657   -4.2140   21.0981 F   0  0  0  0  0  0
  -21.5623   -3.4534   25.7739 F   0  0  0  0  0  0
  -30.0211  -13.3144   20.4185 N   0  0  0  0  0  0
  -26.2999  -12.9338   20.3347 N   0  0  0  0  0  0
  -25.9313  -11.6498   20.5771 N   0  0  0  0  0  0
  -22.0464  -12.8279   22.0412 N   0  0  0  0  0  0
  -25.4318  -15.1890   20.4126 N   0  0  0  0  0  0
  -31.8733  -14.6042   20.1763 O   0  0  0  0  0  0
  -21.6630   -6.8875   21.4247 O   0  0  0  0  0  0
  -22.3543  -14.5551   20.6666 O   0  0  0  0  0  0
  -24.6141  -31.8683   23.2098 C   0  0  0  0  0  0
  -25.9033  -32.4823   23.8390 C   0  0  1  0  0  0
  -27.2296  -27.4349   20.1083 C   0  0  0  0  0  0
  -25.5901  -33.8623   24.2332 N   0  0  0  0  0  0
  -23.4022  -30.4913   21.5500 C   0  0  2  0  0  0
  -24.8481  -28.9578   20.1139 C   0  0  0  0  0  0
  -22.7409  -29.4664   22.4988 C   0  0  0  0  0  0
  -18.0278  -28.1373   22.8480 C   0  0  0  0  0  0
  -24.1483  -36.7322   23.2638 C   0  0  0  0  0  0
  -25.9287  -30.8373   21.3594 C   0  0  0  0  0  0
  -26.0075  -29.4717   20.7079 C   0  0  0  0  0  0
  -27.2043  -28.7203   20.6946 C   0  0  0  0  0  0
  -26.0565  -26.9367   19.4999 C   0  0  0  0  0  0
  -24.8690  -27.6921   19.5022 C   0  0  0  0  0  0
  -23.6098  -29.8241   20.1634 C   0  0  0  0  0  0
  -25.4109  -36.3117   24.0337 C   0  0  1  0  0  0
  -20.5860  -28.3676   23.1327 C   0  0  2  0  0  0
  -20.6768  -26.9411   22.5436 C   0  0  0  0  0  0
  -19.5772  -26.6392   21.5207 C   0  0  0  0  0  0
  -18.1942  -26.7918   22.1612 C   0  0  0  0  0  0
  -19.1517  -28.8843   23.2897 C   0  0  0  0  0  0
  -18.9441  -30.1446   23.8905 C   0  0  0  0  0  0
  -17.6447  -30.6583   24.0558 C   0  0  0  0  0  0
  -25.9036  -34.9479   23.5138 C   0  0  0  0  0  0
  -16.5343  -29.9086   23.6312 C   0  0  0  0  0  0
  -16.7266  -28.6498   23.0328 C   0  0  0  0  0  0
  -26.4464  -31.6597   25.0707 C   0  0  0  0  0  0
  -25.3737  -31.3698   26.1458 C   0  0  0  0  0  0
  -27.0295  -30.3049   24.6058 C   0  0  0  0  0  0
  -27.6049  -32.4307   25.7464 C   0  0  0  0  0  0
  -27.5584  -37.1818   24.8465 C   0  0  0  0  0  0
  -21.4132  -29.3054   22.3739 N   0  0  0  0  0  0
  -26.4300  -37.3798   23.9404 N   0  0  0  0  0  0
  -24.6667  -31.0792   22.0991 N   0  0  0  0  0  0
  -23.4180  -28.8213   23.3030 O   0  0  0  0  0  0
  -28.3850  -26.6848   20.1345 O   0  0  0  0  0  0
  -26.5587  -34.8928   22.4693 O   0  0  0  0  0  0
  -23.5341  -32.1432   23.7506 O   0  0  0  0  0  0
  -30.1566  -20.0772   20.4926 C   0  0  0  0  0  0
  -28.2613  -20.0611   21.9899 C   0  0  0  0  0  0
  -29.1765  -20.7924   21.2072 C   0  0  0  0  0  0
  -29.3199  -17.9154   21.3488 C   0  0  0  0  0  0
  -30.2436  -18.6696   20.5620 C   0  0  0  0  0  0
  -28.3308  -18.6499   22.0656 C   0  0  0  0  0  0
  -29.3748  -16.3707   21.5172 C   0  0  0  0  0  0
  -29.1647  -22.3249   21.1759 C   0  0  0  0  0  0
  -28.5779  -24.2668   19.6556 C   0  0  0  0  0  0
  -28.2551  -25.3638   20.6957 C   0  0  0  0  0  0
  -29.9244  -15.5917   20.4032 N   0  0  0  0  0  0
  -28.2989  -22.8690   20.1036 N   0  3  0  0  0  0
  -31.5458  -17.9564   19.6766 Cl  0  0  0  0  0  0
  -27.1881  -17.8527   23.0922 Cl  0  0  0  0  0  0
  -31.4642  -12.3856   19.1324 H   0  0  0  0  0  0
  -30.3088  -11.3013   19.8568 H   0  0  0  0  0  0
  -29.7314  -11.7341   17.4466 H   0  0  0  0  0  0
  -29.6681  -13.4532   17.7512 H   0  0  0  0  0  0
  -27.8237  -11.2990   18.8355 H   0  0  0  0  0  0
  -27.3650  -12.6104   17.7851 H   0  0  0  0  0  0
  -27.6847  -14.2499   19.5445 H   0  0  0  0  0  0
  -28.6771  -12.0063   21.3735 H   0  0  0  0  0  0
  -28.4826  -13.6734   21.8407 H   0  0  0  0  0  0
  -25.2740   -9.5670   22.4776 H   0  0  0  0  0  0
  -23.9971   -7.4625   22.7481 H   0  0  0  0  0  0
  -21.0815   -8.8791   19.8956 H   0  0  0  0  0  0
  -22.3690  -10.9682   19.6180 H   0  0  0  0  0  0
  -21.2013   -7.6145   23.9723 H   0  0  0  0  0  0
  -21.1483   -6.0513   25.9082 H   0  0  0  0  0  0
  -22.0596   -2.7600   23.2853 H   0  0  0  0  0  0
  -22.4020  -11.9931   22.4834 H   0  0  0  0  0  0
  -21.1090  -13.1354   22.2581 H   0  0  0  0  0  0
  -24.6725  -15.8490   20.5335 H   0  0  0  0  0  0
  -26.2928  -15.6252   20.1095 H   0  0  0  0  0  0
  -26.7105  -32.5533   23.1158 H   0  0  0  0  0  0
  -25.0055  -33.9773   25.0478 H   0  0  0  0  0  0
  -22.6911  -31.3087   21.4113 H   0  0  0  0  0  0
  -23.3737  -35.9664   23.3312 H   0  0  0  0  0  0
  -24.3577  -36.8921   22.2049 H   0  0  0  0  0  0
  -23.7239  -37.6537   23.6636 H   0  0  0  0  0  0
  -26.0342  -31.6033   20.5901 H   0  0  0  0  0  0
  -26.8199  -30.8951   21.9726 H   0  0  0  0  0  0
  -28.1014  -29.1120   21.1537 H   0  0  0  0  0  0
  -26.0540  -25.9663   19.0238 H   0  0  0  0  0  0
  -23.9795  -27.2948   19.0333 H   0  0  0  0  0  0
  -23.7163  -30.5980   19.4024 H   0  0  0  0  0  0
  -22.7338  -29.2427   19.8690 H   0  0  0  0  0  0
  -25.1281  -36.1997   25.0830 H   0  0  0  0  0  0
  -20.9943  -28.3251   24.1449 H   0  0  0  0  0  0
  -20.5666  -26.2274   23.3615 H   0  0  0  0  0  0
  -21.6643  -26.7465   22.1234 H   0  0  0  0  0  0
  -19.6950  -25.6316   21.1214 H   0  0  0  0  0  0
  -19.6710  -27.3228   20.6759 H   0  0  0  0  0  0
  -17.4223  -26.6668   21.4010 H   0  0  0  0  0  0
  -18.0350  -26.0051   22.8997 H   0  0  0  0  0  0
  -19.7911  -30.7252   24.2297 H   0  0  0  0  0  0
  -17.5000  -31.6251   24.5170 H   0  0  0  0  0  0
  -15.5343  -30.2990   23.7620 H   0  0  0  0  0  0
  -15.8661  -28.0829   22.7034 H   0  0  0  0  0  0
  -24.5907  -30.7051   25.7790 H   0  0  0  0  0  0
  -24.8928  -32.2850   26.4916 H   0  0  0  0  0  0
  -25.8094  -30.8853   27.0208 H   0  0  0  0  0  0
  -26.2833  -29.6814   24.1123 H   0  0  0  0  0  0
  -27.4096  -29.7274   25.4495 H   0  0  0  0  0  0
  -27.8644  -30.4377   23.9178 H   0  0  0  0  0  0
  -27.2677  -33.3596   26.2080 H   0  0  0  0  0  0
  -28.3837  -32.6896   25.0276 H   0  0  0  0  0  0
  -28.0741  -31.8405   26.5345 H   0  0  0  0  0  0
  -28.2618  -38.0101   24.7505 H   0  0  0  0  0  0
  -28.1067  -36.2635   24.6305 H   0  0  0  0  0  0
  -27.2296  -37.1483   25.8867 H   0  0  0  0  0  0
  -20.9283  -29.8792   21.6981 H   0  0  0  0  0  0
  -26.0195  -38.2883   24.1399 H   0  0  0  0  0  0
  -30.8819  -20.6138   19.8968 H   0  0  0  0  0  0
  -27.5085  -20.5822   22.5653 H   0  0  0  0  0  0
  -28.3655  -15.9909   21.6671 H   0  0  0  0  0  0
  -29.9275  -16.1541   22.4327 H   0  0  0  0  0  0
  -30.1878  -22.6741   21.0331 H   0  0  0  0  0  0
  -28.8442  -22.7120   22.1438 H   0  0  0  0  0  0
  -29.6185  -24.3505   19.3395 H   0  0  0  0  0  0
  -27.9768  -24.4475   18.7647 H   0  0  0  0  0  0
  -28.9566  -25.2915   21.5272 H   0  0  0  0  0  0
  -27.2672  -25.1981   21.1307 H   0  0  0  0  0  0
  -30.3669  -16.2288   19.7558 H   0  0  0  0  0  0
  -27.3350  -22.7732   20.3813 H   0  0  0  0  0  0
  -28.4289  -22.2721   19.3025 H   0  0  0  0  0  0
  1 25  1  0  0  0
  1 30  2  0  0  0
  1 81  1  0  0  0
  2  3  1  0  0  0
  2 25  1  0  0  0
  2 85  1  0  0  0
  2 86  1  0  0  0
  3  4  1  0  0  0
  3 87  1  0  0  0
  3 88  1  0  0  0
  4  5  1  0  0  0
  4 89  1  0  0  0
  4 90  1  0  0  0
  5  6  1  0  0  0
  5 26  1  0  0  0
  5 91  1  0  0  0
  6 25  1  0  0  0
  6 92  1  0  0  0
  6 93  1  0  0  0
  7  8  2  0  0  0
  7 26  1  0  0  0
  7 29  1  0  0  0
  8  9  1  0  0  0
  8 22  1  0  0  0
  9 10  1  0  0  0
  9 27  2  0  0  0
 10 11  2  0  0  0
 10 15  1  0  0  0
 11 12  1  0  0  0
 11 94  1  0  0  0
 12 13  2  0  0  0
 12 95  1  0  0  0
 13 14  1  0  0  0
 13 31  1  0  0  0
 14 15  2  0  0  0
 14 96  1  0  0  0
 15 97  1  0  0  0
 16 17  2  0  0  0
 16 21  1  0  0  0
 16 31  1  0  0  0
 17 18  1  0  0  0
 17 98  1  0  0  0
 18 19  2  0  0  0
 18 99  1  0  0  0
 19 20  1  0  0  0
 19 24  1  0  0  0
 20 21  2  0  0  0
 20100  1  0  0  0
 21 23  1  0  0  0
 22 28  1  0  0  0
 22 32  2  0  0  0
 26 27  1  0  0  0
 28101  1  0  0  0
 28102  1  0  0  0
 29103  1  0  0  0
 29104  1  0  0  0
 33 34  1  0  0  0
 33 66  1  0  0  0
 33 70  2  0  0  0
 34 36  1  0  0  0
 34 59  1  0  0  0
 34105  1  0  0  0
 35 44  2  0  0  0
 35 45  1  0  0  0
 35 68  1  0  0  0
 36 56  1  0  0  0
 36106  1  0  0  0
 37 39  1  0  0  0
 37 47  1  0  0  0
 37 66  1  0  0  0
 37107  1  0  0  0
 38 43  2  0  0  0
 38 46  1  0  0  0
 38 47  1  0  0  0
 39 64  1  0  0  0
 39 67  2  0  0  0
 40 52  1  0  0  0
 40 53  2  0  0  0
 40 58  1  0  0  0
 41108  1  0  0  0
 41109  1  0  0  0
 41110  1  0  0  0
 41 48  1  0  0  0
 42 43  1  0  0  0
 42 66  1  0  0  0
 42111  1  0  0  0
 42112  1  0  0  0
 43 44  1  0  0  0
 44113  1  0  0  0
 45 46  2  0  0  0
 45114  1  0  0  0
 46115  1  0  0  0
 47116  1  0  0  0
 47117  1  0  0  0
 48 56  1  0  0  0
 48 65  1  0  0  0
 48118  1  0  0  0
 49 50  1  0  0  0
 49 53  1  0  0  0
 49 64  1  0  0  0
 49119  1  0  0  0
 50 51  1  0  0  0
 50120  1  0  0  0
 50121  1  0  0  0
 51 52  1  0  0  0
 51122  1  0  0  0
 51123  1  0  0  0
 52124  1  0  0  0
 52125  1  0  0  0
 53 54  1  0  0  0
 54 55  2  0  0  0
 54126  1  0  0  0
 55 57  1  0  0  0
 55127  1  0  0  0
 56 69  2  0  0  0
 57 58  2  0  0  0
 57128  1  0  0  0
 58129  1  0  0  0
 59 60  1  0  0  0
 59 61  1  0  0  0
 59 62  1  0  0  0
 60130  1  0  0  0
 60131  1  0  0  0
 60132  1  0  0  0
 61133  1  0  0  0
 61134  1  0  0  0
 61135  1  0  0  0
 62136  1  0  0  0
 62137  1  0  0  0
 62138  1  0  0  0
 63 65  1  0  0  0
 63139  1  0  0  0
 63140  1  0  0  0
 63141  1  0  0  0
 64142  1  0  0  0
 65143  1  0  0  0
 68 80  1  0  0  0
 71 73  2  0  0  0
 71 75  1  0  0  0
 71144  1  0  0  0
 72 73  1  0  0  0
 72 76  2  0  0  0
 72145  1  0  0  0
 73 78  1  0  0  0
 74 75  2  0  0  0
 74 76  1  0  0  0
 74 77  1  0  0  0
 75 83  1  0  0  0
 76 84  1  0  0  0
 77 81  1  0  0  0
 77146  1  0  0  0
 77147  1  0  0  0
 78 82  1  0  0  0
 78148  1  0  0  0
 78149  1  0  0  0
 79 80  1  0  0  0
 79 82  1  0  0  0
 79150  1  0  0  0
 79151  1  0  0  0
 80152  1  0  0  0
 80153  1  0  0  0
 81154  1  0  0  0
 82155  1  0  0  0
 82156  1  0  0  0
M  CHG  1  82   1
M  ISO  4   1 100  68 101  80 101  81 100
M  END
> <chiral flag>
0

> <version>
0

> <s_m_source_file>
/data/baiqing/PycharmProjects/Reinvent-master-3.2/result/LINK_invent/BTK/process_docking_weight1_custom_product_contain_oxygen_bond_distance_aromatic_linkinvent_7_9_3/rearranged_h_0036.sdf

> <i_m_source_file_index>
16

> <r_mmod_Potential_Energy-OPLS-2005>
-164.024353027344

> <r_mmod_Stretch_Energy-OPLS-2005>
39.0652351379395

> <r_mmod_Bend_Energy-OPLS-2005>
110.794403076172

> <r_mmod_Torsional_Energy-OPLS-2005>
269.813751220703

> <r_mmod_Improper_Torsional_Energy-OPLS-2005>
22.8175868988037

> <r_mmod_Van_der_Waal_Energy-OPLS-2005>
144.599151611328

> <r_mmod_Electrostatic_Energy-OPLS-2005>
-292.225677490234

> <r_mmod_Solvation_Energy-OPLS-2005>
-478.153991699219

> <b_mmod_Minimization_Converged-OPLS-2005>
0

> <r_mmod_RMS_Derivative-OPLS-2005>
1.6262024641037

$$$$
16
                    3D
 Structure written by MMmdl.
165173  0  0  1  0            999 V2000
  -30.7878  -14.3214   20.6948 C   0  0  0  0  0  0
  -30.4085  -12.2723   19.3814 C   0  0  0  0  0  0
  -29.4779  -12.5422   18.1858 C   0  0  0  0  0  0
  -28.0053  -12.3890   18.6060 C   0  0  0  0  0  0
  -27.6703  -13.2033   19.8816 C   0  0  2  0  0  0
  -28.7077  -12.9350   20.9934 C   0  0  0  0  0  0
  -25.2600  -13.8143   20.5660 C   0  0  0  0  0  0
  -24.1832  -13.0412   20.9138 C   0  0  0  0  0  0
  -24.6375  -11.6867   20.8715 C   0  0  0  0  0  0
  -23.9046  -10.4246   21.0396 C   0  0  0  0  0  0
  -24.3569   -9.4178   21.9202 C   0  0  0  0  0  0
  -23.6263   -8.2211   22.0773 C   0  0  0  0  0  0
  -22.4261   -8.0237   21.3549 C   0  0  0  0  0  0
  -21.9869   -9.0215   20.4667 C   0  0  0  0  0  0
  -22.7193  -10.2098   20.3081 C   0  0  0  0  0  0
  -21.6848   -6.0693   22.5274 C   0  0  0  0  0  0
  -21.4004   -6.5614   23.8207 C   0  0  0  0  0  0
  -21.3682   -5.6784   24.9188 C   0  0  0  0  0  0
  -21.6041   -4.3050   24.7241 C   0  0  0  0  0  0
  -21.8815   -3.8117   23.4380 C   0  0  0  0  0  0
  -21.9190   -4.6913   22.3421 C   0  0  0  0  0  0
  -22.7854  -13.5230   21.1803 C   0  0  0  0  0  0
  -22.1661   -4.2104   21.1013 F   0  0  0  0  0  0
  -21.5644   -3.4536   25.7763 F   0  0  0  0  0  0
  -30.0584  -13.2024   20.4621 N   0  0  0  0  0  0
  -26.3059  -12.9308   20.3391 N   0  0  0  0  0  0
  -25.9301  -11.6474   20.5730 N   0  0  0  0  0  0
  -22.0489  -12.8274   22.0402 N   0  0  0  0  0  0
  -25.4306  -15.1858   20.4059 N   0  0  0  0  0  0
  -31.7507  -14.6701   20.0061 O   0  0  0  0  0  0
  -21.6648   -6.8817   21.4230 O   0  0  0  0  0  0
  -22.3538  -14.5543   20.6669 O   0  0  0  0  0  0
  -24.6117  -31.8709   23.2154 C   0  0  0  0  0  0
  -25.9023  -32.4811   23.8443 C   0  0  1  0  0  0
  -27.2303  -27.4970   20.0603 C   0  0  0  0  0  0
  -25.5891  -33.8619   24.2389 N   0  0  0  0  0  0
  -23.3939  -30.4954   21.5542 C   0  0  2  0  0  0
  -24.8357  -28.9677   20.1132 C   0  0  0  0  0  0
  -22.7356  -29.4695   22.5023 C   0  0  0  0  0  0
  -18.0292  -28.1340   22.8525 C   0  0  0  0  0  0
  -24.1494  -36.7314   23.2627 C   0  0  0  0  0  0
  -25.9153  -30.8543   21.3559 C   0  0  0  0  0  0
  -25.9940  -29.4942   20.7006 C   0  0  0  0  0  0
  -27.1985  -28.7631   20.6741 C   0  0  0  0  0  0
  -26.0616  -26.9640   19.4849 C   0  0  0  0  0  0
  -24.8597  -27.6955   19.5126 C   0  0  0  0  0  0
  -23.5940  -29.8274   20.1680 C   0  0  0  0  0  0
  -25.4098  -36.3104   24.0337 C   0  0  1  0  0  0
  -20.5852  -28.3682   23.1379 C   0  0  2  0  0  0
  -20.6767  -26.9435   22.5427 C   0  0  0  0  0  0
  -19.5767  -26.6468   21.5170 C   0  0  0  0  0  0
  -18.1950  -26.7931   22.1584 C   0  0  0  0  0  0
  -19.1517  -28.8817   23.2953 C   0  0  0  0  0  0
  -18.9428  -30.1432   23.8940 C   0  0  0  0  0  0
  -17.6409  -30.6548   24.0599 C   0  0  0  0  0  0
  -25.9013  -34.9452   23.5160 C   0  0  0  0  0  0
  -16.5317  -29.9030   23.6323 C   0  0  0  0  0  0
  -16.7279  -28.6452   23.0352 C   0  0  0  0  0  0
  -26.4505  -31.6556   25.0725 C   0  0  0  0  0  0
  -25.3826  -31.3640   26.1521 C   0  0  0  0  0  0
  -27.0342  -30.3019   24.6031 C   0  0  0  0  0  0
  -27.6111  -32.4261   25.7458 C   0  0  0  0  0  0
  -27.5567  -37.1796   24.8464 C   0  0  0  0  0  0
  -21.4087  -29.3063   22.3744 N   0  0  0  0  0  0
  -26.4285  -37.3774   23.9411 N   0  0  0  0  0  0
  -24.6569  -31.0898   22.1000 N   0  0  0  0  0  0
  -23.4126  -28.8219   23.3042 O   0  0  0  0  0  0
  -28.3956  -26.7838   20.0173 O   0  0  0  0  0  0
  -26.5551  -34.8882   22.4706 O   0  0  0  0  0  0
  -23.5328  -32.1416   23.7603 O   0  0  0  0  0  0
  -28.1760  -18.8310   22.3560 C   0  0  0  0  0  0
  -30.6388  -18.4471   21.0808 C   0  0  0  0  0  0
  -28.7122  -19.8647   21.5582 C   0  0  0  0  0  0
  -28.8751  -17.6238   22.5582 C   0  0  0  0  0  0
  -29.9291  -19.6453   20.8556 C   0  0  0  0  0  0
  -30.1486  -17.4539   21.9565 C   0  0  0  0  0  0
  -28.0112  -21.1541   21.5570 C   0  0  0  0  0  0
  -28.2312  -16.5603   23.4379 C   0  0  0  0  0  0
  -30.4953  -20.6493   19.8551 C   0  0  0  0  0  0
  -31.0257  -16.2430   22.2487 C   0  0  0  0  0  0
  -28.3272  -24.5011   20.8062 C   0  0  0  0  0  0
  -28.2414  -23.6388   22.0680 C   0  0  0  0  0  0
  -28.5919  -25.9707   21.1616 C   0  0  0  0  0  0
  -26.6984  -21.2257   21.3422 N   0  0  0  0  0  0
  -30.4390  -14.9881   21.7961 N   0  0  0  0  0  0
  -28.7074  -22.2621   21.8490 N   0  3  0  0  0  0
  -31.4556  -12.3615   19.0849 H   0  0  0  0  0  0
  -30.2856  -11.2451   19.7308 H   0  0  0  0  0  0
  -29.7079  -11.8634   17.3624 H   0  0  0  0  0  0
  -29.6474  -13.5535   17.8105 H   0  0  0  0  0  0
  -27.8133  -11.3296   18.7828 H   0  0  0  0  0  0
  -27.3496  -12.6911   17.7885 H   0  0  0  0  0  0
  -27.7342  -14.2597   19.6165 H   0  0  0  0  0  0
  -28.6514  -11.8960   21.3209 H   0  0  0  0  0  0
  -28.4555  -13.5230   21.8755 H   0  0  0  0  0  0
  -25.2670   -9.5661   22.4816 H   0  0  0  0  0  0
  -23.9973   -7.4592   22.7474 H   0  0  0  0  0  0
  -21.0805   -8.8691   19.8966 H   0  0  0  0  0  0
  -22.3607  -10.9629   19.6217 H   0  0  0  0  0  0
  -21.1979   -7.6122   23.9696 H   0  0  0  0  0  0
  -21.1530   -6.0536   25.9103 H   0  0  0  0  0  0
  -22.0573   -2.7574   23.2911 H   0  0  0  0  0  0
  -22.4082  -11.9963   22.4850 H   0  0  0  0  0  0
  -21.1095  -13.1320   22.2535 H   0  0  0  0  0  0
  -24.6593  -15.8360   20.5041 H   0  0  0  0  0  0
  -26.2804  -15.6296   20.0804 H   0  0  0  0  0  0
  -26.7097  -32.5536   23.1203 H   0  0  0  0  0  0
  -25.0085  -33.9805   25.0577 H   0  0  0  0  0  0
  -22.6770  -31.3068   21.4226 H   0  0  0  0  0  0
  -23.3715  -35.9687   23.3316 H   0  0  0  0  0  0
  -24.3612  -36.8909   22.2038 H   0  0  0  0  0  0
  -23.7293  -37.6536   23.6643 H   0  0  0  0  0  0
  -26.0191  -31.6233   20.5874 H   0  0  0  0  0  0
  -26.8052  -30.9095   21.9685 H   0  0  0  0  0  0
  -28.1000  -29.1703   21.1082 H   0  0  0  0  0  0
  -26.0837  -25.9913   19.0170 H   0  0  0  0  0  0
  -23.9637  -27.2795   19.0704 H   0  0  0  0  0  0
  -23.6962  -30.6017   19.4089 H   0  0  0  0  0  0
  -22.7210  -29.2377   19.8819 H   0  0  0  0  0  0
  -25.1279  -36.1938   25.0821 H   0  0  0  0  0  0
  -20.9970  -28.3265   24.1485 H   0  0  0  0  0  0
  -20.5664  -26.2254   23.3568 H   0  0  0  0  0  0
  -21.6699  -26.7521   22.1297 H   0  0  0  0  0  0
  -19.6956  -25.6464   21.1049 H   0  0  0  0  0  0
  -19.6717  -27.3341   20.6765 H   0  0  0  0  0  0
  -17.4239  -26.6800   21.3944 H   0  0  0  0  0  0
  -18.0302  -25.9985   22.8890 H   0  0  0  0  0  0
  -19.7883  -30.7254   24.2331 H   0  0  0  0  0  0
  -17.4940  -31.6226   24.5184 H   0  0  0  0  0  0
  -15.5319  -30.2914   23.7585 H   0  0  0  0  0  0
  -15.8730  -28.0744   22.6977 H   0  0  0  0  0  0
  -24.5995  -30.6967   25.7910 H   0  0  0  0  0  0
  -24.9021  -32.2801   26.4983 H   0  0  0  0  0  0
  -25.8233  -30.8843   27.0278 H   0  0  0  0  0  0
  -26.2890  -29.6735   24.1116 H   0  0  0  0  0  0
  -27.4232  -29.7250   25.4433 H   0  0  0  0  0  0
  -27.8680  -30.4396   23.9121 H   0  0  0  0  0  0
  -27.2757  -33.3549   26.2082 H   0  0  0  0  0  0
  -28.3872  -32.6810   25.0229 H   0  0  0  0  0  0
  -28.0827  -31.8350   26.5323 H   0  0  0  0  0  0
  -28.2581  -38.0082   24.7460 H   0  0  0  0  0  0
  -28.1062  -36.2605   24.6347 H   0  0  0  0  0  0
  -27.2301  -37.1510   25.8870 H   0  0  0  0  0  0
  -20.9204  -29.8763   21.6964 H   0  0  0  0  0  0
  -26.0164  -38.2858   24.1376 H   0  0  0  0  0  0
  -27.2349  -18.9860   22.8690 H   0  0  0  0  0  0
  -31.5863  -18.2876   20.5834 H   0  0  0  0  0  0
  -27.5638  -17.0123   24.1712 H   0  0  0  0  0  0
  -28.9600  -15.9720   23.9925 H   0  0  0  0  0  0
  -27.6313  -15.8813   22.8306 H   0  0  0  0  0  0
  -31.3273  -20.2202   19.2926 H   0  0  0  0  0  0
  -30.8673  -21.5469   20.3496 H   0  0  0  0  0  0
  -29.7326  -20.9396   19.1290 H   0  0  0  0  0  0
  -31.1913  -16.1806   23.3233 H   0  0  0  0  0  0
  -32.0193  -16.3965   21.8213 H   0  0  0  0  0  0
  -27.3790  -24.4255   20.2738 H   0  0  0  0  0  0
  -29.0962  -24.1324   20.1255 H   0  0  0  0  0  0
  -27.2318  -23.6540   22.4801 H   0  0  0  0  0  0
  -28.8722  -24.0743   22.8434 H   0  0  0  0  0  0
  -27.9560  -26.2687   21.9997 H   0  0  0  0  0  0
  -29.6237  -26.0968   21.4962 H   0  0  0  0  0  0
  -26.1832  -20.3850   21.1217 H   0  0  0  0  0  0
  -26.1922  -22.0928   21.3700 H   0  0  0  0  0  0
  -29.7017  -14.5873   22.3523 H   0  0  0  0  0  0
  -29.6927  -22.1065   22.0283 H   0  0  0  0  0  0
  1 25  1  0  0  0
  1 30  2  0  0  0
  1 85  1  0  0  0
  2  3  1  0  0  0
  2 25  1  0  0  0
  2 87  1  0  0  0
  2 88  1  0  0  0
  3  4  1  0  0  0
  3 89  1  0  0  0
  3 90  1  0  0  0
  4  5  1  0  0  0
  4 91  1  0  0  0
  4 92  1  0  0  0
  5  6  1  0  0  0
  5 26  1  0  0  0
  5 93  1  0  0  0
  6 25  1  0  0  0
  6 94  1  0  0  0
  6 95  1  0  0  0
  7  8  2  0  0  0
  7 26  1  0  0  0
  7 29  1  0  0  0
  8  9  1  0  0  0
  8 22  1  0  0  0
  9 10  1  0  0  0
  9 27  2  0  0  0
 10 11  2  0  0  0
 10 15  1  0  0  0
 11 12  1  0  0  0
 11 96  1  0  0  0
 12 13  2  0  0  0
 12 97  1  0  0  0
 13 14  1  0  0  0
 13 31  1  0  0  0
 14 15  2  0  0  0
 14 98  1  0  0  0
 15 99  1  0  0  0
 16 17  2  0  0  0
 16 21  1  0  0  0
 16 31  1  0  0  0
 17 18  1  0  0  0
 17100  1  0  0  0
 18 19  2  0  0  0
 18101  1  0  0  0
 19 20  1  0  0  0
 19 24  1  0  0  0
 20 21  2  0  0  0
 20102  1  0  0  0
 21 23  1  0  0  0
 22 28  1  0  0  0
 22 32  2  0  0  0
 26 27  1  0  0  0
 28103  1  0  0  0
 28104  1  0  0  0
 29105  1  0  0  0
 29106  1  0  0  0
 33 34  1  0  0  0
 33 66  1  0  0  0
 33 70  2  0  0  0
 34 36  1  0  0  0
 34 59  1  0  0  0
 34107  1  0  0  0
 35 44  2  0  0  0
 35 45  1  0  0  0
 35 68  1  0  0  0
 36 56  1  0  0  0
 36108  1  0  0  0
 37 39  1  0  0  0
 37 47  1  0  0  0
 37 66  1  0  0  0
 37109  1  0  0  0
 38 43  2  0  0  0
 38 46  1  0  0  0
 38 47  1  0  0  0
 39 64  1  0  0  0
 39 67  2  0  0  0
 40 52  1  0  0  0
 40 53  2  0  0  0
 40 58  1  0  0  0
 41110  1  0  0  0
 41111  1  0  0  0
 41112  1  0  0  0
 41 48  1  0  0  0
 42 43  1  0  0  0
 42 66  1  0  0  0
 42113  1  0  0  0
 42114  1  0  0  0
 43 44  1  0  0  0
 44115  1  0  0  0
 45 46  2  0  0  0
 45116  1  0  0  0
 46117  1  0  0  0
 47118  1  0  0  0
 47119  1  0  0  0
 48 56  1  0  0  0
 48 65  1  0  0  0
 48120  1  0  0  0
 49 50  1  0  0  0
 49 53  1  0  0  0
 49 64  1  0  0  0
 49121  1  0  0  0
 50 51  1  0  0  0
 50122  1  0  0  0
 50123  1  0  0  0
 51 52  1  0  0  0
 51124  1  0  0  0
 51125  1  0  0  0
 52126  1  0  0  0
 52127  1  0  0  0
 53 54  1  0  0  0
 54 55  2  0  0  0
 54128  1  0  0  0
 55 57  1  0  0  0
 55129  1  0  0  0
 56 69  2  0  0  0
 57 58  2  0  0  0
 57130  1  0  0  0
 58131  1  0  0  0
 59 60  1  0  0  0
 59 61  1  0  0  0
 59 62  1  0  0  0
 60132  1  0  0  0
 60133  1  0  0  0
 60134  1  0  0  0
 61135  1  0  0  0
 61136  1  0  0  0
 61137  1  0  0  0
 62138  1  0  0  0
 62139  1  0  0  0
 62140  1  0  0  0
 63 65  1  0  0  0
 63141  1  0  0  0
 63142  1  0  0  0
 63143  1  0  0  0
 64144  1  0  0  0
 65145  1  0  0  0
 68 83  1  0  0  0
 71 73  2  0  0  0
 71 74  1  0  0  0
 71146  1  0  0  0
 72 75  2  0  0  0
 72 76  1  0  0  0
 72147  1  0  0  0
 73 75  1  0  0  0
 73 77  1  0  0  0
 74 76  2  0  0  0
 74 78  1  0  0  0
 75 79  1  0  0  0
 76 80  1  0  0  0
 77 84  1  0  0  0
 77 86  2  0  0  0
 78148  1  0  0  0
 78149  1  0  0  0
 78150  1  0  0  0
 79151  1  0  0  0
 79152  1  0  0  0
 79153  1  0  0  0
 80 85  1  0  0  0
 80154  1  0  0  0
 80155  1  0  0  0
 81 82  1  0  0  0
 81 83  1  0  0  0
 81156  1  0  0  0
 81157  1  0  0  0
 82 86  1  0  0  0
 82158  1  0  0  0
 82159  1  0  0  0
 83160  1  0  0  0
 83161  1  0  0  0
 84162  1  0  0  0
 84163  1  0  0  0
 85164  1  0  0  0
 86165  1  0  0  0
M  CHG  1  86   1
M  ISO  4   1 100  68 101  83 101  85 100
M  END
> <chiral flag>
0

> <version>
0

> <s_m_source_file>
/data/baiqing/PycharmProjects/Reinvent-master-3.2/result/LINK_invent/BTK/process_docking_weight1_custom_product_contain_oxygen_bond_distance_aromatic_linkinvent_7_9_3/rearranged_h_0036.sdf

> <i_m_source_file_index>
17

> <r_mmod_Potential_Energy-OPLS-2005>
-268.704223632812

> <r_mmod_Stretch_Energy-OPLS-2005>
31.6663970947266

> <r_mmod_Bend_Energy-OPLS-2005>
91.2788314819336

> <r_mmod_Torsional_Energy-OPLS-2005>
234.85124206543

> <r_mmod_Improper_Torsional_Energy-OPLS-2005>
2.89720273017883

> <r_mmod_Van_der_Waal_Energy-OPLS-2005>
154.12126159668

> <r_mmod_Electrostatic_Energy-OPLS-2005>
-394.052795410156

> <r_mmod_Solvation_Energy-OPLS-2005>
-396.811706542969

> <b_mmod_Minimization_Converged-OPLS-2005>
0

> <r_mmod_RMS_Derivative-OPLS-2005>
4.89082670211792

$$$$
17
                    3D
 Structure written by MMmdl.
170179  0  0  1  0            999 V2000
  -30.7254  -14.5717   20.4961 C   0  0  0  0  0  0
  -30.4015  -12.3428   19.4698 C   0  0  0  0  0  0
  -29.4874  -12.5188   18.2354 C   0  0  0  0  0  0
  -28.0079  -12.3744   18.6421 C   0  0  0  0  0  0
  -27.6455  -13.2293   19.8865 C   0  0  2  0  0  0
  -28.7074  -13.0920   21.0097 C   0  0  0  0  0  0
  -25.2341  -13.7999   20.5697 C   0  0  0  0  0  0
  -24.1691  -13.0229   20.9195 C   0  0  0  0  0  0
  -24.6356  -11.6764   20.8771 C   0  0  0  0  0  0
  -23.9023  -10.4175   21.0404 C   0  0  0  0  0  0
  -24.3596   -9.4127   21.9164 C   0  0  0  0  0  0
  -23.6249   -8.2175   22.0717 C   0  0  0  0  0  0
  -22.4202   -8.0252   21.3522 C   0  0  0  0  0  0
  -21.9856   -9.0177   20.4578 C   0  0  0  0  0  0
  -22.7200  -10.2040   20.3014 C   0  0  0  0  0  0
  -21.6835   -6.0712   22.5233 C   0  0  0  0  0  0
  -21.4023   -6.5605   23.8204 C   0  0  0  0  0  0
  -21.3661   -5.6727   24.9128 C   0  0  0  0  0  0
  -21.6067   -4.2970   24.7128 C   0  0  0  0  0  0
  -21.8806   -3.8089   23.4267 C   0  0  0  0  0  0
  -21.9193   -4.6956   22.3344 C   0  0  0  0  0  0
  -22.7703  -13.4997   21.1893 C   0  0  0  0  0  0
  -22.1657   -4.2147   21.0903 F   0  0  0  0  0  0
  -21.5654   -3.4464   25.7678 F   0  0  0  0  0  0
  -30.0246  -13.3944   20.4317 N   0  0  0  0  0  0
  -26.2945  -12.9345   20.3546 N   0  0  0  0  0  0
  -25.9338  -11.6458   20.5911 N   0  0  0  0  0  0
  -22.0438  -12.8009   22.0572 N   0  0  0  0  0  0
  -25.3573  -15.1685   20.4005 N   0  0  0  0  0  0
  -31.8840  -14.6546   20.0889 O   0  0  0  0  0  0
  -21.6573   -6.8859   21.4219 O   0  0  0  0  0  0
  -22.3395  -14.5259   20.6718 O   0  0  0  0  0  0
  -24.6160  -31.8648   23.2094 C   0  0  0  0  0  0
  -25.9028  -32.4821   23.8396 C   0  0  1  0  0  0
  -27.2240  -27.3973   20.1041 C   0  0  0  0  0  0
  -25.5891  -33.8608   24.2335 N   0  0  0  0  0  0
  -23.4066  -30.4911   21.5439 C   0  0  2  0  0  0
  -24.8545  -28.9558   20.1037 C   0  0  0  0  0  0
  -22.7403  -29.4665   22.4932 C   0  0  0  0  0  0
  -18.0288  -28.1425   22.8475 C   0  0  0  0  0  0
  -24.1487  -36.7317   23.2634 C   0  0  0  0  0  0
  -25.9360  -30.8258   21.3619 C   0  0  0  0  0  0
  -26.0120  -29.4542   20.7107 C   0  0  0  0  0  0
  -27.1942  -28.6775   20.7126 C   0  0  0  0  0  0
  -26.0446  -26.9147   19.4953 C   0  0  0  0  0  0
  -24.8678  -27.6888   19.4934 C   0  0  0  0  0  0
  -23.6156  -29.8214   20.1584 C   0  0  0  0  0  0
  -25.4108  -36.3097   24.0341 C   0  0  1  0  0  0
  -20.5864  -28.3721   23.1298 C   0  0  2  0  0  0
  -20.6781  -26.9460   22.5409 C   0  0  0  0  0  0
  -19.5758  -26.6427   21.5217 C   0  0  0  0  0  0
  -18.1938  -26.7971   22.1617 C   0  0  0  0  0  0
  -19.1527  -28.8898   23.2883 C   0  0  0  0  0  0
  -18.9450  -30.1498   23.8915 C   0  0  0  0  0  0
  -17.6444  -30.6614   24.0600 C   0  0  0  0  0  0
  -25.9024  -34.9468   23.5131 C   0  0  0  0  0  0
  -16.5339  -29.9123   23.6327 C   0  0  0  0  0  0
  -16.7271  -28.6549   23.0331 C   0  0  0  0  0  0
  -26.4463  -31.6597   25.0726 C   0  0  0  0  0  0
  -25.3751  -31.3656   26.1495 C   0  0  0  0  0  0
  -27.0291  -30.3032   24.6098 C   0  0  0  0  0  0
  -27.6043  -32.4331   25.7466 C   0  0  0  0  0  0
  -27.5588  -37.1803   24.8463 C   0  0  0  0  0  0
  -21.4133  -29.3081   22.3679 N   0  0  0  0  0  0
  -26.4299  -37.3790   23.9405 N   0  0  0  0  0  0
  -24.6702  -31.0761   22.0962 N   0  0  0  0  0  0
  -23.4175  -28.8234   23.2984 O   0  0  0  0  0  0
  -28.3846  -26.6509   20.2205 O   0  0  0  0  0  0
  -26.5575  -34.8906   22.4680 O   0  0  0  0  0  0
  -23.5337  -32.1405   23.7468 O   0  0  0  0  0  0
  -27.5446  -19.6648   20.4922 C   0  0  0  0  0  0
  -28.1504  -20.8452   20.0413 C   0  0  0  0  0  0
  -28.2860  -18.4808   20.6341 C   0  0  0  0  0  0
  -29.5310  -20.8928   19.7561 C   0  0  0  0  0  0
  -30.3141  -19.6945   19.9851 C   0  0  0  0  0  0
  -29.6918  -18.4539   20.3996 C   0  0  0  0  0  0
  -31.3844  -24.2923   19.3414 C   0  0  0  0  0  0
  -32.5598  -24.4176   19.9863 C   0  0  0  0  0  0
  -30.9183  -25.0878   18.1281 C   0  0  0  0  0  0
  -29.8777  -26.1123   18.5777 C   0  0  0  0  0  0
  -29.1108  -24.2774   20.3069 C   0  0  0  0  0  0
  -28.7186  -25.5078   19.3981 C   0  0  1  0  0  0
  -27.5025  -17.2399   20.9931 C   0  0  0  0  0  0
  -31.8251  -19.6967   19.7409 C   0  0  0  0  0  0
  -30.5283  -17.1186   20.5293 C   0  0  0  0  0  0
  -30.0390  -22.1900   19.0506 C   0  0  0  0  0  0
  -30.0459  -15.7164   20.7891 N   0  0  0  0  0  0
  -30.2839  -23.4333   19.8706 N   0  3  2  0  0  0
  -31.4554  -12.3877   19.1891 H   0  0  0  0  0  0
  -30.2536  -11.3575   19.9173 H   0  0  0  0  0  0
  -29.7201  -11.7730   17.4720 H   0  0  0  0  0  0
  -29.6499  -13.5007   17.7910 H   0  0  0  0  0  0
  -27.8372  -11.3162   18.8538 H   0  0  0  0  0  0
  -27.3536  -12.6273   17.8049 H   0  0  0  0  0  0
  -27.6526  -14.2676   19.5507 H   0  0  0  0  0  0
  -28.7091  -12.0751   21.4074 H   0  0  0  0  0  0
  -28.4807  -13.7370   21.8632 H   0  0  0  0  0  0
  -25.2754   -9.5598   22.4701 H   0  0  0  0  0  0
  -23.9968   -7.4502   22.7385 H   0  0  0  0  0  0
  -21.0829   -8.8645   19.8803 H   0  0  0  0  0  0
  -22.3662  -10.9593   19.6086 H   0  0  0  0  0  0
  -21.2006   -7.6086   23.9722 H   0  0  0  0  0  0
  -21.1553   -6.0427   25.9067 H   0  0  0  0  0  0
  -22.0596   -2.7559   23.2705 H   0  0  0  0  0  0
  -22.4015  -11.9640   22.4985 H   0  0  0  0  0  0
  -21.1102  -13.1105   22.2824 H   0  0  0  0  0  0
  -24.5678  -15.7921   20.5218 H   0  0  0  0  0  0
  -26.2170  -15.6536   20.2010 H   0  0  0  0  0  0
  -26.7112  -32.5521   23.1169 H   0  0  0  0  0  0
  -25.0097  -33.9796   25.0519 H   0  0  0  0  0  0
  -22.6989  -31.3110   21.3998 H   0  0  0  0  0  0
  -23.3760  -35.9639   23.3262 H   0  0  0  0  0  0
  -24.3614  -36.8969   22.2062 H   0  0  0  0  0  0
  -23.7232  -37.6501   23.6676 H   0  0  0  0  0  0
  -26.0458  -31.5941   20.5952 H   0  0  0  0  0  0
  -26.8254  -30.8876   21.9767 H   0  0  0  0  0  0
  -28.0832  -29.0494   21.2031 H   0  0  0  0  0  0
  -25.9993  -25.9311   19.0540 H   0  0  0  0  0  0
  -23.9741  -27.2955   19.0293 H   0  0  0  0  0  0
  -23.7198  -30.5936   19.3947 H   0  0  0  0  0  0
  -22.7426  -29.2351   19.8614 H   0  0  0  0  0  0
  -25.1282  -36.1963   25.0840 H   0  0  0  0  0  0
  -20.9979  -28.3324   24.1407 H   0  0  0  0  0  0
  -20.5719  -26.2343   23.3606 H   0  0  0  0  0  0
  -21.6650  -26.7537   22.1175 H   0  0  0  0  0  0
  -19.6918  -25.6337   21.1266 H   0  0  0  0  0  0
  -19.6700  -27.3232   20.6742 H   0  0  0  0  0  0
  -17.4200  -26.6738   21.4018 H   0  0  0  0  0  0
  -18.0327  -26.0135   22.9025 H   0  0  0  0  0  0
  -19.7922  -30.7337   24.2277 H   0  0  0  0  0  0
  -17.4991  -31.6284   24.5226 H   0  0  0  0  0  0
  -15.5337  -30.3029   23.7677 H   0  0  0  0  0  0
  -15.8667  -28.0910   22.6998 H   0  0  0  0  0  0
  -24.5966  -30.6961   25.7822 H   0  0  0  0  0  0
  -24.8911  -32.2784   26.4959 H   0  0  0  0  0  0
  -25.8160  -30.8822   27.0226 H   0  0  0  0  0  0
  -26.2806  -29.6787   24.1210 H   0  0  0  0  0  0
  -27.4101  -29.7280   25.4544 H   0  0  0  0  0  0
  -27.8626  -30.4334   23.9204 H   0  0  0  0  0  0
  -27.2670  -33.3650   26.2011 H   0  0  0  0  0  0
  -28.3845  -32.6871   25.0279 H   0  0  0  0  0  0
  -28.0715  -31.8485   26.5401 H   0  0  0  0  0  0
  -28.2573  -38.0121   24.7533 H   0  0  0  0  0  0
  -28.1112  -36.2661   24.6254 H   0  0  0  0  0  0
  -27.2313  -37.1408   25.8863 H   0  0  0  0  0  0
  -20.9314  -29.8769   21.6860 H   0  0  0  0  0  0
  -26.0178  -38.2857   24.1428 H   0  0  0  0  0  0
  -26.4730  -19.6567   20.6747 H   0  0  0  0  0  0
  -27.5168  -21.6991   19.8582 H   0  0  0  0  0  0
  -33.3271  -25.0999   19.6442 H   0  0  0  0  0  0
  -32.7714  -23.8667   20.8929 H   0  0  0  0  0  0
  -30.4984  -24.4381   17.3618 H   0  0  0  0  0  0
  -31.7556  -25.6104   17.6563 H   0  0  0  0  0  0
  -29.4749  -26.6666   17.7287 H   0  0  0  0  0  0
  -30.3955  -26.8510   19.1883 H   0  0  0  0  0  0
  -28.2402  -23.6638   20.5222 H   0  0  0  0  0  0
  -29.4036  -24.6878   21.2758 H   0  0  0  0  0  0
  -27.9333  -25.1927   18.7115 H   0  0  0  0  0  0
  -26.4451  -17.4632   21.1430 H   0  0  0  0  0  0
  -27.8494  -16.7776   21.9135 H   0  0  0  0  0  0
  -27.5961  -16.5379   20.1623 H   0  0  0  0  0  0
  -32.2800  -20.6839   19.8460 H   0  0  0  0  0  0
  -32.0660  -19.3061   18.7515 H   0  0  0  0  0  0
  -32.3352  -19.0657   20.4650 H   0  0  0  0  0  0
  -29.9911  -16.9319   19.5992 H   0  0  0  0  0  0
  -30.2576  -17.2206   21.5803 H   0  0  0  0  0  0
  -29.3539  -22.4368   18.2422 H   0  0  0  0  0  0
  -30.9728  -21.9552   18.5407 H   0  0  0  0  0  0
  -29.1077  -15.6225   21.1436 H   0  0  0  0  0  0
  -30.6172  -23.0311   20.7355 H   0  0  0  0  0  0
  1 25  1  0  0  0
  1 30  2  0  0  0
  1 87  1  0  0  0
  2  3  1  0  0  0
  2 25  1  0  0  0
  2 89  1  0  0  0
  2 90  1  0  0  0
  3  4  1  0  0  0
  3 91  1  0  0  0
  3 92  1  0  0  0
  4  5  1  0  0  0
  4 93  1  0  0  0
  4 94  1  0  0  0
  5  6  1  0  0  0
  5 26  1  0  0  0
  5 95  1  0  0  0
  6 25  1  0  0  0
  6 96  1  0  0  0
  6 97  1  0  0  0
  7  8  2  0  0  0
  7 26  1  0  0  0
  7 29  1  0  0  0
  8  9  1  0  0  0
  8 22  1  0  0  0
  9 10  1  0  0  0
  9 27  2  0  0  0
 10 11  2  0  0  0
 10 15  1  0  0  0
 11 12  1  0  0  0
 11 98  1  0  0  0
 12 13  2  0  0  0
 12 99  1  0  0  0
 13 14  1  0  0  0
 13 31  1  0  0  0
 14 15  2  0  0  0
 14100  1  0  0  0
 15101  1  0  0  0
 16 17  2  0  0  0
 16 21  1  0  0  0
 16 31  1  0  0  0
 17 18  1  0  0  0
 17102  1  0  0  0
 18 19  2  0  0  0
 18103  1  0  0  0
 19 20  1  0  0  0
 19 24  1  0  0  0
 20 21  2  0  0  0
 20104  1  0  0  0
 21 23  1  0  0  0
 22 28  1  0  0  0
 22 32  2  0  0  0
 26 27  1  0  0  0
 28105  1  0  0  0
 28106  1  0  0  0
 29107  1  0  0  0
 29108  1  0  0  0
 33 34  1  0  0  0
 33 66  1  0  0  0
 33 70  2  0  0  0
 34 36  1  0  0  0
 34 59  1  0  0  0
 34109  1  0  0  0
 35 44  2  0  0  0
 35 45  1  0  0  0
 35 68  1  0  0  0
 36 56  1  0  0  0
 36110  1  0  0  0
 37 39  1  0  0  0
 37 47  1  0  0  0
 37 66  1  0  0  0
 37111  1  0  0  0
 38 43  2  0  0  0
 38 46  1  0  0  0
 38 47  1  0  0  0
 39 64  1  0  0  0
 39 67  2  0  0  0
 40 52  1  0  0  0
 40 53  2  0  0  0
 40 58  1  0  0  0
 41112  1  0  0  0
 41113  1  0  0  0
 41114  1  0  0  0
 41 48  1  0  0  0
 42 43  1  0  0  0
 42 66  1  0  0  0
 42115  1  0  0  0
 42116  1  0  0  0
 43 44  1  0  0  0
 44117  1  0  0  0
 45 46  2  0  0  0
 45118  1  0  0  0
 46119  1  0  0  0
 47120  1  0  0  0
 47121  1  0  0  0
 48 56  1  0  0  0
 48 65  1  0  0  0
 48122  1  0  0  0
 49 50  1  0  0  0
 49 53  1  0  0  0
 49 64  1  0  0  0
 49123  1  0  0  0
 50 51  1  0  0  0
 50124  1  0  0  0
 50125  1  0  0  0
 51 52  1  0  0  0
 51126  1  0  0  0
 51127  1  0  0  0
 52128  1  0  0  0
 52129  1  0  0  0
 53 54  1  0  0  0
 54 55  2  0  0  0
 54130  1  0  0  0
 55 57  1  0  0  0
 55131  1  0  0  0
 56 69  2  0  0  0
 57 58  2  0  0  0
 57132  1  0  0  0
 58133  1  0  0  0
 59 60  1  0  0  0
 59 61  1  0  0  0
 59 62  1  0  0  0
 60134  1  0  0  0
 60135  1  0  0  0
 60136  1  0  0  0
 61137  1  0  0  0
 61138  1  0  0  0
 61139  1  0  0  0
 62140  1  0  0  0
 62141  1  0  0  0
 62142  1  0  0  0
 63 65  1  0  0  0
 63143  1  0  0  0
 63144  1  0  0  0
 63145  1  0  0  0
 64146  1  0  0  0
 65147  1  0  0  0
 68 82  1  0  0  0
 71 72  2  0  0  0
 71 73  1  0  0  0
 71148  1  0  0  0
 72 74  1  0  0  0
 72149  1  0  0  0
 73 76  2  0  0  0
 73 83  1  0  0  0
 74 75  2  0  0  0
 74 86  1  0  0  0
 75 76  1  0  0  0
 75 84  1  0  0  0
 76 85  1  0  0  0
 77 78  2  0  0  0
 77 79  1  0  0  0
 77 88  1  0  0  0
 78150  1  0  0  0
 78151  1  0  0  0
 79 80  1  0  0  0
 79152  1  0  0  0
 79153  1  0  0  0
 80 82  1  0  0  0
 80154  1  0  0  0
 80155  1  0  0  0
 81 82  1  0  0  0
 81 88  1  0  0  0
 81156  1  0  0  0
 81157  1  0  0  0
 82158  1  0  0  0
 83159  1  0  0  0
 83160  1  0  0  0
 83161  1  0  0  0
 84162  1  0  0  0
 84163  1  0  0  0
 84164  1  0  0  0
 85 87  1  0  0  0
 85165  1  0  0  0
 85166  1  0  0  0
 86167  1  0  0  0
 86168  1  0  0  0
 86 88  1  0  0  0
 87169  1  0  0  0
 88170  1  0  0  0
M  CHG  1  88   1
M  ISO  4   1 100  68 101  82 101  87 100
M  END
> <chiral flag>
0

> <version>
0

> <s_m_source_file>
/data/baiqing/PycharmProjects/Reinvent-master-3.2/result/LINK_invent/BTK/process_docking_weight1_custom_product_contain_oxygen_bond_distance_aromatic_linkinvent_7_9_3/rearranged_h_0036.sdf

> <i_m_source_file_index>
18

> <r_mmod_Potential_Energy-OPLS-2005>
134.718063354492

> <r_mmod_Stretch_Energy-OPLS-2005>
70.8862991333008

> <r_mmod_Bend_Energy-OPLS-2005>
366.434753417969

> <r_mmod_Torsional_Energy-OPLS-2005>
234.017288208008

> <r_mmod_Improper_Torsional_Energy-OPLS-2005>
6.69910001754761

> <r_mmod_Van_der_Waal_Energy-OPLS-2005>
158.334716796875

> <r_mmod_Electrostatic_Energy-OPLS-2005>
-319.505310058594

> <r_mmod_Solvation_Energy-OPLS-2005>
-413.561157226562

> <b_mmod_Minimization_Converged-OPLS-2005>
0

> <r_mmod_RMS_Derivative-OPLS-2005>
7.22778749465942

$$$$
18
                    3D
 Structure written by MMmdl.
161170  0  0  1  0            999 V2000
  -30.6039  -14.7530   20.4487 C   0  0  0  0  0  0
  -30.4298  -12.4581   19.4697 C   0  0  0  0  0  0
  -29.5047  -12.5001   18.2338 C   0  0  0  0  0  0
  -28.0344  -12.3185   18.6554 C   0  0  0  0  0  0
  -27.6386  -13.2279   19.8491 C   0  0  2  0  0  0
  -28.6840  -13.1732   20.9846 C   0  0  0  0  0  0
  -25.2489  -13.8173   20.5677 C   0  0  0  0  0  0
  -24.1791  -13.0426   20.9222 C   0  0  0  0  0  0
  -24.6383  -11.6906   20.8778 C   0  0  0  0  0  0
  -23.9067  -10.4284   21.0425 C   0  0  0  0  0  0
  -24.3621   -9.4199   21.9201 C   0  0  0  0  0  0
  -23.6293   -8.2237   22.0767 C   0  0  0  0  0  0
  -22.4280   -8.0281   21.3552 C   0  0  0  0  0  0
  -21.9913   -9.0253   20.4652 C   0  0  0  0  0  0
  -22.7244  -10.2127   20.3065 C   0  0  0  0  0  0
  -21.6850   -6.0731   22.5277 C   0  0  0  0  0  0
  -21.4012   -6.5640   23.8210 C   0  0  0  0  0  0
  -21.3658   -5.6796   24.9175 C   0  0  0  0  0  0
  -21.6041   -4.3053   24.7222 C   0  0  0  0  0  0
  -21.8824   -3.8144   23.4342 C   0  0  0  0  0  0
  -21.9193   -4.6962   22.3397 C   0  0  0  0  0  0
  -22.7819  -13.5221   21.1874 C   0  0  0  0  0  0
  -22.1663   -4.2148   21.0974 F   0  0  0  0  0  0
  -21.5626   -3.4538   25.7733 F   0  0  0  0  0  0
  -29.9825  -13.5238   20.3966 N   0  0  0  0  0  0
  -26.2918  -12.9378   20.3285 N   0  0  0  0  0  0
  -25.9311  -11.6522   20.5781 N   0  0  0  0  0  0
  -22.0456  -12.8210   22.0421 N   0  0  0  0  0  0
  -25.4145  -15.1881   20.4014 N   0  0  0  0  0  0
  -31.7969  -14.8332   20.1420 O   0  0  0  0  0  0
  -21.6642   -6.8877   21.4244 O   0  0  0  0  0  0
  -22.3512  -14.5534   20.6725 O   0  0  0  0  0  0
  -24.6302  -31.8541   23.1946 C   0  0  0  0  0  0
  -25.9132  -32.4744   23.8296 C   0  0  1  0  0  0
  -27.2205  -27.2561   20.1255 C   0  0  0  0  0  0
  -25.5923  -33.8544   24.2232 N   0  0  0  0  0  0
  -23.4274  -30.4744   21.5377 C   0  0  2  0  0  0
  -24.8725  -28.9177   20.1055 C   0  0  0  0  0  0
  -22.7497  -29.4595   22.4904 C   0  0  0  0  0  0
  -18.0294  -28.1392   22.8498 C   0  0  0  0  0  0
  -24.1496  -36.7264   23.2644 C   0  0  0  0  0  0
  -25.9730  -30.7635   21.3746 C   0  0  0  0  0  0
  -26.0416  -29.3859   20.7156 C   0  0  0  0  0  0
  -27.2134  -28.5664   20.7159 C   0  0  0  0  0  0
  -26.0242  -26.8472   19.4955 C   0  0  0  0  0  0
  -24.8688  -27.6565   19.4871 C   0  0  0  0  0  0
  -23.6438  -29.8052   20.1531 C   0  0  0  0  0  0
  -25.4130  -36.3063   24.0328 C   0  0  1  0  0  0
  -20.5893  -28.3695   23.1267 C   0  0  2  0  0  0
  -20.6790  -26.9414   22.5404 C   0  0  0  0  0  0
  -19.5765  -26.6389   21.5209 C   0  0  0  0  0  0
  -18.1944  -26.7939   22.1617 C   0  0  0  0  0  0
  -19.1547  -28.8862   23.2877 C   0  0  0  0  0  0
  -18.9473  -30.1471   23.8883 C   0  0  0  0  0  0
  -17.6473  -30.6591   24.0577 C   0  0  0  0  0  0
  -25.9059  -34.9438   23.5084 C   0  0  0  0  0  0
  -16.5361  -29.9095   23.6336 C   0  0  0  0  0  0
  -16.7276  -28.6514   23.0354 C   0  0  0  0  0  0
  -26.4499  -31.6581   25.0698 C   0  0  0  0  0  0
  -25.3708  -31.3731   26.1407 C   0  0  0  0  0  0
  -27.0369  -30.3016   24.6188 C   0  0  0  0  0  0
  -27.6051  -32.4331   25.7463 C   0  0  0  0  0  0
  -27.5585  -37.1797   24.8477 C   0  0  0  0  0  0
  -21.4207  -29.3046   22.3669 N   0  0  0  0  0  0
  -26.4300  -37.3772   23.9410 N   0  0  0  0  0  0
  -24.6960  -31.0510   22.0903 N   0  0  0  0  0  0
  -23.4199  -28.8155   23.3016 O   0  0  0  0  0  0
  -28.3384  -26.3972   20.2313 O   0  0  0  0  0  0
  -26.5655  -34.8912   22.4667 O   0  0  0  0  0  0
  -23.5451  -32.1351   23.7245 O   0  0  0  0  0  0
  -30.8345  -20.1589   20.7400 C   0  0  0  0  0  0
  -31.4502  -17.7798   20.8619 C   0  0  0  0  0  0
  -29.4862  -19.8527   20.4684 C   0  0  0  0  0  0
  -29.1505  -18.4270   20.4014 C   0  0  0  0  0  0
  -30.1257  -17.3523   20.6054 C   0  0  0  0  0  0
  -31.7961  -19.1460   20.9210 C   0  0  0  0  0  0
  -28.2929  -23.7018   20.3784 C   0  0  0  0  0  0
  -30.6112  -23.7500   18.7103 C   0  0  0  0  0  0
  -29.9200  -25.1152   18.9233 C   0  0  0  0  0  0
  -29.6222  -22.5698   18.6709 C   0  0  0  0  0  0
  -28.5018  -25.0666   19.5446 C   0  0  2  0  0  0
  -27.7110  -18.0564   20.0841 C   0  0  0  0  0  0
  -28.4465  -21.0678   20.3332 C   0  0  0  0  0  0
  -28.8233  -22.4980   19.9013 N   0  0  0  0  0  0
  -29.8111  -15.8878   20.6123 N   0  0  0  0  0  0
  -27.6055  -23.7400   21.4030 O   0  0  0  0  0  0
  -33.4330  -19.5914   21.2372 Cl  0  0  0  0  0  0
  -31.4695  -12.5822   19.1621 H   0  0  0  0  0  0
  -30.3766  -11.4838   19.9577 H   0  0  0  0  0  0
  -29.7884  -11.7225   17.5234 H   0  0  0  0  0  0
  -29.6235  -13.4512   17.7120 H   0  0  0  0  0  0
  -27.9035  -11.2717   18.9335 H   0  0  0  0  0  0
  -27.3698  -12.4906   17.8081 H   0  0  0  0  0  0
  -27.6302  -14.2457   19.4597 H   0  0  0  0  0  0
  -28.7227  -12.1802   21.4339 H   0  0  0  0  0  0
  -28.4169  -13.8623   21.7876 H   0  0  0  0  0  0
  -25.2759   -9.5671   22.4779 H   0  0  0  0  0  0
  -23.9992   -7.4626   22.7485 H   0  0  0  0  0  0
  -21.0843   -8.8772   19.8947 H   0  0  0  0  0  0
  -22.3712  -10.9670   19.6170 H   0  0  0  0  0  0
  -21.2009   -7.6152   23.9713 H   0  0  0  0  0  0
  -21.1473   -6.0523   25.9077 H   0  0  0  0  0  0
  -22.0604   -2.7606   23.2840 H   0  0  0  0  0  0
  -22.4057  -11.9845   22.4769 H   0  0  0  0  0  0
  -21.1089  -13.1249   22.2660 H   0  0  0  0  0  0
  -24.6351  -15.8309   20.4868 H   0  0  0  0  0  0
  -26.2339  -15.6106   19.9897 H   0  0  0  0  0  0
  -26.7198  -32.5377   23.1027 H   0  0  0  0  0  0
  -25.0095  -33.9704   25.0390 H   0  0  0  0  0  0
  -22.7258  -31.2979   21.3897 H   0  0  0  0  0  0
  -23.3773  -35.9575   23.3299 H   0  0  0  0  0  0
  -24.3591  -36.8891   22.2057 H   0  0  0  0  0  0
  -23.7225  -37.6456   23.6671 H   0  0  0  0  0  0
  -26.1205  -31.5256   20.6075 H   0  0  0  0  0  0
  -26.8477  -30.8076   22.0123 H   0  0  0  0  0  0
  -28.1075  -28.9192   21.2104 H   0  0  0  0  0  0
  -25.9367  -25.8726   19.0429 H   0  0  0  0  0  0
  -23.9669  -27.2912   19.0147 H   0  0  0  0  0  0
  -23.7705  -30.5789   19.3940 H   0  0  0  0  0  0
  -22.7610  -29.2385   19.8498 H   0  0  0  0  0  0
  -25.1316  -36.1904   25.0822 H   0  0  0  0  0  0
  -20.9993  -28.3255   24.1377 H   0  0  0  0  0  0
  -20.5708  -26.2300   23.3607 H   0  0  0  0  0  0
  -21.6658  -26.7461   22.1183 H   0  0  0  0  0  0
  -19.6931  -25.6299   21.1238 H   0  0  0  0  0  0
  -19.6691  -27.3214   20.6746 H   0  0  0  0  0  0
  -17.4225  -26.6696   21.4015 H   0  0  0  0  0  0
  -18.0329  -26.0079   22.9000 H   0  0  0  0  0  0
  -19.7951  -30.7311   24.2218 H   0  0  0  0  0  0
  -17.5024  -31.6258   24.5205 H   0  0  0  0  0  0
  -15.5362  -30.3002   23.7675 H   0  0  0  0  0  0
  -15.8673  -28.0839   22.7059 H   0  0  0  0  0  0
  -24.5887  -30.7087   25.7729 H   0  0  0  0  0  0
  -24.8881  -32.2897   26.4810 H   0  0  0  0  0  0
  -25.7992  -30.8915   27.0201 H   0  0  0  0  0  0
  -26.2962  -29.6748   24.1224 H   0  0  0  0  0  0
  -27.4112  -29.7301   25.4688 H   0  0  0  0  0  0
  -27.8796  -30.4345   23.9398 H   0  0  0  0  0  0
  -27.2678  -33.3673   26.1974 H   0  0  0  0  0  0
  -28.3876  -32.6836   25.0281 H   0  0  0  0  0  0
  -28.0703  -31.8497   26.5422 H   0  0  0  0  0  0
  -28.2616  -38.0092   24.7541 H   0  0  0  0  0  0
  -28.1077  -36.2626   24.6286 H   0  0  0  0  0  0
  -27.2308  -37.1417   25.8887 H   0  0  0  0  0  0
  -20.9399  -29.8736   21.6840 H   0  0  0  0  0  0
  -26.0171  -38.2843   24.1403 H   0  0  0  0  0  0
  -31.1458  -21.1897   20.8211 H   0  0  0  0  0  0
  -32.2368  -17.0630   21.0381 H   0  0  0  0  0  0
  -31.3244  -23.5820   19.5196 H   0  0  0  0  0  0
  -31.2060  -23.7738   17.7956 H   0  0  0  0  0  0
  -29.8459  -25.6309   17.9658 H   0  0  0  0  0  0
  -30.5726  -25.7395   19.5342 H   0  0  0  0  0  0
  -30.1710  -21.6423   18.5096 H   0  0  0  0  0  0
  -28.9520  -22.6738   17.8156 H   0  0  0  0  0  0
  -27.8111  -24.9939   18.7067 H   0  0  0  0  0  0
  -27.0330  -18.4648   20.8334 H   0  0  0  0  0  0
  -27.5573  -16.9815   20.0445 H   0  0  0  0  0  0
  -27.4271  -18.4549   19.1094 H   0  0  0  0  0  0
  -27.9247  -21.1309   21.2893 H   0  0  0  0  0  0
  -27.6786  -20.7554   19.6248 H   0  0  0  0  0  0
  -28.8351  -15.6692   20.7355 H   0  0  0  0  0  0
  1 25  1  0  0  0
  1 30  2  0  0  0
  1 85  1  0  0  0
  2  3  1  0  0  0
  2 25  1  0  0  0
  2 88  1  0  0  0
  2 89  1  0  0  0
  3  4  1  0  0  0
  3 90  1  0  0  0
  3 91  1  0  0  0
  4  5  1  0  0  0
  4 92  1  0  0  0
  4 93  1  0  0  0
  5  6  1  0  0  0
  5 26  1  0  0  0
  5 94  1  0  0  0
  6 25  1  0  0  0
  6 95  1  0  0  0
  6 96  1  0  0  0
  7  8  2  0  0  0
  7 26  1  0  0  0
  7 29  1  0  0  0
  8  9  1  0  0  0
  8 22  1  0  0  0
  9 10  1  0  0  0
  9 27  2  0  0  0
 10 11  2  0  0  0
 10 15  1  0  0  0
 11 12  1  0  0  0
 11 97  1  0  0  0
 12 13  2  0  0  0
 12 98  1  0  0  0
 13 14  1  0  0  0
 13 31  1  0  0  0
 14 15  2  0  0  0
 14 99  1  0  0  0
 15100  1  0  0  0
 16 17  2  0  0  0
 16 21  1  0  0  0
 16 31  1  0  0  0
 17 18  1  0  0  0
 17101  1  0  0  0
 18 19  2  0  0  0
 18102  1  0  0  0
 19 20  1  0  0  0
 19 24  1  0  0  0
 20 21  2  0  0  0
 20103  1  0  0  0
 21 23  1  0  0  0
 22 28  1  0  0  0
 22 32  2  0  0  0
 26 27  1  0  0  0
 28104  1  0  0  0
 28105  1  0  0  0
 29106  1  0  0  0
 29107  1  0  0  0
 33 34  1  0  0  0
 33 66  1  0  0  0
 33 70  2  0  0  0
 34 36  1  0  0  0
 34 59  1  0  0  0
 34108  1  0  0  0
 35 44  2  0  0  0
 35 45  1  0  0  0
 35 68  1  0  0  0
 36 56  1  0  0  0
 36109  1  0  0  0
 37 39  1  0  0  0
 37 47  1  0  0  0
 37 66  1  0  0  0
 37110  1  0  0  0
 38 43  2  0  0  0
 38 46  1  0  0  0
 38 47  1  0  0  0
 39 64  1  0  0  0
 39 67  2  0  0  0
 40 52  1  0  0  0
 40 53  2  0  0  0
 40 58  1  0  0  0
 41111  1  0  0  0
 41112  1  0  0  0
 41113  1  0  0  0
 41 48  1  0  0  0
 42 43  1  0  0  0
 42 66  1  0  0  0
 42114  1  0  0  0
 42115  1  0  0  0
 43 44  1  0  0  0
 44116  1  0  0  0
 45 46  2  0  0  0
 45117  1  0  0  0
 46118  1  0  0  0
 47119  1  0  0  0
 47120  1  0  0  0
 48 56  1  0  0  0
 48 65  1  0  0  0
 48121  1  0  0  0
 49 50  1  0  0  0
 49 53  1  0  0  0
 49 64  1  0  0  0
 49122  1  0  0  0
 50 51  1  0  0  0
 50123  1  0  0  0
 50124  1  0  0  0
 51 52  1  0  0  0
 51125  1  0  0  0
 51126  1  0  0  0
 52127  1  0  0  0
 52128  1  0  0  0
 53 54  1  0  0  0
 54 55  2  0  0  0
 54129  1  0  0  0
 55 57  1  0  0  0
 55130  1  0  0  0
 56 69  2  0  0  0
 57 58  2  0  0  0
 57131  1  0  0  0
 58132  1  0  0  0
 59 60  1  0  0  0
 59 61  1  0  0  0
 59 62  1  0  0  0
 60133  1  0  0  0
 60134  1  0  0  0
 60135  1  0  0  0
 61136  1  0  0  0
 61137  1  0  0  0
 61138  1  0  0  0
 62139  1  0  0  0
 62140  1  0  0  0
 62141  1  0  0  0
 63 65  1  0  0  0
 63142  1  0  0  0
 63143  1  0  0  0
 63144  1  0  0  0
 64145  1  0  0  0
 65146  1  0  0  0
 68 81  1  0  0  0
 71 73  2  0  0  0
 71 76  1  0  0  0
 71147  1  0  0  0
 72 75  1  0  0  0
 72 76  2  0  0  0
 72148  1  0  0  0
 73 74  1  0  0  0
 73 83  1  0  0  0
 74 75  2  0  0  0
 74 82  1  0  0  0
 75 85  1  0  0  0
 76 87  1  0  0  0
 77 81  1  0  0  0
 77 84  1  0  0  0
 77 86  2  0  0  0
 78 79  1  0  0  0
 78 80  1  0  0  0
 78149  1  0  0  0
 78150  1  0  0  0
 79 81  1  0  0  0
 79151  1  0  0  0
 79152  1  0  0  0
 80 84  1  0  0  0
 80153  1  0  0  0
 80154  1  0  0  0
 81155  1  0  0  0
 82156  1  0  0  0
 82157  1  0  0  0
 82158  1  0  0  0
 83 84  1  0  0  0
 83159  1  0  0  0
 83160  1  0  0  0
 85161  1  0  0  0
M  ISO  4   1 100  68 101  81 101  85 100
M  END
> <chiral flag>
0

> <version>
0

> <s_m_source_file>
/data/baiqing/PycharmProjects/Reinvent-master-3.2/result/LINK_invent/BTK/process_docking_weight1_custom_product_contain_oxygen_bond_distance_aromatic_linkinvent_7_9_3/rearranged_h_0036.sdf

> <i_m_source_file_index>
19

> <r_mmod_Potential_Energy-OPLS-2005>
226.830078125

> <r_mmod_Stretch_Energy-OPLS-2005>
138.618591308594

> <r_mmod_Bend_Energy-OPLS-2005>
176.798873901367

> <r_mmod_Torsional_Energy-OPLS-2005>
242.881454467773

> <r_mmod_Improper_Torsional_Energy-OPLS-2005>
6.79500484466553

> <r_mmod_Van_der_Waal_Energy-OPLS-2005>
145.539489746094

> <r_mmod_Electrostatic_Energy-OPLS-2005>
-335.853546142578

> <r_mmod_Solvation_Energy-OPLS-2005>
-236.028732299805

> <b_mmod_Minimization_Converged-OPLS-2005>
0

> <r_mmod_RMS_Derivative-OPLS-2005>
2.12432312965393

$$$$
19
                    3D
 Structure written by MMmdl.
170179  0  0  1  0            999 V2000
  -30.7708  -14.3589   20.6779 C   0  0  0  0  0  0
  -30.4178  -12.2804   19.4003 C   0  0  0  0  0  0
  -29.4928  -12.5398   18.1974 C   0  0  0  0  0  0
  -28.0173  -12.3880   18.6099 C   0  0  0  0  0  0
  -27.6702  -13.2056   19.8819 C   0  0  2  0  0  0
  -28.7072  -12.9434   20.9975 C   0  0  0  0  0  0
  -25.2639  -13.8172   20.5679 C   0  0  0  0  0  0
  -24.1862  -13.0460   20.9140 C   0  0  0  0  0  0
  -24.6411  -11.6920   20.8704 C   0  0  0  0  0  0
  -23.9069  -10.4304   21.0387 C   0  0  0  0  0  0
  -24.3609   -9.4222   21.9179 C   0  0  0  0  0  0
  -23.6278   -8.2261   22.0755 C   0  0  0  0  0  0
  -22.4260   -8.0297   21.3551 C   0  0  0  0  0  0
  -21.9891   -9.0266   20.4653 C   0  0  0  0  0  0
  -22.7237  -10.2138   20.3053 C   0  0  0  0  0  0
  -21.6858   -6.0728   22.5267 C   0  0  0  0  0  0
  -21.4012   -6.5624   23.8203 C   0  0  0  0  0  0
  -21.3660   -5.6774   24.9160 C   0  0  0  0  0  0
  -21.6039   -4.3036   24.7221 C   0  0  0  0  0  0
  -21.8826   -3.8134   23.4344 C   0  0  0  0  0  0
  -21.9192   -4.6948   22.3396 C   0  0  0  0  0  0
  -22.7899  -13.5270   21.1811 C   0  0  0  0  0  0
  -22.1673   -4.2138   21.0975 F   0  0  0  0  0  0
  -21.5616   -3.4524   25.7735 F   0  0  0  0  0  0
  -30.0550  -13.2260   20.4642 N   0  0  0  0  0  0
  -26.3076  -12.9340   20.3379 N   0  0  0  0  0  0
  -25.9339  -11.6497   20.5743 N   0  0  0  0  0  0
  -22.0501  -12.8273   22.0352 N   0  0  0  0  0  0
  -25.4380  -15.1901   20.4168 N   0  0  0  0  0  0
  -31.7925  -14.6462   20.0460 O   0  0  0  0  0  0
  -21.6642   -6.8881   21.4241 O   0  0  0  0  0  0
  -22.3597  -14.5591   20.6677 O   0  0  0  0  0  0
  -24.6142  -31.8689   23.2133 C   0  0  0  0  0  0
  -25.9050  -32.4823   23.8411 C   0  0  1  0  0  0
  -27.2347  -27.4476   20.0779 C   0  0  0  0  0  0
  -25.5935  -33.8631   24.2348 N   0  0  0  0  0  0
  -23.3986  -30.4937   21.5549 C   0  0  2  0  0  0
  -24.8401  -28.9591   20.1190 C   0  0  0  0  0  0
  -22.7402  -29.4657   22.5008 C   0  0  0  0  0  0
  -18.0275  -28.1380   22.8468 C   0  0  0  0  0  0
  -24.1499  -36.7320   23.2630 C   0  0  0  0  0  0
  -25.9269  -30.8373   21.3621 C   0  0  0  0  0  0
  -26.0012  -29.4736   20.7063 C   0  0  0  0  0  0
  -27.1981  -28.7250   20.6811 C   0  0  0  0  0  0
  -26.0458  -26.9361   19.5022 C   0  0  0  0  0  0
  -24.8555  -27.6867   19.5216 C   0  0  0  0  0  0
  -23.6059  -29.8301   20.1681 C   0  0  0  0  0  0
  -25.4107  -36.3102   24.0335 C   0  0  1  0  0  0
  -20.5858  -28.3666   23.1314 C   0  0  2  0  0  0
  -20.6788  -26.9406   22.5410 C   0  0  0  0  0  0
  -19.5774  -26.6378   21.5207 C   0  0  0  0  0  0
  -18.1941  -26.7923   22.1599 C   0  0  0  0  0  0
  -19.1522  -28.8841   23.2891 C   0  0  0  0  0  0
  -18.9451  -30.1445   23.8900 C   0  0  0  0  0  0
  -17.6454  -30.6568   24.0572 C   0  0  0  0  0  0
  -25.9032  -34.9472   23.5120 C   0  0  0  0  0  0
  -16.5344  -29.9067   23.6334 C   0  0  0  0  0  0
  -16.7264  -28.6500   23.0320 C   0  0  0  0  0  0
  -26.4477  -31.6596   25.0735 C   0  0  0  0  0  0
  -25.3751  -31.3718   26.1498 C   0  0  0  0  0  0
  -27.0300  -30.3037   24.6106 C   0  0  0  0  0  0
  -27.6074  -32.4296   25.7482 C   0  0  0  0  0  0
  -27.5586  -37.1807   24.8450 C   0  0  0  0  0  0
  -21.4133  -29.3025   22.3732 N   0  0  0  0  0  0
  -26.4288  -37.3792   23.9405 N   0  0  0  0  0  0
  -24.6650  -31.0799   22.1026 N   0  0  0  0  0  0
  -23.4175  -28.8206   23.3053 O   0  0  0  0  0  0
  -28.4398  -26.7743   20.0830 O   0  0  0  0  0  0
  -26.5569  -34.8919   22.4668 O   0  0  0  0  0  0
  -23.5342  -32.1439   23.7544 O   0  0  0  0  0  0
  -31.0086  -18.2136   20.1467 C   0  0  0  0  0  0
  -28.2834  -18.8739   20.2986 C   0  0  0  0  0  0
  -30.1872  -17.5611   21.0898 C   0  0  0  0  0  0
  -29.1047  -19.5197   19.3479 C   0  0  0  0  0  0
  -28.8171  -17.9049   21.1699 C   0  0  0  0  0  0
  -30.4767  -19.1896   19.2835 C   0  0  0  0  0  0
  -28.8048  -22.4742   19.9993 C   0  0  0  0  0  0
  -27.7076  -22.2616   20.7493 C   0  0  0  0  0  0
  -30.0025  -23.3178   20.4083 C   0  0  0  0  0  0
  -29.7046  -24.8352   20.5002 C   0  0  0  0  0  0
  -29.3686  -24.1642   17.4482 C   0  0  0  0  0  0
  -28.7564  -25.4168   18.1163 C   0  0  0  0  0  0
  -28.5443  -22.8550   17.5387 C   0  0  0  0  0  0
  -28.5426  -25.4124   19.6509 C   0  0  2  0  0  0
  -30.7896  -16.4834   21.9804 C   0  0  0  0  0  0
  -28.4983  -20.5409   18.3908 C   0  0  0  0  0  0
  -30.2968  -15.1533   21.6401 N   0  0  0  0  0  0
  -28.9903  -21.9290   18.6157 N   0  3  2  0  0  0
  -27.7684  -17.1462   22.3138 Cl  0  0  0  0  0  0
  -31.5238  -19.9871   18.1635 Cl  0  0  0  0  0  0
  -31.4654  -12.3649   19.1055 H   0  0  0  0  0  0
  -30.2947  -11.2577   19.7593 H   0  0  0  0  0  0
  -29.7272  -11.8548   17.3822 H   0  0  0  0  0  0
  -29.6691  -13.5460   17.8120 H   0  0  0  0  0  0
  -27.8278  -11.3291   18.7895 H   0  0  0  0  0  0
  -27.3672  -12.6784   17.7858 H   0  0  0  0  0  0
  -27.7276  -14.2609   19.6140 H   0  0  0  0  0  0
  -28.6655  -11.9008   21.3171 H   0  0  0  0  0  0
  -28.4528  -13.5251   21.8838 H   0  0  0  0  0  0
  -25.2746   -9.5692   22.4771 H   0  0  0  0  0  0
  -23.9971   -7.4652   22.7482 H   0  0  0  0  0  0
  -21.0808   -8.8806   19.8972 H   0  0  0  0  0  0
  -22.3702  -10.9676   19.6163 H   0  0  0  0  0  0
  -21.2013   -7.6136   23.9713 H   0  0  0  0  0  0
  -21.1471   -6.0496   25.9066 H   0  0  0  0  0  0
  -22.0607   -2.7595   23.2849 H   0  0  0  0  0  0
  -22.4052  -11.9904   22.4731 H   0  0  0  0  0  0
  -21.1155  -13.1381   22.2583 H   0  0  0  0  0  0
  -24.6897  -15.8559   20.5771 H   0  0  0  0  0  0
  -26.3239  -15.6342   20.2086 H   0  0  0  0  0  0
  -26.7116  -32.5535   23.1172 H   0  0  0  0  0  0
  -25.0160  -33.9823   25.0544 H   0  0  0  0  0  0
  -22.6851  -31.3107   21.4209 H   0  0  0  0  0  0
  -23.3754  -35.9662   23.3276 H   0  0  0  0  0  0
  -24.3603  -36.8954   22.2045 H   0  0  0  0  0  0
  -23.7260  -37.6527   23.6659 H   0  0  0  0  0  0
  -26.0358  -31.6064   20.5966 H   0  0  0  0  0  0
  -26.8160  -30.8914   21.9790 H   0  0  0  0  0  0
  -28.0995  -29.1256   21.1246 H   0  0  0  0  0  0
  -26.0093  -25.9669   19.0293 H   0  0  0  0  0  0
  -23.9568  -27.2788   19.0783 H   0  0  0  0  0  0
  -23.7257  -30.6122   19.4173 H   0  0  0  0  0  0
  -22.7257  -29.2633   19.8621 H   0  0  0  0  0  0
  -25.1273  -36.1964   25.0826 H   0  0  0  0  0  0
  -20.9938  -28.3238   24.1446 H   0  0  0  0  0  0
  -20.5711  -26.2274   23.3591 H   0  0  0  0  0  0
  -21.6661  -26.7486   22.1194 H   0  0  0  0  0  0
  -19.6955  -25.6288   21.1240 H   0  0  0  0  0  0
  -19.6718  -27.3186   20.6732 H   0  0  0  0  0  0
  -17.4220  -26.6656   21.3993 H   0  0  0  0  0  0
  -18.0340  -26.0059   22.8985 H   0  0  0  0  0  0
  -19.7928  -30.7263   24.2259 H   0  0  0  0  0  0
  -17.5004  -31.6243   24.5185 H   0  0  0  0  0  0
  -15.5341  -30.2966   23.7663 H   0  0  0  0  0  0
  -15.8663  -28.0828   22.7003 H   0  0  0  0  0  0
  -24.5892  -30.7099   25.7839 H   0  0  0  0  0  0
  -24.8985  -32.2894   26.4963 H   0  0  0  0  0  0
  -25.8100  -30.8857   27.0245 H   0  0  0  0  0  0
  -26.2837  -29.6786   24.1187 H   0  0  0  0  0  0
  -27.4105  -29.7275   25.4553 H   0  0  0  0  0  0
  -27.8661  -30.4348   23.9229 H   0  0  0  0  0  0
  -27.2719  -33.3587   26.2100 H   0  0  0  0  0  0
  -28.3860  -32.6865   25.0288 H   0  0  0  0  0  0
  -28.0778  -31.8395   26.5361 H   0  0  0  0  0  0
  -28.2575  -38.0129   24.7517 H   0  0  0  0  0  0
  -28.1105  -36.2664   24.6229 H   0  0  0  0  0  0
  -27.2323  -37.1400   25.8858 H   0  0  0  0  0  0
  -20.9307  -29.8718   21.6922 H   0  0  0  0  0  0
  -26.0168  -38.2869   24.1424 H   0  0  0  0  0  0
  -32.0565  -17.9610   20.0771 H   0  0  0  0  0  0
  -27.2314  -19.1107   20.3638 H   0  0  0  0  0  0
  -27.6277  -22.6900   21.7375 H   0  0  0  0  0  0
  -26.8691  -21.6753   20.4052 H   0  0  0  0  0  0
  -30.8431  -23.1422   19.7369 H   0  0  0  0  0  0
  -30.3572  -22.9597   21.3766 H   0  0  0  0  0  0
  -30.6182  -25.3946   20.3003 H   0  0  0  0  0  0
  -29.4685  -25.0462   21.5446 H   0  0  0  0  0  0
  -30.4017  -24.0214   17.7635 H   0  0  0  0  0  0
  -29.4574  -24.4096   16.3887 H   0  0  0  0  0  0
  -27.8075  -25.6355   17.6260 H   0  0  0  0  0  0
  -29.3996  -26.2613   17.8671 H   0  0  0  0  0  0
  -28.6689  -22.3373   16.5850 H   0  0  0  0  0  0
  -27.4761  -23.0633   17.6253 H   0  0  0  0  0  0
  -27.6347  -24.8674   19.9070 H   0  0  0  0  0  0
  -30.5415  -16.6959   23.0206 H   0  0  0  0  0  0
  -31.8797  -16.5091   21.9273 H   0  0  0  0  0  0
  -27.4100  -20.5127   18.4550 H   0  0  0  0  0  0
  -28.7423  -20.2190   17.3775 H   0  0  0  0  0  0
  -29.4735  -14.8336   22.1273 H   0  0  0  0  0  0
  -29.9859  -21.8282   18.4677 H   0  0  0  0  0  0
  1 25  1  0  0  0
  1 30  2  0  0  0
  1 87  1  0  0  0
  2  3  1  0  0  0
  2 25  1  0  0  0
  2 91  1  0  0  0
  2 92  1  0  0  0
  3  4  1  0  0  0
  3 93  1  0  0  0
  3 94  1  0  0  0
  4  5  1  0  0  0
  4 95  1  0  0  0
  4 96  1  0  0  0
  5  6  1  0  0  0
  5 26  1  0  0  0
  5 97  1  0  0  0
  6 25  1  0  0  0
  6 98  1  0  0  0
  6 99  1  0  0  0
  7  8  2  0  0  0
  7 26  1  0  0  0
  7 29  1  0  0  0
  8  9  1  0  0  0
  8 22  1  0  0  0
  9 10  1  0  0  0
  9 27  2  0  0  0
 10 11  2  0  0  0
 10 15  1  0  0  0
 11 12  1  0  0  0
 11100  1  0  0  0
 12 13  2  0  0  0
 12101  1  0  0  0
 13 14  1  0  0  0
 13 31  1  0  0  0
 14 15  2  0  0  0
 14102  1  0  0  0
 15103  1  0  0  0
 16 17  2  0  0  0
 16 21  1  0  0  0
 16 31  1  0  0  0
 17 18  1  0  0  0
 17104  1  0  0  0
 18 19  2  0  0  0
 18105  1  0  0  0
 19 20  1  0  0  0
 19 24  1  0  0  0
 20 21  2  0  0  0
 20106  1  0  0  0
 21 23  1  0  0  0
 22 28  1  0  0  0
 22 32  2  0  0  0
 26 27  1  0  0  0
 28107  1  0  0  0
 28108  1  0  0  0
 29109  1  0  0  0
 29110  1  0  0  0
 33 34  1  0  0  0
 33 66  1  0  0  0
 33 70  2  0  0  0
 34 36  1  0  0  0
 34 59  1  0  0  0
 34111  1  0  0  0
 35 44  2  0  0  0
 35 45  1  0  0  0
 35 68  1  0  0  0
 36 56  1  0  0  0
 36112  1  0  0  0
 37 39  1  0  0  0
 37 47  1  0  0  0
 37 66  1  0  0  0
 37113  1  0  0  0
 38 43  2  0  0  0
 38 46  1  0  0  0
 38 47  1  0  0  0
 39 64  1  0  0  0
 39 67  2  0  0  0
 40 52  1  0  0  0
 40 53  2  0  0  0
 40 58  1  0  0  0
 41114  1  0  0  0
 41115  1  0  0  0
 41116  1  0  0  0
 41 48  1  0  0  0
 42 43  1  0  0  0
 42 66  1  0  0  0
 42117  1  0  0  0
 42118  1  0  0  0
 43 44  1  0  0  0
 44119  1  0  0  0
 45 46  2  0  0  0
 45120  1  0  0  0
 46121  1  0  0  0
 47122  1  0  0  0
 47123  1  0  0  0
 48 56  1  0  0  0
 48 65  1  0  0  0
 48124  1  0  0  0
 49 50  1  0  0  0
 49 53  1  0  0  0
 49 64  1  0  0  0
 49125  1  0  0  0
 50 51  1  0  0  0
 50126  1  0  0  0
 50127  1  0  0  0
 51 52  1  0  0  0
 51128  1  0  0  0
 51129  1  0  0  0
 52130  1  0  0  0
 52131  1  0  0  0
 53 54  1  0  0  0
 54 55  2  0  0  0
 54132  1  0  0  0
 55 57  1  0  0  0
 55133  1  0  0  0
 56 69  2  0  0  0
 57 58  2  0  0  0
 57134  1  0  0  0
 58135  1  0  0  0
 59 60  1  0  0  0
 59 61  1  0  0  0
 59 62  1  0  0  0
 60136  1  0  0  0
 60137  1  0  0  0
 60138  1  0  0  0
 61139  1  0  0  0
 61140  1  0  0  0
 61141  1  0  0  0
 62142  1  0  0  0
 62143  1  0  0  0
 62144  1  0  0  0
 63 65  1  0  0  0
 63145  1  0  0  0
 63146  1  0  0  0
 63147  1  0  0  0
 64148  1  0  0  0
 65149  1  0  0  0
 68 84  1  0  0  0
 71 73  2  0  0  0
 71 76  1  0  0  0
 71150  1  0  0  0
 72 74  1  0  0  0
 72 75  2  0  0  0
 72151  1  0  0  0
 73 75  1  0  0  0
 73 85  1  0  0  0
 74 76  2  0  0  0
 74 86  1  0  0  0
 75 89  1  0  0  0
 76 90  1  0  0  0
 77 78  2  0  0  0
 77 79  1  0  0  0
 77 88  1  0  0  0
 78152  1  0  0  0
 78153  1  0  0  0
 79 80  1  0  0  0
 79154  1  0  0  0
 79155  1  0  0  0
 80 84  1  0  0  0
 80156  1  0  0  0
 80157  1  0  0  0
 81 82  1  0  0  0
 81 83  1  0  0  0
 81158  1  0  0  0
 81159  1  0  0  0
 82 84  1  0  0  0
 82160  1  0  0  0
 82161  1  0  0  0
 83 88  1  0  0  0
 83162  1  0  0  0
 83163  1  0  0  0
 84164  1  0  0  0
 85 87  1  0  0  0
 85165  1  0  0  0
 85166  1  0  0  0
 86167  1  0  0  0
 86168  1  0  0  0
 86 88  1  0  0  0
 87169  1  0  0  0
 88170  1  0  0  0
M  CHG  1  88   1
M  ISO  4   1 100  68 101  84 101  87 100
M  END
> <chiral flag>
0

> <version>
0

> <s_m_source_file>
/data/baiqing/PycharmProjects/Reinvent-master-3.2/result/LINK_invent/BTK/process_docking_weight1_custom_product_contain_oxygen_bond_distance_aromatic_linkinvent_7_9_3/rearranged_h_0036.sdf

> <i_m_source_file_index>
20

> <r_mmod_Potential_Energy-OPLS-2005>
-230.076995849609

> <r_mmod_Stretch_Energy-OPLS-2005>
36.5068778991699

> <r_mmod_Bend_Energy-OPLS-2005>
121.044731140137

> <r_mmod_Torsional_Energy-OPLS-2005>
212.888275146484

> <r_mmod_Improper_Torsional_Energy-OPLS-2005>
1.77345263957977

> <r_mmod_Van_der_Waal_Energy-OPLS-2005>
150.800338745117

> <r_mmod_Electrostatic_Energy-OPLS-2005>
-328.674194335938

> <r_mmod_Solvation_Energy-OPLS-2005>
-432.683135986328

> <b_mmod_Minimization_Converged-OPLS-2005>
0

> <r_mmod_RMS_Derivative-OPLS-2005>
2.64586043357849

$$$$
20
                    3D
 Structure written by MMmdl.
163171  0  0  1  0            999 V2000
  -30.7737  -14.4375   20.4845 C   0  0  0  0  0  0
  -30.4160  -12.2885   19.3788 C   0  0  0  0  0  0
  -29.4775  -12.4871   18.1728 C   0  0  0  0  0  0
  -28.0095  -12.3365   18.6181 C   0  0  0  0  0  0
  -27.6647  -13.1944   19.8670 C   0  0  2  0  0  0
  -28.7332  -13.0448   20.9794 C   0  0  0  0  0  0
  -25.2574  -13.8086   20.5633 C   0  0  0  0  0  0
  -24.1839  -13.0331   20.9119 C   0  0  0  0  0  0
  -24.6444  -11.6837   20.8740 C   0  0  0  0  0  0
  -23.9117  -10.4224   21.0434 C   0  0  0  0  0  0
  -24.3662   -9.4153   21.9234 C   0  0  0  0  0  0
  -23.6285   -8.2211   22.0841 C   0  0  0  0  0  0
  -22.4265   -8.0265   21.3596 C   0  0  0  0  0  0
  -21.9950   -9.0235   20.4681 C   0  0  0  0  0  0
  -22.7309  -10.2088   20.3079 C   0  0  0  0  0  0
  -21.6808   -6.0709   22.5277 C   0  0  0  0  0  0
  -21.3918   -6.5605   23.8201 C   0  0  0  0  0  0
  -21.3694   -5.6787   24.9185 C   0  0  0  0  0  0
  -21.6107   -4.3060   24.7224 C   0  0  0  0  0  0
  -21.8819   -3.8120   23.4325 C   0  0  0  0  0  0
  -21.9192   -4.6932   22.3391 C   0  0  0  0  0  0
  -22.7903  -13.5169   21.1757 C   0  0  0  0  0  0
  -22.1658   -4.2137   21.0949 F   0  0  0  0  0  0
  -21.5727   -3.4556   25.7729 F   0  0  0  0  0  0
  -30.0482  -13.2962   20.3799 N   0  0  0  0  0  0
  -26.3093  -12.9271   20.3458 N   0  0  0  0  0  0
  -25.9382  -11.6451   20.5860 N   0  0  0  0  0  0
  -22.0543  -12.8090   22.0255 N   0  0  0  0  0  0
  -25.4040  -15.1758   20.3900 N   0  0  0  0  0  0
  -31.9581  -14.5134   20.1671 O   0  0  0  0  0  0
  -21.6604   -6.8856   21.4246 O   0  0  0  0  0  0
  -22.3645  -14.5566   20.6726 O   0  0  0  0  0  0
  -24.6053  -31.8694   23.2191 C   0  0  0  0  0  0
  -25.8956  -32.4844   23.8497 C   0  0  1  0  0  0
  -27.2396  -27.4885   20.0812 C   0  0  0  0  0  0
  -25.5821  -33.8639   24.2387 N   0  0  0  0  0  0
  -23.3936  -30.4943   21.5551 C   0  0  2  0  0  0
  -24.8418  -28.9667   20.1219 C   0  0  0  0  0  0
  -22.7395  -29.4653   22.5012 C   0  0  0  0  0  0
  -18.0271  -28.1375   22.8437 C   0  0  0  0  0  0
  -24.1484  -36.7344   23.2641 C   0  0  0  0  0  0
  -25.9211  -30.8499   21.3688 C   0  0  0  0  0  0
  -25.9978  -29.4932   20.7081 C   0  0  0  0  0  0
  -27.2025  -28.7642   20.6741 C   0  0  0  0  0  0
  -26.0640  -26.9576   19.5028 C   0  0  0  0  0  0
  -24.8675  -27.6979   19.5148 C   0  0  0  0  0  0
  -23.5991  -29.8220   20.1711 C   0  0  0  0  0  0
  -25.4104  -36.3138   24.0346 C   0  0  1  0  0  0
  -20.5873  -28.3612   23.1404 C   0  0  2  0  0  0
  -20.6674  -26.9309   22.5566 C   0  0  0  0  0  0
  -19.5819  -26.6557   21.5103 C   0  0  0  0  0  0
  -18.1896  -26.8071   22.1285 C   0  0  0  0  0  0
  -19.1516  -28.8782   23.2968 C   0  0  0  0  0  0
  -18.9413  -30.1384   23.8993 C   0  0  0  0  0  0
  -17.6398  -30.6487   24.0656 C   0  0  0  0  0  0
  -25.9008  -34.9474   23.5170 C   0  0  0  0  0  0
  -16.5323  -29.9014   23.6293 C   0  0  0  0  0  0
  -16.7273  -28.6509   23.0229 C   0  0  0  0  0  0
  -26.4438  -31.6611   25.0816 C   0  0  0  0  0  0
  -25.3774  -31.3670   26.1614 C   0  0  0  0  0  0
  -27.0235  -30.3054   24.6147 C   0  0  0  0  0  0
  -27.6014  -32.4358   25.7538 C   0  0  0  0  0  0
  -27.5586  -37.1809   24.8466 C   0  0  0  0  0  0
  -21.4129  -29.2949   22.3750 N   0  0  0  0  0  0
  -26.4317  -37.3797   23.9400 N   0  0  0  0  0  0
  -24.6577  -31.0861   22.1066 N   0  0  0  0  0  0
  -23.4206  -28.8275   23.3086 O   0  0  0  0  0  0
  -28.4355  -26.8159   20.0793 O   0  0  0  0  0  0
  -26.5592  -34.8899   22.4750 O   0  0  0  0  0  0
  -23.5239  -32.1400   23.7614 O   0  0  0  0  0  0
  -27.8240  -19.4185   19.9267 C   0  0  0  0  0  0
  -30.4399  -19.3073   20.9163 C   0  0  0  0  0  0
  -28.4700  -20.6135   20.3035 C   0  0  0  0  0  0
  -29.8204  -18.1160   20.4898 C   0  0  0  0  0  0
  -28.5110  -18.1865   19.9542 C   0  0  0  0  0  0
  -29.8045  -20.5507   20.7681 C   0  0  0  0  0  0
  -27.5092  -23.0468   22.2357 C   0  0  0  0  0  0
  -25.5184  -22.6244   20.8606 C   0  0  0  0  0  0
  -27.7785  -21.9481   20.0485 C   0  0  0  0  0  0
  -30.6991  -16.8693   20.4872 C   0  0  0  0  0  0
  -27.1275  -24.4864   22.5944 C   0  0  0  0  0  0
  -28.2145  -25.4714   22.1169 C   0  0  0  0  0  0
  -28.3965  -25.4905   20.5808 C   0  0  0  0  0  0
  -30.0731  -15.5601   20.6858 N   0  0  0  0  0  0
  -26.9507  -22.4950   21.1390 N   0  0  0  0  0  0
  -28.4144  -22.5056   22.8727 O   0  0  0  0  0  0
  -27.7511  -16.8338   19.2027 Cl  0  0  0  0  0  0
  -30.8631  -22.1116   21.0550 Br  0  0  0  0  0  0
  -31.4570  -12.3686   19.0601 H   0  0  0  0  0  0
  -30.3070  -11.2909   19.7967 H   0  0  0  0  0  0
  -29.7028  -11.7611   17.3896 H   0  0  0  0  0  0
  -29.6390  -13.4690   17.7243 H   0  0  0  0  0  0
  -27.8451  -11.2810   18.8372 H   0  0  0  0  0  0
  -27.3450  -12.5805   17.7877 H   0  0  0  0  0  0
  -27.6790  -14.2233   19.5279 H   0  0  0  0  0  0
  -28.7222  -12.0472   21.4223 H   0  0  0  0  0  0
  -28.5546  -13.7492   21.7922 H   0  0  0  0  0  0
  -25.2856   -9.5577   22.4762 H   0  0  0  0  0  0
  -24.0038   -7.4595   22.7558 H   0  0  0  0  0  0
  -21.0958   -8.8700   19.8904 H   0  0  0  0  0  0
  -22.3875  -10.9599   19.6141 H   0  0  0  0  0  0
  -21.1736   -7.6085   23.9661 H   0  0  0  0  0  0
  -21.1608   -6.0523   25.9110 H   0  0  0  0  0  0
  -22.0576   -2.7567   23.2822 H   0  0  0  0  0  0
  -22.4244  -11.9679   22.4424 H   0  0  0  0  0  0
  -21.1181  -13.1114   22.2545 H   0  0  0  0  0  0
  -24.5993  -15.7916   20.3922 H   0  0  0  0  0  0
  -26.2334  -15.6177   20.0041 H   0  0  0  0  0  0
  -26.7035  -32.5561   23.1274 H   0  0  0  0  0  0
  -24.9952  -33.9864   25.0487 H   0  0  0  0  0  0
  -22.6812  -31.3118   21.4211 H   0  0  0  0  0  0
  -23.3747  -35.9678   23.3332 H   0  0  0  0  0  0
  -24.3582  -36.8916   22.2052 H   0  0  0  0  0  0
  -23.7224  -37.6558   23.6621 H   0  0  0  0  0  0
  -26.0366  -31.6264   20.6143 H   0  0  0  0  0  0
  -26.8039  -30.8905   21.9958 H   0  0  0  0  0  0
  -28.1057  -29.1704   21.1036 H   0  0  0  0  0  0
  -26.0661  -25.9890   19.0214 H   0  0  0  0  0  0
  -23.9764  -27.2955   19.0541 H   0  0  0  0  0  0
  -23.6953  -30.5935   19.4085 H   0  0  0  0  0  0
  -22.7285  -29.2319   19.8776 H   0  0  0  0  0  0
  -25.1259  -36.2060   25.0844 H   0  0  0  0  0  0
  -21.0010  -28.3256   24.1504 H   0  0  0  0  0  0
  -20.5141  -26.2244   23.3746 H   0  0  0  0  0  0
  -21.6584  -26.7088   22.1624 H   0  0  0  0  0  0
  -19.6938  -25.6587   21.0846 H   0  0  0  0  0  0
  -19.6970  -27.3624   20.6866 H   0  0  0  0  0  0
  -17.4358  -26.7315   21.3435 H   0  0  0  0  0  0
  -17.9905  -25.9973   22.8294 H   0  0  0  0  0  0
  -19.7874  -30.7195   24.2406 H   0  0  0  0  0  0
  -17.4887  -31.6103   24.5381 H   0  0  0  0  0  0
  -15.5303  -30.2879   23.7528 H   0  0  0  0  0  0
  -15.8719  -28.0845   22.6746 H   0  0  0  0  0  0
  -24.5906  -30.7049   25.8003 H   0  0  0  0  0  0
  -24.9028  -32.2793   26.5236 H   0  0  0  0  0  0
  -25.8207  -30.8752   27.0274 H   0  0  0  0  0  0
  -26.2740  -29.6871   24.1207 H   0  0  0  0  0  0
  -27.3995  -29.7253   25.4577 H   0  0  0  0  0  0
  -27.8596  -30.4398   23.9283 H   0  0  0  0  0  0
  -27.2609  -33.3593   26.2237 H   0  0  0  0  0  0
  -28.3736  -32.7039   25.0318 H   0  0  0  0  0  0
  -28.0803  -31.8451   26.5349 H   0  0  0  0  0  0
  -28.2606  -38.0108   24.7500 H   0  0  0  0  0  0
  -28.1069  -36.2619   24.6297 H   0  0  0  0  0  0
  -27.2302  -37.1479   25.8874 H   0  0  0  0  0  0
  -20.9265  -29.8626   21.6925 H   0  0  0  0  0  0
  -26.0229  -38.2886   24.1401 H   0  0  0  0  0  0
  -26.8202  -19.4552   19.5231 H   0  0  0  0  0  0
  -31.4591  -19.2840   21.2773 H   0  0  0  0  0  0
  -25.1381  -21.6912   20.4441 H   0  0  0  0  0  0
  -25.2913  -23.4273   20.1568 H   0  0  0  0  0  0
  -24.9530  -22.8002   21.7782 H   0  0  0  0  0  0
  -27.2002  -21.8604   19.1289 H   0  0  0  0  0  0
  -28.5384  -22.6873   19.7956 H   0  0  0  0  0  0
  -31.2000  -16.8698   19.5182 H   0  0  0  0  0  0
  -31.4915  -16.9790   21.2341 H   0  0  0  0  0  0
  -27.0308  -24.5556   23.6801 H   0  0  0  0  0  0
  -26.1618  -24.7836   22.1840 H   0  0  0  0  0  0
  -29.1670  -25.1999   22.5727 H   0  0  0  0  0  0
  -28.0005  -26.4698   22.4982 H   0  0  0  0  0  0
  -29.3423  -25.0080   20.3379 H   0  0  0  0  0  0
  -27.6377  -24.9143   20.0524 H   0  0  0  0  0  0
  -29.0686  -15.5000   20.7157 H   0  0  0  0  0  0
  1 25  1  0  0  0
  1 30  2  0  0  0
  1 84  1  0  0  0
  2  3  1  0  0  0
  2 25  1  0  0  0
  2 89  1  0  0  0
  2 90  1  0  0  0
  3  4  1  0  0  0
  3 91  1  0  0  0
  3 92  1  0  0  0
  4  5  1  0  0  0
  4 93  1  0  0  0
  4 94  1  0  0  0
  5  6  1  0  0  0
  5 26  1  0  0  0
  5 95  1  0  0  0
  6 25  1  0  0  0
  6 96  1  0  0  0
  6 97  1  0  0  0
  7  8  2  0  0  0
  7 26  1  0  0  0
  7 29  1  0  0  0
  8  9  1  0  0  0
  8 22  1  0  0  0
  9 10  1  0  0  0
  9 27  2  0  0  0
 10 11  2  0  0  0
 10 15  1  0  0  0
 11 12  1  0  0  0
 11 98  1  0  0  0
 12 13  2  0  0  0
 12 99  1  0  0  0
 13 14  1  0  0  0
 13 31  1  0  0  0
 14 15  2  0  0  0
 14100  1  0  0  0
 15101  1  0  0  0
 16 17  2  0  0  0
 16 21  1  0  0  0
 16 31  1  0  0  0
 17 18  1  0  0  0
 17102  1  0  0  0
 18 19  2  0  0  0
 18103  1  0  0  0
 19 20  1  0  0  0
 19 24  1  0  0  0
 20 21  2  0  0  0
 20104  1  0  0  0
 21 23  1  0  0  0
 22 28  1  0  0  0
 22 32  2  0  0  0
 26 27  1  0  0  0
 28105  1  0  0  0
 28106  1  0  0  0
 29107  1  0  0  0
 29108  1  0  0  0
 33 34  1  0  0  0
 33 66  1  0  0  0
 33 70  2  0  0  0
 34 36  1  0  0  0
 34 59  1  0  0  0
 34109  1  0  0  0
 35 44  2  0  0  0
 35 45  1  0  0  0
 35 68  1  0  0  0
 36 56  1  0  0  0
 36110  1  0  0  0
 37 39  1  0  0  0
 37 47  1  0  0  0
 37 66  1  0  0  0
 37111  1  0  0  0
 38 43  2  0  0  0
 38 46  1  0  0  0
 38 47  1  0  0  0
 39 64  1  0  0  0
 39 67  2  0  0  0
 40 52  1  0  0  0
 40 53  2  0  0  0
 40 58  1  0  0  0
 41112  1  0  0  0
 41113  1  0  0  0
 41114  1  0  0  0
 41 48  1  0  0  0
 42 43  1  0  0  0
 42 66  1  0  0  0
 42115  1  0  0  0
 42116  1  0  0  0
 43 44  1  0  0  0
 44117  1  0  0  0
 45 46  2  0  0  0
 45118  1  0  0  0
 46119  1  0  0  0
 47120  1  0  0  0
 47121  1  0  0  0
 48 56  1  0  0  0
 48 65  1  0  0  0
 48122  1  0  0  0
 49 50  1  0  0  0
 49 53  1  0  0  0
 49 64  1  0  0  0
 49123  1  0  0  0
 50 51  1  0  0  0
 50124  1  0  0  0
 50125  1  0  0  0
 51 52  1  0  0  0
 51126  1  0  0  0
 51127  1  0  0  0
 52128  1  0  0  0
 52129  1  0  0  0
 53 54  1  0  0  0
 54 55  2  0  0  0
 54130  1  0  0  0
 55 57  1  0  0  0
 55131  1  0  0  0
 56 69  2  0  0  0
 57 58  2  0  0  0
 57132  1  0  0  0
 58133  1  0  0  0
 59 60  1  0  0  0
 59 61  1  0  0  0
 59 62  1  0  0  0
 60134  1  0  0  0
 60135  1  0  0  0
 60136  1  0  0  0
 61137  1  0  0  0
 61138  1  0  0  0
 61139  1  0  0  0
 62140  1  0  0  0
 62141  1  0  0  0
 62142  1  0  0  0
 63 65  1  0  0  0
 63143  1  0  0  0
 63144  1  0  0  0
 63145  1  0  0  0
 64146  1  0  0  0
 65147  1  0  0  0
 68 83  1  0  0  0
 71 73  2  0  0  0
 71 75  1  0  0  0
 71148  1  0  0  0
 72 74  1  0  0  0
 72 76  2  0  0  0
 72149  1  0  0  0
 73 76  1  0  0  0
 73 79  1  0  0  0
 74 75  2  0  0  0
 74 80  1  0  0  0
 75 87  1  0  0  0
 76 88  1  0  0  0
 77 81  1  0  0  0
 77 85  1  0  0  0
 77 86  2  0  0  0
 78 85  1  0  0  0
 78150  1  0  0  0
 78151  1  0  0  0
 78152  1  0  0  0
 79 85  1  0  0  0
 79153  1  0  0  0
 79154  1  0  0  0
 80 84  1  0  0  0
 80155  1  0  0  0
 80156  1  0  0  0
 81 82  1  0  0  0
 81157  1  0  0  0
 81158  1  0  0  0
 82 83  1  0  0  0
 82159  1  0  0  0
 82160  1  0  0  0
 83161  1  0  0  0
 83162  1  0  0  0
 84163  1  0  0  0
M  ISO  4   1 100  68 101  83 101  84 100
M  END
> <chiral flag>
0

> <version>
0

> <s_m_source_file>
/data/baiqing/PycharmProjects/Reinvent-master-3.2/result/LINK_invent/BTK/process_docking_weight1_custom_product_contain_oxygen_bond_distance_aromatic_linkinvent_7_9_3/rearranged_h_0036.sdf

> <i_m_source_file_index>
21

> <r_mmod_Potential_Energy-OPLS-2005>
-48.5227890014648

> <r_mmod_Stretch_Energy-OPLS-2005>
33.4166641235352

> <r_mmod_Bend_Energy-OPLS-2005>
100.872695922852

> <r_mmod_Torsional_Energy-OPLS-2005>
285.497344970703

> <r_mmod_Improper_Torsional_Energy-OPLS-2005>
11.739315032959

> <r_mmod_Van_der_Waal_Energy-OPLS-2005>
158.743316650391

> <r_mmod_Electrostatic_Energy-OPLS-2005>
-444.699676513672

> <r_mmod_Solvation_Energy-OPLS-2005>
-215.516311645508

> <b_mmod_Minimization_Converged-OPLS-2005>
0

> <r_mmod_RMS_Derivative-OPLS-2005>
7.37493991851807

$$$$
21
                    3D
 Structure written by MMmdl.
164172  0  0  1  0            999 V2000
  -29.9150  -15.9266   20.8089 C   0  0  0  0  0  0
  -30.3160  -13.3844   19.7298 C   0  0  0  0  0  0
  -29.5621  -12.8177   18.4694 C   0  0  0  0  0  0
  -28.1559  -12.3401   18.8394 C   0  0  0  0  0  0
  -27.5450  -13.3237   19.8566 C   0  0  2  0  0  0
  -28.4427  -13.6831   21.0595 C   0  0  0  0  0  0
  -25.1973  -13.8275   20.5754 C   0  0  0  0  0  0
  -24.1441  -13.0394   20.9249 C   0  0  0  0  0  0
  -24.6186  -11.6911   20.8730 C   0  0  0  0  0  0
  -23.8981  -10.4259   21.0409 C   0  0  0  0  0  0
  -24.3581   -9.4193   21.9180 C   0  0  0  0  0  0
  -23.6269   -8.2224   22.0761 C   0  0  0  0  0  0
  -22.4253   -8.0246   21.3550 C   0  0  0  0  0  0
  -21.9866   -9.0203   20.4650 C   0  0  0  0  0  0
  -22.7172  -10.2082   20.3049 C   0  0  0  0  0  0
  -21.6842   -6.0715   22.5277 C   0  0  0  0  0  0
  -21.4009   -6.5627   23.8208 C   0  0  0  0  0  0
  -21.3663   -5.6787   24.9174 C   0  0  0  0  0  0
  -21.6045   -4.3048   24.7229 C   0  0  0  0  0  0
  -21.8822   -3.8131   23.4353 C   0  0  0  0  0  0
  -21.9189   -4.6944   22.3403 C   0  0  0  0  0  0
  -22.7498  -13.5129   21.1936 C   0  0  0  0  0  0
  -22.1657   -4.2137   21.0982 F   0  0  0  0  0  0
  -21.5637   -3.4533   25.7742 F   0  0  0  0  0  0
  -29.5322  -14.5022   20.5265 N   0  0  0  0  0  0
  -26.2319  -12.9574   20.3119 N   0  0  0  0  0  0
  -25.9087  -11.6637   20.5594 N   0  0  0  0  0  0
  -22.0198  -12.8131   22.0523 N   0  0  0  0  0  0
  -25.3641  -15.2044   20.4329 N   0  0  0  0  0  0
  -31.1437  -15.8702   20.5107 O   0  0  0  0  0  0
  -21.6629   -6.8842   21.4234 O   0  0  0  0  0  0
  -22.3202  -14.5439   20.6772 O   0  0  0  0  0  0
  -25.3343  -31.3168   23.2056 C   0  0  0  0  0  0
  -26.3502  -32.3097   23.8205 C   0  0  1  0  0  0
  -25.7959  -29.5732   19.4006 C   0  0  0  0  0  0
  -25.8033  -33.6977   24.1200 N   0  0  0  0  0  0
  -24.3035  -28.5815   21.5882 C   0  0  2  0  0  0
  -26.0436  -27.5723   20.5736 C   0  0  0  0  0  0
  -22.6855  -28.1002   21.8921 C   0  0  0  0  0  0
  -17.9387  -28.1865   22.7567 C   0  0  0  0  0  0
  -24.1629  -36.6209   23.2664 C   0  0  0  0  0  0
  -26.8201  -29.7259   22.0477 C   0  0  0  0  0  0
  -26.8321  -28.7591   20.9088 C   0  0  0  0  0  0
  -27.1162  -29.4870   19.8322 C   0  0  0  0  0  0
  -25.4732  -28.3847   18.6486 C   0  0  0  0  0  0
  -25.9104  -27.2279   19.2337 C   0  0  0  0  0  0
  -24.6653  -27.4917   20.9052 C   0  0  0  0  0  0
  -25.4381  -36.1860   24.0102 C   0  0  1  0  0  0
  -20.4847  -28.1805   23.0078 C   0  0  2  0  0  0
  -20.2372  -26.6626   22.7344 C   0  0  0  0  0  0
  -19.3677  -26.5031   21.5227 C   0  0  0  0  0  0
  -17.9787  -26.8595   22.0095 C   0  0  0  0  0  0
  -19.1205  -28.8693   23.1626 C   0  0  0  0  0  0
  -18.9916  -30.1204   23.8088 C   0  0  0  0  0  0
  -17.7143  -30.6710   24.0517 C   0  0  0  0  0  0
  -25.9862  -34.8449   23.4376 C   0  0  0  0  0  0
  -16.5554  -29.9688   23.6743 C   0  0  0  0  0  0
  -16.6715  -28.7266   23.0331 C   0  0  0  0  0  0
  -26.6844  -31.6698   25.2131 C   0  0  0  0  0  0
  -25.5100  -31.5121   26.2347 C   0  0  0  0  0  0
  -27.3134  -30.2831   25.0417 C   0  0  0  0  0  0
  -27.7583  -32.5347   25.8774 C   0  0  0  0  0  0
  -27.5524  -37.1422   24.8500 C   0  0  0  0  0  0
  -21.4748  -28.7557   22.0441 N   0  0  0  0  0  0
  -26.4157  -37.3023   23.9478 N   0  0  0  0  0  0
  -25.5257  -29.9669   22.4050 N   0  0  0  0  0  0
  -22.7899  -27.2048   22.6792 O   0  0  0  0  0  0
  -24.8859  -30.4442   20.2566 O   0  0  0  0  0  0
  -26.6212  -34.8628   22.3841 O   0  0  0  0  0  0
  -24.2376  -31.8187   23.6450 O   0  0  0  0  0  0
  -27.1755  -23.2212   23.5094 C   0  0  0  0  0  0
  -26.3835  -21.5711   21.5500 C   0  0  0  0  0  0
  -25.7681  -23.0123   21.9046 C   0  0  0  0  0  0
  -27.5138  -20.6961   22.1247 C   0  0  0  0  0  0
  -26.0366  -24.1006   22.9724 C   0  0  0  0  0  0
  -27.7907  -21.7935   23.1736 C   0  0  0  0  0  0
  -24.6533  -23.4702   20.9620 C   0  0  0  0  0  0
  -24.4862  -20.0030   20.8248 C   0  0  0  0  0  0
  -25.7138  -20.8216   20.3909 C   0  0  0  0  0  0
  -28.0755  -18.7544   21.8554 C   0  0  0  0  0  0
  -23.7513  -29.2529   23.7559 C   0  0  0  0  0  0
  -24.9753  -27.3780   23.9031 C   0  0  0  0  0  0
  -23.4291  -30.6435   21.6467 C   0  0  0  0  0  0
  -25.2138  -25.5974   23.3144 N   0  0  0  0  0  0
  -29.1972  -17.4100   21.0655 N   0  0  0  0  0  0
  -29.0334  -21.3349   24.2784 Cl  0  0  0  0  0  0
  -31.2746  -13.7666   19.3789 H   0  0  0  0  0  0
  -30.5915  -12.5672   20.3985 H   0  0  0  0  0  0
  -30.1320  -12.0138   17.9999 H   0  0  0  0  0  0
  -29.4875  -13.6128   17.7271 H   0  0  0  0  0  0
  -28.2290  -11.3482   19.2864 H   0  0  0  0  0  0
  -27.5298  -12.2452   17.9521 H   0  0  0  0  0  0
  -27.4072  -14.2387   19.2772 H   0  0  0  0  0  0
  -28.7757  -12.8041   21.6118 H   0  0  0  0  0  0
  -27.8913  -14.2997   21.7699 H   0  0  0  0  0  0
  -25.2721   -9.5707   22.4756 H   0  0  0  0  0  0
  -23.9988   -7.4632   22.7491 H   0  0  0  0  0  0
  -21.0799   -8.8705   19.8962 H   0  0  0  0  0  0
  -22.3615  -10.9620   19.6167 H   0  0  0  0  0  0
  -21.2000   -7.6139   23.9706 H   0  0  0  0  0  0
  -21.1483   -6.0521   25.9080 H   0  0  0  0  0  0
  -22.0601   -2.7594   23.2854 H   0  0  0  0  0  0
  -22.3826  -11.9789   22.4902 H   0  0  0  0  0  0
  -21.0826  -13.1164   22.2760 H   0  0  0  0  0  0
  -24.5975  -15.8567   20.5545 H   0  0  0  0  0  0
  -26.2152  -15.6468   20.1116 H   0  0  0  0  0  0
  -27.2376  -32.3969   23.1921 H   0  0  0  0  0  0
  -25.2101  -33.7394   24.9352 H   0  0  0  0  0  0
  -23.8056  -28.7830   20.6337 H   0  0  0  0  0  0
  -23.4087  -35.8343   23.2987 H   0  0  0  0  0  0
  -24.3682  -36.8319   22.2167 H   0  0  0  0  0  0
  -23.7228  -37.5112   23.7142 H   0  0  0  0  0  0
  -27.4176  -30.6314   21.9391 H   0  0  0  0  0  0
  -27.3122  -29.1372   22.8111 H   0  0  0  0  0  0
  -27.6464  -30.4215   19.9715 H   0  0  0  0  0  0
  -24.5950  -28.3371   18.0138 H   0  0  0  0  0  0
  -25.4850  -26.2897   18.8977 H   0  0  0  0  0  0
  -23.9480  -27.0590   20.1648 H   0  0  0  0  0  0
  -24.6575  -26.5814   21.4313 H   0  0  0  0  0  0
  -25.1699  -36.0183   25.0565 H   0  0  0  0  0  0
  -20.9075  -28.2284   24.0110 H   0  0  0  0  0  0
  -19.7261  -26.2534   23.6099 H   0  0  0  0  0  0
  -21.0329  -25.9311   22.6457 H   0  0  0  0  0  0
  -19.3906  -25.4787   21.1496 H   0  0  0  0  0  0
  -19.6953  -27.1569   20.7137 H   0  0  0  0  0  0
  -17.2932  -26.8958   21.1614 H   0  0  0  0  0  0
  -17.6044  -26.0759   22.6708 H   0  0  0  0  0  0
  -19.8754  -30.6556   24.1294 H   0  0  0  0  0  0
  -17.6273  -31.6299   24.5459 H   0  0  0  0  0  0
  -15.5787  -30.3851   23.8773 H   0  0  0  0  0  0
  -15.7765  -28.1946   22.7374 H   0  0  0  0  0  0
  -25.0437  -30.5324   26.2346 H   0  0  0  0  0  0
  -24.7309  -32.2657   26.1171 H   0  0  0  0  0  0
  -25.8771  -31.6224   27.2555 H   0  0  0  0  0  0
  -26.5866  -29.5194   24.7902 H   0  0  0  0  0  0
  -27.7334  -29.9377   25.9874 H   0  0  0  0  0  0
  -28.1551  -30.2997   24.3501 H   0  0  0  0  0  0
  -27.3950  -33.5292   26.1366 H   0  0  0  0  0  0
  -28.6318  -32.6577   25.2360 H   0  0  0  0  0  0
  -28.1122  -32.0862   26.8068 H   0  0  0  0  0  0
  -28.2179  -38.0017   24.7611 H   0  0  0  0  0  0
  -28.1360  -36.2481   24.6239 H   0  0  0  0  0  0
  -27.2226  -37.0832   25.8884 H   0  0  0  0  0  0
  -21.3128  -29.6804   21.6739 H   0  0  0  0  0  0
  -25.9621  -38.1865   24.1594 H   0  0  0  0  0  0
  -27.6575  -23.6779   24.3614 H   0  0  0  0  0  0
  -25.0301  -23.5826   19.9445 H   0  0  0  0  0  0
  -24.2333  -24.4335   21.2283 H   0  0  0  0  0  0
  -23.8134  -22.7826   20.9528 H   0  0  0  0  0  0
  -24.0630  -19.4648   19.9752 H   0  0  0  0  0  0
  -23.6944  -20.6256   21.2372 H   0  0  0  0  0  0
  -24.7458  -19.2643   21.5822 H   0  0  0  0  0  0
  -26.4364  -20.1393   19.9412 H   0  0  0  0  0  0
  -25.4537  -21.4861   19.5690 H   0  0  0  0  0  0
  -27.1078  -18.3286   21.5880 H   0  0  0  0  0  0
  -28.1830  -18.4639   22.9009 H   0  0  0  0  0  0
  -24.1069  -29.7674   24.6322 H   0  0  0  0  0  0
  -22.7833  -29.1034   24.2267 H   0  0  0  0  0  0
  -24.8806  -27.1955   24.9745 H   0  0  0  0  0  0
  -26.0007  -27.7219   23.8070 H   0  0  0  0  0  0
  -23.1959  -31.7091   21.7342 H   0  0  0  0  0  0
  -22.5234  -30.5149   21.0516 H   0  0  0  0  0  0
  -24.3005  -25.4537   22.8906 H   0  0  0  0  0  0
  -29.9466  -17.9901   20.7175 H   0  0  0  0  0  0
  1 25  1  0  0  0
  1 30  2  0  0  0
  1 85  1  0  0  0
  2  3  1  0  0  0
  2 25  1  0  0  0
  2 87  1  0  0  0
  2 88  1  0  0  0
  3  4  1  0  0  0
  3 89  1  0  0  0
  3 90  1  0  0  0
  4  5  1  0  0  0
  4 91  1  0  0  0
  4 92  1  0  0  0
  5  6  1  0  0  0
  5 26  1  0  0  0
  5 93  1  0  0  0
  6 25  1  0  0  0
  6 94  1  0  0  0
  6 95  1  0  0  0
  7  8  2  0  0  0
  7 26  1  0  0  0
  7 29  1  0  0  0
  8  9  1  0  0  0
  8 22  1  0  0  0
  9 10  1  0  0  0
  9 27  2  0  0  0
 10 11  2  0  0  0
 10 15  1  0  0  0
 11 12  1  0  0  0
 11 96  1  0  0  0
 12 13  2  0  0  0
 12 97  1  0  0  0
 13 14  1  0  0  0
 13 31  1  0  0  0
 14 15  2  0  0  0
 14 98  1  0  0  0
 15 99  1  0  0  0
 16 17  2  0  0  0
 16 21  1  0  0  0
 16 31  1  0  0  0
 17 18  1  0  0  0
 17100  1  0  0  0
 18 19  2  0  0  0
 18101  1  0  0  0
 19 20  1  0  0  0
 19 24  1  0  0  0
 20 21  2  0  0  0
 20102  1  0  0  0
 21 23  1  0  0  0
 22 28  1  0  0  0
 22 32  2  0  0  0
 26 27  1  0  0  0
 28103  1  0  0  0
 28104  1  0  0  0
 29105  1  0  0  0
 29106  1  0  0  0
 33 34  1  0  0  0
 33 66  1  0  0  0
 33 70  2  0  0  0
 34 36  1  0  0  0
 34 59  1  0  0  0
 34107  1  0  0  0
 35 44  2  0  0  0
 35 45  1  0  0  0
 35 68  1  0  0  0
 36 56  1  0  0  0
 36108  1  0  0  0
 37 39  1  0  0  0
 37 47  1  0  0  0
 37 66  1  0  0  0
 37109  1  0  0  0
 38 43  2  0  0  0
 38 46  1  0  0  0
 38 47  1  0  0  0
 39 64  1  0  0  0
 39 67  2  0  0  0
 40 52  1  0  0  0
 40 53  2  0  0  0
 40 58  1  0  0  0
 41110  1  0  0  0
 41111  1  0  0  0
 41112  1  0  0  0
 41 48  1  0  0  0
 42 43  1  0  0  0
 42 66  1  0  0  0
 42113  1  0  0  0
 42114  1  0  0  0
 43 44  1  0  0  0
 44115  1  0  0  0
 45 46  2  0  0  0
 45116  1  0  0  0
 46117  1  0  0  0
 47118  1  0  0  0
 47119  1  0  0  0
 48 56  1  0  0  0
 48 65  1  0  0  0
 48120  1  0  0  0
 49 50  1  0  0  0
 49 53  1  0  0  0
 49 64  1  0  0  0
 49121  1  0  0  0
 50 51  1  0  0  0
 50122  1  0  0  0
 50123  1  0  0  0
 51 52  1  0  0  0
 51124  1  0  0  0
 51125  1  0  0  0
 52126  1  0  0  0
 52127  1  0  0  0
 53 54  1  0  0  0
 54 55  2  0  0  0
 54128  1  0  0  0
 55 57  1  0  0  0
 55129  1  0  0  0
 56 69  2  0  0  0
 57 58  2  0  0  0
 57130  1  0  0  0
 58131  1  0  0  0
 59 60  1  0  0  0
 59 61  1  0  0  0
 59 62  1  0  0  0
 60132  1  0  0  0
 60133  1  0  0  0
 60134  1  0  0  0
 61135  1  0  0  0
 61136  1  0  0  0
 61137  1  0  0  0
 62138  1  0  0  0
 62139  1  0  0  0
 62140  1  0  0  0
 63 65  1  0  0  0
 63141  1  0  0  0
 63142  1  0  0  0
 63143  1  0  0  0
 64144  1  0  0  0
 65145  1  0  0  0
 68 83  1  0  0  0
 71 75  2  0  0  0
 71 76  1  0  0  0
 71146  1  0  0  0
 72 73  2  0  0  0
 72 74  1  0  0  0
 72 79  1  0  0  0
 73 75  1  0  0  0
 73 77  1  0  0  0
 74 76  2  0  0  0
 74 80  1  0  0  0
 75 84  1  0  0  0
 76 86  1  0  0  0
 77147  1  0  0  0
 77148  1  0  0  0
 77149  1  0  0  0
 78 79  1  0  0  0
 78150  1  0  0  0
 78151  1  0  0  0
 78152  1  0  0  0
 79153  1  0  0  0
 79154  1  0  0  0
 80 85  1  0  0  0
 80155  1  0  0  0
 80156  1  0  0  0
 81 82  1  0  0  0
 81 83  1  0  0  0
 81157  1  0  0  0
 81158  1  0  0  0
 82 84  1  0  0  0
 82159  1  0  0  0
 82160  1  0  0  0
 83161  1  0  0  0
 83162  1  0  0  0
 84163  1  0  0  0
 85164  1  0  0  0
M  ISO  4   1 100  68 101  83 101  85 100
M  END
> <chiral flag>
0

> <version>
0

> <s_m_source_file>
/data/baiqing/PycharmProjects/Reinvent-master-3.2/result/LINK_invent/BTK/process_docking_weight1_custom_product_contain_oxygen_bond_distance_aromatic_linkinvent_7_9_3/rearranged_h_0036.sdf

> <i_m_source_file_index>
22

> <r_mmod_Potential_Energy-OPLS-2005>
16816.138671875

> <r_mmod_Stretch_Energy-OPLS-2005>
4924.64599609375

> <r_mmod_Bend_Energy-OPLS-2005>
2058.126953125

> <r_mmod_Torsional_Energy-OPLS-2005>
657.486633300781

> <r_mmod_Improper_Torsional_Energy-OPLS-2005>
106.308982849121

> <r_mmod_Van_der_Waal_Energy-OPLS-2005>
1834.64636230469

> <r_mmod_Electrostatic_Energy-OPLS-2005>
-399.92236328125

> <r_mmod_Solvation_Energy-OPLS-2005>
-197.479568481445

> <b_mmod_Minimization_Converged-OPLS-2005>
0

> <r_mmod_RMS_Derivative-OPLS-2005>
6.54140186309814

$$$$
22
                    3D
 Structure written by MMmdl.
169178  0  0  1  0            999 V2000
  -30.6137  -14.7084   20.4654 C   0  0  0  0  0  0
  -30.4589  -12.4405   19.4462 C   0  0  0  0  0  0
  -29.5174  -12.5193   18.2226 C   0  0  0  0  0  0
  -28.0350  -12.3600   18.6315 C   0  0  0  0  0  0
  -27.6547  -13.2288   19.8610 C   0  0  2  0  0  0
  -28.7147  -13.1036   20.9806 C   0  0  0  0  0  0
  -25.2559  -13.8192   20.5853 C   0  0  0  0  0  0
  -24.1800  -13.0447   20.9266 C   0  0  0  0  0  0
  -24.6348  -11.6935   20.8696 C   0  0  0  0  0  0
  -23.8970  -10.4309   21.0346 C   0  0  0  0  0  0
  -24.3538   -9.4242   21.9137 C   0  0  0  0  0  0
  -23.6300   -8.2243   22.0688 C   0  0  0  0  0  0
  -22.4299   -8.0220   21.3505 C   0  0  0  0  0  0
  -21.9867   -9.0182   20.4616 C   0  0  0  0  0  0
  -22.7119  -10.2113   20.3017 C   0  0  0  0  0  0
  -21.6878   -6.0681   22.5292 C   0  0  0  0  0  0
  -21.4020   -6.5610   23.8210 C   0  0  0  0  0  0
  -21.3653   -5.6762   24.9196 C   0  0  0  0  0  0
  -21.6066   -4.3031   24.7240 C   0  0  0  0  0  0
  -21.8827   -3.8094   23.4375 C   0  0  0  0  0  0
  -21.9219   -4.6905   22.3425 C   0  0  0  0  0  0
  -22.7779  -13.5215   21.1988 C   0  0  0  0  0  0
  -22.1692   -4.2093   21.1004 F   0  0  0  0  0  0
  -21.5623   -3.4518   25.7757 F   0  0  0  0  0  0
  -30.0210  -13.4692   20.4061 N   0  0  0  0  0  0
  -26.3001  -12.9387   20.3386 N   0  0  0  0  0  0
  -25.9292  -11.6532   20.5675 N   0  0  0  0  0  0
  -22.0386  -12.8192   22.0529 N   0  0  0  0  0  0
  -25.4430  -15.1904   20.4364 N   0  0  0  0  0  0
  -31.7897  -14.8733   20.1198 O   0  0  0  0  0  0
  -21.6668   -6.8807   21.4220 O   0  0  0  0  0  0
  -22.3456  -14.5483   20.6782 O   0  0  0  0  0  0
  -24.6312  -31.8525   23.1936 C   0  0  0  0  0  0
  -25.9129  -32.4746   23.8291 C   0  0  1  0  0  0
  -27.2804  -27.3233   20.1028 C   0  0  0  0  0  0
  -25.5903  -33.8548   24.2215 N   0  0  0  0  0  0
  -23.4288  -30.4613   21.5415 C   0  0  2  0  0  0
  -24.8819  -28.9057   20.1102 C   0  0  0  0  0  0
  -22.7530  -29.4511   22.4995 C   0  0  0  0  0  0
  -18.0284  -28.1380   22.8520 C   0  0  0  0  0  0
  -24.1490  -36.7289   23.2642 C   0  0  0  0  0  0
  -25.9649  -30.7781   21.3613 C   0  0  0  0  0  0
  -26.0438  -29.4034   20.7113 C   0  0  0  0  0  0
  -27.2361  -28.6242   20.6917 C   0  0  0  0  0  0
  -26.0876  -26.8606   19.4949 C   0  0  0  0  0  0
  -24.9085  -27.6427   19.4891 C   0  0  0  0  0  0
  -23.6406  -29.7777   20.1623 C   0  0  0  0  0  0
  -25.4110  -36.3063   24.0326 C   0  0  1  0  0  0
  -20.5884  -28.3642   23.1348 C   0  0  2  0  0  0
  -20.6736  -26.9364   22.5447 C   0  0  0  0  0  0
  -19.5720  -26.6359   21.5247 C   0  0  0  0  0  0
  -18.1907  -26.7923   22.1654 C   0  0  0  0  0  0
  -19.1541  -28.8835   23.2915 C   0  0  0  0  0  0
  -18.9453  -30.1431   23.8913 C   0  0  0  0  0  0
  -17.6445  -30.6567   24.0548 C   0  0  0  0  0  0
  -25.9049  -34.9436   23.5089 C   0  0  0  0  0  0
  -16.5333  -29.9060   23.6314 C   0  0  0  0  0  0
  -16.7265  -28.6482   23.0354 C   0  0  0  0  0  0
  -26.4487  -31.6577   25.0690 C   0  0  0  0  0  0
  -25.3724  -31.3709   26.1433 C   0  0  0  0  0  0
  -27.0274  -30.3002   24.6084 C   0  0  0  0  0  0
  -27.6038  -32.4321   25.7462 C   0  0  0  0  0  0
  -27.5590  -37.1795   24.8467 C   0  0  0  0  0  0
  -21.4239  -29.2980   22.3764 N   0  0  0  0  0  0
  -26.4294  -37.3769   23.9425 N   0  0  0  0  0  0
  -24.6948  -31.0496   22.0901 N   0  0  0  0  0  0
  -23.4249  -28.8079   23.3090 O   0  0  0  0  0  0
  -28.4744  -26.5758   20.1632 O   0  0  0  0  0  0
  -26.5643  -34.8943   22.4676 O   0  0  0  0  0  0
  -23.5454  -32.1313   23.7242 O   0  0  0  0  0  0
  -28.9553  -19.3036   19.6133 C   0  0  0  0  0  0
  -30.1932  -18.0093   21.7456 C   0  0  0  0  0  0
  -29.2377  -17.9068   19.5383 C   0  0  0  0  0  0
  -29.2836  -20.1044   20.7421 C   0  0  0  0  0  0
  -29.8322  -17.2076   20.6295 C   0  0  0  0  0  0
  -29.9316  -19.4141   21.8068 C   0  0  0  0  0  0
  -31.2196  -25.2228   19.0293 C   0  0  0  0  0  0
  -29.7538  -25.3032   18.5575 C   0  0  0  0  0  0
  -31.7549  -23.8126   19.3768 C   0  0  0  0  0  0
  -29.1208  -24.1993   20.8408 C   0  0  0  0  0  0
  -28.6815  -25.1882   19.6724 C   0  0  1  0  0  0
  -30.7580  -22.6233   19.5478 C   0  0  2  0  0  0
  -28.8730  -17.1740   18.2536 C   0  0  0  0  0  0
  -30.2627  -22.0484   18.2013 C   0  0  0  0  0  0
  -28.7856  -21.6042   20.8744 C   0  0  0  0  0  0
  -29.7647  -15.7462   20.7376 N   0  0  0  0  0  0
  -29.6945  -22.7940   20.5883 N   0  3  2  0  0  0
  -30.3250  -20.2563   23.2643 Cl  0  0  0  0  0  0
  -31.4920  -12.6004   19.1297 H   0  0  0  0  0  0
  -30.4309  -11.4522   19.9042 H   0  0  0  0  0  0
  -29.7970  -11.7591   17.4933 H   0  0  0  0  0  0
  -29.6408  -13.4748   17.7131 H   0  0  0  0  0  0
  -27.8659  -11.3071   18.8553 H   0  0  0  0  0  0
  -27.3773  -12.5968   17.7945 H   0  0  0  0  0  0
  -27.6543  -14.2619   19.5145 H   0  0  0  0  0  0
  -28.7507  -12.0802   21.3614 H   0  0  0  0  0  0
  -28.4615  -13.7434   21.8258 H   0  0  0  0  0  0
  -25.2638   -9.5847   22.4736 H   0  0  0  0  0  0
  -24.0088   -7.4642   22.7389 H   0  0  0  0  0  0
  -21.0798   -8.8626   19.8946 H   0  0  0  0  0  0
  -22.3464  -10.9629   19.6144 H   0  0  0  0  0  0
  -21.2017   -7.6117   23.9729 H   0  0  0  0  0  0
  -21.1465   -6.0476   25.9107 H   0  0  0  0  0  0
  -22.0620   -2.7536   23.2892 H   0  0  0  0  0  0
  -22.3885  -11.9842   22.4995 H   0  0  0  0  0  0
  -21.0979  -13.1218   22.2685 H   0  0  0  0  0  0
  -24.6987  -15.8683   20.5648 H   0  0  0  0  0  0
  -26.3180  -15.6090   20.1515 H   0  0  0  0  0  0
  -26.7202  -32.5404   23.1029 H   0  0  0  0  0  0
  -25.0015  -33.9644   25.0337 H   0  0  0  0  0  0
  -22.7234  -31.2806   21.3913 H   0  0  0  0  0  0
  -23.3764  -35.9624   23.3277 H   0  0  0  0  0  0
  -24.3577  -36.8943   22.2069 H   0  0  0  0  0  0
  -23.7225  -37.6482   23.6670 H   0  0  0  0  0  0
  -26.0922  -31.5297   20.5812 H   0  0  0  0  0  0
  -26.8487  -30.8346   21.9848 H   0  0  0  0  0  0
  -28.1359  -29.0130   21.1488 H   0  0  0  0  0  0
  -26.0312  -25.8916   19.0212 H   0  0  0  0  0  0
  -24.0231  -27.2530   19.0034 H   0  0  0  0  0  0
  -23.7379  -30.5414   19.3896 H   0  0  0  0  0  0
  -22.7662  -29.1871   19.8831 H   0  0  0  0  0  0
  -25.1291  -36.1923   25.0819 H   0  0  0  0  0  0
  -20.9976  -28.3176   24.1476 H   0  0  0  0  0  0
  -20.5639  -26.2245   23.3650 H   0  0  0  0  0  0
  -21.6610  -26.7364   22.1251 H   0  0  0  0  0  0
  -19.6854  -25.6279   21.1255 H   0  0  0  0  0  0
  -19.6667  -27.3193   20.6811 H   0  0  0  0  0  0
  -17.4194  -26.6744   21.4014 H   0  0  0  0  0  0
  -18.0223  -26.0034   22.9025 H   0  0  0  0  0  0
  -19.7906  -30.7249   24.2324 H   0  0  0  0  0  0
  -17.4970  -31.6271   24.5136 H   0  0  0  0  0  0
  -15.5323  -30.2956   23.7600 H   0  0  0  0  0  0
  -15.8684  -28.0779   22.7063 H   0  0  0  0  0  0
  -24.5921  -30.7015   25.7788 H   0  0  0  0  0  0
  -24.8882  -32.2863   26.4843 H   0  0  0  0  0  0
  -25.8082  -30.8933   27.0210 H   0  0  0  0  0  0
  -26.2777  -29.6811   24.1146 H   0  0  0  0  0  0
  -27.4020  -29.7200   25.4507 H   0  0  0  0  0  0
  -27.8632  -30.4283   23.9212 H   0  0  0  0  0  0
  -27.2642  -33.3651   26.1957 H   0  0  0  0  0  0
  -28.3882  -32.6835   25.0319 H   0  0  0  0  0  0
  -28.0649  -31.8506   26.5441 H   0  0  0  0  0  0
  -28.2604  -38.0093   24.7521 H   0  0  0  0  0  0
  -28.1081  -36.2627   24.6269 H   0  0  0  0  0  0
  -27.2316  -37.1425   25.8871 H   0  0  0  0  0  0
  -20.9462  -29.8759   21.7000 H   0  0  0  0  0  0
  -26.0177  -38.2867   24.1417 H   0  0  0  0  0  0
  -28.4314  -19.7633   18.7859 H   0  0  0  0  0  0
  -30.6107  -17.5299   22.6176 H   0  0  0  0  0  0
  -31.3788  -25.9033   19.8678 H   0  0  0  0  0  0
  -31.8548  -25.6191   18.2332 H   0  0  0  0  0  0
  -29.5971  -24.5503   17.7937 H   0  0  0  0  0  0
  -29.6025  -26.2354   18.0114 H   0  0  0  0  0  0
  -32.3861  -23.8829   20.2639 H   0  0  0  0  0  0
  -32.4596  -23.5298   18.5893 H   0  0  0  0  0  0
  -28.2887  -24.1045   21.5350 H   0  0  0  0  0  0
  -29.8915  -24.7247   21.4071 H   0  0  0  0  0  0
  -27.7789  -24.7925   19.2130 H   0  0  0  0  0  0
  -31.3943  -21.8354   19.9649 H   0  0  0  0  0  0
  -28.0484  -17.6598   17.7306 H   0  0  0  0  0  0
  -28.5821  -16.1397   18.4219 H   0  0  0  0  0  0
  -29.7362  -17.1606   17.5855 H   0  0  0  0  0  0
  -29.3244  -22.4730   17.8551 H   0  0  0  0  0  0
  -30.1151  -20.9834   18.2864 H   0  0  0  0  0  0
  -31.0007  -22.1411   17.4086 H   0  0  0  0  0  0
  -28.4883  -21.7105   21.9172 H   0  0  0  0  0  0
  -27.8540  -21.7302   20.3234 H   0  0  0  0  0  0
  -28.8314  -15.4177   20.9289 H   0  0  0  0  0  0
  -30.2675  -22.7220   21.4176 H   0  0  0  0  0  0
  1 25  1  0  0  0
  1 30  2  0  0  0
  1 86  1  0  0  0
  2  3  1  0  0  0
  2 25  1  0  0  0
  2 89  1  0  0  0
  2 90  1  0  0  0
  3  4  1  0  0  0
  3 91  1  0  0  0
  3 92  1  0  0  0
  4  5  1  0  0  0
  4 93  1  0  0  0
  4 94  1  0  0  0
  5  6  1  0  0  0
  5 26  1  0  0  0
  5 95  1  0  0  0
  6 25  1  0  0  0
  6 96  1  0  0  0
  6 97  1  0  0  0
  7  8  2  0  0  0
  7 26  1  0  0  0
  7 29  1  0  0  0
  8  9  1  0  0  0
  8 22  1  0  0  0
  9 10  1  0  0  0
  9 27  2  0  0  0
 10 11  2  0  0  0
 10 15  1  0  0  0
 11 12  1  0  0  0
 11 98  1  0  0  0
 12 13  2  0  0  0
 12 99  1  0  0  0
 13 14  1  0  0  0
 13 31  1  0  0  0
 14 15  2  0  0  0
 14100  1  0  0  0
 15101  1  0  0  0
 16 17  2  0  0  0
 16 21  1  0  0  0
 16 31  1  0  0  0
 17 18  1  0  0  0
 17102  1  0  0  0
 18 19  2  0  0  0
 18103  1  0  0  0
 19 20  1  0  0  0
 19 24  1  0  0  0
 20 21  2  0  0  0
 20104  1  0  0  0
 21 23  1  0  0  0
 22 28  1  0  0  0
 22 32  2  0  0  0
 26 27  1  0  0  0
 28105  1  0  0  0
 28106  1  0  0  0
 29107  1  0  0  0
 29108  1  0  0  0
 33 34  1  0  0  0
 33 66  1  0  0  0
 33 70  2  0  0  0
 34 36  1  0  0  0
 34 59  1  0  0  0
 34109  1  0  0  0
 35 44  2  0  0  0
 35 45  1  0  0  0
 35 68  1  0  0  0
 36 56  1  0  0  0
 36110  1  0  0  0
 37 39  1  0  0  0
 37 47  1  0  0  0
 37 66  1  0  0  0
 37111  1  0  0  0
 38 43  2  0  0  0
 38 46  1  0  0  0
 38 47  1  0  0  0
 39 64  1  0  0  0
 39 67  2  0  0  0
 40 52  1  0  0  0
 40 53  2  0  0  0
 40 58  1  0  0  0
 41112  1  0  0  0
 41113  1  0  0  0
 41114  1  0  0  0
 41 48  1  0  0  0
 42 43  1  0  0  0
 42 66  1  0  0  0
 42115  1  0  0  0
 42116  1  0  0  0
 43 44  1  0  0  0
 44117  1  0  0  0
 45 46  2  0  0  0
 45118  1  0  0  0
 46119  1  0  0  0
 47120  1  0  0  0
 47121  1  0  0  0
 48 56  1  0  0  0
 48 65  1  0  0  0
 48122  1  0  0  0
 49 50  1  0  0  0
 49 53  1  0  0  0
 49 64  1  0  0  0
 49123  1  0  0  0
 50 51  1  0  0  0
 50124  1  0  0  0
 50125  1  0  0  0
 51 52  1  0  0  0
 51126  1  0  0  0
 51127  1  0  0  0
 52128  1  0  0  0
 52129  1  0  0  0
 53 54  1  0  0  0
 54 55  2  0  0  0
 54130  1  0  0  0
 55 57  1  0  0  0
 55131  1  0  0  0
 56 69  2  0  0  0
 57 58  2  0  0  0
 57132  1  0  0  0
 58133  1  0  0  0
 59 60  1  0  0  0
 59 61  1  0  0  0
 59 62  1  0  0  0
 60134  1  0  0  0
 60135  1  0  0  0
 60136  1  0  0  0
 61137  1  0  0  0
 61138  1  0  0  0
 61139  1  0  0  0
 62140  1  0  0  0
 62141  1  0  0  0
 62142  1  0  0  0
 63 65  1  0  0  0
 63143  1  0  0  0
 63144  1  0  0  0
 63145  1  0  0  0
 64146  1  0  0  0
 65147  1  0  0  0
 68 81  1  0  0  0
 71 73  2  0  0  0
 71 74  1  0  0  0
 71148  1  0  0  0
 72 75  2  0  0  0
 72 76  1  0  0  0
 72149  1  0  0  0
 73 75  1  0  0  0
 73 83  1  0  0  0
 74 76  2  0  0  0
 74 85  1  0  0  0
 75 86  1  0  0  0
 76 88  1  0  0  0
 77 78  1  0  0  0
 77 79  1  0  0  0
 77150  1  0  0  0
 77151  1  0  0  0
 78 81  1  0  0  0
 78152  1  0  0  0
 78153  1  0  0  0
 79 82  1  0  0  0
 79154  1  0  0  0
 79155  1  0  0  0
 80 81  1  0  0  0
 80 87  1  0  0  0
 80156  1  0  0  0
 80157  1  0  0  0
 81158  1  0  0  0
 82 84  1  0  0  0
 82 87  1  0  0  0
 82159  1  0  0  0
 83160  1  0  0  0
 83161  1  0  0  0
 83162  1  0  0  0
 84163  1  0  0  0
 84164  1  0  0  0
 84165  1  0  0  0
 85166  1  0  0  0
 85167  1  0  0  0
 85 87  1  0  0  0
 86168  1  0  0  0
 87169  1  0  0  0
M  CHG  1  87   1
M  ISO  4   1 100  68 101  81 101  86 100
M  END
> <chiral flag>
0

> <version>
0

> <s_m_source_file>
/data/baiqing/PycharmProjects/Reinvent-master-3.2/result/LINK_invent/BTK/process_docking_weight1_custom_product_contain_oxygen_bond_distance_aromatic_linkinvent_7_9_3/rearranged_h_0036.sdf

> <i_m_source_file_index>
23

> <r_mmod_Potential_Energy-OPLS-2005>
138.820343017578

> <r_mmod_Stretch_Energy-OPLS-2005>
92.4419479370117

> <r_mmod_Bend_Energy-OPLS-2005>
217.47785949707

> <r_mmod_Torsional_Energy-OPLS-2005>
310.881195068359

> <r_mmod_Improper_Torsional_Energy-OPLS-2005>
7.73209476470947

> <r_mmod_Van_der_Waal_Energy-OPLS-2005>
142.348892211914

> <r_mmod_Electrostatic_Energy-OPLS-2005>
-276.508117675781

> <r_mmod_Solvation_Energy-OPLS-2005>
-415.864440917969

> <b_mmod_Minimization_Converged-OPLS-2005>
0

> <r_mmod_RMS_Derivative-OPLS-2005>
8.53860378265381

$$$$
23
                    3D
 Structure written by MMmdl.
166175  0  0  1  0            999 V2000
  -30.6180  -14.6300   20.5112 C   0  0  0  0  0  0
  -30.4409  -12.3907   19.4487 C   0  0  0  0  0  0
  -29.5086  -12.5142   18.2228 C   0  0  0  0  0  0
  -28.0304  -12.3527   18.6322 C   0  0  0  0  0  0
  -27.6551  -13.2150   19.8673 C   0  0  2  0  0  0
  -28.6986  -13.0542   20.9948 C   0  0  0  0  0  0
  -25.2568  -13.8173   20.5692 C   0  0  0  0  0  0
  -24.1831  -13.0439   20.9185 C   0  0  0  0  0  0
  -24.6397  -11.6908   20.8739 C   0  0  0  0  0  0
  -23.9067  -10.4290   21.0404 C   0  0  0  0  0  0
  -24.3618   -9.4205   21.9185 C   0  0  0  0  0  0
  -23.6292   -8.2241   22.0759 C   0  0  0  0  0  0
  -22.4278   -8.0281   21.3546 C   0  0  0  0  0  0
  -21.9915   -9.0253   20.4646 C   0  0  0  0  0  0
  -22.7243  -10.2133   20.3055 C   0  0  0  0  0  0
  -21.6850   -6.0734   22.5279 C   0  0  0  0  0  0
  -21.4010   -6.5639   23.8212 C   0  0  0  0  0  0
  -21.3662   -5.6792   24.9175 C   0  0  0  0  0  0
  -21.6045   -4.3055   24.7224 C   0  0  0  0  0  0
  -21.8822   -3.8148   23.4347 C   0  0  0  0  0  0
  -21.9191   -4.6963   22.3402 C   0  0  0  0  0  0
  -22.7853  -13.5234   21.1852 C   0  0  0  0  0  0
  -22.1662   -4.2149   21.0976 F   0  0  0  0  0  0
  -21.5630   -3.4541   25.7739 F   0  0  0  0  0  0
  -30.0152  -13.4023   20.4352 N   0  0  0  0  0  0
  -26.2996  -12.9348   20.3332 N   0  0  0  0  0  0
  -25.9325  -11.6506   20.5756 N   0  0  0  0  0  0
  -22.0494  -12.8216   22.0400 N   0  0  0  0  0  0
  -25.4283  -15.1896   20.4127 N   0  0  0  0  0  0
  -31.7852  -14.7951   20.1452 O   0  0  0  0  0  0
  -21.6636   -6.8883   21.4243 O   0  0  0  0  0  0
  -22.3541  -14.5545   20.6713 O   0  0  0  0  0  0
  -24.6265  -31.8597   23.2052 C   0  0  0  0  0  0
  -25.9122  -32.4772   23.8366 C   0  0  1  0  0  0
  -27.2231  -27.3241   20.0990 C   0  0  0  0  0  0
  -25.5957  -33.8580   24.2288 N   0  0  0  0  0  0
  -23.4169  -30.4849   21.5497 C   0  0  2  0  0  0
  -24.8613  -28.9449   20.1138 C   0  0  0  0  0  0
  -22.7451  -29.4627   22.4971 C   0  0  0  0  0  0
  -18.0269  -28.1381   22.8473 C   0  0  0  0  0  0
  -24.1494  -36.7276   23.2638 C   0  0  0  0  0  0
  -25.9598  -30.7917   21.3756 C   0  0  0  0  0  0
  -26.0332  -29.4215   20.7131 C   0  0  0  0  0  0
  -27.2160  -28.6237   20.6958 C   0  0  0  0  0  0
  -26.0159  -26.8988   19.4919 C   0  0  0  0  0  0
  -24.8546  -27.6880   19.4965 C   0  0  0  0  0  0
  -23.6290  -29.8226   20.1647 C   0  0  0  0  0  0
  -25.4126  -36.3070   24.0318 C   0  0  1  0  0  0
  -20.5865  -28.3680   23.1286 C   0  0  2  0  0  0
  -20.6764  -26.9407   22.5408 C   0  0  0  0  0  0
  -19.5752  -26.6378   21.5199 C   0  0  0  0  0  0
  -18.1918  -26.7927   22.1594 C   0  0  0  0  0  0
  -19.1519  -28.8847   23.2867 C   0  0  0  0  0  0
  -18.9450  -30.1452   23.8882 C   0  0  0  0  0  0
  -17.6457  -30.6587   24.0557 C   0  0  0  0  0  0
  -25.9064  -34.9443   23.5095 C   0  0  0  0  0  0
  -16.5344  -29.9083   23.6344 C   0  0  0  0  0  0
  -16.7259  -28.6502   23.0361 C   0  0  0  0  0  0
  -26.4510  -31.6588   25.0739 C   0  0  0  0  0  0
  -25.3749  -31.3718   26.1469 C   0  0  0  0  0  0
  -27.0351  -30.3011   24.6201 C   0  0  0  0  0  0
  -27.6086  -32.4317   25.7490 C   0  0  0  0  0  0
  -27.5573  -37.1803   24.8466 C   0  0  0  0  0  0
  -21.4170  -29.3038   22.3695 N   0  0  0  0  0  0
  -26.4297  -37.3771   23.9396 N   0  0  0  0  0  0
  -24.6869  -31.0612   22.1005 N   0  0  0  0  0  0
  -23.4182  -28.8155   23.3037 O   0  0  0  0  0  0
  -28.3566  -26.4896   20.1357 O   0  0  0  0  0  0
  -26.5611  -34.8902   22.4652 O   0  0  0  0  0  0
  -23.5435  -32.1402   23.7393 O   0  0  0  0  0  0
  -30.3947  -19.2742   19.6757 C   0  0  0  0  0  0
  -29.8893  -20.0650   20.7396 C   0  0  0  0  0  0
  -29.3373  -19.3463   21.8428 C   0  0  0  0  0  0
  -29.3701  -17.9081   21.8910 C   0  0  0  0  0  0
  -29.9080  -17.1223   20.8213 C   0  0  0  0  0  0
  -30.3837  -17.8493   19.6896 C   0  0  0  0  0  0
  -28.0209  -23.3402   17.9728 C   0  0  0  0  0  0
  -28.2967  -24.8172   18.3102 C   0  0  0  0  0  0
  -29.0319  -22.3915   18.6453 C   0  0  0  0  0  0
  -29.2583  -24.0427   20.4987 C   0  0  0  0  0  0
  -28.2207  -25.0432   19.8334 C   0  0  1  0  0  0
  -28.7208  -20.1229   23.0067 C   0  0  0  0  0  0
  -28.8145  -17.1943   23.1251 C   0  0  0  0  0  0
  -30.1037  -21.6313   20.7496 C   0  0  0  0  0  0
  -29.7993  -15.6603   20.8856 N   0  0  0  0  0  0
  -29.0877  -22.5681   20.1217 N   0  3  2  0  0  0
  -30.9053  -17.0504   18.2477 Cl  0  0  0  0  0  0
  -31.4811  -12.5238   19.1465 H   0  0  0  0  0  0
  -30.3813  -11.3918   19.8833 H   0  0  0  0  0  0
  -29.7725  -11.7680   17.4723 H   0  0  0  0  0  0
  -29.6510  -13.4873   17.7504 H   0  0  0  0  0  0
  -27.8633  -11.2982   18.8543 H   0  0  0  0  0  0
  -27.3777  -12.5939   17.7921 H   0  0  0  0  0  0
  -27.6786  -14.2533   19.5371 H   0  0  0  0  0  0
  -28.7071  -12.0273   21.3640 H   0  0  0  0  0  0
  -28.4433  -13.6735   21.8562 H   0  0  0  0  0  0
  -25.2767   -9.5676   22.4756 H   0  0  0  0  0  0
  -24.0004   -7.4635   22.7483 H   0  0  0  0  0  0
  -21.0847   -8.8770   19.8946 H   0  0  0  0  0  0
  -22.3710  -10.9669   19.6161 H   0  0  0  0  0  0
  -21.2000   -7.6144   23.9721 H   0  0  0  0  0  0
  -21.1483   -6.0517   25.9078 H   0  0  0  0  0  0
  -22.0597   -2.7609   23.2850 H   0  0  0  0  0  0
  -22.4113  -11.9869   22.4762 H   0  0  0  0  0  0
  -21.1109  -13.1234   22.2611 H   0  0  0  0  0  0
  -24.6609  -15.8433   20.5241 H   0  0  0  0  0  0
  -26.2765  -15.6305   20.0802 H   0  0  0  0  0  0
  -26.7192  -32.5435   23.1112 H   0  0  0  0  0  0
  -25.0167  -33.9748   25.0476 H   0  0  0  0  0  0
  -22.7090  -31.3041   21.4088 H   0  0  0  0  0  0
  -23.3774  -35.9590   23.3287 H   0  0  0  0  0  0
  -24.3565  -36.8925   22.2053 H   0  0  0  0  0  0
  -23.7238  -37.6460   23.6691 H   0  0  0  0  0  0
  -26.0913  -31.5581   20.6107 H   0  0  0  0  0  0
  -26.8410  -30.8354   22.0045 H   0  0  0  0  0  0
  -28.1164  -28.9877   21.1710 H   0  0  0  0  0  0
  -25.9167  -25.9385   19.0125 H   0  0  0  0  0  0
  -23.9543  -27.3118   19.0302 H   0  0  0  0  0  0
  -23.7429  -30.5999   19.4077 H   0  0  0  0  0  0
  -22.7499  -29.2485   19.8659 H   0  0  0  0  0  0
  -25.1322  -36.1911   25.0811 H   0  0  0  0  0  0
  -20.9943  -28.3251   24.1412 H   0  0  0  0  0  0
  -20.5654  -26.2284   23.3597 H   0  0  0  0  0  0
  -21.6639  -26.7425   22.1216 H   0  0  0  0  0  0
  -19.6919  -25.6285   21.1239 H   0  0  0  0  0  0
  -19.6720  -27.3178   20.6724 H   0  0  0  0  0  0
  -17.4199  -26.6681   21.3984 H   0  0  0  0  0  0
  -18.0308  -26.0055   22.8972 H   0  0  0  0  0  0
  -19.7929  -30.7264   24.2255 H   0  0  0  0  0  0
  -17.5015  -31.6270   24.5156 H   0  0  0  0  0  0
  -15.5351  -30.2988   23.7688 H   0  0  0  0  0  0
  -15.8647  -28.0828   22.7099 H   0  0  0  0  0  0
  -24.5966  -30.7006   25.7816 H   0  0  0  0  0  0
  -24.8888  -32.2868   26.4862 H   0  0  0  0  0  0
  -25.8090  -30.8946   27.0262 H   0  0  0  0  0  0
  -26.2919  -29.6744   24.1259 H   0  0  0  0  0  0
  -27.4073  -29.7294   25.4711 H   0  0  0  0  0  0
  -27.8778  -30.4294   23.9406 H   0  0  0  0  0  0
  -27.2750  -33.3675   26.1989 H   0  0  0  0  0  0
  -28.3930  -32.6771   25.0317 H   0  0  0  0  0  0
  -28.0705  -31.8475   26.5458 H   0  0  0  0  0  0
  -28.2615  -38.0074   24.7481 H   0  0  0  0  0  0
  -28.1046  -36.2602   24.6355 H   0  0  0  0  0  0
  -27.2266  -37.1532   25.8861 H   0  0  0  0  0  0
  -20.9340  -29.8786   21.6929 H   0  0  0  0  0  0
  -26.0168  -38.2836   24.1414 H   0  0  0  0  0  0
  -30.8153  -19.7665   18.8107 H   0  0  0  0  0  0
  -28.0582  -23.1980   16.8917 H   0  0  0  0  0  0
  -27.0076  -23.0728   18.2767 H   0  0  0  0  0  0
  -27.5931  -25.4483   17.7707 H   0  0  0  0  0  0
  -29.2841  -25.1050   17.9475 H   0  0  0  0  0  0
  -30.0229  -22.5599   18.2197 H   0  0  0  0  0  0
  -28.7684  -21.3596   18.4105 H   0  0  0  0  0  0
  -29.1908  -24.1388   21.5827 H   0  0  0  0  0  0
  -30.2683  -24.3556   20.2297 H   0  0  0  0  0  0
  -27.2489  -24.7119   20.2017 H   0  0  0  0  0  0
  -28.3991  -21.1234   22.7239 H   0  0  0  0  0  0
  -29.4337  -20.2163   23.8266 H   0  0  0  0  0  0
  -27.8262  -19.6306   23.3888 H   0  0  0  0  0  0
  -29.0335  -17.7437   24.0403 H   0  0  0  0  0  0
  -29.2460  -16.2060   23.2768 H   0  0  0  0  0  0
  -27.7325  -17.0841   23.0431 H   0  0  0  0  0  0
  -31.0690  -21.8278   20.2808 H   0  0  0  0  0  0
  -30.2582  -21.9435   21.7819 H   0  0  0  0  0  0
  -28.9305  -15.3323   21.2764 H   0  0  0  0  0  0
  -28.1902  -22.2788   20.4829 H   0  0  0  0  0  0
  1 25  1  0  0  0
  1 30  2  0  0  0
  1 85  1  0  0  0
  2  3  1  0  0  0
  2 25  1  0  0  0
  2 88  1  0  0  0
  2 89  1  0  0  0
  3  4  1  0  0  0
  3 90  1  0  0  0
  3 91  1  0  0  0
  4  5  1  0  0  0
  4 92  1  0  0  0
  4 93  1  0  0  0
  5  6  1  0  0  0
  5 26  1  0  0  0
  5 94  1  0  0  0
  6 25  1  0  0  0
  6 95  1  0  0  0
  6 96  1  0  0  0
  7  8  2  0  0  0
  7 26  1  0  0  0
  7 29  1  0  0  0
  8  9  1  0  0  0
  8 22  1  0  0  0
  9 10  1  0  0  0
  9 27  2  0  0  0
 10 11  2  0  0  0
 10 15  1  0  0  0
 11 12  1  0  0  0
 11 97  1  0  0  0
 12 13  2  0  0  0
 12 98  1  0  0  0
 13 14  1  0  0  0
 13 31  1  0  0  0
 14 15  2  0  0  0
 14 99  1  0  0  0
 15100  1  0  0  0
 16 17  2  0  0  0
 16 21  1  0  0  0
 16 31  1  0  0  0
 17 18  1  0  0  0
 17101  1  0  0  0
 18 19  2  0  0  0
 18102  1  0  0  0
 19 20  1  0  0  0
 19 24  1  0  0  0
 20 21  2  0  0  0
 20103  1  0  0  0
 21 23  1  0  0  0
 22 28  1  0  0  0
 22 32  2  0  0  0
 26 27  1  0  0  0
 28104  1  0  0  0
 28105  1  0  0  0
 29106  1  0  0  0
 29107  1  0  0  0
 33 34  1  0  0  0
 33 66  1  0  0  0
 33 70  2  0  0  0
 34 36  1  0  0  0
 34 59  1  0  0  0
 34108  1  0  0  0
 35 44  2  0  0  0
 35 45  1  0  0  0
 35 68  1  0  0  0
 36 56  1  0  0  0
 36109  1  0  0  0
 37 39  1  0  0  0
 37 47  1  0  0  0
 37 66  1  0  0  0
 37110  1  0  0  0
 38 43  2  0  0  0
 38 46  1  0  0  0
 38 47  1  0  0  0
 39 64  1  0  0  0
 39 67  2  0  0  0
 40 52  1  0  0  0
 40 53  2  0  0  0
 40 58  1  0  0  0
 41111  1  0  0  0
 41112  1  0  0  0
 41113  1  0  0  0
 41 48  1  0  0  0
 42 43  1  0  0  0
 42 66  1  0  0  0
 42114  1  0  0  0
 42115  1  0  0  0
 43 44  1  0  0  0
 44116  1  0  0  0
 45 46  2  0  0  0
 45117  1  0  0  0
 46118  1  0  0  0
 47119  1  0  0  0
 47120  1  0  0  0
 48 56  1  0  0  0
 48 65  1  0  0  0
 48121  1  0  0  0
 49 50  1  0  0  0
 49 53  1  0  0  0
 49 64  1  0  0  0
 49122  1  0  0  0
 50 51  1  0  0  0
 50123  1  0  0  0
 50124  1  0  0  0
 51 52  1  0  0  0
 51125  1  0  0  0
 51126  1  0  0  0
 52127  1  0  0  0
 52128  1  0  0  0
 53 54  1  0  0  0
 54 55  2  0  0  0
 54129  1  0  0  0
 55 57  1  0  0  0
 55130  1  0  0  0
 56 69  2  0  0  0
 57 58  2  0  0  0
 57131  1  0  0  0
 58132  1  0  0  0
 59 60  1  0  0  0
 59 61  1  0  0  0
 59 62  1  0  0  0
 60133  1  0  0  0
 60134  1  0  0  0
 60135  1  0  0  0
 61136  1  0  0  0
 61137  1  0  0  0
 61138  1  0  0  0
 62139  1  0  0  0
 62140  1  0  0  0
 62141  1  0  0  0
 63 65  1  0  0  0
 63142  1  0  0  0
 63143  1  0  0  0
 63144  1  0  0  0
 64145  1  0  0  0
 65146  1  0  0  0
 68 81  1  0  0  0
 71 72  2  0  0  0
 71 76  1  0  0  0
 71147  1  0  0  0
 72 73  1  0  0  0
 72 84  1  0  0  0
 73 74  2  0  0  0
 73 82  1  0  0  0
 74 75  1  0  0  0
 74 83  1  0  0  0
 75 76  2  0  0  0
 75 85  1  0  0  0
 76 87  1  0  0  0
 77 78  1  0  0  0
 77 79  1  0  0  0
 77148  1  0  0  0
 77149  1  0  0  0
 78 81  1  0  0  0
 78150  1  0  0  0
 78151  1  0  0  0
 79 86  1  0  0  0
 79152  1  0  0  0
 79153  1  0  0  0
 80 81  1  0  0  0
 80 86  1  0  0  0
 80154  1  0  0  0
 80155  1  0  0  0
 81156  1  0  0  0
 82157  1  0  0  0
 82158  1  0  0  0
 82159  1  0  0  0
 83160  1  0  0  0
 83161  1  0  0  0
 83162  1  0  0  0
 84163  1  0  0  0
 84164  1  0  0  0
 84 86  1  0  0  0
 85165  1  0  0  0
 86166  1  0  0  0
M  CHG  1  86   1
M  ISO  4   1 100  68 101  81 101  85 100
M  END
> <chiral flag>
0

> <version>
0

> <s_m_source_file>
/data/baiqing/PycharmProjects/Reinvent-master-3.2/result/LINK_invent/BTK/process_docking_weight1_custom_product_contain_oxygen_bond_distance_aromatic_linkinvent_7_9_3/rearranged_h_0036.sdf

> <i_m_source_file_index>
24

> <r_mmod_Potential_Energy-OPLS-2005>
-43.9103355407715

> <r_mmod_Stretch_Energy-OPLS-2005>
84.9051055908203

> <r_mmod_Bend_Energy-OPLS-2005>
141.882186889648

> <r_mmod_Torsional_Energy-OPLS-2005>
242.420791625977

> <r_mmod_Improper_Torsional_Energy-OPLS-2005>
4.40882158279419

> <r_mmod_Van_der_Waal_Energy-OPLS-2005>
157.845428466797

> <r_mmod_Electrostatic_Energy-OPLS-2005>
-281.503112792969

> <r_mmod_Solvation_Energy-OPLS-2005>
-438.579711914062

> <b_mmod_Minimization_Converged-OPLS-2005>
0

> <r_mmod_RMS_Derivative-OPLS-2005>
1.31415605545044

$$$$
24
                    3D
 Structure written by MMmdl.
168176  0  0  1  0            999 V2000
  -30.7489  -14.5755   20.5403 C   0  0  0  0  0  0
  -30.4159  -12.3903   19.4169 C   0  0  0  0  0  0
  -29.4805  -12.5145   18.1978 C   0  0  0  0  0  0
  -28.0047  -12.3676   18.6199 C   0  0  0  0  0  0
  -27.6468  -13.2161   19.8727 C   0  0  2  0  0  0
  -28.7125  -13.0234   20.9754 C   0  0  0  0  0  0
  -25.2396  -13.8019   20.5663 C   0  0  0  0  0  0
  -24.1714  -13.0306   20.9203 C   0  0  0  0  0  0
  -24.6356  -11.6813   20.8786 C   0  0  0  0  0  0
  -23.9036  -10.4221   21.0434 C   0  0  0  0  0  0
  -24.3597   -9.4147   21.9210 C   0  0  0  0  0  0
  -23.6273   -8.2187   22.0766 C   0  0  0  0  0  0
  -22.4260   -8.0233   21.3545 C   0  0  0  0  0  0
  -21.9893   -9.0200   20.4648 C   0  0  0  0  0  0
  -22.7217  -10.2077   20.3069 C   0  0  0  0  0  0
  -21.6838   -6.0714   22.5280 C   0  0  0  0  0  0
  -21.4005   -6.5624   23.8215 C   0  0  0  0  0  0
  -21.3669   -5.6781   24.9179 C   0  0  0  0  0  0
  -21.6052   -4.3044   24.7233 C   0  0  0  0  0  0
  -21.8818   -3.8133   23.4350 C   0  0  0  0  0  0
  -21.9185   -4.6946   22.3409 C   0  0  0  0  0  0
  -22.7746  -13.5121   21.1838 C   0  0  0  0  0  0
  -22.1655   -4.2135   21.0986 F   0  0  0  0  0  0
  -21.5637   -3.4533   25.7748 F   0  0  0  0  0  0
  -30.0025  -13.4267   20.3925 N   0  0  0  0  0  0
  -26.2944  -12.9303   20.3451 N   0  0  0  0  0  0
  -25.9313  -11.6442   20.5871 N   0  0  0  0  0  0
  -22.0400  -12.8168   22.0430 N   0  0  0  0  0  0
  -25.3815  -15.1692   20.3946 N   0  0  0  0  0  0
  -31.9412  -14.5291   20.2294 O   0  0  0  0  0  0
  -21.6617   -6.8845   21.4240 O   0  0  0  0  0  0
  -22.3445  -14.5436   20.6674 O   0  0  0  0  0  0
  -24.6180  -31.8667   23.2101 C   0  0  0  0  0  0
  -25.9078  -32.4803   23.8394 C   0  0  1  0  0  0
  -27.2375  -27.4212   20.1062 C   0  0  0  0  0  0
  -25.5939  -33.8604   24.2335 N   0  0  0  0  0  0
  -23.4059  -30.4886   21.5515 C   0  0  2  0  0  0
  -24.8530  -28.9529   20.1151 C   0  0  0  0  0  0
  -22.7436  -29.4646   22.5009 C   0  0  0  0  0  0
  -18.0281  -28.1389   22.8501 C   0  0  0  0  0  0
  -24.1493  -36.7318   23.2636 C   0  0  0  0  0  0
  -25.9342  -30.8271   21.3649 C   0  0  0  0  0  0
  -26.0121  -29.4594   20.7161 C   0  0  0  0  0  0
  -27.2078  -28.7027   20.7072 C   0  0  0  0  0  0
  -26.0636  -26.9353   19.4883 C   0  0  0  0  0  0
  -24.8753  -27.6917   19.4941 C   0  0  0  0  0  0
  -23.6147  -29.8212   20.1651 C   0  0  0  0  0  0
  -25.4106  -36.3102   24.0334 C   0  0  1  0  0  0
  -20.5872  -28.3669   23.1342 C   0  0  2  0  0  0
  -20.6789  -26.9409   22.5431 C   0  0  0  0  0  0
  -19.5754  -26.6394   21.5244 C   0  0  0  0  0  0
  -18.1926  -26.7936   22.1637 C   0  0  0  0  0  0
  -19.1526  -28.8846   23.2913 C   0  0  0  0  0  0
  -18.9446  -30.1462   23.8906 C   0  0  0  0  0  0
  -17.6442  -30.6587   24.0573 C   0  0  0  0  0  0
  -25.9034  -34.9463   23.5125 C   0  0  0  0  0  0
  -16.5339  -29.9081   23.6339 C   0  0  0  0  0  0
  -16.7266  -28.6512   23.0334 C   0  0  0  0  0  0
  -26.4509  -31.6571   25.0715 C   0  0  0  0  0  0
  -25.3794  -31.3665   26.1474 C   0  0  0  0  0  0
  -27.0333  -30.3010   24.6085 C   0  0  0  0  0  0
  -27.6078  -32.4291   25.7480 C   0  0  0  0  0  0
  -27.5581  -37.1814   24.8462 C   0  0  0  0  0  0
  -21.4158  -29.3025   22.3748 N   0  0  0  0  0  0
  -26.4292  -37.3786   23.9408 N   0  0  0  0  0  0
  -24.6711  -31.0751   22.1014 N   0  0  0  0  0  0
  -23.4204  -28.8201   23.3065 O   0  0  0  0  0  0
  -28.4049  -26.6819   20.0869 O   0  0  0  0  0  0
  -26.5570  -34.8922   22.4670 O   0  0  0  0  0  0
  -23.5371  -32.1438   23.7487 O   0  0  0  0  0  0
  -31.2362  -20.8896   22.0834 C   0  0  0  0  0  0
  -31.6347  -19.7137   22.7460 C   0  0  0  0  0  0
  -30.5986  -19.5584   20.1526 C   0  0  0  0  0  0
  -30.7326  -20.8306   20.7695 C   0  0  0  0  0  0
  -31.5575  -18.4560   22.1085 C   0  0  0  0  0  0
  -30.9999  -18.3576   20.8049 C   0  0  0  0  0  0
  -32.1249  -17.2479   22.8369 C   0  0  0  0  0  0
  -26.9010  -17.7159   21.5098 C   0  0  0  0  0  0
  -30.9179  -17.0127   20.0326 C   0  0  0  0  0  0
  -30.4696  -22.1352   19.9971 C   0  0  0  0  0  0
  -27.9817  -17.1105   20.6039 C   0  0  0  0  0  0
  -29.0047  -16.2752   21.4093 C   0  0  0  0  0  0
  -29.4128  -24.4129   20.0043 C   0  0  0  0  0  0
  -28.3323  -25.3417   20.6207 C   0  0  0  0  0  0
  -30.1693  -15.8348   20.6101 N   0  0  0  0  0  0
  -29.4479  -23.0365   20.5957 N   0  3  0  0  0  0
  -31.4520  -12.4872   19.0871 H   0  0  0  0  0  0
  -30.3500  -11.3928   19.8537 H   0  0  0  0  0  0
  -29.7306  -11.7607   17.4495 H   0  0  0  0  0  0
  -29.6284  -13.4847   17.7199 H   0  0  0  0  0  0
  -27.8283  -11.3113   18.8254 H   0  0  0  0  0  0
  -27.3480  -12.6247   17.7873 H   0  0  0  0  0  0
  -27.6711  -14.2589   19.5610 H   0  0  0  0  0  0
  -28.7491  -11.9690   21.2523 H   0  0  0  0  0  0
  -28.4714  -13.5023   21.9166 H   0  0  0  0  0  0
  -25.2740   -9.5637   22.4791 H   0  0  0  0  0  0
  -23.9986   -7.4581   22.7479 H   0  0  0  0  0  0
  -21.0831   -8.8705   19.8948 H   0  0  0  0  0  0
  -22.3672  -10.9618   19.6180 H   0  0  0  0  0  0
  -21.1990   -7.6133   23.9714 H   0  0  0  0  0  0
  -21.1507   -6.0517   25.9085 H   0  0  0  0  0  0
  -22.0595   -2.7594   23.2854 H   0  0  0  0  0  0
  -22.4013  -11.9847   22.4859 H   0  0  0  0  0  0
  -21.1028  -13.1216   22.2623 H   0  0  0  0  0  0
  -24.6106  -15.8093   20.5470 H   0  0  0  0  0  0
  -26.2542  -15.6405   20.2006 H   0  0  0  0  0  0
  -26.7145  -32.5511   23.1148 H   0  0  0  0  0  0
  -25.0168  -33.9766   25.0535 H   0  0  0  0  0  0
  -22.6964  -31.3067   21.4139 H   0  0  0  0  0  0
  -23.3750  -35.9660   23.3293 H   0  0  0  0  0  0
  -24.3604  -36.8939   22.2058 H   0  0  0  0  0  0
  -23.7253  -37.6523   23.6651 H   0  0  0  0  0  0
  -26.0447  -31.5923   20.5953 H   0  0  0  0  0  0
  -26.8233  -30.8816   21.9808 H   0  0  0  0  0  0
  -28.1020  -29.0937   21.1727 H   0  0  0  0  0  0
  -26.0648  -25.9800   18.9815 H   0  0  0  0  0  0
  -23.9891  -27.3044   19.0105 H   0  0  0  0  0  0
  -23.7207  -30.5979   19.4062 H   0  0  0  0  0  0
  -22.7396  -29.2394   19.8698 H   0  0  0  0  0  0
  -25.1283  -36.1966   25.0826 H   0  0  0  0  0  0
  -20.9944  -28.3229   24.1470 H   0  0  0  0  0  0
  -20.5771  -26.2257   23.3608 H   0  0  0  0  0  0
  -21.6649  -26.7507   22.1175 H   0  0  0  0  0  0
  -19.6920  -25.6314   21.1251 H   0  0  0  0  0  0
  -19.6699  -27.3233   20.6798 H   0  0  0  0  0  0
  -17.4219  -26.6720   21.4012 H   0  0  0  0  0  0
  -18.0288  -26.0068   22.9015 H   0  0  0  0  0  0
  -19.7911  -30.7295   24.2270 H   0  0  0  0  0  0
  -17.4979  -31.6264   24.5177 H   0  0  0  0  0  0
  -15.5331  -30.2970   23.7658 H   0  0  0  0  0  0
  -15.8674  -28.0843   22.7004 H   0  0  0  0  0  0
  -24.5957  -30.7020   25.7819 H   0  0  0  0  0  0
  -24.9010  -32.2815   26.4973 H   0  0  0  0  0  0
  -25.8179  -30.8805   27.0198 H   0  0  0  0  0  0
  -26.2856  -29.6742   24.1205 H   0  0  0  0  0  0
  -27.4170  -29.7269   25.4530 H   0  0  0  0  0  0
  -27.8671  -30.4323   23.9182 H   0  0  0  0  0  0
  -27.2695  -33.3582   26.2077 H   0  0  0  0  0  0
  -28.3882  -32.6858   25.0302 H   0  0  0  0  0  0
  -28.0751  -31.8404   26.5386 H   0  0  0  0  0  0
  -28.2589  -38.0121   24.7508 H   0  0  0  0  0  0
  -28.1083  -36.2647   24.6275 H   0  0  0  0  0  0
  -27.2302  -37.1450   25.8868 H   0  0  0  0  0  0
  -20.9341  -29.8708   21.6921 H   0  0  0  0  0  0
  -26.0180  -38.2865   24.1404 H   0  0  0  0  0  0
  -31.3654  -21.8425   22.5787 H   0  0  0  0  0  0
  -32.0465  -19.7926   23.7429 H   0  0  0  0  0  0
  -30.2250  -19.5076   19.1392 H   0  0  0  0  0  0
  -32.8477  -17.5553   23.5938 H   0  0  0  0  0  0
  -32.6466  -16.5804   22.1529 H   0  0  0  0  0  0
  -31.3400  -16.6869   23.3432 H   0  0  0  0  0  0
  -26.1242  -18.2062   20.9214 H   0  0  0  0  0  0
  -27.3274  -18.4586   22.1853 H   0  0  0  0  0  0
  -26.4210  -16.9567   22.1266 H   0  0  0  0  0  0
  -31.9579  -16.7939   19.7926 H   0  0  0  0  0  0
  -30.4748  -17.2022   19.0544 H   0  0  0  0  0  0
  -30.1850  -21.9078   18.9686 H   0  0  0  0  0  0
  -31.4213  -22.6662   19.9345 H   0  0  0  0  0  0
  -28.4508  -17.9400   20.0825 H   0  0  0  0  0  0
  -27.5413  -16.5114   19.8104 H   0  0  0  0  0  0
  -28.4759  -15.4728   21.8956 H   0  0  0  0  0  0
  -29.3569  -16.8733   22.2466 H   0  0  0  0  0  0
  -30.3911  -24.8748   20.1395 H   0  0  0  0  0  0
  -29.2503  -24.3384   18.9280 H   0  0  0  0  0  0
  -28.4861  -25.4096   21.6988 H   0  0  0  0  0  0
  -27.3504  -24.8889   20.4825 H   0  0  0  0  0  0
  -29.6366  -23.1100   21.5821 H   0  0  0  0  0  0
  -28.5501  -22.5904   20.4913 H   0  0  0  0  0  0
  1 25  1  0  0  0
  1 30  2  0  0  0
  1 85  1  0  0  0
  2  3  1  0  0  0
  2 25  1  0  0  0
  2 87  1  0  0  0
  2 88  1  0  0  0
  3  4  1  0  0  0
  3 89  1  0  0  0
  3 90  1  0  0  0
  4  5  1  0  0  0
  4 91  1  0  0  0
  4 92  1  0  0  0
  5  6  1  0  0  0
  5 26  1  0  0  0
  5 93  1  0  0  0
  6 25  1  0  0  0
  6 94  1  0  0  0
  6 95  1  0  0  0
  7  8  2  0  0  0
  7 26  1  0  0  0
  7 29  1  0  0  0
  8  9  1  0  0  0
  8 22  1  0  0  0
  9 10  1  0  0  0
  9 27  2  0  0  0
 10 11  2  0  0  0
 10 15  1  0  0  0
 11 12  1  0  0  0
 11 96  1  0  0  0
 12 13  2  0  0  0
 12 97  1  0  0  0
 13 14  1  0  0  0
 13 31  1  0  0  0
 14 15  2  0  0  0
 14 98  1  0  0  0
 15 99  1  0  0  0
 16 17  2  0  0  0
 16 21  1  0  0  0
 16 31  1  0  0  0
 17 18  1  0  0  0
 17100  1  0  0  0
 18 19  2  0  0  0
 18101  1  0  0  0
 19 20  1  0  0  0
 19 24  1  0  0  0
 20 21  2  0  0  0
 20102  1  0  0  0
 21 23  1  0  0  0
 22 28  1  0  0  0
 22 32  2  0  0  0
 26 27  1  0  0  0
 28103  1  0  0  0
 28104  1  0  0  0
 29105  1  0  0  0
 29106  1  0  0  0
 33 34  1  0  0  0
 33 66  1  0  0  0
 33 70  2  0  0  0
 34 36  1  0  0  0
 34 59  1  0  0  0
 34107  1  0  0  0
 35 44  2  0  0  0
 35 45  1  0  0  0
 35 68  1  0  0  0
 36 56  1  0  0  0
 36108  1  0  0  0
 37 39  1  0  0  0
 37 47  1  0  0  0
 37 66  1  0  0  0
 37109  1  0  0  0
 38 43  2  0  0  0
 38 46  1  0  0  0
 38 47  1  0  0  0
 39 64  1  0  0  0
 39 67  2  0  0  0
 40 52  1  0  0  0
 40 53  2  0  0  0
 40 58  1  0  0  0
 41110  1  0  0  0
 41111  1  0  0  0
 41112  1  0  0  0
 41 48  1  0  0  0
 42 43  1  0  0  0
 42 66  1  0  0  0
 42113  1  0  0  0
 42114  1  0  0  0
 43 44  1  0  0  0
 44115  1  0  0  0
 45 46  2  0  0  0
 45116  1  0  0  0
 46117  1  0  0  0
 47118  1  0  0  0
 47119  1  0  0  0
 48 56  1  0  0  0
 48 65  1  0  0  0
 48120  1  0  0  0
 49 50  1  0  0  0
 49 53  1  0  0  0
 49 64  1  0  0  0
 49121  1  0  0  0
 50 51  1  0  0  0
 50122  1  0  0  0
 50123  1  0  0  0
 51 52  1  0  0  0
 51124  1  0  0  0
 51125  1  0  0  0
 52126  1  0  0  0
 52127  1  0  0  0
 53 54  1  0  0  0
 54 55  2  0  0  0
 54128  1  0  0  0
 55 57  1  0  0  0
 55129  1  0  0  0
 56 69  2  0  0  0
 57 58  2  0  0  0
 57130  1  0  0  0
 58131  1  0  0  0
 59 60  1  0  0  0
 59 61  1  0  0  0
 59 62  1  0  0  0
 60132  1  0  0  0
 60133  1  0  0  0
 60134  1  0  0  0
 61135  1  0  0  0
 61136  1  0  0  0
 61137  1  0  0  0
 62138  1  0  0  0
 62139  1  0  0  0
 62140  1  0  0  0
 63 65  1  0  0  0
 63141  1  0  0  0
 63142  1  0  0  0
 63143  1  0  0  0
 64144  1  0  0  0
 65145  1  0  0  0
 68 84  1  0  0  0
 71 72  2  0  0  0
 71 74  1  0  0  0
 71146  1  0  0  0
 72 75  1  0  0  0
 72147  1  0  0  0
 73 74  2  0  0  0
 73 76  1  0  0  0
 73148  1  0  0  0
 74 80  1  0  0  0
 75 76  2  0  0  0
 75 77  1  0  0  0
 76 79  1  0  0  0
 77149  1  0  0  0
 77150  1  0  0  0
 77151  1  0  0  0
 78 81  1  0  0  0
 78152  1  0  0  0
 78153  1  0  0  0
 78154  1  0  0  0
 79 85  1  0  0  0
 79155  1  0  0  0
 79156  1  0  0  0
 80 86  1  0  0  0
 80157  1  0  0  0
 80158  1  0  0  0
 81 82  1  0  0  0
 81159  1  0  0  0
 81160  1  0  0  0
 82 85  1  0  0  0
 82161  1  0  0  0
 82162  1  0  0  0
 83 84  1  0  0  0
 83 86  1  0  0  0
 83163  1  0  0  0
 83164  1  0  0  0
 84165  1  0  0  0
 84166  1  0  0  0
 86167  1  0  0  0
 86168  1  0  0  0
M  CHG  1  86   1
M  ISO  4   1 100  68 101  84 101  85 100
M  END
> <chiral flag>
0

> <version>
0

> <s_m_source_file>
/data/baiqing/PycharmProjects/Reinvent-master-3.2/result/LINK_invent/BTK/process_docking_weight1_custom_product_contain_oxygen_bond_distance_aromatic_linkinvent_7_9_3/rearranged_h_0036.sdf

> <i_m_source_file_index>
25

> <r_mmod_Potential_Energy-OPLS-2005>
15.8248977661133

> <r_mmod_Stretch_Energy-OPLS-2005>
57.1704788208008

> <r_mmod_Bend_Energy-OPLS-2005>
140.286712646484

> <r_mmod_Torsional_Energy-OPLS-2005>
274.089294433594

> <r_mmod_Improper_Torsional_Energy-OPLS-2005>
13.1960830688477

> <r_mmod_Van_der_Waal_Energy-OPLS-2005>
163.958908081055

> <r_mmod_Electrostatic_Energy-OPLS-2005>
-235.474594116211

> <r_mmod_Solvation_Energy-OPLS-2005>
-428.352722167969

> <b_mmod_Minimization_Converged-OPLS-2005>
0

> <r_mmod_RMS_Derivative-OPLS-2005>
1.89481389522552

$$$$
25
                    3D
 Structure written by MMmdl.
164173  0  0  1  0            999 V2000
  -30.6946  -14.4853   20.5450 C   0  0  0  0  0  0
  -30.4075  -12.3029   19.4283 C   0  0  0  0  0  0
  -29.4876  -12.5031   18.2059 C   0  0  0  0  0  0
  -28.0064  -12.3782   18.6138 C   0  0  0  0  0  0
  -27.6570  -13.2164   19.8744 C   0  0  2  0  0  0
  -28.6996  -13.0081   20.9973 C   0  0  0  0  0  0
  -25.2584  -13.8202   20.5706 C   0  0  0  0  0  0
  -24.1838  -13.0447   20.9180 C   0  0  0  0  0  0
  -24.6400  -11.6925   20.8738 C   0  0  0  0  0  0
  -23.9068  -10.4296   21.0401 C   0  0  0  0  0  0
  -24.3620   -9.4213   21.9173 C   0  0  0  0  0  0
  -23.6296   -8.2247   22.0744 C   0  0  0  0  0  0
  -22.4275   -8.0290   21.3537 C   0  0  0  0  0  0
  -21.9911   -9.0254   20.4639 C   0  0  0  0  0  0
  -22.7236  -10.2133   20.3051 C   0  0  0  0  0  0
  -21.6837   -6.0742   22.5268 C   0  0  0  0  0  0
  -21.4007   -6.5634   23.8214 C   0  0  0  0  0  0
  -21.3663   -5.6781   24.9168 C   0  0  0  0  0  0
  -21.6038   -4.3052   24.7212 C   0  0  0  0  0  0
  -21.8828   -3.8149   23.4337 C   0  0  0  0  0  0
  -21.9200   -4.6967   22.3388 C   0  0  0  0  0  0
  -22.7863  -13.5240   21.1837 C   0  0  0  0  0  0
  -22.1661   -4.2156   21.0959 F   0  0  0  0  0  0
  -21.5636   -3.4538   25.7717 F   0  0  0  0  0  0
  -30.0252  -13.3058   20.4380 N   0  0  0  0  0  0
  -26.3013  -12.9370   20.3379 N   0  0  0  0  0  0
  -25.9343  -11.6520   20.5788 N   0  0  0  0  0  0
  -22.0514  -12.8215   22.0396 N   0  0  0  0  0  0
  -25.4346  -15.1905   20.4152 N   0  0  0  0  0  0
  -31.8497  -14.6016   20.1262 O   0  0  0  0  0  0
  -21.6632   -6.8886   21.4227 O   0  0  0  0  0  0
  -22.3545  -14.5539   20.6698 O   0  0  0  0  0  0
  -24.6140  -31.8642   23.2110 C   0  0  0  0  0  0
  -25.9027  -32.4816   23.8417 C   0  0  1  0  0  0
  -27.2150  -27.3515   20.1445 C   0  0  0  0  0  0
  -25.5900  -33.8607   24.2374 N   0  0  0  0  0  0
  -23.4095  -30.4823   21.5526 C   0  0  2  0  0  0
  -24.8600  -28.9466   20.1284 C   0  0  0  0  0  0
  -22.7448  -29.4538   22.4977 C   0  0  0  0  0  0
  -18.0247  -28.1352   22.8435 C   0  0  0  0  0  0
  -24.1482  -36.7310   23.2645 C   0  0  0  0  0  0
  -25.9418  -30.8057   21.3769 C   0  0  0  0  0  0
  -26.0206  -29.4243   20.7510 C   0  0  0  0  0  0
  -27.2029  -28.6306   20.7643 C   0  0  0  0  0  0
  -26.0481  -26.9363   19.4731 C   0  0  0  0  0  0
  -24.8734  -27.7059   19.4799 C   0  0  0  0  0  0
  -23.6283  -29.8230   20.1657 C   0  0  0  0  0  0
  -25.4076  -36.3091   24.0378 C   0  0  1  0  0  0
  -20.5833  -28.3632   23.1297 C   0  0  2  0  0  0
  -20.6720  -26.9379   22.5385 C   0  0  0  0  0  0
  -19.5726  -26.6360   21.5162 C   0  0  0  0  0  0
  -18.1903  -26.7881   22.1579 C   0  0  0  0  0  0
  -19.1501  -28.8817   23.2835 C   0  0  0  0  0  0
  -18.9453  -30.1407   23.8864 C   0  0  0  0  0  0
  -17.6466  -30.6570   24.0529 C   0  0  0  0  0  0
  -25.9021  -34.9461   23.5171 C   0  0  0  0  0  0
  -16.5343  -29.9079   23.6308 C   0  0  0  0  0  0
  -16.7231  -28.6486   23.0328 C   0  0  0  0  0  0
  -26.4454  -31.6565   25.0719 C   0  0  0  0  0  0
  -25.3708  -31.3692   26.1476 C   0  0  0  0  0  0
  -27.0255  -30.2999   24.6023 C   0  0  0  0  0  0
  -27.6053  -32.4243   25.7480 C   0  0  0  0  0  0
  -27.5585  -37.1791   24.8465 C   0  0  0  0  0  0
  -21.4158  -29.2993   22.3769 N   0  0  0  0  0  0
  -26.4260  -37.3786   23.9455 N   0  0  0  0  0  0
  -24.6732  -31.0697   22.1046 N   0  0  0  0  0  0
  -23.4191  -28.8016   23.2992 O   0  0  0  0  0  0
  -28.3682  -26.5895   20.0201 O   0  0  0  0  0  0
  -26.5589  -34.8932   22.4736 O   0  0  0  0  0  0
  -23.5313  -32.1435   23.7456 O   0  0  0  0  0  0
  -30.6344  -19.7553   20.5164 C   0  0  0  0  0  0
  -31.2423  -17.4582   20.0164 C   0  0  0  0  0  0
  -29.5822  -19.3244   21.3507 C   0  0  0  0  0  0
  -29.4030  -17.9148   21.5601 C   0  0  0  0  0  0
  -30.2230  -16.9617   20.8688 C   0  0  0  0  0  0
  -31.4598  -18.8337   19.8594 C   0  0  0  0  0  0
  -28.2897  -22.9002   21.6501 C   0  0  0  0  0  0
  -26.9567  -22.1687   19.2134 C   0  0  0  0  0  0
  -27.4473  -23.6130   19.2974 C   0  0  0  0  0  0
  -28.0234  -21.2621   19.7926 C   0  0  0  0  0  0
  -27.7505  -24.0818   20.7460 C   0  0  2  0  0  0
  -28.3480  -17.4153   22.5427 C   0  0  0  0  0  0
  -28.7105  -20.4241   22.0168 C   0  0  0  0  0  0
  -28.6196  -25.4060   20.8436 C   0  0  0  0  0  0
  -28.3565  -21.6108   21.1784 N   0  0  0  0  0  0
  -29.9778  -15.5417   21.0094 N   0  0  0  0  0  0
  -28.5961  -23.1605   22.8177 O   0  0  0  0  0  0
  -32.7475  -19.3924   18.8532 Cl  0  0  0  0  0  0
  -31.4538  -12.3838   19.1302 H   0  0  0  0  0  0
  -30.2904  -11.2960   19.8313 H   0  0  0  0  0  0
  -29.7200  -11.7735   17.4297 H   0  0  0  0  0  0
  -29.6667  -13.4866   17.7643 H   0  0  0  0  0  0
  -27.8012  -11.3247   18.7998 H   0  0  0  0  0  0
  -27.3616  -12.6710   17.7828 H   0  0  0  0  0  0
  -27.6964  -14.2611   19.5703 H   0  0  0  0  0  0
  -28.6814  -11.9760   21.3530 H   0  0  0  0  0  0
  -28.4720  -13.6238   21.8697 H   0  0  0  0  0  0
  -25.2762   -9.5672   22.4746 H   0  0  0  0  0  0
  -23.9989   -7.4639   22.7475 H   0  0  0  0  0  0
  -21.0835   -8.8786   19.8956 H   0  0  0  0  0  0
  -22.3697  -10.9678   19.6165 H   0  0  0  0  0  0
  -21.1989   -7.6146   23.9703 H   0  0  0  0  0  0
  -21.1472   -6.0512   25.9055 H   0  0  0  0  0  0
  -22.0612   -2.7616   23.2819 H   0  0  0  0  0  0
  -22.4114  -11.9842   22.4736 H   0  0  0  0  0  0
  -21.1154  -13.1272   22.2660 H   0  0  0  0  0  0
  -24.6741  -15.8525   20.5314 H   0  0  0  0  0  0
  -26.2931  -15.6268   20.1019 H   0  0  0  0  0  0
  -26.7082  -32.5551   23.1199 H   0  0  0  0  0  0
  -25.0066  -33.9764   25.0525 H   0  0  0  0  0  0
  -22.6932  -31.2952   21.4136 H   0  0  0  0  0  0
  -23.3760  -35.9622   23.3221 H   0  0  0  0  0  0
  -24.3607  -36.8993   22.2074 H   0  0  0  0  0  0
  -23.7194  -37.6488   23.6683 H   0  0  0  0  0  0
  -26.0406  -31.5443   20.5788 H   0  0  0  0  0  0
  -26.8339  -30.8868   21.9832 H   0  0  0  0  0  0
  -28.1049  -28.9975   21.2369 H   0  0  0  0  0  0
  -26.0287  -26.0495   18.8752 H   0  0  0  0  0  0
  -24.0005  -27.3608   18.9441 H   0  0  0  0  0  0
  -23.7552  -30.5994   19.4095 H   0  0  0  0  0  0
  -22.7485  -29.2512   19.8626 H   0  0  0  0  0  0
  -25.1213  -36.1985   25.0863 H   0  0  0  0  0  0
  -20.9841  -28.3188   24.1454 H   0  0  0  0  0  0
  -20.5598  -26.2240   23.3569 H   0  0  0  0  0  0
  -21.6604  -26.7420   22.1214 H   0  0  0  0  0  0
  -19.6921  -25.6273   21.1214 H   0  0  0  0  0  0
  -19.6693  -27.3150   20.6684 H   0  0  0  0  0  0
  -17.4143  -26.6574   21.3998 H   0  0  0  0  0  0
  -18.0332  -26.0037   22.9005 H   0  0  0  0  0  0
  -19.7951  -30.7154   24.2274 H   0  0  0  0  0  0
  -17.5062  -31.6266   24.5112 H   0  0  0  0  0  0
  -15.5349  -30.2981   23.7679 H   0  0  0  0  0  0
  -15.8609  -28.0816   22.7083 H   0  0  0  0  0  0
  -24.5895  -30.6995   25.7858 H   0  0  0  0  0  0
  -24.8861  -32.2841   26.4869 H   0  0  0  0  0  0
  -25.8021  -30.8927   27.0282 H   0  0  0  0  0  0
  -26.2754  -29.6796   24.1084 H   0  0  0  0  0  0
  -27.4076  -29.7177   25.4426 H   0  0  0  0  0  0
  -27.8572  -30.4349   23.9106 H   0  0  0  0  0  0
  -27.2736  -33.3628   26.1932 H   0  0  0  0  0  0
  -28.3919  -32.6633   25.0313 H   0  0  0  0  0  0
  -28.0611  -31.8400   26.5488 H   0  0  0  0  0  0
  -28.2506  -38.0186   24.7588 H   0  0  0  0  0  0
  -28.1168  -36.2700   24.6137 H   0  0  0  0  0  0
  -27.2332  -37.1260   25.8880 H   0  0  0  0  0  0
  -20.9339  -29.8806   21.7075 H   0  0  0  0  0  0
  -26.0154  -38.2851   24.1519 H   0  0  0  0  0  0
  -30.8106  -20.8102   20.3660 H   0  0  0  0  0  0
  -31.8962  -16.8116   19.4557 H   0  0  0  0  0  0
  -26.7558  -21.8882   18.1785 H   0  0  0  0  0  0
  -26.0204  -22.0431   19.7600 H   0  0  0  0  0  0
  -26.6434  -24.1934   18.8666 H   0  0  0  0  0  0
  -28.3167  -23.7615   18.6549 H   0  0  0  0  0  0
  -28.9252  -21.3523   19.1858 H   0  0  0  0  0  0
  -27.7028  -20.2226   19.7159 H   0  0  0  0  0  0
  -26.7886  -24.3410   21.1921 H   0  0  0  0  0  0
  -28.2535  -18.0819   23.3991 H   0  0  0  0  0  0
  -28.6080  -16.4436   22.9632 H   0  0  0  0  0  0
  -27.3763  -17.3316   22.0565 H   0  0  0  0  0  0
  -29.2660  -20.7389   22.9005 H   0  0  0  0  0  0
  -27.7717  -20.0049   22.3805 H   0  0  0  0  0  0
  -29.6409  -25.1223   20.5795 H   0  0  0  0  0  0
  -28.6946  -25.7264   21.8828 H   0  0  0  0  0  0
  -29.0825  -15.2921   21.4016 H   0  0  0  0  0  0
  1 25  1  0  0  0
  1 30  2  0  0  0
  1 86  1  0  0  0
  2  3  1  0  0  0
  2 25  1  0  0  0
  2 89  1  0  0  0
  2 90  1  0  0  0
  3  4  1  0  0  0
  3 91  1  0  0  0
  3 92  1  0  0  0
  4  5  1  0  0  0
  4 93  1  0  0  0
  4 94  1  0  0  0
  5  6  1  0  0  0
  5 26  1  0  0  0
  5 95  1  0  0  0
  6 25  1  0  0  0
  6 96  1  0  0  0
  6 97  1  0  0  0
  7  8  2  0  0  0
  7 26  1  0  0  0
  7 29  1  0  0  0
  8  9  1  0  0  0
  8 22  1  0  0  0
  9 10  1  0  0  0
  9 27  2  0  0  0
 10 11  2  0  0  0
 10 15  1  0  0  0
 11 12  1  0  0  0
 11 98  1  0  0  0
 12 13  2  0  0  0
 12 99  1  0  0  0
 13 14  1  0  0  0
 13 31  1  0  0  0
 14 15  2  0  0  0
 14100  1  0  0  0
 15101  1  0  0  0
 16 17  2  0  0  0
 16 21  1  0  0  0
 16 31  1  0  0  0
 17 18  1  0  0  0
 17102  1  0  0  0
 18 19  2  0  0  0
 18103  1  0  0  0
 19 20  1  0  0  0
 19 24  1  0  0  0
 20 21  2  0  0  0
 20104  1  0  0  0
 21 23  1  0  0  0
 22 28  1  0  0  0
 22 32  2  0  0  0
 26 27  1  0  0  0
 28105  1  0  0  0
 28106  1  0  0  0
 29107  1  0  0  0
 29108  1  0  0  0
 33 34  1  0  0  0
 33 66  1  0  0  0
 33 70  2  0  0  0
 34 36  1  0  0  0
 34 59  1  0  0  0
 34109  1  0  0  0
 35 44  2  0  0  0
 35 45  1  0  0  0
 35 68  1  0  0  0
 36 56  1  0  0  0
 36110  1  0  0  0
 37 39  1  0  0  0
 37 47  1  0  0  0
 37 66  1  0  0  0
 37111  1  0  0  0
 38 43  2  0  0  0
 38 46  1  0  0  0
 38 47  1  0  0  0
 39 64  1  0  0  0
 39 67  2  0  0  0
 40 52  1  0  0  0
 40 53  2  0  0  0
 40 58  1  0  0  0
 41112  1  0  0  0
 41113  1  0  0  0
 41114  1  0  0  0
 41 48  1  0  0  0
 42 43  1  0  0  0
 42 66  1  0  0  0
 42115  1  0  0  0
 42116  1  0  0  0
 43 44  1  0  0  0
 44117  1  0  0  0
 45 46  2  0  0  0
 45118  1  0  0  0
 46119  1  0  0  0
 47120  1  0  0  0
 47121  1  0  0  0
 48 56  1  0  0  0
 48 65  1  0  0  0
 48122  1  0  0  0
 49 50  1  0  0  0
 49 53  1  0  0  0
 49 64  1  0  0  0
 49123  1  0  0  0
 50 51  1  0  0  0
 50124  1  0  0  0
 50125  1  0  0  0
 51 52  1  0  0  0
 51126  1  0  0  0
 51127  1  0  0  0
 52128  1  0  0  0
 52129  1  0  0  0
 53 54  1  0  0  0
 54 55  2  0  0  0
 54130  1  0  0  0
 55 57  1  0  0  0
 55131  1  0  0  0
 56 69  2  0  0  0
 57 58  2  0  0  0
 57132  1  0  0  0
 58133  1  0  0  0
 59 60  1  0  0  0
 59 61  1  0  0  0
 59 62  1  0  0  0
 60134  1  0  0  0
 60135  1  0  0  0
 60136  1  0  0  0
 61137  1  0  0  0
 61138  1  0  0  0
 61139  1  0  0  0
 62140  1  0  0  0
 62141  1  0  0  0
 62142  1  0  0  0
 63 65  1  0  0  0
 63143  1  0  0  0
 63144  1  0  0  0
 63145  1  0  0  0
 64146  1  0  0  0
 65147  1  0  0  0
 68 84  1  0  0  0
 71 73  2  0  0  0
 71 76  1  0  0  0
 71148  1  0  0  0
 72 75  1  0  0  0
 72 76  2  0  0  0
 72149  1  0  0  0
 73 74  1  0  0  0
 73 83  1  0  0  0
 74 75  2  0  0  0
 74 82  1  0  0  0
 75 86  1  0  0  0
 76 88  1  0  0  0
 77 81  1  0  0  0
 77 85  1  0  0  0
 77 87  2  0  0  0
 78 79  1  0  0  0
 78 80  1  0  0  0
 78150  1  0  0  0
 78151  1  0  0  0
 79 81  1  0  0  0
 79152  1  0  0  0
 79153  1  0  0  0
 80 85  1  0  0  0
 80154  1  0  0  0
 80155  1  0  0  0
 81 84  1  0  0  0
 81156  1  0  0  0
 82157  1  0  0  0
 82158  1  0  0  0
 82159  1  0  0  0
 83 85  1  0  0  0
 83160  1  0  0  0
 83161  1  0  0  0
 84162  1  0  0  0
 84163  1  0  0  0
 86164  1  0  0  0
M  ISO  4   1 100  68 101  84 101  86 100
M  END
> <chiral flag>
0

> <version>
0

> <s_m_source_file>
/data/baiqing/PycharmProjects/Reinvent-master-3.2/result/LINK_invent/BTK/process_docking_weight1_custom_product_contain_oxygen_bond_distance_aromatic_linkinvent_7_9_3/rearranged_h_0036.sdf

> <i_m_source_file_index>
26

> <r_mmod_Potential_Energy-OPLS-2005>
61.1242713928223

> <r_mmod_Stretch_Energy-OPLS-2005>
64.9966125488281

> <r_mmod_Bend_Energy-OPLS-2005>
137.495361328125

> <r_mmod_Torsional_Energy-OPLS-2005>
260.034759521484

> <r_mmod_Improper_Torsional_Energy-OPLS-2005>
4.42165756225586

> <r_mmod_Van_der_Waal_Energy-OPLS-2005>
172.348114013672

> <r_mmod_Electrostatic_Energy-OPLS-2005>
-375.825836181641

> <r_mmod_Solvation_Energy-OPLS-2005>
-223.59245300293

> <b_mmod_Minimization_Converged-OPLS-2005>
0

> <r_mmod_RMS_Derivative-OPLS-2005>
5.04101419448853

$$$$
26
                    3D
 Structure written by MMmdl.
170179  0  0  1  0            999 V2000
  -30.6090  -14.6683   20.5068 C   0  0  0  0  0  0
  -30.4383  -12.4104   19.4631 C   0  0  0  0  0  0
  -29.5134  -12.5159   18.2300 C   0  0  0  0  0  0
  -28.0336  -12.3557   18.6304 C   0  0  0  0  0  0
  -27.6508  -13.2213   19.8585 C   0  0  2  0  0  0
  -28.6918  -13.0909   20.9938 C   0  0  0  0  0  0
  -25.2546  -13.8185   20.5649 C   0  0  0  0  0  0
  -24.1819  -13.0446   20.9131 C   0  0  0  0  0  0
  -24.6392  -11.6914   20.8681 C   0  0  0  0  0  0
  -23.9052  -10.4289   21.0316 C   0  0  0  0  0  0
  -24.3631   -9.4229   21.9098 C   0  0  0  0  0  0
  -23.6338   -8.2245   22.0697 C   0  0  0  0  0  0
  -22.4311   -8.0259   21.3506 C   0  0  0  0  0  0
  -21.9914   -9.0192   20.4590 C   0  0  0  0  0  0
  -22.7218  -10.2093   20.2964 C   0  0  0  0  0  0
  -21.6876   -6.0700   22.5228 C   0  0  0  0  0  0
  -21.4031   -6.5603   23.8176 C   0  0  0  0  0  0
  -21.3678   -5.6778   24.9142 C   0  0  0  0  0  0
  -21.6062   -4.3036   24.7209 C   0  0  0  0  0  0
  -21.8843   -3.8110   23.4325 C   0  0  0  0  0  0
  -21.9223   -4.6920   22.3391 C   0  0  0  0  0  0
  -22.7840  -13.5200   21.1872 C   0  0  0  0  0  0
  -22.1675   -4.2098   21.0960 F   0  0  0  0  0  0
  -21.5651   -3.4541   25.7717 F   0  0  0  0  0  0
  -30.0120  -13.4346   20.4389 N   0  0  0  0  0  0
  -26.2968  -12.9364   20.3253 N   0  0  0  0  0  0
  -25.9331  -11.6512   20.5687 N   0  0  0  0  0  0
  -22.0556  -12.8128   22.0420 N   0  0  0  0  0  0
  -25.4323  -15.1908   20.4112 N   0  0  0  0  0  0
  -31.7636  -14.8468   20.0985 O   0  0  0  0  0  0
  -21.6687   -6.8832   21.4194 O   0  0  0  0  0  0
  -22.3481  -14.5496   20.6756 O   0  0  0  0  0  0
  -24.6281  -31.8631   23.2036 C   0  0  0  0  0  0
  -25.9116  -32.4815   23.8382 C   0  0  1  0  0  0
  -27.1982  -27.2955   20.1033 C   0  0  0  0  0  0
  -25.5905  -33.8611   24.2301 N   0  0  0  0  0  0
  -23.4221  -30.4891   21.5499 C   0  0  2  0  0  0
  -24.8601  -28.9480   20.1122 C   0  0  0  0  0  0
  -22.7503  -29.4628   22.4948 C   0  0  0  0  0  0
  -18.0292  -28.1393   22.8499 C   0  0  0  0  0  0
  -24.1478  -36.7302   23.2646 C   0  0  0  0  0  0
  -25.9680  -30.7772   21.3869 C   0  0  0  0  0  0
  -26.0316  -29.4053   20.7265 C   0  0  0  0  0  0
  -27.2002  -28.5843   20.7244 C   0  0  0  0  0  0
  -25.9977  -26.9020   19.4783 C   0  0  0  0  0  0
  -24.8425  -27.6991   19.4816 C   0  0  0  0  0  0
  -23.6375  -29.8356   20.1619 C   0  0  0  0  0  0
  -25.4110  -36.3123   24.0356 C   0  0  1  0  0  0
  -20.5897  -28.3688   23.1298 C   0  0  2  0  0  0
  -20.6782  -26.9414   22.5420 C   0  0  0  0  0  0
  -19.5761  -26.6380   21.5231 C   0  0  0  0  0  0
  -18.1934  -26.7940   22.1623 C   0  0  0  0  0  0
  -19.1547  -28.8856   23.2900 C   0  0  0  0  0  0
  -18.9457  -30.1445   23.8936 C   0  0  0  0  0  0
  -17.6459  -30.6587   24.0560 C   0  0  0  0  0  0
  -25.9038  -34.9486   23.5129 C   0  0  0  0  0  0
  -16.5347  -29.9081   23.6327 C   0  0  0  0  0  0
  -16.7279  -28.6490   23.0369 C   0  0  0  0  0  0
  -26.4475  -31.6624   25.0761 C   0  0  0  0  0  0
  -25.3685  -31.3752   26.1468 C   0  0  0  0  0  0
  -27.0299  -30.3048   24.6209 C   0  0  0  0  0  0
  -27.6060  -32.4344   25.7519 C   0  0  0  0  0  0
  -27.5596  -37.1821   24.8475 C   0  0  0  0  0  0
  -21.4220  -29.3042   22.3703 N   0  0  0  0  0  0
  -26.4300  -37.3818   23.9421 N   0  0  0  0  0  0
  -24.6926  -31.0608   22.1025 N   0  0  0  0  0  0
  -23.4223  -28.8168   23.3035 O   0  0  0  0  0  0
  -28.2996  -26.4230   20.1867 O   0  0  0  0  0  0
  -26.5613  -34.8949   22.4699 O   0  0  0  0  0  0
  -23.5436  -32.1447   23.7324 O   0  0  0  0  0  0
  -29.6652  -19.4254   21.6725 C   0  0  0  0  0  0
  -30.0043  -18.0409   21.7492 C   0  0  0  0  0  0
  -29.1025  -20.0167   20.5081 C   0  0  0  0  0  0
  -29.0333  -19.1599   19.3620 C   0  0  0  0  0  0
  -29.3544  -17.7542   19.4485 C   0  0  0  0  0  0
  -29.8124  -17.1520   20.6633 C   0  0  0  0  0  0
  -27.8672  -23.8445   19.5134 C   0  0  0  0  0  0
  -26.7196  -23.5521   18.8302 C   0  0  0  0  0  0
  -30.7863  -24.2109   19.8995 C   0  0  0  0  0  0
  -30.0427  -25.2116   19.0065 C   0  0  0  0  0  0
  -30.1929  -22.7982   19.7834 C   0  0  0  0  0  0
  -28.5271  -25.2796   19.2656 C   0  0  2  0  0  0
  -28.5005  -19.7153   18.0378 C   0  0  0  0  0  0
  -29.0766  -16.8774   18.2343 C   0  0  0  0  0  0
  -25.7614  -22.3658   18.7458 C   0  0  0  0  0  0
  -28.2902  -21.3823   20.6057 C   0  0  0  0  0  0
  -29.8077  -15.7026   20.9151 N   0  0  0  0  0  0
  -28.7890  -22.7896   20.2511 N   0  3  1  0  0  0
  -31.4798  -12.5430   19.1632 H   0  0  0  0  0  0
  -30.3740  -11.4158   19.9056 H   0  0  0  0  0  0
  -29.7818  -11.7598   17.4929 H   0  0  0  0  0  0
  -29.6645  -13.4782   17.7416 H   0  0  0  0  0  0
  -27.8633  -11.3044   18.8546 H   0  0  0  0  0  0
  -27.3865  -12.5898   17.7834 H   0  0  0  0  0  0
  -27.6608  -14.2538   19.5153 H   0  0  0  0  0  0
  -28.7046  -12.0732   21.3845 H   0  0  0  0  0  0
  -28.4262  -13.7333   21.8368 H   0  0  0  0  0  0
  -25.2736   -9.5769   22.4712 H   0  0  0  0  0  0
  -24.0058   -7.4635   22.7411 H   0  0  0  0  0  0
  -21.0833   -8.8681   19.8881 H   0  0  0  0  0  0
  -22.3597  -10.9637   19.6102 H   0  0  0  0  0  0
  -21.2003   -7.6122   23.9657 H   0  0  0  0  0  0
  -21.1491   -6.0504   25.9052 H   0  0  0  0  0  0
  -22.0621   -2.7568   23.2850 H   0  0  0  0  0  0
  -22.4261  -11.9809   22.4782 H   0  0  0  0  0  0
  -21.1124  -13.0968   22.2588 H   0  0  0  0  0  0
  -24.6801  -15.8623   20.5208 H   0  0  0  0  0  0
  -26.2985  -15.6125   20.1014 H   0  0  0  0  0  0
  -26.7185  -32.5474   23.1133 H   0  0  0  0  0  0
  -25.0077  -33.9769   25.0459 H   0  0  0  0  0  0
  -22.7171  -31.3110   21.4084 H   0  0  0  0  0  0
  -23.3781  -35.9588   23.3299 H   0  0  0  0  0  0
  -24.3579  -36.8913   22.2056 H   0  0  0  0  0  0
  -23.7156  -37.6481   23.6655 H   0  0  0  0  0  0
  -26.1087  -31.5330   20.6140 H   0  0  0  0  0  0
  -26.8501  -30.8231   22.0149 H   0  0  0  0  0  0
  -28.0968  -28.9135   21.2312 H   0  0  0  0  0  0
  -25.8878  -25.9529   19.0093 H   0  0  0  0  0  0
  -23.9425  -27.3406   19.0005 H   0  0  0  0  0  0
  -23.7711  -30.6152   19.4110 H   0  0  0  0  0  0
  -22.7561  -29.2735   19.8511 H   0  0  0  0  0  0
  -25.1279  -36.2015   25.0855 H   0  0  0  0  0  0
  -20.9989  -28.3242   24.1423 H   0  0  0  0  0  0
  -20.5684  -26.2301   23.3621 H   0  0  0  0  0  0
  -21.6649  -26.7455   22.1190 H   0  0  0  0  0  0
  -19.6904  -25.6287   21.1264 H   0  0  0  0  0  0
  -19.6695  -27.3194   20.6770 H   0  0  0  0  0  0
  -17.4215  -26.6730   21.4004 H   0  0  0  0  0  0
  -18.0289  -26.0066   22.8995 H   0  0  0  0  0  0
  -19.7934  -30.7241   24.2345 H   0  0  0  0  0  0
  -17.5013  -31.6292   24.5118 H   0  0  0  0  0  0
  -15.5348  -30.2987   23.7643 H   0  0  0  0  0  0
  -15.8681  -28.0799   22.7109 H   0  0  0  0  0  0
  -24.5907  -30.7058   25.7772 H   0  0  0  0  0  0
  -24.8815  -32.2896   26.4871 H   0  0  0  0  0  0
  -25.7981  -30.8948   27.0267 H   0  0  0  0  0  0
  -26.2852  -29.6833   24.1221 H   0  0  0  0  0  0
  -27.3976  -29.7286   25.4706 H   0  0  0  0  0  0
  -27.8751  -30.4338   23.9448 H   0  0  0  0  0  0
  -27.2720  -33.3673   26.2083 H   0  0  0  0  0  0
  -28.3881  -32.6853   25.0337 H   0  0  0  0  0  0
  -28.0731  -31.8474   26.5440 H   0  0  0  0  0  0
  -28.2631  -38.0110   24.7552 H   0  0  0  0  0  0
  -28.1087  -36.2656   24.6269 H   0  0  0  0  0  0
  -27.2339  -37.1417   25.8886 H   0  0  0  0  0  0
  -20.9406  -29.8774   21.6919 H   0  0  0  0  0  0
  -26.0211  -38.2913   24.1408 H   0  0  0  0  0  0
  -29.7437  -20.0091   22.5775 H   0  0  0  0  0  0
  -30.3343  -17.6344   22.6969 H   0  0  0  0  0  0
  -26.3923  -24.2959   18.1239 H   0  0  0  0  0  0
  -30.7675  -24.5481   20.9372 H   0  0  0  0  0  0
  -31.8389  -24.1814   19.6177 H   0  0  0  0  0  0
  -30.2038  -24.9334   17.9638 H   0  0  0  0  0  0
  -30.4738  -26.2099   19.1154 H   0  0  0  0  0  0
  -30.7941  -22.1295   20.4003 H   0  0  0  0  0  0
  -30.2532  -22.4277   18.7579 H   0  0  0  0  0  0
  -28.1151  -25.6297   18.3183 H   0  0  0  0  0  0
  -27.5335  -19.2676   17.7866 H   0  0  0  0  0  0
  -29.1981  -19.5136   17.2213 H   0  0  0  0  0  0
  -28.3763  -20.7979   18.0460 H   0  0  0  0  0  0
  -29.5661  -17.2810   17.3474 H   0  0  0  0  0  0
  -28.0029  -16.8443   18.0486 H   0  0  0  0  0  0
  -29.4175  -15.8512   18.3474 H   0  0  0  0  0  0
  -26.0813  -21.6183   18.0169 H   0  0  0  0  0  0
  -24.8012  -22.7556   18.3922 H   0  0  0  0  0  0
  -25.5239  -21.9007   19.7009 H   0  0  0  0  0  0
  -27.8902  -21.4551   21.6194 H   0  0  0  0  0  0
  -27.4260  -21.1596   20.0135 H   0  0  0  0  0  0
  -28.9589  -15.3718   21.3497 H   0  0  0  0  0  0
  -28.8986  -23.1658   21.1804 H   0  0  0  0  0  0
  1 25  1  0  0  0
  1 30  2  0  0  0
  1 87  1  0  0  0
  2  3  1  0  0  0
  2 25  1  0  0  0
  2 89  1  0  0  0
  2 90  1  0  0  0
  3  4  1  0  0  0
  3 91  1  0  0  0
  3 92  1  0  0  0
  4  5  1  0  0  0
  4 93  1  0  0  0
  4 94  1  0  0  0
  5  6  1  0  0  0
  5 26  1  0  0  0
  5 95  1  0  0  0
  6 25  1  0  0  0
  6 96  1  0  0  0
  6 97  1  0  0  0
  7  8  2  0  0  0
  7 26  1  0  0  0
  7 29  1  0  0  0
  8  9  1  0  0  0
  8 22  1  0  0  0
  9 10  1  0  0  0
  9 27  2  0  0  0
 10 11  2  0  0  0
 10 15  1  0  0  0
 11 12  1  0  0  0
 11 98  1  0  0  0
 12 13  2  0  0  0
 12 99  1  0  0  0
 13 14  1  0  0  0
 13 31  1  0  0  0
 14 15  2  0  0  0
 14100  1  0  0  0
 15101  1  0  0  0
 16 17  2  0  0  0
 16 21  1  0  0  0
 16 31  1  0  0  0
 17 18  1  0  0  0
 17102  1  0  0  0
 18 19  2  0  0  0
 18103  1  0  0  0
 19 20  1  0  0  0
 19 24  1  0  0  0
 20 21  2  0  0  0
 20104  1  0  0  0
 21 23  1  0  0  0
 22 28  1  0  0  0
 22 32  2  0  0  0
 26 27  1  0  0  0
 28105  1  0  0  0
 28106  1  0  0  0
 29107  1  0  0  0
 29108  1  0  0  0
 33 34  1  0  0  0
 33 66  1  0  0  0
 33 70  2  0  0  0
 34 36  1  0  0  0
 34 59  1  0  0  0
 34109  1  0  0  0
 35 44  2  0  0  0
 35 45  1  0  0  0
 35 68  1  0  0  0
 36 56  1  0  0  0
 36110  1  0  0  0
 37 39  1  0  0  0
 37 47  1  0  0  0
 37 66  1  0  0  0
 37111  1  0  0  0
 38 43  2  0  0  0
 38 46  1  0  0  0
 38 47  1  0  0  0
 39 64  1  0  0  0
 39 67  2  0  0  0
 40 52  1  0  0  0
 40 53  2  0  0  0
 40 58  1  0  0  0
 41112  1  0  0  0
 41113  1  0  0  0
 41114  1  0  0  0
 41 48  1  0  0  0
 42 43  1  0  0  0
 42 66  1  0  0  0
 42115  1  0  0  0
 42116  1  0  0  0
 43 44  1  0  0  0
 44117  1  0  0  0
 45 46  2  0  0  0
 45118  1  0  0  0
 46119  1  0  0  0
 47120  1  0  0  0
 47121  1  0  0  0
 48 56  1  0  0  0
 48 65  1  0  0  0
 48122  1  0  0  0
 49 50  1  0  0  0
 49 53  1  0  0  0
 49 64  1  0  0  0
 49123  1  0  0  0
 50 51  1  0  0  0
 50124  1  0  0  0
 50125  1  0  0  0
 51 52  1  0  0  0
 51126  1  0  0  0
 51127  1  0  0  0
 52128  1  0  0  0
 52129  1  0  0  0
 53 54  1  0  0  0
 54 55  2  0  0  0
 54130  1  0  0  0
 55 57  1  0  0  0
 55131  1  0  0  0
 56 69  2  0  0  0
 57 58  2  0  0  0
 57132  1  0  0  0
 58133  1  0  0  0
 59 60  1  0  0  0
 59 61  1  0  0  0
 59 62  1  0  0  0
 60134  1  0  0  0
 60135  1  0  0  0
 60136  1  0  0  0
 61137  1  0  0  0
 61138  1  0  0  0
 61139  1  0  0  0
 62140  1  0  0  0
 62141  1  0  0  0
 62142  1  0  0  0
 63 65  1  0  0  0
 63143  1  0  0  0
 63144  1  0  0  0
 63145  1  0  0  0
 64146  1  0  0  0
 65147  1  0  0  0
 68 82  1  0  0  0
 71 72  2  0  0  0
 71 73  1  0  0  0
 71148  1  0  0  0
 72 76  1  0  0  0
 72149  1  0  0  0
 73 74  2  0  0  0
 73 86  1  0  0  0
 74 75  1  0  0  0
 74 83  1  0  0  0
 75 76  2  0  0  0
 75 84  1  0  0  0
 76 87  1  0  0  0
 77 78  2  0  0  0
 77 82  1  0  0  0
 77 88  1  0  0  0
 78 85  1  0  0  0
 78150  1  0  0  0
 79 80  1  0  0  0
 79 81  1  0  0  0
 79151  1  0  0  0
 79152  1  0  0  0
 80 82  1  0  0  0
 80153  1  0  0  0
 80154  1  0  0  0
 81 88  1  0  0  0
 81155  1  0  0  0
 81156  1  0  0  0
 82157  1  0  0  0
 83158  1  0  0  0
 83159  1  0  0  0
 83160  1  0  0  0
 84161  1  0  0  0
 84162  1  0  0  0
 84163  1  0  0  0
 85164  1  0  0  0
 85165  1  0  0  0
 85166  1  0  0  0
 86167  1  0  0  0
 86168  1  0  0  0
 86 88  1  0  0  0
 87169  1  0  0  0
 88170  1  0  0  0
M  CHG  1  88   1
M  ISO  4   1 100  68 101  82 101  87 100
M  END
> <chiral flag>
0

> <version>
0

> <s_m_source_file>
/data/baiqing/PycharmProjects/Reinvent-master-3.2/result/LINK_invent/BTK/process_docking_weight1_custom_product_contain_oxygen_bond_distance_aromatic_linkinvent_7_9_3/rearranged_h_0036.sdf

> <i_m_source_file_index>
27

> <r_mmod_Potential_Energy-OPLS-2005>
113.422058105469

> <r_mmod_Stretch_Energy-OPLS-2005>
110.694778442383

> <r_mmod_Bend_Energy-OPLS-2005>
223.524215698242

> <r_mmod_Torsional_Energy-OPLS-2005>
288.544128417969

> <r_mmod_Improper_Torsional_Energy-OPLS-2005>
9.52909851074219

> <r_mmod_Van_der_Waal_Energy-OPLS-2005>
155.956314086914

> <r_mmod_Electrostatic_Energy-OPLS-2005>
-307.291809082031

> <r_mmod_Solvation_Energy-OPLS-2005>
-429.401885986328

> <b_mmod_Minimization_Converged-OPLS-2005>
0

> <r_mmod_RMS_Derivative-OPLS-2005>
6.14151191711426

$$$$
27
                    3D
 Structure written by MMmdl.
182192  0  0  1  0            999 V2000
  -30.5244  -14.8326   20.4178 C   0  0  0  0  0  0
  -30.4525  -12.5053   19.4627 C   0  0  0  0  0  0
  -29.5159  -12.5198   18.2315 C   0  0  0  0  0  0
  -28.0432  -12.3213   18.6533 C   0  0  0  0  0  0
  -27.6385  -13.2165   19.8525 C   0  0  2  0  0  0
  -28.6946  -13.1670   20.9785 C   0  0  0  0  0  0
  -25.2467  -13.7856   20.5812 C   0  0  0  0  0  0
  -24.1706  -13.0180   20.9174 C   0  0  0  0  0  0
  -24.6337  -11.6713   20.8683 C   0  0  0  0  0  0
  -23.9014  -10.4145   21.0357 C   0  0  0  0  0  0
  -24.3543   -9.4122   21.9200 C   0  0  0  0  0  0
  -23.6199   -8.2178   22.0786 C   0  0  0  0  0  0
  -22.4195   -8.0230   21.3548 C   0  0  0  0  0  0
  -21.9845   -9.0179   20.4611 C   0  0  0  0  0  0
  -22.7194  -10.2030   20.2997 C   0  0  0  0  0  0
  -21.6818   -6.0702   22.5284 C   0  0  0  0  0  0
  -21.3972   -6.5612   23.8215 C   0  0  0  0  0  0
  -21.3638   -5.6775   24.9186 C   0  0  0  0  0  0
  -21.6028   -4.3040   24.7228 C   0  0  0  0  0  0
  -21.8815   -3.8126   23.4353 C   0  0  0  0  0  0
  -21.9196   -4.6936   22.3406 C   0  0  0  0  0  0
  -22.7759  -13.5073   21.1817 C   0  0  0  0  0  0
  -22.1668   -4.2121   21.0987 F   0  0  0  0  0  0
  -21.5640   -3.4530   25.7742 F   0  0  0  0  0  0
  -29.9806  -13.5621   20.3828 N   0  0  0  0  0  0
  -26.2935  -12.9167   20.3365 N   0  0  0  0  0  0
  -25.9285  -11.6316   20.5718 N   0  0  0  0  0  0
  -22.0347  -12.8018   22.0275 N   0  0  0  0  0  0
  -25.3998  -15.1466   20.4487 N   0  0  0  0  0  0
  -31.7264  -14.9968   20.1858 O   0  0  0  0  0  0
  -21.6568   -6.8830   21.4246 O   0  0  0  0  0  0
  -22.3509  -14.5446   20.6749 O   0  0  0  0  0  0
  -24.6336  -31.8547   23.1974 C   0  0  0  0  0  0
  -25.9158  -32.4755   23.8327 C   0  0  1  0  0  0
  -27.2459  -27.2666   20.1224 C   0  0  0  0  0  0
  -25.5963  -33.8554   24.2271 N   0  0  0  0  0  0
  -23.4309  -30.4778   21.5401 C   0  0  2  0  0  0
  -24.8812  -28.9224   20.1137 C   0  0  0  0  0  0
  -22.7528  -29.4610   22.4907 C   0  0  0  0  0  0
  -18.0304  -28.1392   22.8479 C   0  0  0  0  0  0
  -24.1489  -36.7268   23.2639 C   0  0  0  0  0  0
  -25.9768  -30.7736   21.3718 C   0  0  0  0  0  0
  -26.0544  -29.3944   20.7153 C   0  0  0  0  0  0
  -27.2358  -28.5827   20.7023 C   0  0  0  0  0  0
  -26.0317  -26.8543   19.5186 C   0  0  0  0  0  0
  -24.8759  -27.6597   19.5050 C   0  0  0  0  0  0
  -23.6510  -29.8093   20.1574 C   0  0  0  0  0  0
  -25.4115  -36.3070   24.0339 C   0  0  1  0  0  0
  -20.5910  -28.3705   23.1267 C   0  0  2  0  0  0
  -20.6787  -26.9426   22.5399 C   0  0  0  0  0  0
  -19.5762  -26.6395   21.5209 C   0  0  0  0  0  0
  -18.1945  -26.7933   22.1620 C   0  0  0  0  0  0
  -19.1554  -28.8868   23.2865 C   0  0  0  0  0  0
  -18.9468  -30.1464   23.8893 C   0  0  0  0  0  0
  -17.6466  -30.6584   24.0568 C   0  0  0  0  0  0
  -25.9056  -34.9441   23.5097 C   0  0  0  0  0  0
  -16.5362  -29.9086   23.6331 C   0  0  0  0  0  0
  -16.7292  -28.6507   23.0350 C   0  0  0  0  0  0
  -26.4525  -31.6563   25.0700 C   0  0  0  0  0  0
  -25.3753  -31.3677   26.1419 C   0  0  0  0  0  0
  -27.0368  -30.2997   24.6137 C   0  0  0  0  0  0
  -27.6094  -32.4279   25.7482 C   0  0  0  0  0  0
  -27.5577  -37.1797   24.8477 C   0  0  0  0  0  0
  -21.4231  -29.3056   22.3660 N   0  0  0  0  0  0
  -26.4288  -37.3774   23.9418 N   0  0  0  0  0  0
  -24.7001  -31.0527   22.0938 N   0  0  0  0  0  0
  -23.4227  -28.8148   23.3005 O   0  0  0  0  0  0
  -28.3791  -26.4056   20.1721 O   0  0  0  0  0  0
  -26.5612  -34.8928   22.4654 O   0  0  0  0  0  0
  -23.5484  -32.1365   23.7276 O   0  0  0  0  0  0
  -30.1343  -18.5526   20.3828 C   0  0  0  0  0  0
  -28.1398  -17.6254   21.2487 C   0  0  0  0  0  0
  -29.7229  -19.8508   20.9563 C   0  0  0  0  0  0
  -28.1966  -18.5313   22.3251 C   0  0  0  0  0  0
  -28.8733  -19.7517   22.0990 C   0  0  0  0  0  0
  -29.4145  -17.3199   20.7117 C   0  0  0  0  0  0
  -24.6773  -18.0971   18.4550 C   0  0  0  0  0  0
  -24.6967  -18.9373   19.7340 C   0  0  0  0  0  0
  -26.0822  -18.0096   17.8421 C   0  0  0  0  0  0
  -27.9127  -23.2441   18.0464 C   0  0  0  0  0  0
  -25.6838  -18.3816   20.7707 C   0  0  0  0  0  0
  -27.1149  -17.4245   18.8233 C   0  0  0  0  0  0
  -28.2822  -24.7029   18.3670 C   0  0  0  0  0  0
  -28.9470  -22.2431   18.6020 C   0  0  0  0  0  0
  -29.3454  -23.8498   20.4812 C   0  0  0  0  0  0
  -27.1075  -18.1426   20.1979 C   0  0  0  0  0  0
  -28.2752  -24.9250   19.8900 C   0  0  1  0  0  0
  -27.3863  -18.2621   23.5833 C   0  0  0  0  0  0
  -28.6409  -20.9115   23.0653 C   0  0  0  0  0  0
  -30.2128  -21.3075   20.5179 C   0  0  0  0  0  0
  -29.5818  -15.8627   20.3916 N   0  0  0  0  0  0
  -29.1666  -22.3611   20.0698 N   0  3  2  0  0  0
  -31.4874  -12.6669   19.1595 H   0  0  0  0  0  0
  -30.4270  -11.5323   19.9548 H   0  0  0  0  0  0
  -29.8085  -11.7366   17.5300 H   0  0  0  0  0  0
  -29.6206  -13.4690   17.7016 H   0  0  0  0  0  0
  -27.9198  -11.2723   18.9239 H   0  0  0  0  0  0
  -27.3720  -12.4965   17.8110 H   0  0  0  0  0  0
  -27.6176  -14.2302   19.4571 H   0  0  0  0  0  0
  -28.7576  -12.1681   21.4111 H   0  0  0  0  0  0
  -28.4208  -13.8322   21.7994 H   0  0  0  0  0  0
  -25.2665   -9.5643   22.4807 H   0  0  0  0  0  0
  -23.9896   -7.4579   22.7515 H   0  0  0  0  0  0
  -21.0799   -8.8666   19.8879 H   0  0  0  0  0  0
  -22.3691  -10.9555   19.6061 H   0  0  0  0  0  0
  -21.1952   -7.6118   23.9716 H   0  0  0  0  0  0
  -21.1474   -6.0514   25.9092 H   0  0  0  0  0  0
  -22.0635   -2.7596   23.2860 H   0  0  0  0  0  0
  -22.3923  -11.9586   22.4487 H   0  0  0  0  0  0
  -21.0918  -13.0950   22.2396 H   0  0  0  0  0  0
  -24.6052  -15.7684   20.5343 H   0  0  0  0  0  0
  -26.2629  -15.6351   20.2646 H   0  0  0  0  0  0
  -26.7231  -32.5412   23.1078 H   0  0  0  0  0  0
  -25.0172  -33.9690   25.0463 H   0  0  0  0  0  0
  -22.7273  -31.3001   21.3935 H   0  0  0  0  0  0
  -23.3765  -35.9584   23.3291 H   0  0  0  0  0  0
  -24.3583  -36.8890   22.2054 H   0  0  0  0  0  0
  -23.7231  -37.6468   23.6651 H   0  0  0  0  0  0
  -26.1065  -31.5319   20.5977 H   0  0  0  0  0  0
  -26.8580  -30.8309   21.9998 H   0  0  0  0  0  0
  -28.1356  -28.9507   21.1765 H   0  0  0  0  0  0
  -25.9262  -25.8819   19.0649 H   0  0  0  0  0  0
  -23.9751  -27.2877   19.0363 H   0  0  0  0  0  0
  -23.7818  -30.5857   19.4031 H   0  0  0  0  0  0
  -22.7686  -29.2457   19.8489 H   0  0  0  0  0  0
  -25.1291  -36.1910   25.0833 H   0  0  0  0  0  0
  -21.0004  -28.3277   24.1391 H   0  0  0  0  0  0
  -20.5694  -26.2324   23.3605 H   0  0  0  0  0  0
  -21.6649  -26.7456   22.1190 H   0  0  0  0  0  0
  -19.6917  -25.6306   21.1245 H   0  0  0  0  0  0
  -19.6690  -27.3204   20.6735 H   0  0  0  0  0  0
  -17.4214  -26.6696   21.4019 H   0  0  0  0  0  0
  -18.0338  -26.0083   22.9020 H   0  0  0  0  0  0
  -19.7943  -30.7281   24.2270 H   0  0  0  0  0  0
  -17.5020  -31.6261   24.5164 H   0  0  0  0  0  0
  -15.5360  -30.2978   23.7656 H   0  0  0  0  0  0
  -15.8695  -28.0823   22.7057 H   0  0  0  0  0  0
  -24.5993  -30.6951   25.7749 H   0  0  0  0  0  0
  -24.8859  -32.2812   26.4799 H   0  0  0  0  0  0
  -25.8092  -30.8915   27.0220 H   0  0  0  0  0  0
  -26.2926  -29.6739   24.1198 H   0  0  0  0  0  0
  -27.4135  -29.7261   25.4614 H   0  0  0  0  0  0
  -27.8768  -30.4308   23.9315 H   0  0  0  0  0  0
  -27.2747  -33.3623   26.2005 H   0  0  0  0  0  0
  -28.3946  -32.6753   25.0319 H   0  0  0  0  0  0
  -28.0710  -31.8410   26.5440 H   0  0  0  0  0  0
  -28.2596  -38.0095   24.7523 H   0  0  0  0  0  0
  -28.1073  -36.2623   24.6295 H   0  0  0  0  0  0
  -27.2294  -37.1438   25.8883 H   0  0  0  0  0  0
  -20.9428  -29.8786   21.6859 H   0  0  0  0  0  0
  -26.0161  -38.2847   24.1413 H   0  0  0  0  0  0
  -30.9559  -18.5128   19.6828 H   0  0  0  0  0  0
  -23.9869  -18.5431   17.7382 H   0  0  0  0  0  0
  -24.2930  -17.0996   18.6675 H   0  0  0  0  0  0
  -23.6951  -18.9812   20.1633 H   0  0  0  0  0  0
  -24.9683  -19.9655   19.4858 H   0  0  0  0  0  0
  -26.4003  -19.0062   17.5347 H   0  0  0  0  0  0
  -26.0515  -17.4058   16.9337 H   0  0  0  0  0  0
  -27.8469  -23.1199   16.9645 H   0  0  0  0  0  0
  -26.9205  -23.0121   18.4362 H   0  0  0  0  0  0
  -25.2892  -17.4840   21.2323 H   0  0  0  0  0  0
  -25.7232  -19.1155   21.5728 H   0  0  0  0  0  0
  -28.0970  -17.5250   18.3607 H   0  0  0  0  0  0
  -26.9599  -16.3576   18.9197 H   0  0  0  0  0  0
  -27.5984  -25.3720   17.8489 H   0  0  0  0  0  0
  -29.2701  -24.9373   17.9693 H   0  0  0  0  0  0
  -29.8955  -22.4018   18.0848 H   0  0  0  0  0  0
  -28.6348  -21.2243   18.3646 H   0  0  0  0  0  0
  -29.3298  -23.9081   21.5695 H   0  0  0  0  0  0
  -30.3456  -24.1657   20.1815 H   0  0  0  0  0  0
  -27.4243  -19.1496   19.9318 H   0  0  0  0  0  0
  -27.3095  -24.6122   20.2861 H   0  0  0  0  0  0
  -26.5589  -18.9627   23.6844 H   0  0  0  0  0  0
  -28.0144  -18.3438   24.4704 H   0  0  0  0  0  0
  -26.9738  -17.2531   23.5674 H   0  0  0  0  0  0
  -29.3810  -21.7042   22.9919 H   0  0  0  0  0  0
  -28.6773  -20.5726   24.1007 H   0  0  0  0  0  0
  -27.6534  -21.3407   22.8970 H   0  0  0  0  0  0
  -30.9598  -21.1828   19.7341 H   0  0  0  0  0  0
  -30.7876  -21.7266   21.3428 H   0  0  0  0  0  0
  -28.6863  -15.4040   20.4220 H   0  0  0  0  0  0
  -28.3053  -22.0668   20.5059 H   0  0  0  0  0  0
  1 25  1  0  0  0
  1 30  2  0  0  0
  1 91  1  0  0  0
  2  3  1  0  0  0
  2 25  1  0  0  0
  2 93  1  0  0  0
  2 94  1  0  0  0
  3  4  1  0  0  0
  3 95  1  0  0  0
  3 96  1  0  0  0
  4  5  1  0  0  0
  4 97  1  0  0  0
  4 98  1  0  0  0
  5  6  1  0  0  0
  5 26  1  0  0  0
  5 99  1  0  0  0
  6 25  1  0  0  0
  6100  1  0  0  0
  6101  1  0  0  0
  7  8  2  0  0  0
  7 26  1  0  0  0
  7 29  1  0  0  0
  8  9  1  0  0  0
  8 22  1  0  0  0
  9 10  1  0  0  0
  9 27  2  0  0  0
 10 11  2  0  0  0
 10 15  1  0  0  0
 11 12  1  0  0  0
 11102  1  0  0  0
 12 13  2  0  0  0
 12103  1  0  0  0
 13 14  1  0  0  0
 13 31  1  0  0  0
 14 15  2  0  0  0
 14104  1  0  0  0
 15105  1  0  0  0
 16 17  2  0  0  0
 16 21  1  0  0  0
 16 31  1  0  0  0
 17 18  1  0  0  0
 17106  1  0  0  0
 18 19  2  0  0  0
 18107  1  0  0  0
 19 20  1  0  0  0
 19 24  1  0  0  0
 20 21  2  0  0  0
 20108  1  0  0  0
 21 23  1  0  0  0
 22 28  1  0  0  0
 22 32  2  0  0  0
 26 27  1  0  0  0
 28109  1  0  0  0
 28110  1  0  0  0
 29111  1  0  0  0
 29112  1  0  0  0
 33 34  1  0  0  0
 33 66  1  0  0  0
 33 70  2  0  0  0
 34 36  1  0  0  0
 34 59  1  0  0  0
 34113  1  0  0  0
 35 44  2  0  0  0
 35 45  1  0  0  0
 35 68  1  0  0  0
 36 56  1  0  0  0
 36114  1  0  0  0
 37 39  1  0  0  0
 37 47  1  0  0  0
 37 66  1  0  0  0
 37115  1  0  0  0
 38 43  2  0  0  0
 38 46  1  0  0  0
 38 47  1  0  0  0
 39 64  1  0  0  0
 39 67  2  0  0  0
 40 52  1  0  0  0
 40 53  2  0  0  0
 40 58  1  0  0  0
 41116  1  0  0  0
 41117  1  0  0  0
 41118  1  0  0  0
 41 48  1  0  0  0
 42 43  1  0  0  0
 42 66  1  0  0  0
 42119  1  0  0  0
 42120  1  0  0  0
 43 44  1  0  0  0
 44121  1  0  0  0
 45 46  2  0  0  0
 45122  1  0  0  0
 46123  1  0  0  0
 47124  1  0  0  0
 47125  1  0  0  0
 48 56  1  0  0  0
 48 65  1  0  0  0
 48126  1  0  0  0
 49 50  1  0  0  0
 49 53  1  0  0  0
 49 64  1  0  0  0
 49127  1  0  0  0
 50 51  1  0  0  0
 50128  1  0  0  0
 50129  1  0  0  0
 51 52  1  0  0  0
 51130  1  0  0  0
 51131  1  0  0  0
 52132  1  0  0  0
 52133  1  0  0  0
 53 54  1  0  0  0
 54 55  2  0  0  0
 54134  1  0  0  0
 55 57  1  0  0  0
 55135  1  0  0  0
 56 69  2  0  0  0
 57 58  2  0  0  0
 57136  1  0  0  0
 58137  1  0  0  0
 59 60  1  0  0  0
 59 61  1  0  0  0
 59 62  1  0  0  0
 60138  1  0  0  0
 60139  1  0  0  0
 60140  1  0  0  0
 61141  1  0  0  0
 61142  1  0  0  0
 61143  1  0  0  0
 62144  1  0  0  0
 62145  1  0  0  0
 62146  1  0  0  0
 63 65  1  0  0  0
 63147  1  0  0  0
 63148  1  0  0  0
 63149  1  0  0  0
 64150  1  0  0  0
 65151  1  0  0  0
 68 87  1  0  0  0
 71 73  2  0  0  0
 71 76  1  0  0  0
 71152  1  0  0  0
 72 74  1  0  0  0
 72 76  2  0  0  0
 72 86  1  0  0  0
 73 75  1  0  0  0
 73 90  1  0  0  0
 74 75  2  0  0  0
 74 88  1  0  0  0
 75 89  1  0  0  0
 76 91  1  0  0  0
 77 78  1  0  0  0
 77 79  1  0  0  0
 77153  1  0  0  0
 77154  1  0  0  0
 78 81  1  0  0  0
 78155  1  0  0  0
 78156  1  0  0  0
 79 82  1  0  0  0
 79157  1  0  0  0
 79158  1  0  0  0
 80 83  1  0  0  0
 80 84  1  0  0  0
 80159  1  0  0  0
 80160  1  0  0  0
 81 86  1  0  0  0
 81161  1  0  0  0
 81162  1  0  0  0
 82 86  1  0  0  0
 82163  1  0  0  0
 82164  1  0  0  0
 83 87  1  0  0  0
 83165  1  0  0  0
 83166  1  0  0  0
 84 92  1  0  0  0
 84167  1  0  0  0
 84168  1  0  0  0
 85 87  1  0  0  0
 85 92  1  0  0  0
 85169  1  0  0  0
 85170  1  0  0  0
 86171  1  0  0  0
 87172  1  0  0  0
 88173  1  0  0  0
 88174  1  0  0  0
 88175  1  0  0  0
 89176  1  0  0  0
 89177  1  0  0  0
 89178  1  0  0  0
 90179  1  0  0  0
 90180  1  0  0  0
 90 92  1  0  0  0
 91181  1  0  0  0
 92182  1  0  0  0
M  CHG  1  92   1
M  ISO  4   1 100  68 101  87 101  91 100
M  END
> <chiral flag>
0

> <version>
0

> <s_m_source_file>
/data/baiqing/PycharmProjects/Reinvent-master-3.2/result/LINK_invent/BTK/process_docking_weight1_custom_product_contain_oxygen_bond_distance_aromatic_linkinvent_7_9_3/rearranged_h_0036.sdf

> <i_m_source_file_index>
28

> <r_mmod_Potential_Energy-OPLS-2005>
508.472991943359

> <r_mmod_Stretch_Energy-OPLS-2005>
153.222869873047

> <r_mmod_Bend_Energy-OPLS-2005>
260.594573974609

> <r_mmod_Torsional_Energy-OPLS-2005>
483.75048828125

> <r_mmod_Improper_Torsional_Energy-OPLS-2005>
33.710075378418

> <r_mmod_Van_der_Waal_Energy-OPLS-2005>
153.380798339844

> <r_mmod_Electrostatic_Energy-OPLS-2005>
-274.057250976562

> <r_mmod_Solvation_Energy-OPLS-2005>
-411.489044189453

> <b_mmod_Minimization_Converged-OPLS-2005>
0

> <r_mmod_RMS_Derivative-OPLS-2005>
2.89812612533569

$$$$
28
                    3D
 Structure written by MMmdl.
169178  0  0  1  0            999 V2000
  -30.7993  -14.4486   20.5136 C   0  0  0  0  0  0
  -30.4095  -12.2872   19.4128 C   0  0  0  0  0  0
  -29.4806  -12.4749   18.1998 C   0  0  0  0  0  0
  -28.0093  -12.3368   18.6344 C   0  0  0  0  0  0
  -27.6594  -13.2140   19.8611 C   0  0  2  0  0  0
  -28.7195  -13.0668   20.9823 C   0  0  0  0  0  0
  -25.2603  -13.8190   20.5711 C   0  0  0  0  0  0
  -24.1858  -13.0373   20.9196 C   0  0  0  0  0  0
  -24.6458  -11.6904   20.8781 C   0  0  0  0  0  0
  -23.9094  -10.4270   21.0434 C   0  0  0  0  0  0
  -24.3634   -9.4190   21.9190 C   0  0  0  0  0  0
  -23.6305   -8.2237   22.0757 C   0  0  0  0  0  0
  -22.4297   -8.0298   21.3560 C   0  0  0  0  0  0
  -21.9936   -9.0254   20.4649 C   0  0  0  0  0  0
  -22.7265  -10.2133   20.3067 C   0  0  0  0  0  0
  -21.6837   -6.0733   22.5286 C   0  0  0  0  0  0
  -21.4000   -6.5639   23.8219 C   0  0  0  0  0  0
  -21.3666   -5.6792   24.9159 C   0  0  0  0  0  0
  -21.6064   -4.3063   24.7215 C   0  0  0  0  0  0
  -21.8807   -3.8166   23.4328 C   0  0  0  0  0  0
  -21.9184   -4.6961   22.3397 C   0  0  0  0  0  0
  -22.7886  -13.5211   21.1810 C   0  0  0  0  0  0
  -22.1656   -4.2155   21.0965 F   0  0  0  0  0  0
  -21.5628   -3.4556   25.7725 F   0  0  0  0  0  0
  -30.0526  -13.3159   20.4000 N   0  0  0  0  0  0
  -26.3059  -12.9361   20.3416 N   0  0  0  0  0  0
  -25.9409  -11.6531   20.5876 N   0  0  0  0  0  0
  -22.0542  -12.8233   22.0395 N   0  0  0  0  0  0
  -25.4268  -15.1887   20.4115 N   0  0  0  0  0  0
  -31.9354  -14.5540   20.0528 O   0  0  0  0  0  0
  -21.6660   -6.8886   21.4262 O   0  0  0  0  0  0
  -22.3586  -14.5501   20.6648 O   0  0  0  0  0  0
  -24.6428  -31.8834   23.2142 C   0  0  0  0  0  0
  -25.9247  -32.4899   23.8543 C   0  0  1  0  0  0
  -27.2448  -27.3924   20.1304 C   0  0  0  0  0  0
  -25.6165  -33.8675   24.2495 N   0  0  0  0  0  0
  -23.4496  -30.5074   21.5710 C   0  0  2  0  0  0
  -24.8731  -28.9800   20.1427 C   0  0  0  0  0  0
  -22.7871  -29.4878   22.5287 C   0  0  0  0  0  0
  -18.0003  -28.1160   22.8768 C   0  0  0  0  0  0
  -24.1537  -36.7269   23.2620 C   0  0  0  0  0  0
  -25.9796  -30.8451   21.3667 C   0  0  0  0  0  0
  -26.0575  -29.4807   20.6981 C   0  0  0  0  0  0
  -27.2568  -28.7110   20.6676 C   0  0  0  0  0  0
  -26.0075  -26.9339   19.5938 C   0  0  0  0  0  0
  -24.8348  -27.6945   19.6085 C   0  0  0  0  0  0
  -23.6527  -29.8582   20.1822 C   0  0  0  0  0  0
  -25.4142  -36.3111   24.0368 C   0  0  1  0  0  0
  -20.4906  -28.4536   22.7981 C   0  0  2  0  0  0
  -20.6936  -26.9543   22.5471 C   0  0  0  0  0  0
  -19.5564  -26.4561   21.6307 C   0  0  0  0  0  0
  -18.1538  -26.7530   22.2112 C   0  0  0  0  0  0
  -19.1229  -28.8953   23.2491 C   0  0  0  0  0  0
  -18.9427  -30.1486   23.8667 C   0  0  0  0  0  0
  -17.6484  -30.6574   24.0685 C   0  0  0  0  0  0
  -25.9085  -34.9515   23.5152 C   0  0  0  0  0  0
  -16.5333  -29.8937   23.6813 C   0  0  0  0  0  0
  -16.7047  -28.6227   23.1030 C   0  0  0  0  0  0
  -26.4587  -31.6546   25.0823 C   0  0  0  0  0  0
  -25.3795  -31.3578   26.1480 C   0  0  0  0  0  0
  -27.0363  -30.2976   24.6138 C   0  0  0  0  0  0
  -27.6182  -32.4187   25.7651 C   0  0  0  0  0  0
  -27.5589  -37.1839   24.8510 C   0  0  0  0  0  0
  -21.4641  -29.4496   22.4211 N   0  0  0  0  0  0
  -26.4297  -37.3818   23.9467 N   0  0  0  0  0  0
  -24.7161  -31.0897   22.1082 N   0  0  0  0  0  0
  -23.4344  -28.7545   23.2765 O   0  0  0  0  0  0
  -28.3597  -26.5390   20.2269 O   0  0  0  0  0  0
  -26.5529  -34.8999   22.4633 O   0  0  0  0  0  0
  -23.5586  -32.1632   23.7474 O   0  0  0  0  0  0
  -28.9037  -17.4481   22.5962 C   0  0  0  0  0  0
  -29.7046  -19.2327   21.1614 C   0  0  0  0  0  0
  -29.7928  -17.8962   21.6231 C   0  0  0  0  0  0
  -27.8488  -18.2510   23.0154 C   0  0  0  0  0  0
  -28.6594  -20.1095   21.5804 C   0  0  0  0  0  0
  -27.6794  -19.5679   22.4877 C   0  0  0  0  0  0
  -26.5843  -23.3377   19.3995 C   0  0  0  0  0  0
  -27.6945  -24.3776   19.1300 C   0  0  0  0  0  0
  -26.5897  -22.8730   20.8898 C   0  0  0  0  0  0
  -28.7599  -24.0508   21.3255 C   0  0  0  0  0  0
  -28.0071  -25.1259   20.4384 C   0  0  1  0  0  0
  -26.8904  -17.5886   23.9905 C   0  0  0  0  0  0
  -26.3792  -20.2809   22.8302 C   0  0  0  0  0  0
  -30.7723  -16.8876   21.0405 C   0  0  0  0  0  0
  -28.6457  -21.5014   20.8465 C   0  0  0  0  0  0
  -30.1893  -15.5315   20.9914 N   0  0  0  0  0  0
  -27.9803  -22.7317   21.4362 N   0  3  2  0  0  0
  -31.4511  -12.3412   19.0925 H   0  0  0  0  0  0
  -30.2774  -11.2994   19.8495 H   0  0  0  0  0  0
  -29.7138  -11.7431   17.4233 H   0  0  0  0  0  0
  -29.6366  -13.4635   17.7626 H   0  0  0  0  0  0
  -27.8287  -11.2867   18.8706 H   0  0  0  0  0  0
  -27.3456  -12.5719   17.8052 H   0  0  0  0  0  0
  -27.6795  -14.2453   19.5165 H   0  0  0  0  0  0
  -28.6964  -12.0643   21.4133 H   0  0  0  0  0  0
  -28.5061  -13.7516   21.8041 H   0  0  0  0  0  0
  -25.2760   -9.5646   22.4747 H   0  0  0  0  0  0
  -24.0002   -7.4626   22.7495 H   0  0  0  0  0  0
  -21.0841   -8.8774   19.8950 H   0  0  0  0  0  0
  -22.3745  -10.9660   19.6184 H   0  0  0  0  0  0
  -21.2012   -7.6159   23.9703 H   0  0  0  0  0  0
  -21.1501   -6.0535   25.9059 H   0  0  0  0  0  0
  -22.0596   -2.7638   23.2832 H   0  0  0  0  0  0
  -22.4193  -11.9964   22.4847 H   0  0  0  0  0  0
  -21.1144  -13.1272   22.2531 H   0  0  0  0  0  0
  -24.6430  -15.8286   20.4919 H   0  0  0  0  0  0
  -26.2816  -15.6412   20.1107 H   0  0  0  0  0  0
  -26.7327  -32.5623   23.1327 H   0  0  0  0  0  0
  -25.0454  -33.9855   25.0734 H   0  0  0  0  0  0
  -22.7387  -31.3199   21.4192 H   0  0  0  0  0  0
  -23.3850  -35.9557   23.3306 H   0  0  0  0  0  0
  -24.3592  -36.8831   22.2015 H   0  0  0  0  0  0
  -23.7249  -37.6488   23.6569 H   0  0  0  0  0  0
  -26.1028  -31.6148   20.6040 H   0  0  0  0  0  0
  -26.8608  -30.8787   21.9959 H   0  0  0  0  0  0
  -28.1738  -29.1057   21.0941 H   0  0  0  0  0  0
  -25.8502  -25.9417   19.2269 H   0  0  0  0  0  0
  -23.8976  -27.2528   19.2920 H   0  0  0  0  0  0
  -23.7926  -30.6444   19.4380 H   0  0  0  0  0  0
  -22.7672  -29.2973   19.8765 H   0  0  0  0  0  0
  -25.1286  -36.1908   25.0855 H   0  0  0  0  0  0
  -20.1914  -28.6554   21.7665 H   0  0  0  0  0  0
  -20.6701  -26.4235   23.4965 H   0  0  0  0  0  0
  -21.6610  -26.7225   22.1079 H   0  0  0  0  0  0
  -19.6430  -25.3829   21.4750 H   0  0  0  0  0  0
  -19.6421  -26.8840   20.6320 H   0  0  0  0  0  0
  -17.3921  -26.6263   21.4408 H   0  0  0  0  0  0
  -17.9419  -26.0020   22.9688 H   0  0  0  0  0  0
  -19.7993  -30.7531   24.1274 H   0  0  0  0  0  0
  -17.5176  -31.6450   24.5016 H   0  0  0  0  0  0
  -15.5425  -30.2770   23.8519 H   0  0  0  0  0  0
  -15.8333  -28.0451   22.8279 H   0  0  0  0  0  0
  -24.6068  -30.6831   25.7704 H   0  0  0  0  0  0
  -24.8905  -32.2709   26.4945 H   0  0  0  0  0  0
  -25.8148  -30.8720   27.0225 H   0  0  0  0  0  0
  -26.2903  -29.6748   24.1162 H   0  0  0  0  0  0
  -27.4023  -29.7177   25.4621 H   0  0  0  0  0  0
  -27.8813  -30.4214   23.9345 H   0  0  0  0  0  0
  -27.2843  -33.3491   26.2281 H   0  0  0  0  0  0
  -28.4063  -32.6685   25.0504 H   0  0  0  0  0  0
  -28.0802  -31.8238   26.5556 H   0  0  0  0  0  0
  -28.2608  -38.0147   24.7555 H   0  0  0  0  0  0
  -28.1109  -36.2651   24.6343 H   0  0  0  0  0  0
  -27.2318  -37.1533   25.8935 H   0  0  0  0  0  0
  -21.0688  -30.2004   21.8758 H   0  0  0  0  0  0
  -26.0176  -38.2876   24.1548 H   0  0  0  0  0  0
  -29.0135  -16.4512   23.0080 H   0  0  0  0  0  0
  -30.4229  -19.5600   20.4225 H   0  0  0  0  0  0
  -26.6831  -22.5034   18.6977 H   0  0  0  0  0  0
  -25.5950  -23.7487   19.1965 H   0  0  0  0  0  0
  -27.4287  -25.0337   18.3009 H   0  0  0  0  0  0
  -28.6092  -23.8926   18.7797 H   0  0  0  0  0  0
  -26.0309  -21.9496   20.9195 H   0  0  0  0  0  0
  -25.9901  -23.5391   21.5249 H   0  0  0  0  0  0
  -28.8710  -24.4460   22.3403 H   0  0  0  0  0  0
  -29.7720  -23.8755   20.9642 H   0  0  0  0  0  0
  -27.1183  -25.2685   21.0550 H   0  0  0  0  0  0
  -27.3295  -16.6825   24.4141 H   0  0  0  0  0  0
  -25.9851  -17.2725   23.4624 H   0  0  0  0  0  0
  -26.6230  -18.2286   24.8278 H   0  0  0  0  0  0
  -25.7462  -19.7551   23.5448 H   0  0  0  0  0  0
  -25.7648  -20.2537   21.9390 H   0  0  0  0  0  0
  -26.5355  -21.2890   23.2145 H   0  0  0  0  0  0
  -31.6932  -16.8825   21.6285 H   0  0  0  0  0  0
  -31.0355  -17.2057   20.0315 H   0  0  0  0  0  0
  -28.2508  -21.2896   19.8520 H   0  0  0  0  0  0
  -29.6852  -21.7541   20.6455 H   0  0  0  0  0  0
  -29.2164  -15.4397   21.2417 H   0  0  0  0  0  0
  -27.9046  -22.5358   22.4235 H   0  0  0  0  0  0
  1 25  1  0  0  0
  1 30  2  0  0  0
  1 86  1  0  0  0
  2  3  1  0  0  0
  2 25  1  0  0  0
  2 88  1  0  0  0
  2 89  1  0  0  0
  3  4  1  0  0  0
  3 90  1  0  0  0
  3 91  1  0  0  0
  4  5  1  0  0  0
  4 92  1  0  0  0
  4 93  1  0  0  0
  5  6  1  0  0  0
  5 26  1  0  0  0
  5 94  1  0  0  0
  6 25  1  0  0  0
  6 95  1  0  0  0
  6 96  1  0  0  0
  7  8  2  0  0  0
  7 26  1  0  0  0
  7 29  1  0  0  0
  8  9  1  0  0  0
  8 22  1  0  0  0
  9 10  1  0  0  0
  9 27  2  0  0  0
 10 11  2  0  0  0
 10 15  1  0  0  0
 11 12  1  0  0  0
 11 97  1  0  0  0
 12 13  2  0  0  0
 12 98  1  0  0  0
 13 14  1  0  0  0
 13 31  1  0  0  0
 14 15  2  0  0  0
 14 99  1  0  0  0
 15100  1  0  0  0
 16 17  2  0  0  0
 16 21  1  0  0  0
 16 31  1  0  0  0
 17 18  1  0  0  0
 17101  1  0  0  0
 18 19  2  0  0  0
 18102  1  0  0  0
 19 20  1  0  0  0
 19 24  1  0  0  0
 20 21  2  0  0  0
 20103  1  0  0  0
 21 23  1  0  0  0
 22 28  1  0  0  0
 22 32  2  0  0  0
 26 27  1  0  0  0
 28104  1  0  0  0
 28105  1  0  0  0
 29106  1  0  0  0
 29107  1  0  0  0
 33 34  1  0  0  0
 33 66  1  0  0  0
 33 70  2  0  0  0
 34 36  1  0  0  0
 34 59  1  0  0  0
 34108  1  0  0  0
 35 44  2  0  0  0
 35 45  1  0  0  0
 35 68  1  0  0  0
 36 56  1  0  0  0
 36109  1  0  0  0
 37 39  1  0  0  0
 37 47  1  0  0  0
 37 66  1  0  0  0
 37110  1  0  0  0
 38 43  2  0  0  0
 38 46  1  0  0  0
 38 47  1  0  0  0
 39 64  1  0  0  0
 39 67  2  0  0  0
 40 52  1  0  0  0
 40 53  2  0  0  0
 40 58  1  0  0  0
 41111  1  0  0  0
 41112  1  0  0  0
 41113  1  0  0  0
 41 48  1  0  0  0
 42 43  1  0  0  0
 42 66  1  0  0  0
 42114  1  0  0  0
 42115  1  0  0  0
 43 44  1  0  0  0
 44116  1  0  0  0
 45 46  2  0  0  0
 45117  1  0  0  0
 46118  1  0  0  0
 47119  1  0  0  0
 47120  1  0  0  0
 48 56  1  0  0  0
 48 65  1  0  0  0
 48121  1  0  0  0
 49 50  1  0  0  0
 49 53  1  0  0  0
 49 64  1  0  0  0
 49122  1  0  0  0
 50 51  1  0  0  0
 50123  1  0  0  0
 50124  1  0  0  0
 51 52  1  0  0  0
 51125  1  0  0  0
 51126  1  0  0  0
 52127  1  0  0  0
 52128  1  0  0  0
 53 54  1  0  0  0
 54 55  2  0  0  0
 54129  1  0  0  0
 55 57  1  0  0  0
 55130  1  0  0  0
 56 69  2  0  0  0
 57 58  2  0  0  0
 57131  1  0  0  0
 58132  1  0  0  0
 59 60  1  0  0  0
 59 61  1  0  0  0
 59 62  1  0  0  0
 60133  1  0  0  0
 60134  1  0  0  0
 60135  1  0  0  0
 61136  1  0  0  0
 61137  1  0  0  0
 61138  1  0  0  0
 62139  1  0  0  0
 62140  1  0  0  0
 62141  1  0  0  0
 63 65  1  0  0  0
 63142  1  0  0  0
 63143  1  0  0  0
 63144  1  0  0  0
 64145  1  0  0  0
 65146  1  0  0  0
 68 81  1  0  0  0
 71 73  2  0  0  0
 71 74  1  0  0  0
 71147  1  0  0  0
 72 73  1  0  0  0
 72 75  2  0  0  0
 72148  1  0  0  0
 73 84  1  0  0  0
 74 76  2  0  0  0
 74 82  1  0  0  0
 75 76  1  0  0  0
 75 85  1  0  0  0
 76 83  1  0  0  0
 77 78  1  0  0  0
 77 79  1  0  0  0
 77149  1  0  0  0
 77150  1  0  0  0
 78 81  1  0  0  0
 78151  1  0  0  0
 78152  1  0  0  0
 79 87  1  0  0  0
 79153  1  0  0  0
 79154  1  0  0  0
 80 81  1  0  0  0
 80 87  1  0  0  0
 80155  1  0  0  0
 80156  1  0  0  0
 81157  1  0  0  0
 82158  1  0  0  0
 82159  1  0  0  0
 82160  1  0  0  0
 83161  1  0  0  0
 83162  1  0  0  0
 83163  1  0  0  0
 84 86  1  0  0  0
 84164  1  0  0  0
 84165  1  0  0  0
 85166  1  0  0  0
 85167  1  0  0  0
 85 87  1  0  0  0
 86168  1  0  0  0
 87169  1  0  0  0
M  CHG  1  87   1
M  ISO  4   1 100  68 101  81 101  86 100
M  END
> <chiral flag>
0

> <version>
0

> <s_m_source_file>
/data/baiqing/PycharmProjects/Reinvent-master-3.2/result/LINK_invent/BTK/process_docking_weight1_custom_product_contain_oxygen_bond_distance_aromatic_linkinvent_7_9_3/rearranged_h_0036.sdf

> <i_m_source_file_index>
29

> <r_mmod_Potential_Energy-OPLS-2005>
184.591384887695

> <r_mmod_Stretch_Energy-OPLS-2005>
69.4821472167969

> <r_mmod_Bend_Energy-OPLS-2005>
283.190979003906

> <r_mmod_Torsional_Energy-OPLS-2005>
280.045501708984

> <r_mmod_Improper_Torsional_Energy-OPLS-2005>
6.79391670227051

> <r_mmod_Van_der_Waal_Energy-OPLS-2005>
220.246231079102

> <r_mmod_Electrostatic_Energy-OPLS-2005>
-304.052032470703

> <r_mmod_Solvation_Energy-OPLS-2005>
-422.879852294922

> <b_mmod_Minimization_Converged-OPLS-2005>
0

> <r_mmod_RMS_Derivative-OPLS-2005>
12.9763774871826

$$$$
29
                    3D
 Structure written by MMmdl.
173182  0  0  1  0            999 V2000
  -30.7002  -14.4988   20.5497 C   0  0  0  0  0  0
  -30.4206  -12.3113   19.4465 C   0  0  0  0  0  0
  -29.5015  -12.4890   18.2207 C   0  0  0  0  0  0
  -28.0204  -12.3590   18.6265 C   0  0  0  0  0  0
  -27.6596  -13.2138   19.8722 C   0  0  2  0  0  0
  -28.6989  -13.0269   21.0012 C   0  0  0  0  0  0
  -25.2576  -13.8183   20.5698 C   0  0  0  0  0  0
  -24.1832  -13.0448   20.9208 C   0  0  0  0  0  0
  -24.6403  -11.6925   20.8755 C   0  0  0  0  0  0
  -23.9077  -10.4301   21.0413 C   0  0  0  0  0  0
  -24.3624   -9.4212   21.9188 C   0  0  0  0  0  0
  -23.6297   -8.2247   22.0751 C   0  0  0  0  0  0
  -22.4275   -8.0292   21.3539 C   0  0  0  0  0  0
  -21.9919   -9.0268   20.4637 C   0  0  0  0  0  0
  -22.7258  -10.2144   20.3052 C   0  0  0  0  0  0
  -21.6849   -6.0748   22.5284 C   0  0  0  0  0  0
  -21.4022   -6.5646   23.8224 C   0  0  0  0  0  0
  -21.3656   -5.6790   24.9179 C   0  0  0  0  0  0
  -21.6036   -4.3053   24.7222 C   0  0  0  0  0  0
  -21.8818   -3.8154   23.4341 C   0  0  0  0  0  0
  -21.9196   -4.6978   22.3405 C   0  0  0  0  0  0
  -22.7850  -13.5237   21.1860 C   0  0  0  0  0  0
  -22.1657   -4.2167   21.0981 F   0  0  0  0  0  0
  -21.5623   -3.4535   25.7730 F   0  0  0  0  0  0
  -30.0282  -13.3190   20.4453 N   0  0  0  0  0  0
  -26.3011  -12.9365   20.3356 N   0  0  0  0  0  0
  -25.9328  -11.6515   20.5769 N   0  0  0  0  0  0
  -22.0486  -12.8223   22.0408 N   0  0  0  0  0  0
  -25.4285  -15.1910   20.4122 N   0  0  0  0  0  0
  -31.8402  -14.6512   20.1036 O   0  0  0  0  0  0
  -21.6633   -6.8894   21.4242 O   0  0  0  0  0  0
  -22.3531  -14.5539   20.6713 O   0  0  0  0  0  0
  -24.6181  -31.8693   23.2083 C   0  0  0  0  0  0
  -25.9068  -32.4806   23.8380 C   0  0  1  0  0  0
  -27.2088  -27.4024   20.0915 C   0  0  0  0  0  0
  -25.5935  -33.8602   24.2338 N   0  0  0  0  0  0
  -23.4015  -30.4977   21.5511 C   0  0  2  0  0  0
  -24.8413  -28.9718   20.1040 C   0  0  0  0  0  0
  -22.7430  -29.4653   22.4958 C   0  0  0  0  0  0
  -18.0285  -28.1383   22.8454 C   0  0  0  0  0  0
  -24.1480  -36.7318   23.2632 C   0  0  0  0  0  0
  -25.9339  -30.8274   21.3582 C   0  0  0  0  0  0
  -26.0051  -29.4588   20.7095 C   0  0  0  0  0  0
  -27.1902  -28.6802   20.7053 C   0  0  0  0  0  0
  -26.0333  -26.9681   19.4312 C   0  0  0  0  0  0
  -24.8540  -27.7284   19.4560 C   0  0  0  0  0  0
  -23.6054  -29.8395   20.1613 C   0  0  0  0  0  0
  -25.4101  -36.3108   24.0335 C   0  0  1  0  0  0
  -20.5883  -28.3665   23.1302 C   0  0  2  0  0  0
  -20.6773  -26.9397   22.5407 C   0  0  0  0  0  0
  -19.5756  -26.6384   21.5197 C   0  0  0  0  0  0
  -18.1928  -26.7930   22.1594 C   0  0  0  0  0  0
  -19.1540  -28.8833   23.2872 C   0  0  0  0  0  0
  -18.9458  -30.1432   23.8882 C   0  0  0  0  0  0
  -17.6461  -30.6573   24.0554 C   0  0  0  0  0  0
  -25.9039  -34.9469   23.5136 C   0  0  0  0  0  0
  -16.5348  -29.9078   23.6319 C   0  0  0  0  0  0
  -16.7271  -28.6513   23.0301 C   0  0  0  0  0  0
  -26.4474  -31.6561   25.0690 C   0  0  0  0  0  0
  -25.3735  -31.3646   26.1431 C   0  0  0  0  0  0
  -27.0271  -30.3016   24.5993 C   0  0  0  0  0  0
  -27.6074  -32.4234   25.7460 C   0  0  0  0  0  0
  -27.5575  -37.1803   24.8475 C   0  0  0  0  0  0
  -21.4163  -29.3022   22.3699 N   0  0  0  0  0  0
  -26.4286  -37.3795   23.9416 N   0  0  0  0  0  0
  -24.6705  -31.0769   22.0994 N   0  0  0  0  0  0
  -23.4222  -28.8161   23.2958 O   0  0  0  0  0  0
  -28.3588  -26.6225   20.1478 O   0  0  0  0  0  0
  -26.5588  -34.8922   22.4693 O   0  0  0  0  0  0
  -23.5382  -32.1465   23.7482 O   0  0  0  0  0  0
  -28.8206  -17.7406   22.5775 C   0  0  0  0  0  0
  -29.6608  -18.0834   21.5047 C   0  0  0  0  0  0
  -29.8535  -19.4689   21.1969 C   0  0  0  0  0  0
  -29.2369  -20.4999   21.9887 C   0  0  0  0  0  0
  -28.3711  -20.1000   23.0536 C   0  0  0  0  0  0
  -28.1798  -18.7252   23.3410 C   0  0  0  0  0  0
  -28.6614  -24.4334   21.3680 C   0  0  0  0  0  0
  -28.9977  -25.1016   22.4966 C   0  0  0  0  0  0
  -28.8905  -23.1100   18.7359 C   0  0  0  0  0  0
  -28.9502  -24.6474   18.8413 C   0  0  0  0  0  0
  -28.0822  -22.4409   19.8728 C   0  0  0  0  0  0
  -28.2290  -25.1747   20.0870 C   0  0  2  0  0  0
  -30.7730  -19.8094   20.0258 C   0  0  0  0  0  0
  -27.6814  -21.1322   23.9435 C   0  0  0  0  0  0
  -29.3048  -24.5719   23.8815 C   0  0  0  0  0  0
  -30.4052  -16.9620   20.7438 C   0  0  0  0  0  0
  -29.5781  -22.0195   21.8090 C   0  0  0  0  0  0
  -29.9873  -15.5624   20.9771 N   0  0  0  0  0  0
  -28.5025  -22.8997   21.2314 N   0  3  1  0  0  0
  -27.2096  -18.1822   24.6673 Cl  0  0  0  0  0  0
  -31.4672  -12.3971   19.1505 H   0  0  0  0  0  0
  -30.3140  -11.3093   19.8663 H   0  0  0  0  0  0
  -29.7454  -11.7465   17.4604 H   0  0  0  0  0  0
  -29.6752  -13.4642   17.7640 H   0  0  0  0  0  0
  -27.8280  -11.3052   18.8344 H   0  0  0  0  0  0
  -27.3748  -12.6237   17.7882 H   0  0  0  0  0  0
  -27.6941  -14.2569   19.5564 H   0  0  0  0  0  0
  -28.6735  -12.0020   21.3749 H   0  0  0  0  0  0
  -28.4620  -13.6584   21.8583 H   0  0  0  0  0  0
  -25.2768   -9.5680   22.4765 H   0  0  0  0  0  0
  -24.0008   -7.4629   22.7463 H   0  0  0  0  0  0
  -21.0857   -8.8791   19.8935 H   0  0  0  0  0  0
  -22.3727  -10.9684   19.6158 H   0  0  0  0  0  0
  -21.2015   -7.6153   23.9738 H   0  0  0  0  0  0
  -21.1472   -6.0514   25.9083 H   0  0  0  0  0  0
  -22.0599   -2.7619   23.2835 H   0  0  0  0  0  0
  -22.4080  -11.9881   22.4809 H   0  0  0  0  0  0
  -21.1093  -13.1233   22.2587 H   0  0  0  0  0  0
  -24.6636  -15.8461   20.5329 H   0  0  0  0  0  0
  -26.2760  -15.6320   20.0781 H   0  0  0  0  0  0
  -26.7128  -32.5492   23.1120 H   0  0  0  0  0  0
  -25.0104  -33.9758   25.0499 H   0  0  0  0  0  0
  -22.6899  -31.3150   21.4197 H   0  0  0  0  0  0
  -23.3735  -35.9661   23.3302 H   0  0  0  0  0  0
  -24.3581  -36.8927   22.2046 H   0  0  0  0  0  0
  -23.7229  -37.6521   23.6638 H   0  0  0  0  0  0
  -26.0424  -31.5840   20.5786 H   0  0  0  0  0  0
  -26.8288  -30.8899   21.9638 H   0  0  0  0  0  0
  -28.0813  -29.0482   21.1916 H   0  0  0  0  0  0
  -25.9885  -26.0448   18.8732 H   0  0  0  0  0  0
  -23.9674  -27.3609   18.9582 H   0  0  0  0  0  0
  -23.7126  -30.6187   19.4069 H   0  0  0  0  0  0
  -22.7278  -29.2602   19.8671 H   0  0  0  0  0  0
  -25.1273  -36.1980   25.0826 H   0  0  0  0  0  0
  -20.9973  -28.3220   24.1426 H   0  0  0  0  0  0
  -20.5679  -26.2253   23.3585 H   0  0  0  0  0  0
  -21.6635  -26.7431   22.1174 H   0  0  0  0  0  0
  -19.6928  -25.6313   21.1182 H   0  0  0  0  0  0
  -19.6700  -27.3220   20.6760 H   0  0  0  0  0  0
  -17.4196  -26.6660   21.3993 H   0  0  0  0  0  0
  -18.0311  -26.0096   22.9017 H   0  0  0  0  0  0
  -19.7934  -30.7249   24.2234 H   0  0  0  0  0  0
  -17.5019  -31.6247   24.5179 H   0  0  0  0  0  0
  -15.5348  -30.2968   23.7659 H   0  0  0  0  0  0
  -15.8674  -28.0851   22.6979 H   0  0  0  0  0  0
  -24.5990  -30.6890   25.7779 H   0  0  0  0  0  0
  -24.8821  -32.2767   26.4828 H   0  0  0  0  0  0
  -25.8114  -30.8885   27.0217 H   0  0  0  0  0  0
  -26.2801  -29.6816   24.1019 H   0  0  0  0  0  0
  -27.4059  -29.7178   25.4392 H   0  0  0  0  0  0
  -27.8622  -30.4375   23.9123 H   0  0  0  0  0  0
  -27.2756  -33.3571   26.2018 H   0  0  0  0  0  0
  -28.3914  -32.6724   25.0290 H   0  0  0  0  0  0
  -28.0692  -31.8323   26.5386 H   0  0  0  0  0  0
  -28.2603  -38.0092   24.7542 H   0  0  0  0  0  0
  -28.1061  -36.2627   24.6291 H   0  0  0  0  0  0
  -27.2298  -37.1460   25.8881 H   0  0  0  0  0  0
  -20.9323  -29.8811   21.6982 H   0  0  0  0  0  0
  -26.0176  -38.2871   24.1438 H   0  0  0  0  0  0
  -28.6665  -16.7096   22.8539 H   0  0  0  0  0  0
  -29.0503  -26.1808   22.4409 H   0  0  0  0  0  0
  -29.9070  -22.7191   18.7189 H   0  0  0  0  0  0
  -28.4545  -22.8247   17.7765 H   0  0  0  0  0  0
  -28.5157  -25.1075   17.9528 H   0  0  0  0  0  0
  -29.9935  -24.9653   18.8644 H   0  0  0  0  0  0
  -28.1351  -21.3571   19.7767 H   0  0  0  0  0  0
  -27.0215  -22.6653   19.7439 H   0  0  0  0  0  0
  -27.1856  -24.8863   20.0228 H   0  0  0  0  0  0
  -31.8072  -19.5757   20.2761 H   0  0  0  0  0  0
  -30.7399  -20.8448   19.7103 H   0  0  0  0  0  0
  -30.4996  -19.2383   19.1386 H   0  0  0  0  0  0
  -27.2705  -21.9599   23.3722 H   0  0  0  0  0  0
  -28.3862  -21.5245   24.6760 H   0  0  0  0  0  0
  -26.8349  -20.7265   24.4941 H   0  0  0  0  0  0
  -28.6517  -23.7483   24.1555 H   0  0  0  0  0  0
  -29.1319  -25.3616   24.6141 H   0  0  0  0  0  0
  -30.3481  -24.2666   23.9669 H   0  0  0  0  0  0
  -31.4672  -17.0625   20.9789 H   0  0  0  0  0  0
  -30.3071  -17.1320   19.6724 H   0  0  0  0  0  0
  -30.5072  -22.1877   21.2695 H   0  0  0  0  0  0
  -29.8302  -22.3580   22.8070 H   0  0  0  0  0  0
  -29.0383  -15.3954   21.2727 H   0  0  0  0  0  0
  -27.7076  -22.6558   21.8023 H   0  0  0  0  0  0
  1 25  1  0  0  0
  1 30  2  0  0  0
  1 88  1  0  0  0
  2  3  1  0  0  0
  2 25  1  0  0  0
  2 91  1  0  0  0
  2 92  1  0  0  0
  3  4  1  0  0  0
  3 93  1  0  0  0
  3 94  1  0  0  0
  4  5  1  0  0  0
  4 95  1  0  0  0
  4 96  1  0  0  0
  5  6  1  0  0  0
  5 26  1  0  0  0
  5 97  1  0  0  0
  6 25  1  0  0  0
  6 98  1  0  0  0
  6 99  1  0  0  0
  7  8  2  0  0  0
  7 26  1  0  0  0
  7 29  1  0  0  0
  8  9  1  0  0  0
  8 22  1  0  0  0
  9 10  1  0  0  0
  9 27  2  0  0  0
 10 11  2  0  0  0
 10 15  1  0  0  0
 11 12  1  0  0  0
 11100  1  0  0  0
 12 13  2  0  0  0
 12101  1  0  0  0
 13 14  1  0  0  0
 13 31  1  0  0  0
 14 15  2  0  0  0
 14102  1  0  0  0
 15103  1  0  0  0
 16 17  2  0  0  0
 16 21  1  0  0  0
 16 31  1  0  0  0
 17 18  1  0  0  0
 17104  1  0  0  0
 18 19  2  0  0  0
 18105  1  0  0  0
 19 20  1  0  0  0
 19 24  1  0  0  0
 20 21  2  0  0  0
 20106  1  0  0  0
 21 23  1  0  0  0
 22 28  1  0  0  0
 22 32  2  0  0  0
 26 27  1  0  0  0
 28107  1  0  0  0
 28108  1  0  0  0
 29109  1  0  0  0
 29110  1  0  0  0
 33 34  1  0  0  0
 33 66  1  0  0  0
 33 70  2  0  0  0
 34 36  1  0  0  0
 34 59  1  0  0  0
 34111  1  0  0  0
 35 44  2  0  0  0
 35 45  1  0  0  0
 35 68  1  0  0  0
 36 56  1  0  0  0
 36112  1  0  0  0
 37 39  1  0  0  0
 37 47  1  0  0  0
 37 66  1  0  0  0
 37113  1  0  0  0
 38 43  2  0  0  0
 38 46  1  0  0  0
 38 47  1  0  0  0
 39 64  1  0  0  0
 39 67  2  0  0  0
 40 52  1  0  0  0
 40 53  2  0  0  0
 40 58  1  0  0  0
 41114  1  0  0  0
 41115  1  0  0  0
 41116  1  0  0  0
 41 48  1  0  0  0
 42 43  1  0  0  0
 42 66  1  0  0  0
 42117  1  0  0  0
 42118  1  0  0  0
 43 44  1  0  0  0
 44119  1  0  0  0
 45 46  2  0  0  0
 45120  1  0  0  0
 46121  1  0  0  0
 47122  1  0  0  0
 47123  1  0  0  0
 48 56  1  0  0  0
 48 65  1  0  0  0
 48124  1  0  0  0
 49 50  1  0  0  0
 49 53  1  0  0  0
 49 64  1  0  0  0
 49125  1  0  0  0
 50 51  1  0  0  0
 50126  1  0  0  0
 50127  1  0  0  0
 51 52  1  0  0  0
 51128  1  0  0  0
 51129  1  0  0  0
 52130  1  0  0  0
 52131  1  0  0  0
 53 54  1  0  0  0
 54 55  2  0  0  0
 54132  1  0  0  0
 55 57  1  0  0  0
 55133  1  0  0  0
 56 69  2  0  0  0
 57 58  2  0  0  0
 57134  1  0  0  0
 58135  1  0  0  0
 59 60  1  0  0  0
 59 61  1  0  0  0
 59 62  1  0  0  0
 60136  1  0  0  0
 60137  1  0  0  0
 60138  1  0  0  0
 61139  1  0  0  0
 61140  1  0  0  0
 61141  1  0  0  0
 62142  1  0  0  0
 62143  1  0  0  0
 62144  1  0  0  0
 63 65  1  0  0  0
 63145  1  0  0  0
 63146  1  0  0  0
 63147  1  0  0  0
 64148  1  0  0  0
 65149  1  0  0  0
 68 82  1  0  0  0
 71 72  2  0  0  0
 71 76  1  0  0  0
 71150  1  0  0  0
 72 73  1  0  0  0
 72 86  1  0  0  0
 73 74  2  0  0  0
 73 83  1  0  0  0
 74 75  1  0  0  0
 74 87  1  0  0  0
 75 76  2  0  0  0
 75 84  1  0  0  0
 76 90  1  0  0  0
 77 78  2  0  0  0
 77 82  1  0  0  0
 77 89  1  0  0  0
 78 85  1  0  0  0
 78151  1  0  0  0
 79 80  1  0  0  0
 79 81  1  0  0  0
 79152  1  0  0  0
 79153  1  0  0  0
 80 82  1  0  0  0
 80154  1  0  0  0
 80155  1  0  0  0
 81 89  1  0  0  0
 81156  1  0  0  0
 81157  1  0  0  0
 82158  1  0  0  0
 83159  1  0  0  0
 83160  1  0  0  0
 83161  1  0  0  0
 84162  1  0  0  0
 84163  1  0  0  0
 84164  1  0  0  0
 85165  1  0  0  0
 85166  1  0  0  0
 85167  1  0  0  0
 86 88  1  0  0  0
 86168  1  0  0  0
 86169  1  0  0  0
 87170  1  0  0  0
 87171  1  0  0  0
 87 89  1  0  0  0
 88172  1  0  0  0
 89173  1  0  0  0
M  CHG  1  89   1
M  ISO  4   1 100  68 101  82 101  88 100
M  END
> <chiral flag>
0

> <version>
0

> <s_m_source_file>
/data/baiqing/PycharmProjects/Reinvent-master-3.2/result/LINK_invent/BTK/process_docking_weight1_custom_product_contain_oxygen_bond_distance_aromatic_linkinvent_7_9_3/rearranged_h_0036.sdf

> <i_m_source_file_index>
30

> <r_mmod_Potential_Energy-OPLS-2005>
-121.966705322266

> <r_mmod_Stretch_Energy-OPLS-2005>
61.9793167114258

> <r_mmod_Bend_Energy-OPLS-2005>
131.469802856445

> <r_mmod_Torsional_Energy-OPLS-2005>
233.665481567383

> <r_mmod_Improper_Torsional_Energy-OPLS-2005>
5.76277160644531

> <r_mmod_Van_der_Waal_Energy-OPLS-2005>
179.84162902832

> <r_mmod_Electrostatic_Energy-OPLS-2005>
-330.999328613281

> <r_mmod_Solvation_Energy-OPLS-2005>
-424.156860351562

> <b_mmod_Minimization_Converged-OPLS-2005>
0

> <r_mmod_RMS_Derivative-OPLS-2005>
2.8505072593689

$$$$
30
                    3D
 Structure written by MMmdl.
166175  0  0  1  0            999 V2000
  -30.7568  -14.4940   20.4982 C   0  0  0  0  0  0
  -30.4106  -12.3049   19.4212 C   0  0  0  0  0  0
  -29.4834  -12.4802   18.2023 C   0  0  0  0  0  0
  -28.0117  -12.3518   18.6320 C   0  0  0  0  0  0
  -27.6671  -13.2150   19.8758 C   0  0  2  0  0  0
  -28.7248  -13.0673   20.9966 C   0  0  0  0  0  0
  -25.2737  -13.8216   20.5864 C   0  0  0  0  0  0
  -24.1977  -13.0479   20.9251 C   0  0  0  0  0  0
  -24.6502  -11.6936   20.8775 C   0  0  0  0  0  0
  -23.9141  -10.4335   21.0412 C   0  0  0  0  0  0
  -24.3683   -9.4228   21.9175 C   0  0  0  0  0  0
  -23.6345   -8.2271   22.0758 C   0  0  0  0  0  0
  -22.4324   -8.0325   21.3544 C   0  0  0  0  0  0
  -21.9969   -9.0302   20.4631 C   0  0  0  0  0  0
  -22.7320  -10.2162   20.3034 C   0  0  0  0  0  0
  -21.6873   -6.0774   22.5272 C   0  0  0  0  0  0
  -21.4023   -6.5659   23.8216 C   0  0  0  0  0  0
  -21.3645   -5.6795   24.9164 C   0  0  0  0  0  0
  -21.6035   -4.3064   24.7206 C   0  0  0  0  0  0
  -21.8829   -3.8176   23.4333 C   0  0  0  0  0  0
  -21.9213   -4.7002   22.3397 C   0  0  0  0  0  0
  -22.7986  -13.5276   21.1831 C   0  0  0  0  0  0
  -22.1705   -4.2198   21.0982 F   0  0  0  0  0  0
  -21.5604   -3.4532   25.7716 F   0  0  0  0  0  0
  -30.0424  -13.3386   20.4084 N   0  0  0  0  0  0
  -26.3132  -12.9380   20.3483 N   0  0  0  0  0  0
  -25.9426  -11.6526   20.5806 N   0  0  0  0  0  0
  -22.0614  -12.8252   22.0321 N   0  0  0  0  0  0
  -25.4509  -15.1955   20.4408 N   0  0  0  0  0  0
  -31.9262  -14.5653   20.1209 O   0  0  0  0  0  0
  -21.6680   -6.8917   21.4236 O   0  0  0  0  0  0
  -22.3697  -14.5587   20.6660 O   0  0  0  0  0  0
  -24.6193  -31.8703   23.2103 C   0  0  0  0  0  0
  -25.9091  -32.4807   23.8404 C   0  0  1  0  0  0
  -27.2146  -27.3851   20.1031 C   0  0  0  0  0  0
  -25.5966  -33.8611   24.2330 N   0  0  0  0  0  0
  -23.4028  -30.4962   21.5540 C   0  0  2  0  0  0
  -24.8430  -28.9738   20.1154 C   0  0  0  0  0  0
  -22.7420  -29.4664   22.4978 C   0  0  0  0  0  0
  -18.0298  -28.1388   22.8352 C   0  0  0  0  0  0
  -24.1504  -36.7328   23.2616 C   0  0  0  0  0  0
  -25.9367  -30.8201   21.3771 C   0  0  0  0  0  0
  -26.0045  -29.4496   20.7291 C   0  0  0  0  0  0
  -27.1868  -28.6632   20.7239 C   0  0  0  0  0  0
  -26.0229  -26.9676   19.4606 C   0  0  0  0  0  0
  -24.8523  -27.7354   19.4743 C   0  0  0  0  0  0
  -23.6106  -29.8436   20.1638 C   0  0  0  0  0  0
  -25.4129  -36.3089   24.0298 C   0  0  1  0  0  0
  -20.5869  -28.3660   23.1312 C   0  0  2  0  0  0
  -20.6800  -26.9379   22.5374 C   0  0  0  0  0  0
  -19.5865  -26.6547   21.5018 C   0  0  0  0  0  0
  -18.2013  -26.7947   22.1420 C   0  0  0  0  0  0
  -19.1517  -28.8799   23.2918 C   0  0  0  0  0  0
  -18.9408  -30.1353   23.9039 C   0  0  0  0  0  0
  -17.6402  -30.6541   24.0567 C   0  0  0  0  0  0
  -25.9066  -34.9464   23.5098 C   0  0  0  0  0  0
  -16.5283  -29.9106   23.6147 C   0  0  0  0  0  0
  -16.7243  -28.6531   23.0144 C   0  0  0  0  0  0
  -26.4500  -31.6561   25.0725 C   0  0  0  0  0  0
  -25.3753  -31.3727   26.1462 C   0  0  0  0  0  0
  -27.0333  -30.2991   24.6096 C   0  0  0  0  0  0
  -27.6009  -32.4344   25.7531 C   0  0  0  0  0  0
  -27.5582  -37.1803   24.8442 C   0  0  0  0  0  0
  -21.4152  -29.3071   22.3738 N   0  0  0  0  0  0
  -26.4308  -37.3774   23.9380 N   0  0  0  0  0  0
  -24.6702  -31.0812   22.1018 N   0  0  0  0  0  0
  -23.4192  -28.8213   23.3051 O   0  0  0  0  0  0
  -28.4068  -26.6610   20.1279 O   0  0  0  0  0  0
  -26.5598  -34.8899   22.4659 O   0  0  0  0  0  0
  -23.5395  -32.1489   23.7472 O   0  0  0  0  0  0
  -30.0669  -20.7659   22.4167 C   0  0  0  0  0  0
  -30.5823  -19.6485   23.0891 C   0  0  0  0  0  0
  -29.5552  -20.6446   21.1121 C   0  0  0  0  0  0
  -29.5507  -19.3513   20.4849 C   0  0  0  0  0  0
  -30.1987  -18.2383   21.1189 C   0  0  0  0  0  0
  -30.6910  -18.4026   22.4425 C   0  0  0  0  0  0
  -26.5866  -23.6741   19.8420 C   0  0  0  0  0  0
  -27.6520  -24.3877   18.9628 C   0  0  0  0  0  0
  -27.1416  -23.1517   21.1913 C   0  0  0  0  0  0
  -29.2278  -24.4233   20.9838 C   0  0  0  0  0  0
  -28.6342  -25.2516   19.7856 C   0  0  2  0  0  0
  -28.8970  -19.1950   19.1136 C   0  0  0  0  0  0
  -30.5904  -16.9619   20.3319 C   0  0  0  0  0  0
  -29.1795  -21.9402   20.3580 C   0  0  0  0  0  0
  -30.0743  -15.6352   20.7524 N   0  0  0  0  0  0
  -28.6231  -23.0555   21.1946 N   0  3  2  0  0  0
  -31.5054  -17.1301   23.2779 Cl  0  0  0  0  0  0
  -31.4529  -12.3612   19.1096 H   0  0  0  0  0  0
  -30.2799  -11.3092   19.8527 H   0  0  0  0  0  0
  -29.7130  -11.7266   17.4456 H   0  0  0  0  0  0
  -29.6413  -13.4504   17.7263 H   0  0  0  0  0  0
  -27.8208  -11.2985   18.8432 H   0  0  0  0  0  0
  -27.3580  -12.6124   17.7992 H   0  0  0  0  0  0
  -27.6911  -14.2540   19.5491 H   0  0  0  0  0  0
  -28.7206  -12.0571   21.4074 H   0  0  0  0  0  0
  -28.5206  -13.7357   21.8359 H   0  0  0  0  0  0
  -25.2850   -9.5716   22.4726 H   0  0  0  0  0  0
  -24.0051   -7.4682   22.7525 H   0  0  0  0  0  0
  -21.0852   -8.8827   19.8988 H   0  0  0  0  0  0
  -22.3772  -10.9684   19.6132 H   0  0  0  0  0  0
  -21.2030   -7.6166   23.9714 H   0  0  0  0  0  0
  -21.1440   -6.0529   25.9055 H   0  0  0  0  0  0
  -22.0629   -2.7652   23.2792 H   0  0  0  0  0  0
  -22.4234  -11.9879   22.4643 H   0  0  0  0  0  0
  -21.1206  -13.1226   22.2473 H   0  0  0  0  0  0
  -24.7029  -15.8484   20.6403 H   0  0  0  0  0  0
  -26.3153  -15.6525   20.1770 H   0  0  0  0  0  0
  -26.7134  -32.5478   23.1145 H   0  0  0  0  0  0
  -25.0166  -33.9804   25.0492 H   0  0  0  0  0  0
  -22.6878  -31.3088   21.4223 H   0  0  0  0  0  0
  -23.3721  -35.9714   23.3322 H   0  0  0  0  0  0
  -24.3543  -36.8924   22.2004 H   0  0  0  0  0  0
  -23.7322  -37.6552   23.6671 H   0  0  0  0  0  0
  -26.0665  -31.5872   20.6128 H   0  0  0  0  0  0
  -26.8193  -30.8631   22.0054 H   0  0  0  0  0  0
  -28.0704  -29.0447   21.2142 H   0  0  0  0  0  0
  -25.9166  -26.0702   18.8991 H   0  0  0  0  0  0
  -23.9721  -27.3743   18.9596 H   0  0  0  0  0  0
  -23.7289  -30.6284   19.4124 H   0  0  0  0  0  0
  -22.7327  -29.2681   19.8636 H   0  0  0  0  0  0
  -25.1308  -36.1925   25.0787 H   0  0  0  0  0  0
  -20.9910  -28.3275   24.1411 H   0  0  0  0  0  0
  -20.5566  -26.2229   23.3523 H   0  0  0  0  0  0
  -21.6715  -26.7482   22.1242 H   0  0  0  0  0  0
  -19.7098  -25.6564   21.0763 H   0  0  0  0  0  0
  -19.6895  -27.3577   20.6726 H   0  0  0  0  0  0
  -17.4337  -26.6644   21.3789 H   0  0  0  0  0  0
  -18.0531  -26.0001   22.8794 H   0  0  0  0  0  0
  -19.7872  -30.7125   24.2473 H   0  0  0  0  0  0
  -17.4980  -31.6220   24.5193 H   0  0  0  0  0  0
  -15.5281  -30.3022   23.7400 H   0  0  0  0  0  0
  -15.8669  -28.0957   22.6624 H   0  0  0  0  0  0
  -24.5886  -30.7132   25.7825 H   0  0  0  0  0  0
  -24.9013  -32.2927   26.4886 H   0  0  0  0  0  0
  -25.8065  -30.8894   27.0228 H   0  0  0  0  0  0
  -26.2898  -29.6743   24.1137 H   0  0  0  0  0  0
  -27.4092  -29.7199   25.4518 H   0  0  0  0  0  0
  -27.8753  -30.4279   23.9301 H   0  0  0  0  0  0
  -27.2522  -33.3601   26.2141 H   0  0  0  0  0  0
  -28.3832  -32.6967   25.0409 H   0  0  0  0  0  0
  -28.0713  -31.8477   26.5425 H   0  0  0  0  0  0
  -28.2558  -38.0106   24.7450 H   0  0  0  0  0  0
  -28.1100  -36.2616   24.6366 H   0  0  0  0  0  0
  -27.2271  -37.1571   25.8824 H   0  0  0  0  0  0
  -20.9334  -29.8933   21.7044 H   0  0  0  0  0  0
  -26.0166  -38.2855   24.1349 H   0  0  0  0  0  0
  -30.1087  -21.7268   22.9114 H   0  0  0  0  0  0
  -30.9666  -19.7637   24.0936 H   0  0  0  0  0  0
  -26.1681  -22.8451   19.2723 H   0  0  0  0  0  0
  -25.7394  -24.3206   20.0783 H   0  0  0  0  0  0
  -27.2618  -24.8947   18.0850 H   0  0  0  0  0  0
  -28.2411  -23.6147   18.4712 H   0  0  0  0  0  0
  -26.6744  -22.2090   21.4839 H   0  0  0  0  0  0
  -26.8643  -23.8632   21.9690 H   0  0  0  0  0  0
  -29.0590  -24.9873   21.9010 H   0  0  0  0  0  0
  -30.3144  -24.3486   20.8944 H   0  0  0  0  0  0
  -29.4704  -25.3768   19.0976 H   0  0  0  0  0  0
  -29.5030  -19.6340   18.3225 H   0  0  0  0  0  0
  -27.9176  -19.6744   19.1149 H   0  0  0  0  0  0
  -28.6847  -18.1666   18.8353 H   0  0  0  0  0  0
  -31.6837  -16.9705   20.3562 H   0  0  0  0  0  0
  -30.3830  -17.0586   19.2694 H   0  0  0  0  0  0
  -28.4968  -21.7229   19.5395 H   0  0  0  0  0  0
  -30.1051  -22.2718   19.8862 H   0  0  0  0  0  0
  -29.0967  -15.5674   20.9842 H   0  0  0  0  0  0
  -28.8772  -22.7784   22.1310 H   0  0  0  0  0  0
  1 25  1  0  0  0
  1 30  2  0  0  0
  1 85  1  0  0  0
  2  3  1  0  0  0
  2 25  1  0  0  0
  2 88  1  0  0  0
  2 89  1  0  0  0
  3  4  1  0  0  0
  3 90  1  0  0  0
  3 91  1  0  0  0
  4  5  1  0  0  0
  4 92  1  0  0  0
  4 93  1  0  0  0
  5  6  1  0  0  0
  5 26  1  0  0  0
  5 94  1  0  0  0
  6 25  1  0  0  0
  6 95  1  0  0  0
  6 96  1  0  0  0
  7  8  2  0  0  0
  7 26  1  0  0  0
  7 29  1  0  0  0
  8  9  1  0  0  0
  8 22  1  0  0  0
  9 10  1  0  0  0
  9 27  2  0  0  0
 10 11  2  0  0  0
 10 15  1  0  0  0
 11 12  1  0  0  0
 11 97  1  0  0  0
 12 13  2  0  0  0
 12 98  1  0  0  0
 13 14  1  0  0  0
 13 31  1  0  0  0
 14 15  2  0  0  0
 14 99  1  0  0  0
 15100  1  0  0  0
 16 17  2  0  0  0
 16 21  1  0  0  0
 16 31  1  0  0  0
 17 18  1  0  0  0
 17101  1  0  0  0
 18 19  2  0  0  0
 18102  1  0  0  0
 19 20  1  0  0  0
 19 24  1  0  0  0
 20 21  2  0  0  0
 20103  1  0  0  0
 21 23  1  0  0  0
 22 28  1  0  0  0
 22 32  2  0  0  0
 26 27  1  0  0  0
 28104  1  0  0  0
 28105  1  0  0  0
 29106  1  0  0  0
 29107  1  0  0  0
 33 34  1  0  0  0
 33 66  1  0  0  0
 33 70  2  0  0  0
 34 36  1  0  0  0
 34 59  1  0  0  0
 34108  1  0  0  0
 35 44  2  0  0  0
 35 45  1  0  0  0
 35 68  1  0  0  0
 36 56  1  0  0  0
 36109  1  0  0  0
 37 39  1  0  0  0
 37 47  1  0  0  0
 37 66  1  0  0  0
 37110  1  0  0  0
 38 43  2  0  0  0
 38 46  1  0  0  0
 38 47  1  0  0  0
 39 64  1  0  0  0
 39 67  2  0  0  0
 40 52  1  0  0  0
 40 53  2  0  0  0
 40 58  1  0  0  0
 41111  1  0  0  0
 41112  1  0  0  0
 41113  1  0  0  0
 41 48  1  0  0  0
 42 43  1  0  0  0
 42 66  1  0  0  0
 42114  1  0  0  0
 42115  1  0  0  0
 43 44  1  0  0  0
 44116  1  0  0  0
 45 46  2  0  0  0
 45117  1  0  0  0
 46118  1  0  0  0
 47119  1  0  0  0
 47120  1  0  0  0
 48 56  1  0  0  0
 48 65  1  0  0  0
 48121  1  0  0  0
 49 50  1  0  0  0
 49 53  1  0  0  0
 49 64  1  0  0  0
 49122  1  0  0  0
 50 51  1  0  0  0
 50123  1  0  0  0
 50124  1  0  0  0
 51 52  1  0  0  0
 51125  1  0  0  0
 51126  1  0  0  0
 52127  1  0  0  0
 52128  1  0  0  0
 53 54  1  0  0  0
 54 55  2  0  0  0
 54129  1  0  0  0
 55 57  1  0  0  0
 55130  1  0  0  0
 56 69  2  0  0  0
 57 58  2  0  0  0
 57131  1  0  0  0
 58132  1  0  0  0
 59 60  1  0  0  0
 59 61  1  0  0  0
 59 62  1  0  0  0
 60133  1  0  0  0
 60134  1  0  0  0
 60135  1  0  0  0
 61136  1  0  0  0
 61137  1  0  0  0
 61138  1  0  0  0
 62139  1  0  0  0
 62140  1  0  0  0
 62141  1  0  0  0
 63 65  1  0  0  0
 63142  1  0  0  0
 63143  1  0  0  0
 63144  1  0  0  0
 64145  1  0  0  0
 65146  1  0  0  0
 68 81  1  0  0  0
 71 72  2  0  0  0
 71 73  1  0  0  0
 71147  1  0  0  0
 72 76  1  0  0  0
 72148  1  0  0  0
 73 74  2  0  0  0
 73 84  1  0  0  0
 74 75  1  0  0  0
 74 82  1  0  0  0
 75 76  2  0  0  0
 75 83  1  0  0  0
 76 87  1  0  0  0
 77 78  1  0  0  0
 77 79  1  0  0  0
 77149  1  0  0  0
 77150  1  0  0  0
 78 81  1  0  0  0
 78151  1  0  0  0
 78152  1  0  0  0
 79 86  1  0  0  0
 79153  1  0  0  0
 79154  1  0  0  0
 80 81  1  0  0  0
 80 86  1  0  0  0
 80155  1  0  0  0
 80156  1  0  0  0
 81157  1  0  0  0
 82158  1  0  0  0
 82159  1  0  0  0
 82160  1  0  0  0
 83 85  1  0  0  0
 83161  1  0  0  0
 83162  1  0  0  0
 84163  1  0  0  0
 84164  1  0  0  0
 84 86  1  0  0  0
 85165  1  0  0  0
 86166  1  0  0  0
M  CHG  1  86   1
M  ISO  4   1 100  68 101  81 101  85 100
M  END
> <chiral flag>
0

> <version>
0

> <s_m_source_file>
/data/baiqing/PycharmProjects/Reinvent-master-3.2/result/LINK_invent/BTK/process_docking_weight1_custom_product_contain_oxygen_bond_distance_aromatic_linkinvent_7_9_3/rearranged_h_0036.sdf

> <i_m_source_file_index>
31

> <r_mmod_Potential_Energy-OPLS-2005>
51.9113159179688

> <r_mmod_Stretch_Energy-OPLS-2005>
58.2742614746094

> <r_mmod_Bend_Energy-OPLS-2005>
178.680770874023

> <r_mmod_Torsional_Energy-OPLS-2005>
288.931518554688

> <r_mmod_Improper_Torsional_Energy-OPLS-2005>
8.91326808929443

> <r_mmod_Van_der_Waal_Energy-OPLS-2005>
179.347717285156

> <r_mmod_Electrostatic_Energy-OPLS-2005>
-251.710220336914

> <r_mmod_Solvation_Energy-OPLS-2005>
-435.757476806641

> <b_mmod_Minimization_Converged-OPLS-2005>
0

> <r_mmod_RMS_Derivative-OPLS-2005>
6.99335622787476

$$$$
31
                    3D
 Structure written by MMmdl.
170179  0  0  1  0            999 V2000
  -30.6680  -14.5655   20.4123 C   0  0  0  0  0  0
  -30.4246  -12.3221   19.4527 C   0  0  0  0  0  0
  -29.5061  -12.4574   18.2195 C   0  0  0  0  0  0
  -28.0323  -12.2987   18.6444 C   0  0  0  0  0  0
  -27.6519  -13.2044   19.8468 C   0  0  2  0  0  0
  -28.6984  -13.1057   20.9832 C   0  0  0  0  0  0
  -25.2574  -13.8150   20.5621 C   0  0  0  0  0  0
  -24.1849  -13.0432   20.9161 C   0  0  0  0  0  0
  -24.6421  -11.6900   20.8753 C   0  0  0  0  0  0
  -23.9058  -10.4286   21.0415 C   0  0  0  0  0  0
  -24.3596   -9.4231   21.9203 C   0  0  0  0  0  0
  -23.6294   -8.2265   22.0778 C   0  0  0  0  0  0
  -22.4276   -8.0299   21.3569 C   0  0  0  0  0  0
  -21.9896   -9.0234   20.4656 C   0  0  0  0  0  0
  -22.7232  -10.2110   20.3066 C   0  0  0  0  0  0
  -21.6832   -6.0754   22.5286 C   0  0  0  0  0  0
  -21.4040   -6.5650   23.8226 C   0  0  0  0  0  0
  -21.3649   -5.6800   24.9185 C   0  0  0  0  0  0
  -21.6054   -4.3068   24.7244 C   0  0  0  0  0  0
  -21.8811   -3.8170   23.4356 C   0  0  0  0  0  0
  -21.9201   -4.6990   22.3420 C   0  0  0  0  0  0
  -22.7866  -13.5225   21.1796 C   0  0  0  0  0  0
  -22.1645   -4.2169   21.0988 F   0  0  0  0  0  0
  -21.5632   -3.4550   25.7741 F   0  0  0  0  0  0
  -30.0228  -13.3676   20.4033 N   0  0  0  0  0  0
  -26.2996  -12.9317   20.3276 N   0  0  0  0  0  0
  -25.9343  -11.6510   20.5833 N   0  0  0  0  0  0
  -22.0452  -12.8256   22.0324 N   0  0  0  0  0  0
  -25.4249  -15.1872   20.3930 N   0  0  0  0  0  0
  -31.8741  -14.6550   20.1973 O   0  0  0  0  0  0
  -21.6667   -6.8878   21.4251 O   0  0  0  0  0  0
  -22.3597  -14.5533   20.6639 O   0  0  0  0  0  0
  -24.6226  -31.8647   23.2059 C   0  0  0  0  0  0
  -25.9115  -32.4792   23.8353 C   0  0  1  0  0  0
  -27.2251  -27.3947   20.0736 C   0  0  0  0  0  0
  -25.5944  -33.8582   24.2280 N   0  0  0  0  0  0
  -23.4064  -30.4920   21.5493 C   0  0  2  0  0  0
  -24.8459  -28.9553   20.1139 C   0  0  0  0  0  0
  -22.7417  -29.4668   22.4968 C   0  0  0  0  0  0
  -18.0279  -28.1392   22.8489 C   0  0  0  0  0  0
  -24.1483  -36.7293   23.2624 C   0  0  0  0  0  0
  -25.9388  -30.8196   21.3583 C   0  0  0  0  0  0
  -26.0123  -29.4495   20.7053 C   0  0  0  0  0  0
  -27.2011  -28.6761   20.6879 C   0  0  0  0  0  0
  -26.0267  -26.9286   19.4856 C   0  0  0  0  0  0
  -24.8466  -27.6905   19.5062 C   0  0  0  0  0  0
  -23.6128  -29.8273   20.1630 C   0  0  0  0  0  0
  -25.4103  -36.3080   24.0319 C   0  0  1  0  0  0
  -20.5873  -28.3681   23.1301 C   0  0  2  0  0  0
  -20.6768  -26.9421   22.5400 C   0  0  0  0  0  0
  -19.5759  -26.6410   21.5187 C   0  0  0  0  0  0
  -18.1931  -26.7952   22.1590 C   0  0  0  0  0  0
  -19.1530  -28.8843   23.2903 C   0  0  0  0  0  0
  -18.9452  -30.1438   23.8928 C   0  0  0  0  0  0
  -17.6457  -30.6582   24.0567 C   0  0  0  0  0  0
  -25.9051  -34.9454   23.5097 C   0  0  0  0  0  0
  -16.5353  -29.9088   23.6344 C   0  0  0  0  0  0
  -16.7261  -28.6516   23.0345 C   0  0  0  0  0  0
  -26.4496  -31.6577   25.0694 C   0  0  0  0  0  0
  -25.3750  -31.3672   26.1417 C   0  0  0  0  0  0
  -27.0336  -30.3030   24.6067 C   0  0  0  0  0  0
  -27.6036  -32.4293   25.7518 C   0  0  0  0  0  0
  -27.5575  -37.1807   24.8453 C   0  0  0  0  0  0
  -21.4138  -29.3064   22.3719 N   0  0  0  0  0  0
  -26.4273  -37.3788   23.9415 N   0  0  0  0  0  0
  -24.6759  -31.0726   22.0973 N   0  0  0  0  0  0
  -23.4176  -28.8216   23.3019 O   0  0  0  0  0  0
  -28.3860  -26.6298   20.0837 O   0  0  0  0  0  0
  -26.5594  -34.8934   22.4649 O   0  0  0  0  0  0
  -23.5412  -32.1398   23.7451 O   0  0  0  0  0  0
  -31.0666  -18.6315   18.4015 C   0  0  0  0  0  0
  -30.6001  -19.7103   19.1642 C   0  0  0  0  0  0
  -30.8214  -17.2970   18.7661 C   0  0  0  0  0  0
  -29.7437  -19.4696   20.2662 C   0  0  0  0  0  0
  -29.4563  -18.1063   20.6349 C   0  0  0  0  0  0
  -30.0772  -17.0053   19.9509 C   0  0  0  0  0  0
  -28.6927  -23.0728   20.4396 C   0  0  0  0  0  0
  -26.3908  -22.1438   18.9425 C   0  0  0  0  0  0
  -27.0324  -23.4592   18.5129 C   0  0  0  0  0  0
  -27.4946  -21.1627   19.3367 C   0  0  0  0  0  0
  -27.7918  -24.1157   19.6950 C   0  0  2  0  0  0
  -31.0658  -21.1075   18.7674 C   0  0  0  0  0  0
  -31.3536  -16.2519   17.7973 C   0  0  0  0  0  0
  -28.4677  -17.8359   21.7694 C   0  0  0  0  0  0
  -29.1924  -20.6845   21.0661 C   0  0  0  0  0  0
  -28.5068  -25.4466   19.2430 C   0  0  0  0  0  0
  -28.4652  -21.7271   20.2919 N   0  0  0  0  0  0
  -29.8544  -15.6538   20.4270 N   0  0  0  0  0  0
  -29.5725  -23.4979   21.1946 O   0  0  0  0  0  0
  -31.4749  -12.4036   19.1636 H   0  0  0  0  0  0
  -30.3173  -11.3349   19.9033 H   0  0  0  0  0  0
  -29.7694  -11.7092   17.4698 H   0  0  0  0  0  0
  -29.6514  -13.4265   17.7440 H   0  0  0  0  0  0
  -27.8932  -11.2519   18.9202 H   0  0  0  0  0  0
  -27.3642  -12.4865   17.8021 H   0  0  0  0  0  0
  -27.6571  -14.2240   19.4676 H   0  0  0  0  0  0
  -28.6850  -12.1232   21.4554 H   0  0  0  0  0  0
  -28.4725  -13.8261   21.7695 H   0  0  0  0  0  0
  -25.2738   -9.5743   22.4781 H   0  0  0  0  0  0
  -24.0008   -7.4702   22.7532 H   0  0  0  0  0  0
  -21.0812   -8.8732   19.8974 H   0  0  0  0  0  0
  -22.3683  -10.9623   19.6160 H   0  0  0  0  0  0
  -21.2033   -7.6150   23.9726 H   0  0  0  0  0  0
  -21.1462   -6.0535   25.9066 H   0  0  0  0  0  0
  -22.0594   -2.7643   23.2856 H   0  0  0  0  0  0
  -22.4012  -11.9867   22.4656 H   0  0  0  0  0  0
  -21.1099  -13.1410   22.2480 H   0  0  0  0  0  0
  -24.6408  -15.8269   20.4606 H   0  0  0  0  0  0
  -26.2620  -15.6196   20.0214 H   0  0  0  0  0  0
  -26.7189  -32.5477   23.1112 H   0  0  0  0  0  0
  -25.0145  -33.9729   25.0460 H   0  0  0  0  0  0
  -22.7016  -31.3134   21.4093 H   0  0  0  0  0  0
  -23.3764  -35.9610   23.3248 H   0  0  0  0  0  0
  -24.3612  -36.8950   22.2055 H   0  0  0  0  0  0
  -23.7221  -37.6472   23.6676 H   0  0  0  0  0  0
  -26.0448  -31.5823   20.5851 H   0  0  0  0  0  0
  -26.8311  -30.8785   21.9690 H   0  0  0  0  0  0
  -28.1022  -29.0587   21.1476 H   0  0  0  0  0  0
  -25.9693  -25.9646   19.0174 H   0  0  0  0  0  0
  -23.9471  -27.2957   19.0539 H   0  0  0  0  0  0
  -23.7230  -30.6006   19.4024 H   0  0  0  0  0  0
  -22.7356  -29.2509   19.8670 H   0  0  0  0  0  0
  -25.1298  -36.1904   25.0814 H   0  0  0  0  0  0
  -20.9949  -28.3230   24.1424 H   0  0  0  0  0  0
  -20.5651  -26.2289   23.3579 H   0  0  0  0  0  0
  -21.6638  -26.7478   22.1192 H   0  0  0  0  0  0
  -19.6922  -25.6325   21.1207 H   0  0  0  0  0  0
  -19.6711  -27.3225   20.6726 H   0  0  0  0  0  0
  -17.4211  -26.6718   21.3975 H   0  0  0  0  0  0
  -18.0323  -26.0066   22.8955 H   0  0  0  0  0  0
  -19.7930  -30.7234   24.2315 H   0  0  0  0  0  0
  -17.5025  -31.6279   24.5152 H   0  0  0  0  0  0
  -15.5351  -30.2989   23.7674 H   0  0  0  0  0  0
  -15.8659  -28.0839   22.7042 H   0  0  0  0  0  0
  -24.5961  -30.6978   25.7751 H   0  0  0  0  0  0
  -24.8899  -32.2811   26.4848 H   0  0  0  0  0  0
  -25.8096  -30.8864   27.0187 H   0  0  0  0  0  0
  -26.2881  -29.6797   24.1106 H   0  0  0  0  0  0
  -27.4106  -29.7255   25.4521 H   0  0  0  0  0  0
  -27.8716  -30.4369   23.9218 H   0  0  0  0  0  0
  -27.2624  -33.3582   26.2108 H   0  0  0  0  0  0
  -28.3889  -32.6859   25.0394 H   0  0  0  0  0  0
  -28.0654  -31.8395   26.5450 H   0  0  0  0  0  0
  -28.2543  -38.0146   24.7549 H   0  0  0  0  0  0
  -28.1108  -36.2686   24.6202 H   0  0  0  0  0  0
  -27.2312  -37.1354   25.8853 H   0  0  0  0  0  0
  -20.9280  -29.8796   21.6963 H   0  0  0  0  0  0
  -26.0136  -38.2848   24.1449 H   0  0  0  0  0  0
  -31.6572  -18.8281   17.5152 H   0  0  0  0  0  0
  -25.7787  -21.7266   18.1409 H   0  0  0  0  0  0
  -25.7177  -22.3089   19.7849 H   0  0  0  0  0  0
  -26.2510  -24.1073   18.1208 H   0  0  0  0  0  0
  -27.7139  -23.2797   17.6784 H   0  0  0  0  0  0
  -28.0333  -20.8737   18.4323 H   0  0  0  0  0  0
  -27.0464  -20.2470   19.7279 H   0  0  0  0  0  0
  -27.0381  -24.3980   20.4291 H   0  0  0  0  0  0
  -31.8275  -21.0695   17.9870 H   0  0  0  0  0  0
  -31.5017  -21.6237   19.6228 H   0  0  0  0  0  0
  -30.2546  -21.7203   18.3761 H   0  0  0  0  0  0
  -32.3654  -15.9517   18.0689 H   0  0  0  0  0  0
  -31.3905  -16.6415   16.7762 H   0  0  0  0  0  0
  -30.7098  -15.3772   17.7572 H   0  0  0  0  0  0
  -28.8926  -18.1422   22.7263 H   0  0  0  0  0  0
  -28.1533  -16.7970   21.8657 H   0  0  0  0  0  0
  -27.5465  -18.3992   21.6031 H   0  0  0  0  0  0
  -30.0448  -21.1078   21.5941 H   0  0  0  0  0  0
  -28.5312  -20.3755   21.8717 H   0  0  0  0  0  0
  -28.2020  -25.7134   18.2278 H   0  0  0  0  0  0
  -29.5761  -25.2480   19.1432 H   0  0  0  0  0  0
  -28.9357  -15.4759   20.7970 H   0  0  0  0  0  0
  1 25  1  0  0  0
  1 30  2  0  0  0
  1 88  1  0  0  0
  2  3  1  0  0  0
  2 25  1  0  0  0
  2 90  1  0  0  0
  2 91  1  0  0  0
  3  4  1  0  0  0
  3 92  1  0  0  0
  3 93  1  0  0  0
  4  5  1  0  0  0
  4 94  1  0  0  0
  4 95  1  0  0  0
  5  6  1  0  0  0
  5 26  1  0  0  0
  5 96  1  0  0  0
  6 25  1  0  0  0
  6 97  1  0  0  0
  6 98  1  0  0  0
  7  8  2  0  0  0
  7 26  1  0  0  0
  7 29  1  0  0  0
  8  9  1  0  0  0
  8 22  1  0  0  0
  9 10  1  0  0  0
  9 27  2  0  0  0
 10 11  2  0  0  0
 10 15  1  0  0  0
 11 12  1  0  0  0
 11 99  1  0  0  0
 12 13  2  0  0  0
 12100  1  0  0  0
 13 14  1  0  0  0
 13 31  1  0  0  0
 14 15  2  0  0  0
 14101  1  0  0  0
 15102  1  0  0  0
 16 17  2  0  0  0
 16 21  1  0  0  0
 16 31  1  0  0  0
 17 18  1  0  0  0
 17103  1  0  0  0
 18 19  2  0  0  0
 18104  1  0  0  0
 19 20  1  0  0  0
 19 24  1  0  0  0
 20 21  2  0  0  0
 20105  1  0  0  0
 21 23  1  0  0  0
 22 28  1  0  0  0
 22 32  2  0  0  0
 26 27  1  0  0  0
 28106  1  0  0  0
 28107  1  0  0  0
 29108  1  0  0  0
 29109  1  0  0  0
 33 34  1  0  0  0
 33 66  1  0  0  0
 33 70  2  0  0  0
 34 36  1  0  0  0
 34 59  1  0  0  0
 34110  1  0  0  0
 35 44  2  0  0  0
 35 45  1  0  0  0
 35 68  1  0  0  0
 36 56  1  0  0  0
 36111  1  0  0  0
 37 39  1  0  0  0
 37 47  1  0  0  0
 37 66  1  0  0  0
 37112  1  0  0  0
 38 43  2  0  0  0
 38 46  1  0  0  0
 38 47  1  0  0  0
 39 64  1  0  0  0
 39 67  2  0  0  0
 40 52  1  0  0  0
 40 53  2  0  0  0
 40 58  1  0  0  0
 41113  1  0  0  0
 41114  1  0  0  0
 41115  1  0  0  0
 41 48  1  0  0  0
 42 43  1  0  0  0
 42 66  1  0  0  0
 42116  1  0  0  0
 42117  1  0  0  0
 43 44  1  0  0  0
 44118  1  0  0  0
 45 46  2  0  0  0
 45119  1  0  0  0
 46120  1  0  0  0
 47121  1  0  0  0
 47122  1  0  0  0
 48 56  1  0  0  0
 48 65  1  0  0  0
 48123  1  0  0  0
 49 50  1  0  0  0
 49 53  1  0  0  0
 49 64  1  0  0  0
 49124  1  0  0  0
 50 51  1  0  0  0
 50125  1  0  0  0
 50126  1  0  0  0
 51 52  1  0  0  0
 51127  1  0  0  0
 51128  1  0  0  0
 52129  1  0  0  0
 52130  1  0  0  0
 53 54  1  0  0  0
 54 55  2  0  0  0
 54131  1  0  0  0
 55 57  1  0  0  0
 55132  1  0  0  0
 56 69  2  0  0  0
 57 58  2  0  0  0
 57133  1  0  0  0
 58134  1  0  0  0
 59 60  1  0  0  0
 59 61  1  0  0  0
 59 62  1  0  0  0
 60135  1  0  0  0
 60136  1  0  0  0
 60137  1  0  0  0
 61138  1  0  0  0
 61139  1  0  0  0
 61140  1  0  0  0
 62141  1  0  0  0
 62142  1  0  0  0
 62143  1  0  0  0
 63 65  1  0  0  0
 63144  1  0  0  0
 63145  1  0  0  0
 63146  1  0  0  0
 64147  1  0  0  0
 65148  1  0  0  0
 68 86  1  0  0  0
 71 72  2  0  0  0
 71 73  1  0  0  0
 71149  1  0  0  0
 72 74  1  0  0  0
 72 82  1  0  0  0
 73 76  2  0  0  0
 73 83  1  0  0  0
 74 75  2  0  0  0
 74 85  1  0  0  0
 75 76  1  0  0  0
 75 84  1  0  0  0
 76 88  1  0  0  0
 77 81  1  0  0  0
 77 87  1  0  0  0
 77 89  2  0  0  0
 78 79  1  0  0  0
 78 80  1  0  0  0
 78150  1  0  0  0
 78151  1  0  0  0
 79 81  1  0  0  0
 79152  1  0  0  0
 79153  1  0  0  0
 80 87  1  0  0  0
 80154  1  0  0  0
 80155  1  0  0  0
 81 86  1  0  0  0
 81156  1  0  0  0
 82157  1  0  0  0
 82158  1  0  0  0
 82159  1  0  0  0
 83160  1  0  0  0
 83161  1  0  0  0
 83162  1  0  0  0
 84163  1  0  0  0
 84164  1  0  0  0
 84165  1  0  0  0
 85 87  1  0  0  0
 85166  1  0  0  0
 85167  1  0  0  0
 86168  1  0  0  0
 86169  1  0  0  0
 88170  1  0  0  0
M  ISO  4   1 100  68 101  86 101  88 100
M  END
> <chiral flag>
0

> <version>
0

> <s_m_source_file>
/data/baiqing/PycharmProjects/Reinvent-master-3.2/result/LINK_invent/BTK/process_docking_weight1_custom_product_contain_oxygen_bond_distance_aromatic_linkinvent_7_9_3/rearranged_h_0036.sdf

> <i_m_source_file_index>
32

> <r_mmod_Potential_Energy-OPLS-2005>
31.5836982727051

> <r_mmod_Stretch_Energy-OPLS-2005>
62.1758651733398

> <r_mmod_Bend_Energy-OPLS-2005>
129.847137451172

> <r_mmod_Torsional_Energy-OPLS-2005>
253.256149291992

> <r_mmod_Improper_Torsional_Energy-OPLS-2005>
6.47334623336792

> <r_mmod_Van_der_Waal_Energy-OPLS-2005>
175.077423095703

> <r_mmod_Electrostatic_Energy-OPLS-2005>
-401.958953857422

> <r_mmod_Solvation_Energy-OPLS-2005>
-227.207000732422

> <b_mmod_Minimization_Converged-OPLS-2005>
0

> <r_mmod_RMS_Derivative-OPLS-2005>
6.03605699539185

$$$$
32
                    3D
 Structure written by MMmdl.
161169  0  0  1  0            999 V2000
  -30.7417  -14.3987   20.6230 C   0  0  0  0  0  0
  -30.4195  -12.2841   19.4091 C   0  0  0  0  0  0
  -29.4961  -12.5202   18.1990 C   0  0  0  0  0  0
  -28.0192  -12.3711   18.6137 C   0  0  0  0  0  0
  -27.6641  -13.2013   19.8755 C   0  0  2  0  0  0
  -28.7029  -12.9665   20.9979 C   0  0  0  0  0  0
  -25.2611  -13.8147   20.5668 C   0  0  0  0  0  0
  -24.1845  -13.0413   20.9139 C   0  0  0  0  0  0
  -24.6397  -11.6880   20.8716 C   0  0  0  0  0  0
  -23.9062  -10.4280   21.0409 C   0  0  0  0  0  0
  -24.3609   -9.4190   21.9193 C   0  0  0  0  0  0
  -23.6266   -8.2236   22.0790 C   0  0  0  0  0  0
  -22.4252   -8.0286   21.3571 C   0  0  0  0  0  0
  -21.9888   -9.0260   20.4670 C   0  0  0  0  0  0
  -22.7231  -10.2126   20.3060 C   0  0  0  0  0  0
  -21.6860   -6.0724   22.5282 C   0  0  0  0  0  0
  -21.4019   -6.5630   23.8215 C   0  0  0  0  0  0
  -21.3665   -5.6789   24.9186 C   0  0  0  0  0  0
  -21.6043   -4.3046   24.7232 C   0  0  0  0  0  0
  -21.8815   -3.8132   23.4356 C   0  0  0  0  0  0
  -21.9185   -4.6948   22.3407 C   0  0  0  0  0  0
  -22.7875  -13.5236   21.1782 C   0  0  0  0  0  0
  -22.1655   -4.2126   21.0984 F   0  0  0  0  0  0
  -21.5628   -3.4541   25.7747 F   0  0  0  0  0  0
  -30.0448  -13.2476   20.4525 N   0  0  0  0  0  0
  -26.3031  -12.9294   20.3331 N   0  0  0  0  0  0
  -25.9313  -11.6456   20.5721 N   0  0  0  0  0  0
  -22.0489  -12.8291   22.0366 N   0  0  0  0  0  0
  -25.4305  -15.1868   20.4121 N   0  0  0  0  0  0
  -31.8152  -14.6326   20.0620 O   0  0  0  0  0  0
  -21.6633   -6.8874   21.4251 O   0  0  0  0  0  0
  -22.3584  -14.5539   20.6607 O   0  0  0  0  0  0
  -24.6143  -31.8719   23.2135 C   0  0  0  0  0  0
  -25.9024  -32.4846   23.8445 C   0  0  1  0  0  0
  -27.2378  -27.4478   20.0710 C   0  0  0  0  0  0
  -25.5888  -33.8650   24.2378 N   0  0  0  0  0  0
  -23.4020  -30.4950   21.5557 C   0  0  2  0  0  0
  -24.8449  -28.9638   20.1205 C   0  0  0  0  0  0
  -22.7420  -29.4675   22.5039 C   0  0  0  0  0  0
  -18.0264  -28.1379   22.8520 C   0  0  0  0  0  0
  -24.1457  -36.7301   23.2649 C   0  0  0  0  0  0
  -25.9320  -30.8371   21.3671 C   0  0  0  0  0  0
  -26.0080  -29.4742   20.7075 C   0  0  0  0  0  0
  -27.2068  -28.7264   20.6742 C   0  0  0  0  0  0
  -26.0465  -26.9512   19.4851 C   0  0  0  0  0  0
  -24.8577  -27.7015   19.5078 C   0  0  0  0  0  0
  -23.6081  -29.8307   20.1702 C   0  0  0  0  0  0
  -25.4085  -36.3144   24.0364 C   0  0  1  0  0  0
  -20.5861  -28.3686   23.1320 C   0  0  2  0  0  0
  -20.6733  -26.9423   22.5417 C   0  0  0  0  0  0
  -19.5707  -26.6393   21.5211 C   0  0  0  0  0  0
  -18.1896  -26.7933   22.1644 C   0  0  0  0  0  0
  -19.1521  -28.8847   23.2920 C   0  0  0  0  0  0
  -18.9446  -30.1436   23.8955 C   0  0  0  0  0  0
  -17.6450  -30.6596   24.0556 C   0  0  0  0  0  0
  -25.9021  -34.9498   23.5173 C   0  0  0  0  0  0
  -16.5341  -29.9102   23.6314 C   0  0  0  0  0  0
  -16.7254  -28.6491   23.0387 C   0  0  0  0  0  0
  -26.4465  -31.6631   25.0767 C   0  0  0  0  0  0
  -25.3760  -31.3694   26.1539 C   0  0  0  0  0  0
  -27.0270  -30.3074   24.6109 C   0  0  0  0  0  0
  -27.6047  -32.4369   25.7502 C   0  0  0  0  0  0
  -27.5580  -37.1809   24.8494 C   0  0  0  0  0  0
  -21.4154  -29.3055   22.3751 N   0  0  0  0  0  0
  -26.4288  -37.3812   23.9438 N   0  0  0  0  0  0
  -24.6669  -31.0823   22.1030 N   0  0  0  0  0  0
  -23.4205  -28.8229   23.3074 O   0  0  0  0  0  0
  -28.4232  -26.7363   20.0670 O   0  0  0  0  0  0
  -26.5589  -34.8939   22.4738 O   0  0  0  0  0  0
  -23.5326  -32.1474   23.7525 O   0  0  0  0  0  0
  -29.3474  -17.2965   19.4551 C   0  0  0  0  0  0
  -29.8061  -19.3163   18.1884 C   0  0  0  0  0  0
  -30.3140  -17.6527   20.4235 C   0  0  0  0  0  0
  -30.7253  -19.7393   19.1723 C   0  0  0  0  0  0
  -30.9871  -18.9034   20.2998 C   0  0  0  0  0  0
  -29.1025  -18.1132   18.3417 C   0  0  0  0  0  0
  -31.9833  -19.3553   21.3652 C   0  0  0  0  0  0
  -30.6124  -16.6865   21.5810 C   0  0  0  0  0  0
  -31.3899  -21.1031   18.9698 C   0  0  0  0  0  0
  -28.3340  -25.3314   19.8115 C   0  0  0  0  0  0
  -29.6683  -24.6023   20.0283 C   0  0  0  0  0  0
  -30.1417  -15.3166   21.3885 N   0  0  0  0  0  0
  -30.4157  -22.1790   18.7379 N   0  0  0  0  0  0
  -29.9874  -22.2327   21.2697 O   0  0  0  0  0  0
  -28.0440  -22.4413   19.6584 O   0  0  0  0  0  0
  -29.4337  -22.7708   20.0208 S   0  0  0  0  0  0
  -27.9433  -17.6255   17.1621 Cl  0  0  0  0  0  0
  -31.4670  -12.3678   19.1131 H   0  0  0  0  0  0
  -30.3007  -11.2691   19.7889 H   0  0  0  0  0  0
  -29.7325  -11.8109   17.4032 H   0  0  0  0  0  0
  -29.6700  -13.5153   17.7830 H   0  0  0  0  0  0
  -27.8396  -11.3138   18.8086 H   0  0  0  0  0  0
  -27.3676  -12.6476   17.7833 H   0  0  0  0  0  0
  -27.7093  -14.2491   19.5819 H   0  0  0  0  0  0
  -28.6691  -11.9328   21.3429 H   0  0  0  0  0  0
  -28.4546  -13.5655   21.8753 H   0  0  0  0  0  0
  -25.2764   -9.5659   22.4762 H   0  0  0  0  0  0
  -23.9973   -7.4641   22.7519 H   0  0  0  0  0  0
  -21.0828   -8.8775   19.8988 H   0  0  0  0  0  0
  -22.3702  -10.9662   19.6161 H   0  0  0  0  0  0
  -21.2030   -7.6142   23.9711 H   0  0  0  0  0  0
  -21.1499   -6.0529   25.9089 H   0  0  0  0  0  0
  -22.0589   -2.7590   23.2866 H   0  0  0  0  0  0
  -22.4052  -11.9957   22.4800 H   0  0  0  0  0  0
  -21.1117  -13.1384   22.2505 H   0  0  0  0  0  0
  -24.6646  -15.8410   20.5336 H   0  0  0  0  0  0
  -26.2815  -15.6333   20.0951 H   0  0  0  0  0  0
  -26.7099  -32.5556   23.1217 H   0  0  0  0  0  0
  -25.0052  -33.9819   25.0536 H   0  0  0  0  0  0
  -22.6898  -31.3106   21.4189 H   0  0  0  0  0  0
  -23.3739  -35.9613   23.3358 H   0  0  0  0  0  0
  -24.3546  -36.8858   22.2053 H   0  0  0  0  0  0
  -23.7152  -37.6504   23.6613 H   0  0  0  0  0  0
  -26.0506  -31.6064   20.6041 H   0  0  0  0  0  0
  -26.8179  -30.8833   21.9894 H   0  0  0  0  0  0
  -28.1115  -29.1254   21.1144 H   0  0  0  0  0  0
  -26.0085  -25.9899   18.9943 H   0  0  0  0  0  0
  -23.9637  -27.3037   19.0466 H   0  0  0  0  0  0
  -23.7185  -30.6078   19.4122 H   0  0  0  0  0  0
  -22.7280  -29.2552   19.8753 H   0  0  0  0  0  0
  -25.1232  -36.2048   25.0849 H   0  0  0  0  0  0
  -20.9940  -28.3225   24.1443 H   0  0  0  0  0  0
  -20.5597  -26.2301   23.3608 H   0  0  0  0  0  0
  -21.6595  -26.7419   22.1223 H   0  0  0  0  0  0
  -19.6851  -25.6299   21.1235 H   0  0  0  0  0  0
  -19.6617  -27.3199   20.6735 H   0  0  0  0  0  0
  -17.4140  -26.6704   21.4061 H   0  0  0  0  0  0
  -18.0309  -26.0053   22.9026 H   0  0  0  0  0  0
  -19.7910  -30.7219   24.2387 H   0  0  0  0  0  0
  -17.4996  -31.6283   24.5144 H   0  0  0  0  0  0
  -15.5340  -30.3021   23.7573 H   0  0  0  0  0  0
  -15.8655  -28.0777   22.7156 H   0  0  0  0  0  0
  -24.5917  -30.7054   25.7890 H   0  0  0  0  0  0
  -24.8958  -32.2812   26.5088 H   0  0  0  0  0  0
  -25.8147  -30.8803   27.0244 H   0  0  0  0  0  0
  -26.2783  -29.6881   24.1146 H   0  0  0  0  0  0
  -27.4033  -29.7266   25.4545 H   0  0  0  0  0  0
  -27.8634  -30.4403   23.9243 H   0  0  0  0  0  0
  -27.2671  -33.3656   26.2111 H   0  0  0  0  0  0
  -28.3802  -32.6979   25.0294 H   0  0  0  0  0  0
  -28.0782  -31.8501   26.5383 H   0  0  0  0  0  0
  -28.2631  -38.0081   24.7527 H   0  0  0  0  0  0
  -28.1042  -36.2613   24.6326 H   0  0  0  0  0  0
  -27.2321  -37.1474   25.8909 H   0  0  0  0  0  0
  -20.9342  -29.8782   21.6965 H   0  0  0  0  0  0
  -26.0209  -38.2903   24.1432 H   0  0  0  0  0  0
  -28.7849  -16.3797   19.5398 H   0  0  0  0  0  0
  -29.6243  -19.9303   17.3170 H   0  0  0  0  0  0
  -32.9940  -19.3557   20.9592 H   0  0  0  0  0  0
  -31.7517  -20.3593   21.7189 H   0  0  0  0  0  0
  -31.9828  -18.7307   22.2549 H   0  0  0  0  0  0
  -30.1675  -17.0791   22.4964 H   0  0  0  0  0  0
  -31.6886  -16.6322   21.7511 H   0  0  0  0  0  0
  -32.0326  -21.0264   18.0917 H   0  0  0  0  0  0
  -32.0533  -21.3890   19.7831 H   0  0  0  0  0  0
  -28.0153  -25.1579   18.7848 H   0  0  0  0  0  0
  -27.5848  -24.8994   20.4786 H   0  0  0  0  0  0
  -30.0948  -24.8536   20.9981 H   0  0  0  0  0  0
  -30.4030  -24.8836   19.2774 H   0  0  0  0  0  0
  -29.2753  -15.0530   21.8338 H   0  0  0  0  0  0
  -30.7216  -22.8973   18.0783 H   0  0  0  0  0  0
  1 25  1  0  0  0
  1 30  2  0  0  0
  1 82  1  0  0  0
  2  3  1  0  0  0
  2 25  1  0  0  0
  2 88  1  0  0  0
  2 89  1  0  0  0
  3  4  1  0  0  0
  3 90  1  0  0  0
  3 91  1  0  0  0
  4  5  1  0  0  0
  4 92  1  0  0  0
  4 93  1  0  0  0
  5  6  1  0  0  0
  5 26  1  0  0  0
  5 94  1  0  0  0
  6 25  1  0  0  0
  6 95  1  0  0  0
  6 96  1  0  0  0
  7  8  2  0  0  0
  7 26  1  0  0  0
  7 29  1  0  0  0
  8  9  1  0  0  0
  8 22  1  0  0  0
  9 10  1  0  0  0
  9 27  2  0  0  0
 10 11  2  0  0  0
 10 15  1  0  0  0
 11 12  1  0  0  0
 11 97  1  0  0  0
 12 13  2  0  0  0
 12 98  1  0  0  0
 13 14  1  0  0  0
 13 31  1  0  0  0
 14 15  2  0  0  0
 14 99  1  0  0  0
 15100  1  0  0  0
 16 17  2  0  0  0
 16 21  1  0  0  0
 16 31  1  0  0  0
 17 18  1  0  0  0
 17101  1  0  0  0
 18 19  2  0  0  0
 18102  1  0  0  0
 19 20  1  0  0  0
 19 24  1  0  0  0
 20 21  2  0  0  0
 20103  1  0  0  0
 21 23  1  0  0  0
 22 28  1  0  0  0
 22 32  2  0  0  0
 26 27  1  0  0  0
 28104  1  0  0  0
 28105  1  0  0  0
 29106  1  0  0  0
 29107  1  0  0  0
 33 34  1  0  0  0
 33 66  1  0  0  0
 33 70  2  0  0  0
 34 36  1  0  0  0
 34 59  1  0  0  0
 34108  1  0  0  0
 35 44  2  0  0  0
 35 45  1  0  0  0
 35 68  1  0  0  0
 36 56  1  0  0  0
 36109  1  0  0  0
 37 39  1  0  0  0
 37 47  1  0  0  0
 37 66  1  0  0  0
 37110  1  0  0  0
 38 43  2  0  0  0
 38 46  1  0  0  0
 38 47  1  0  0  0
 39 64  1  0  0  0
 39 67  2  0  0  0
 40 52  1  0  0  0
 40 53  2  0  0  0
 40 58  1  0  0  0
 41111  1  0  0  0
 41112  1  0  0  0
 41113  1  0  0  0
 41 48  1  0  0  0
 42 43  1  0  0  0
 42 66  1  0  0  0
 42114  1  0  0  0
 42115  1  0  0  0
 43 44  1  0  0  0
 44116  1  0  0  0
 45 46  2  0  0  0
 45117  1  0  0  0
 46118  1  0  0  0
 47119  1  0  0  0
 47120  1  0  0  0
 48 56  1  0  0  0
 48 65  1  0  0  0
 48121  1  0  0  0
 49 50  1  0  0  0
 49 53  1  0  0  0
 49 64  1  0  0  0
 49122  1  0  0  0
 50 51  1  0  0  0
 50123  1  0  0  0
 50124  1  0  0  0
 51 52  1  0  0  0
 51125  1  0  0  0
 51126  1  0  0  0
 52127  1  0  0  0
 52128  1  0  0  0
 53 54  1  0  0  0
 54 55  2  0  0  0
 54129  1  0  0  0
 55 57  1  0  0  0
 55130  1  0  0  0
 56 69  2  0  0  0
 57 58  2  0  0  0
 57131  1  0  0  0
 58132  1  0  0  0
 59 60  1  0  0  0
 59 61  1  0  0  0
 59 62  1  0  0  0
 60133  1  0  0  0
 60134  1  0  0  0
 60135  1  0  0  0
 61136  1  0  0  0
 61137  1  0  0  0
 61138  1  0  0  0
 62139  1  0  0  0
 62140  1  0  0  0
 62141  1  0  0  0
 63 65  1  0  0  0
 63142  1  0  0  0
 63143  1  0  0  0
 63144  1  0  0  0
 64145  1  0  0  0
 65146  1  0  0  0
 68 80  1  0  0  0
 71 73  2  0  0  0
 71 76  1  0  0  0
 71147  1  0  0  0
 72 74  1  0  0  0
 72 76  2  0  0  0
 72148  1  0  0  0
 73 75  1  0  0  0
 73 78  1  0  0  0
 74 75  2  0  0  0
 74 79  1  0  0  0
 75 77  1  0  0  0
 76 87  1  0  0  0
 77149  1  0  0  0
 77150  1  0  0  0
 77151  1  0  0  0
 78 82  1  0  0  0
 78152  1  0  0  0
 78153  1  0  0  0
 79 83  1  0  0  0
 79154  1  0  0  0
 79155  1  0  0  0
 80 81  1  0  0  0
 80156  1  0  0  0
 80157  1  0  0  0
 81158  1  0  0  0
 81159  1  0  0  0
 81 86  1  0  0  0
 82160  1  0  0  0
 83 86  1  0  0  0
 83161  1  0  0  0
 84 86  2  0  0  0
 85 86  2  0  0  0
M  ISO  4   1 100  68 101  80 101  82 100
M  END
> <chiral flag>
0

> <version>
0

> <s_m_source_file>
/data/baiqing/PycharmProjects/Reinvent-master-3.2/result/LINK_invent/BTK/process_docking_weight1_custom_product_contain_oxygen_bond_distance_aromatic_linkinvent_7_9_3/rearranged_h_0036.sdf

> <i_m_source_file_index>
33

> <r_mmod_Potential_Energy-OPLS-2005>
-381.279937744141

> <r_mmod_Stretch_Energy-OPLS-2005>
36.0243911743164

> <r_mmod_Bend_Energy-OPLS-2005>
94.808708190918

> <r_mmod_Torsional_Energy-OPLS-2005>
200.363998413086

> <r_mmod_Improper_Torsional_Energy-OPLS-2005>
5.2358283996582

> <r_mmod_Van_der_Waal_Energy-OPLS-2005>
157.952133178711

> <r_mmod_Electrostatic_Energy-OPLS-2005>
-619.210998535156

> <r_mmod_Solvation_Energy-OPLS-2005>
-265.120178222656

> <b_mmod_Minimization_Converged-OPLS-2005>
0

> <r_mmod_RMS_Derivative-OPLS-2005>
3.46399927139282

$$$$
33
                    3D
 Structure written by MMmdl.
190199  0  0  1  0            999 V2000
  -30.6929  -14.5773   20.5443 C   0  0  0  0  0  0
  -30.4041  -12.3789   19.4120 C   0  0  0  0  0  0
  -29.4742  -12.5358   18.1879 C   0  0  0  0  0  0
  -27.9979  -12.3678   18.5990 C   0  0  0  0  0  0
  -27.6399  -13.2061   19.8552 C   0  0  2  0  0  0
  -28.6883  -12.9705   20.9606 C   0  0  0  0  0  0
  -25.2471  -13.8084   20.5634 C   0  0  0  0  0  0
  -24.1771  -13.0398   20.9178 C   0  0  0  0  0  0
  -24.6316  -11.6856   20.8682 C   0  0  0  0  0  0
  -23.8993  -10.4254   21.0385 C   0  0  0  0  0  0
  -24.3553   -9.4177   21.9179 C   0  0  0  0  0  0
  -23.6255   -8.2210   22.0772 C   0  0  0  0  0  0
  -22.4233   -8.0246   21.3570 C   0  0  0  0  0  0
  -21.9835   -9.0207   20.4661 C   0  0  0  0  0  0
  -22.7147  -10.2093   20.3058 C   0  0  0  0  0  0
  -21.6831   -6.0708   22.5312 C   0  0  0  0  0  0
  -21.4006   -6.5630   23.8235 C   0  0  0  0  0  0
  -21.3655   -5.6791   24.9202 C   0  0  0  0  0  0
  -21.6048   -4.3059   24.7271 C   0  0  0  0  0  0
  -21.8811   -3.8139   23.4393 C   0  0  0  0  0  0
  -21.9186   -4.6938   22.3442 C   0  0  0  0  0  0
  -22.7813  -13.5215   21.1932 C   0  0  0  0  0  0
  -22.1645   -4.2118   21.1015 F   0  0  0  0  0  0
  -21.5613   -3.4559   25.7785 F   0  0  0  0  0  0
  -29.9960  -13.3898   20.4187 N   0  0  0  0  0  0
  -26.2881  -12.9280   20.3263 N   0  0  0  0  0  0
  -25.9224  -11.6440   20.5652 N   0  0  0  0  0  0
  -22.0476  -12.8211   22.0477 N   0  0  0  0  0  0
  -25.4216  -15.1800   20.3986 N   0  0  0  0  0  0
  -31.8432  -14.6302   20.0975 O   0  0  0  0  0  0
  -21.6616   -6.8840   21.4274 O   0  0  0  0  0  0
  -22.3544  -14.5602   20.6849 O   0  0  0  0  0  0
  -24.6261  -31.8675   23.2038 C   0  0  0  0  0  0
  -25.9159  -32.4839   23.8315 C   0  0  1  0  0  0
  -27.2398  -27.3538   20.1534 C   0  0  0  0  0  0
  -25.5992  -33.8615   24.2268 N   0  0  0  0  0  0
  -23.4183  -30.4864   21.5437 C   0  0  2  0  0  0
  -24.8789  -28.9432   20.1170 C   0  0  0  0  0  0
  -22.7487  -29.4668   22.4922 C   0  0  0  0  0  0
  -18.0318  -28.1399   22.8550 C   0  0  0  0  0  0
  -24.1469  -36.7278   23.2620 C   0  0  0  0  0  0
  -25.9568  -30.8052   21.3816 C   0  0  0  0  0  0
  -26.0383  -29.4310   20.7358 C   0  0  0  0  0  0
  -27.2251  -28.6442   20.7555 C   0  0  0  0  0  0
  -26.0822  -26.9264   19.4750 C   0  0  0  0  0  0
  -24.8994  -27.6906   19.4794 C   0  0  0  0  0  0
  -23.6432  -29.8189   20.1600 C   0  0  0  0  0  0
  -25.4099  -36.3088   24.0306 C   0  0  1  0  0  0
  -20.5918  -28.3712   23.1307 C   0  0  2  0  0  0
  -20.6803  -26.9428   22.5413 C   0  0  0  0  0  0
  -19.5729  -26.6411   21.5248 C   0  0  0  0  0  0
  -18.1925  -26.7965   22.1665 C   0  0  0  0  0  0
  -19.1571  -28.8858   23.2943 C   0  0  0  0  0  0
  -18.9466  -30.1489   23.8921 C   0  0  0  0  0  0
  -17.6443  -30.6598   24.0591 C   0  0  0  0  0  0
  -25.9049  -34.9487   23.5068 C   0  0  0  0  0  0
  -16.5352  -29.9084   23.6362 C   0  0  0  0  0  0
  -16.7301  -28.6510   23.0396 C   0  0  0  0  0  0
  -26.4558  -31.6598   25.0634 C   0  0  0  0  0  0
  -25.3753  -31.3699   26.1287 C   0  0  0  0  0  0
  -27.0373  -30.3009   24.6086 C   0  0  0  0  0  0
  -27.6136  -32.4291   25.7422 C   0  0  0  0  0  0
  -27.5552  -37.1802   24.8456 C   0  0  0  0  0  0
  -21.4190  -29.3060   22.3671 N   0  0  0  0  0  0
  -26.4279  -37.3792   23.9393 N   0  0  0  0  0  0
  -24.6839  -31.0700   22.1007 N   0  0  0  0  0  0
  -23.4225  -28.8246   23.3018 O   0  0  0  0  0  0
  -28.3192  -26.4705   20.2024 O   0  0  0  0  0  0
  -26.5559  -34.8968   22.4600 O   0  0  0  0  0  0
  -23.5449  -32.1455   23.7395 O   0  0  0  0  0  0
  -29.4192  -17.9704   18.8880 C   0  0  0  0  0  0
  -28.9607  -18.9764   18.0124 C   0  0  0  0  0  0
  -30.1679  -18.2663   20.0373 C   0  0  0  0  0  0
  -29.2223  -20.3442   18.3107 C   0  0  0  0  0  0
  -30.3974  -19.6441   20.3710 C   0  0  0  0  0  0
  -29.8814  -20.7119   19.5394 C   0  0  0  0  0  0
  -29.4328  -24.3769   21.2600 C   0  0  0  0  0  0
  -31.5244  -15.3946   15.1097 C   0  0  0  0  0  0
  -30.5077  -24.5725   22.0631 C   0  0  0  0  0  0
  -30.2610  -15.7747   15.3699 C   0  0  0  0  0  0
  -29.9480  -17.1687   15.6054 C   0  0  0  0  0  0
  -26.5989  -23.4912   20.7427 C   0  0  0  0  0  0
  -26.9128  -24.7456   21.5721 C   0  0  0  0  0  0
  -27.7926  -23.0353   19.8987 C   0  0  0  0  0  0
  -28.2733  -25.4395   21.2554 C   0  0  2  0  0  0
  -28.8243  -21.3705   17.2351 C   0  0  0  0  0  0
  -31.2406  -19.9447   21.6159 C   0  0  0  0  0  0
  -31.5755  -23.5961   22.5402 C   0  0  0  0  0  0
  -28.6648  -17.1294   22.6639 C   0  0  0  0  0  0
  -28.2338  -18.5511   16.7176 C   0  0  0  0  0  0
  -30.8146  -17.0708   20.8058 C   0  0  0  0  0  0
  -30.1297  -22.2351   19.8928 C   0  0  0  0  0  0
  -28.9842  -15.8059   21.9380 C   0  0  0  0  0  0
  -28.7371  -17.3072   16.1488 N   0  0  0  0  0  0
  -30.0804  -15.7603   20.9425 N   0  0  0  0  0  0
  -29.0613  -22.9869   20.6688 N   0  3  2  0  0  0
  -30.6942  -18.1221   15.3763 O   0  0  0  0  0  0
  -31.4420  -12.4692   19.0966 H   0  0  0  0  0  0
  -30.3218  -11.3689   19.8158 H   0  0  0  0  0  0
  -29.7336  -11.8124   17.4135 H   0  0  0  0  0  0
  -29.6216  -13.5236   17.7445 H   0  0  0  0  0  0
  -27.8206  -11.3084   18.7914 H   0  0  0  0  0  0
  -27.3422  -12.6351   17.7698 H   0  0  0  0  0  0
  -27.6721  -14.2524   19.5502 H   0  0  0  0  0  0
  -28.7080  -11.9064   21.2052 H   0  0  0  0  0  0
  -28.4000  -13.4098   21.9070 H   0  0  0  0  0  0
  -25.2692   -9.5696   22.4732 H   0  0  0  0  0  0
  -23.9996   -7.4601   22.7467 H   0  0  0  0  0  0
  -21.0778   -8.8674   19.8944 H   0  0  0  0  0  0
  -22.3560  -10.9622   19.6161 H   0  0  0  0  0  0
  -21.1977   -7.6127   23.9760 H   0  0  0  0  0  0
  -21.1489   -6.0503   25.9112 H   0  0  0  0  0  0
  -22.0584   -2.7602   23.2912 H   0  0  0  0  0  0
  -22.4086  -11.9786   22.4699 H   0  0  0  0  0  0
  -21.1171  -13.1332   22.2903 H   0  0  0  0  0  0
  -24.6555  -15.8341   20.5118 H   0  0  0  0  0  0
  -26.2887  -15.6200   20.1199 H   0  0  0  0  0  0
  -26.7219  -32.5606   23.1063 H   0  0  0  0  0  0
  -25.0341  -33.9765   25.0539 H   0  0  0  0  0  0
  -22.7056  -31.2991   21.3938 H   0  0  0  0  0  0
  -23.3765  -35.9587   23.3327 H   0  0  0  0  0  0
  -24.3511  -36.8854   22.2014 H   0  0  0  0  0  0
  -23.7195  -37.6483   23.6620 H   0  0  0  0  0  0
  -26.0746  -31.5641   20.6063 H   0  0  0  0  0  0
  -26.8429  -30.8665   22.0056 H   0  0  0  0  0  0
  -28.1085  -29.0112   21.2615 H   0  0  0  0  0  0
  -26.0899  -25.9638   18.9832 H   0  0  0  0  0  0
  -24.0161  -27.3080   18.9870 H   0  0  0  0  0  0
  -23.7561  -30.5910   19.3972 H   0  0  0  0  0  0
  -22.7708  -29.2346   19.8630 H   0  0  0  0  0  0
  -25.1287  -36.1905   25.0800 H   0  0  0  0  0  0
  -21.0056  -28.3317   24.1418 H   0  0  0  0  0  0
  -20.5753  -26.2317   23.3629 H   0  0  0  0  0  0
  -21.6659  -26.7487   22.1143 H   0  0  0  0  0  0
  -19.6846  -25.6315   21.1276 H   0  0  0  0  0  0
  -19.6660  -27.3225   20.6776 H   0  0  0  0  0  0
  -17.4222  -26.6857   21.4043 H   0  0  0  0  0  0
  -18.0257  -26.0053   22.8977 H   0  0  0  0  0  0
  -19.7920  -30.7377   24.2266 H   0  0  0  0  0  0
  -17.4968  -31.6283   24.5170 H   0  0  0  0  0  0
  -15.5337  -30.2970   23.7641 H   0  0  0  0  0  0
  -15.8746  -28.0819   22.7074 H   0  0  0  0  0  0
  -24.6023  -30.6986   25.7511 H   0  0  0  0  0  0
  -24.8865  -32.2872   26.4597 H   0  0  0  0  0  0
  -25.8023  -30.8901   27.0101 H   0  0  0  0  0  0
  -26.2891  -29.6726   24.1253 H   0  0  0  0  0  0
  -27.4160  -29.7289   25.4560 H   0  0  0  0  0  0
  -27.8748  -30.4186   23.9204 H   0  0  0  0  0  0
  -27.2796  -33.3615   26.1971 H   0  0  0  0  0  0
  -28.4024  -32.6785   25.0312 H   0  0  0  0  0  0
  -28.0769  -31.8424   26.5370 H   0  0  0  0  0  0
  -28.2614  -38.0069   24.7526 H   0  0  0  0  0  0
  -28.1011  -36.2599   24.6288 H   0  0  0  0  0  0
  -27.2260  -37.1444   25.8865 H   0  0  0  0  0  0
  -20.9337  -29.8738   21.6843 H   0  0  0  0  0  0
  -26.0161  -38.2871   24.1434 H   0  0  0  0  0  0
  -29.2624  -16.9341   18.6367 H   0  0  0  0  0  0
  -31.7585  -14.3536   14.9444 H   0  0  0  0  0  0
  -32.3405  -16.1045   15.0608 H   0  0  0  0  0  0
  -30.6221  -25.5653   22.4765 H   0  0  0  0  0  0
  -29.4841  -15.0286   15.4047 H   0  0  0  0  0  0
  -25.7476  -23.6670   20.0815 H   0  0  0  0  0  0
  -26.2823  -22.6918   21.4213 H   0  0  0  0  0  0
  -26.9705  -24.4204   22.6117 H   0  0  0  0  0  0
  -26.0629  -25.4264   21.5872 H   0  0  0  0  0  0
  -27.9248  -23.7192   19.0575 H   0  0  0  0  0  0
  -27.5401  -22.0659   19.4748 H   0  0  0  0  0  0
  -28.4539  -26.0505   22.1429 H   0  0  0  0  0  0
  -29.4330  -21.2370   16.3341 H   0  0  0  0  0  0
  -28.9313  -22.4095   17.5170 H   0  0  0  0  0  0
  -27.7781  -21.2537   16.9444 H   0  0  0  0  0  0
  -31.9810  -19.1743   21.8181 H   0  0  0  0  0  0
  -30.6059  -20.0463   22.4997 H   0  0  0  0  0  0
  -31.8745  -20.8172   21.5268 H   0  0  0  0  0  0
  -31.2147  -22.5724   22.5981 H   0  0  0  0  0  0
  -31.8819  -23.8490   23.5587 H   0  0  0  0  0  0
  -32.4614  -23.6424   21.9065 H   0  0  0  0  0  0
  -27.8068  -16.9779   23.3178 H   0  0  0  0  0  0
  -28.3853  -17.9359   21.9875 H   0  0  0  0  0  0
  -29.4873  -17.4555   23.3019 H   0  0  0  0  0  0
  -28.3083  -19.2941   15.9268 H   0  0  0  0  0  0
  -27.1655  -18.4345   16.9128 H   0  0  0  0  0  0
  -31.0953  -17.3390   21.8186 H   0  0  0  0  0  0
  -31.7805  -16.9549   20.3114 H   0  0  0  0  0  0
  -30.3513  -22.7914   18.9880 H   0  0  0  0  0  0
  -31.0816  -22.3238   20.3962 H   0  0  0  0  0  0
  -28.0618  -15.4857   21.4609 H   0  0  0  0  0  0
  -29.2398  -15.1057   22.7309 H   0  0  0  0  0  0
  -28.1571  -16.4863   16.2458 H   0  0  0  0  0  0
  -28.8603  -22.3824   21.4491 H   0  0  0  0  0  0
  1 25  1  0  0  0
  1 30  2  0  0  0
  1 95  1  0  0  0
  2  3  1  0  0  0
  2 25  1  0  0  0
  2 98  1  0  0  0
  2 99  1  0  0  0
  3  4  1  0  0  0
  3100  1  0  0  0
  3101  1  0  0  0
  4  5  1  0  0  0
  4102  1  0  0  0
  4103  1  0  0  0
  5  6  1  0  0  0
  5 26  1  0  0  0
  5104  1  0  0  0
  6 25  1  0  0  0
  6105  1  0  0  0
  6106  1  0  0  0
  7  8  2  0  0  0
  7 26  1  0  0  0
  7 29  1  0  0  0
  8  9  1  0  0  0
  8 22  1  0  0  0
  9 10  1  0  0  0
  9 27  2  0  0  0
 10 11  2  0  0  0
 10 15  1  0  0  0
 11 12  1  0  0  0
 11107  1  0  0  0
 12 13  2  0  0  0
 12108  1  0  0  0
 13 14  1  0  0  0
 13 31  1  0  0  0
 14 15  2  0  0  0
 14109  1  0  0  0
 15110  1  0  0  0
 16 17  2  0  0  0
 16 21  1  0  0  0
 16 31  1  0  0  0
 17 18  1  0  0  0
 17111  1  0  0  0
 18 19  2  0  0  0
 18112  1  0  0  0
 19 20  1  0  0  0
 19 24  1  0  0  0
 20 21  2  0  0  0
 20113  1  0  0  0
 21 23  1  0  0  0
 22 28  1  0  0  0
 22 32  2  0  0  0
 26 27  1  0  0  0
 28114  1  0  0  0
 28115  1  0  0  0
 29116  1  0  0  0
 29117  1  0  0  0
 33 34  1  0  0  0
 33 66  1  0  0  0
 33 70  2  0  0  0
 34 36  1  0  0  0
 34 59  1  0  0  0
 34118  1  0  0  0
 35 44  2  0  0  0
 35 45  1  0  0  0
 35 68  1  0  0  0
 36 56  1  0  0  0
 36119  1  0  0  0
 37 39  1  0  0  0
 37 47  1  0  0  0
 37 66  1  0  0  0
 37120  1  0  0  0
 38 43  2  0  0  0
 38 46  1  0  0  0
 38 47  1  0  0  0
 39 64  1  0  0  0
 39 67  2  0  0  0
 40 52  1  0  0  0
 40 53  2  0  0  0
 40 58  1  0  0  0
 41121  1  0  0  0
 41122  1  0  0  0
 41123  1  0  0  0
 41 48  1  0  0  0
 42 43  1  0  0  0
 42 66  1  0  0  0
 42124  1  0  0  0
 42125  1  0  0  0
 43 44  1  0  0  0
 44126  1  0  0  0
 45 46  2  0  0  0
 45127  1  0  0  0
 46128  1  0  0  0
 47129  1  0  0  0
 47130  1  0  0  0
 48 56  1  0  0  0
 48 65  1  0  0  0
 48131  1  0  0  0
 49 50  1  0  0  0
 49 53  1  0  0  0
 49 64  1  0  0  0
 49132  1  0  0  0
 50 51  1  0  0  0
 50133  1  0  0  0
 50134  1  0  0  0
 51 52  1  0  0  0
 51135  1  0  0  0
 51136  1  0  0  0
 52137  1  0  0  0
 52138  1  0  0  0
 53 54  1  0  0  0
 54 55  2  0  0  0
 54139  1  0  0  0
 55 57  1  0  0  0
 55140  1  0  0  0
 56 69  2  0  0  0
 57 58  2  0  0  0
 57141  1  0  0  0
 58142  1  0  0  0
 59 60  1  0  0  0
 59 61  1  0  0  0
 59 62  1  0  0  0
 60143  1  0  0  0
 60144  1  0  0  0
 60145  1  0  0  0
 61146  1  0  0  0
 61147  1  0  0  0
 61148  1  0  0  0
 62149  1  0  0  0
 62150  1  0  0  0
 62151  1  0  0  0
 63 65  1  0  0  0
 63152  1  0  0  0
 63153  1  0  0  0
 63154  1  0  0  0
 64155  1  0  0  0
 65156  1  0  0  0
 68 85  1  0  0  0
 71 72  2  0  0  0
 71 73  1  0  0  0
 71157  1  0  0  0
 72 74  1  0  0  0
 72 90  1  0  0  0
 73 75  2  0  0  0
 73 91  1  0  0  0
 74 76  2  0  0  0
 74 86  1  0  0  0
 75 76  1  0  0  0
 75 87  1  0  0  0
 76 92  1  0  0  0
 77 79  2  0  0  0
 77 85  1  0  0  0
 77 96  1  0  0  0
 78 80  2  0  0  0
 78158  1  0  0  0
 78159  1  0  0  0
 79 88  1  0  0  0
 79160  1  0  0  0
 80 81  1  0  0  0
 80161  1  0  0  0
 81 94  1  0  0  0
 81 97  2  0  0  0
 82 83  1  0  0  0
 82 84  1  0  0  0
 82162  1  0  0  0
 82163  1  0  0  0
 83 85  1  0  0  0
 83164  1  0  0  0
 83165  1  0  0  0
 84 96  1  0  0  0
 84166  1  0  0  0
 84167  1  0  0  0
 85168  1  0  0  0
 86169  1  0  0  0
 86170  1  0  0  0
 86171  1  0  0  0
 87172  1  0  0  0
 87173  1  0  0  0
 87174  1  0  0  0
 88175  1  0  0  0
 88176  1  0  0  0
 88177  1  0  0  0
 89 93  1  0  0  0
 89178  1  0  0  0
 89179  1  0  0  0
 89180  1  0  0  0
 90 94  1  0  0  0
 90181  1  0  0  0
 90182  1  0  0  0
 91 95  1  0  0  0
 91183  1  0  0  0
 91184  1  0  0  0
 92185  1  0  0  0
 92186  1  0  0  0
 92 96  1  0  0  0
 93 95  1  0  0  0
 93187  1  0  0  0
 93188  1  0  0  0
 94189  1  0  0  0
 96190  1  0  0  0
M  CHG  1  96   1
M  ISO  4   1 100  68 101  85 101  95 100
M  END
> <chiral flag>
0

> <version>
0

> <s_m_source_file>
/data/baiqing/PycharmProjects/Reinvent-master-3.2/result/LINK_invent/BTK/process_docking_weight1_custom_product_contain_oxygen_bond_distance_aromatic_linkinvent_7_9_3/rearranged_h_0036.sdf

> <i_m_source_file_index>
34

> <r_mmod_Potential_Energy-OPLS-2005>
106.648735046387

> <r_mmod_Stretch_Energy-OPLS-2005>
101.831611633301

> <r_mmod_Bend_Energy-OPLS-2005>
201.0166015625

> <r_mmod_Torsional_Energy-OPLS-2005>
311.362884521484

> <r_mmod_Improper_Torsional_Energy-OPLS-2005>
8.05653190612793

> <r_mmod_Van_der_Waal_Energy-OPLS-2005>
198.843124389648

> <r_mmod_Electrostatic_Energy-OPLS-2005>
-324.147003173828

> <r_mmod_Solvation_Energy-OPLS-2005>
-427.731109619141

> <b_mmod_Minimization_Converged-OPLS-2005>
0

> <r_mmod_RMS_Derivative-OPLS-2005>
7.09806537628174

$$$$
34
                    3D
 Structure written by MMmdl.
159167  0  0  1  0            999 V2000
  -30.6274  -14.5325   20.5326 C   0  0  0  0  0  0
  -30.4203  -12.3287   19.4460 C   0  0  0  0  0  0
  -29.5019  -12.5223   18.2191 C   0  0  0  0  0  0
  -28.0160  -12.3768   18.6145 C   0  0  0  0  0  0
  -27.6525  -13.2065   19.8727 C   0  0  2  0  0  0
  -28.6870  -12.9975   20.9996 C   0  0  0  0  0  0
  -25.2510  -13.8109   20.5623 C   0  0  0  0  0  0
  -24.1796  -13.0413   20.9184 C   0  0  0  0  0  0
  -24.6366  -11.6894   20.8748 C   0  0  0  0  0  0
  -23.9030  -10.4286   21.0418 C   0  0  0  0  0  0
  -24.3592   -9.4202   21.9181 C   0  0  0  0  0  0
  -23.6283   -8.2237   22.0742 C   0  0  0  0  0  0
  -22.4264   -8.0269   21.3544 C   0  0  0  0  0  0
  -21.9900   -9.0235   20.4637 C   0  0  0  0  0  0
  -22.7214  -10.2127   20.3053 C   0  0  0  0  0  0
  -21.6852   -6.0725   22.5274 C   0  0  0  0  0  0
  -21.4012   -6.5633   23.8207 C   0  0  0  0  0  0
  -21.3664   -5.6789   24.9166 C   0  0  0  0  0  0
  -21.6049   -4.3053   24.7218 C   0  0  0  0  0  0
  -21.8824   -3.8143   23.4341 C   0  0  0  0  0  0
  -21.9194   -4.6956   22.3397 C   0  0  0  0  0  0
  -22.7841  -13.5209   21.1858 C   0  0  0  0  0  0
  -22.1664   -4.2147   21.0974 F   0  0  0  0  0  0
  -21.5635   -3.4530   25.7733 F   0  0  0  0  0  0
  -30.0126  -13.3194   20.4519 N   0  0  0  0  0  0
  -26.2939  -12.9318   20.3295 N   0  0  0  0  0  0
  -25.9273  -11.6489   20.5701 N   0  0  0  0  0  0
  -22.0479  -12.8207   22.0420 N   0  0  0  0  0  0
  -25.4222  -15.1795   20.3921 N   0  0  0  0  0  0
  -31.7765  -14.7216   20.1194 O   0  0  0  0  0  0
  -21.6640   -6.8852   21.4237 O   0  0  0  0  0  0
  -22.3555  -14.5519   20.6716 O   0  0  0  0  0  0
  -24.6165  -31.8681   23.2092 C   0  0  0  0  0  0
  -25.9052  -32.4825   23.8393 C   0  0  1  0  0  0
  -27.2213  -27.3849   20.0937 C   0  0  0  0  0  0
  -25.5905  -33.8624   24.2329 N   0  0  0  0  0  0
  -23.4049  -30.4961   21.5480 C   0  0  2  0  0  0
  -24.8476  -28.9539   20.1121 C   0  0  0  0  0  0
  -22.7395  -29.4699   22.4948 C   0  0  0  0  0  0
  -18.0293  -28.1368   22.8538 C   0  0  0  0  0  0
  -24.1489  -36.7306   23.2639 C   0  0  0  0  0  0
  -25.9385  -30.8166   21.3698 C   0  0  0  0  0  0
  -26.0125  -29.4476   20.7099 C   0  0  0  0  0  0
  -27.1991  -28.6718   20.6965 C   0  0  0  0  0  0
  -26.0281  -26.9095   19.5028 C   0  0  0  0  0  0
  -24.8544  -27.6860   19.5088 C   0  0  0  0  0  0
  -23.6137  -29.8305   20.1623 C   0  0  0  0  0  0
  -25.4116  -36.3104   24.0334 C   0  0  1  0  0  0
  -20.5888  -28.3751   23.1389 C   0  0  2  0  0  0
  -20.6741  -26.9433   22.5646 C   0  0  0  0  0  0
  -19.5853  -26.6460   21.5317 C   0  0  0  0  0  0
  -18.2028  -26.7889   22.1771 C   0  0  0  0  0  0
  -19.1525  -28.8889   23.2910 C   0  0  0  0  0  0
  -18.9416  -30.1537   23.8820 C   0  0  0  0  0  0
  -17.6393  -30.6633   24.0454 C   0  0  0  0  0  0
  -25.9045  -34.9471   23.5123 C   0  0  0  0  0  0
  -16.5328  -29.9059   23.6259 C   0  0  0  0  0  0
  -16.7278  -28.6434   23.0360 C   0  0  0  0  0  0
  -26.4476  -31.6605   25.0724 C   0  0  0  0  0  0
  -25.3746  -31.3693   26.1473 C   0  0  0  0  0  0
  -27.0318  -30.3043   24.6132 C   0  0  0  0  0  0
  -27.6049  -32.4321   25.7499 C   0  0  0  0  0  0
  -27.5582  -37.1809   24.8465 C   0  0  0  0  0  0
  -21.4122  -29.3075   22.3679 N   0  0  0  0  0  0
  -26.4298  -37.3794   23.9407 N   0  0  0  0  0  0
  -24.6703  -31.0745   22.0996 N   0  0  0  0  0  0
  -23.4147  -28.8253   23.2997 O   0  0  0  0  0  0
  -28.3980  -26.6456   20.1081 O   0  0  0  0  0  0
  -26.5604  -34.8928   22.4685 O   0  0  0  0  0  0
  -23.5348  -32.1455   23.7479 O   0  0  0  0  0  0
  -27.7725  -17.5183   21.6233 C   0  0  0  0  0  0
  -26.9291  -19.7817   21.9361 C   0  0  0  0  0  0
  -28.9745  -18.0124   21.0708 C   0  0  0  0  0  0
  -28.1290  -20.3349   21.4294 C   0  0  0  0  0  0
  -29.1371  -19.4358   20.9513 C   0  0  0  0  0  0
  -26.7577  -18.3905   22.0468 C   0  0  0  0  0  0
  -30.4072  -20.0230   20.3484 C   0  0  0  0  0  0
  -30.0808  -17.0045   20.6593 C   0  0  0  0  0  0
  -28.3331  -21.8707   21.6061 C   0  0  0  0  0  0
  -27.9880  -24.2256   20.7609 C   0  0  0  0  0  0
  -28.4347  -25.2567   19.6709 C   0  0  0  0  0  0
  -29.8230  -15.5630   20.8860 N   0  0  0  0  0  0
  -28.1772  -22.7666   20.4206 N   0  3  0  0  0  0
  -25.3326  -17.7503   22.7716 Cl  0  0  0  0  0  0
  -31.4681  -12.4375   19.1624 H   0  0  0  0  0  0
  -30.3194  -11.3173   19.8462 H   0  0  0  0  0  0
  -29.7570  -11.8079   17.4346 H   0  0  0  0  0  0
  -29.6685  -13.5128   17.7939 H   0  0  0  0  0  0
  -27.8200  -11.3192   18.7943 H   0  0  0  0  0  0
  -27.3803  -12.6639   17.7782 H   0  0  0  0  0  0
  -27.6876  -14.2534   19.5717 H   0  0  0  0  0  0
  -28.6648  -11.9617   21.3429 H   0  0  0  0  0  0
  -28.4400  -13.5992   21.8751 H   0  0  0  0  0  0
  -25.2739   -9.5705   22.4736 H   0  0  0  0  0  0
  -24.0010   -7.4634   22.7456 H   0  0  0  0  0  0
  -21.0825   -8.8740   19.8925 H   0  0  0  0  0  0
  -22.3660  -10.9659   19.6155 H   0  0  0  0  0  0
  -21.2004   -7.6138   23.9710 H   0  0  0  0  0  0
  -21.1481   -6.0508   25.9067 H   0  0  0  0  0  0
  -22.0600   -2.7603   23.2837 H   0  0  0  0  0  0
  -22.4129  -11.9889   22.4811 H   0  0  0  0  0  0
  -21.1091  -13.1217   22.2672 H   0  0  0  0  0  0
  -24.6622  -15.8342   20.5273 H   0  0  0  0  0  0
  -26.2500  -15.6180   20.0133 H   0  0  0  0  0  0
  -26.7111  -32.5515   23.1143 H   0  0  0  0  0  0
  -25.0065  -33.9792   25.0475 H   0  0  0  0  0  0
  -22.6945  -31.3129   21.4102 H   0  0  0  0  0  0
  -23.3758  -35.9631   23.3314 H   0  0  0  0  0  0
  -24.3575  -36.8912   22.2047 H   0  0  0  0  0  0
  -23.7228  -37.6508   23.6650 H   0  0  0  0  0  0
  -26.0619  -31.5866   20.6071 H   0  0  0  0  0  0
  -26.8207  -30.8631   21.9974 H   0  0  0  0  0  0
  -28.0965  -29.0522   21.1668 H   0  0  0  0  0  0
  -25.9648  -25.9372   19.0384 H   0  0  0  0  0  0
  -23.9556  -27.2957   19.0539 H   0  0  0  0  0  0
  -23.7249  -30.6068   19.4039 H   0  0  0  0  0  0
  -22.7329  -29.2587   19.8623 H   0  0  0  0  0  0
  -25.1295  -36.1982   25.0825 H   0  0  0  0  0  0
  -20.9984  -28.3462   24.1499 H   0  0  0  0  0  0
  -21.6670  -26.7282   22.1683 H   0  0  0  0  0  0
  -20.5400  -26.2424   23.3914 H   0  0  0  0  0  0
  -19.7084  -25.6453   21.1176 H   0  0  0  0  0  0
  -19.6779  -27.3409   20.6960 H   0  0  0  0  0  0
  -17.4250  -26.6401   21.4299 H   0  0  0  0  0  0
  -18.0628  -26.0103   22.9300 H   0  0  0  0  0  0
  -19.7882  -30.7425   24.2095 H   0  0  0  0  0  0
  -17.4943  -31.6351   24.4961 H   0  0  0  0  0  0
  -15.5314  -30.2933   23.7594 H   0  0  0  0  0  0
  -15.8710  -28.0705   22.7141 H   0  0  0  0  0  0
  -24.5936  -30.7031   25.7799 H   0  0  0  0  0  0
  -24.8935  -32.2838   26.4951 H   0  0  0  0  0  0
  -25.8120  -30.8842   27.0219 H   0  0  0  0  0  0
  -26.2872  -29.6808   24.1184 H   0  0  0  0  0  0
  -27.4053  -29.7290   25.4618 H   0  0  0  0  0  0
  -27.8726  -30.4346   23.9321 H   0  0  0  0  0  0
  -27.2673  -33.3619   26.2116 H   0  0  0  0  0  0
  -28.3866  -32.6905   25.0331 H   0  0  0  0  0  0
  -28.0733  -31.8427   26.5402 H   0  0  0  0  0  0
  -28.2610  -38.0098   24.7522 H   0  0  0  0  0  0
  -28.1070  -36.2633   24.6295 H   0  0  0  0  0  0
  -27.2296  -37.1461   25.8865 H   0  0  0  0  0  0
  -20.9294  -29.8716   21.6828 H   0  0  0  0  0  0
  -26.0193  -38.2878   24.1409 H   0  0  0  0  0  0
  -27.6032  -16.4616   21.7579 H   0  0  0  0  0  0
  -26.1467  -20.4238   22.3217 H   0  0  0  0  0  0
  -31.0504  -19.2739   19.8910 H   0  0  0  0  0  0
  -30.9936  -20.5494   21.1004 H   0  0  0  0  0  0
  -30.1576  -20.7219   19.5524 H   0  0  0  0  0  0
  -30.2763  -17.1355   19.5929 H   0  0  0  0  0  0
  -30.9956  -17.2669   21.1937 H   0  0  0  0  0  0
  -29.3080  -22.0370   22.0599 H   0  0  0  0  0  0
  -27.6173  -22.2155   22.3561 H   0  0  0  0  0  0
  -26.9369  -24.3915   20.9970 H   0  0  0  0  0  0
  -28.5425  -24.4683   21.6696 H   0  0  0  0  0  0
  -27.9163  -25.1014   18.7277 H   0  0  0  0  0  0
  -29.4760  -25.0569   19.4223 H   0  0  0  0  0  0
  -28.8941  -15.3147   21.1946 H   0  0  0  0  0  0
  -28.9771  -22.6470   19.8246 H   0  0  0  0  0  0
  -27.3754  -22.4422   19.8986 H   0  0  0  0  0  0
  1 25  1  0  0  0
  1 30  2  0  0  0
  1 82  1  0  0  0
  2  3  1  0  0  0
  2 25  1  0  0  0
  2 85  1  0  0  0
  2 86  1  0  0  0
  3  4  1  0  0  0
  3 87  1  0  0  0
  3 88  1  0  0  0
  4  5  1  0  0  0
  4 89  1  0  0  0
  4 90  1  0  0  0
  5  6  1  0  0  0
  5 26  1  0  0  0
  5 91  1  0  0  0
  6 25  1  0  0  0
  6 92  1  0  0  0
  6 93  1  0  0  0
  7  8  2  0  0  0
  7 26  1  0  0  0
  7 29  1  0  0  0
  8  9  1  0  0  0
  8 22  1  0  0  0
  9 10  1  0  0  0
  9 27  2  0  0  0
 10 11  2  0  0  0
 10 15  1  0  0  0
 11 12  1  0  0  0
 11 94  1  0  0  0
 12 13  2  0  0  0
 12 95  1  0  0  0
 13 14  1  0  0  0
 13 31  1  0  0  0
 14 15  2  0  0  0
 14 96  1  0  0  0
 15 97  1  0  0  0
 16 17  2  0  0  0
 16 21  1  0  0  0
 16 31  1  0  0  0
 17 18  1  0  0  0
 17 98  1  0  0  0
 18 19  2  0  0  0
 18 99  1  0  0  0
 19 20  1  0  0  0
 19 24  1  0  0  0
 20 21  2  0  0  0
 20100  1  0  0  0
 21 23  1  0  0  0
 22 28  1  0  0  0
 22 32  2  0  0  0
 26 27  1  0  0  0
 28101  1  0  0  0
 28102  1  0  0  0
 29103  1  0  0  0
 29104  1  0  0  0
 33 34  1  0  0  0
 33 66  1  0  0  0
 33 70  2  0  0  0
 34 36  1  0  0  0
 34 59  1  0  0  0
 34105  1  0  0  0
 35 44  2  0  0  0
 35 45  1  0  0  0
 35 68  1  0  0  0
 36 56  1  0  0  0
 36106  1  0  0  0
 37 39  1  0  0  0
 37 47  1  0  0  0
 37 66  1  0  0  0
 37107  1  0  0  0
 38 43  2  0  0  0
 38 46  1  0  0  0
 38 47  1  0  0  0
 39 64  1  0  0  0
 39 67  2  0  0  0
 40 52  1  0  0  0
 40 53  2  0  0  0
 40 58  1  0  0  0
 41108  1  0  0  0
 41109  1  0  0  0
 41110  1  0  0  0
 41 48  1  0  0  0
 42 43  1  0  0  0
 42 66  1  0  0  0
 42111  1  0  0  0
 42112  1  0  0  0
 43 44  1  0  0  0
 44113  1  0  0  0
 45 46  2  0  0  0
 45114  1  0  0  0
 46115  1  0  0  0
 47116  1  0  0  0
 47117  1  0  0  0
 48 56  1  0  0  0
 48 65  1  0  0  0
 48118  1  0  0  0
 49 50  1  0  0  0
 49 53  1  0  0  0
 49 64  1  0  0  0
 49119  1  0  0  0
 50 51  1  0  0  0
 50120  1  0  0  0
 50121  1  0  0  0
 51 52  1  0  0  0
 51122  1  0  0  0
 51123  1  0  0  0
 52124  1  0  0  0
 52125  1  0  0  0
 53 54  1  0  0  0
 54 55  2  0  0  0
 54126  1  0  0  0
 55 57  1  0  0  0
 55127  1  0  0  0
 56 69  2  0  0  0
 57 58  2  0  0  0
 57128  1  0  0  0
 58129  1  0  0  0
 59 60  1  0  0  0
 59 61  1  0  0  0
 59 62  1  0  0  0
 60130  1  0  0  0
 60131  1  0  0  0
 60132  1  0  0  0
 61133  1  0  0  0
 61134  1  0  0  0
 61135  1  0  0  0
 62136  1  0  0  0
 62137  1  0  0  0
 62138  1  0  0  0
 63 65  1  0  0  0
 63139  1  0  0  0
 63140  1  0  0  0
 63141  1  0  0  0
 64142  1  0  0  0
 65143  1  0  0  0
 68 81  1  0  0  0
 71 73  2  0  0  0
 71 76  1  0  0  0
 71144  1  0  0  0
 72 74  1  0  0  0
 72 76  2  0  0  0
 72145  1  0  0  0
 73 75  1  0  0  0
 73 78  1  0  0  0
 74 75  2  0  0  0
 74 79  1  0  0  0
 75 77  1  0  0  0
 76 84  1  0  0  0
 77146  1  0  0  0
 77147  1  0  0  0
 77148  1  0  0  0
 78 82  1  0  0  0
 78149  1  0  0  0
 78150  1  0  0  0
 79 83  1  0  0  0
 79151  1  0  0  0
 79152  1  0  0  0
 80 81  1  0  0  0
 80 83  1  0  0  0
 80153  1  0  0  0
 80154  1  0  0  0
 81155  1  0  0  0
 81156  1  0  0  0
 82157  1  0  0  0
 83158  1  0  0  0
 83159  1  0  0  0
M  CHG  1  83   1
M  ISO  4   1 100  68 101  81 101  82 100
M  END
> <chiral flag>
0

> <version>
0

> <s_m_source_file>
/data/baiqing/PycharmProjects/Reinvent-master-3.2/result/LINK_invent/BTK/process_docking_weight1_custom_product_contain_oxygen_bond_distance_aromatic_linkinvent_7_9_3/rearranged_h_0036.sdf

> <i_m_source_file_index>
35

> <r_mmod_Potential_Energy-OPLS-2005>
-256.007904052734

> <r_mmod_Stretch_Energy-OPLS-2005>
52.4872970581055

> <r_mmod_Bend_Energy-OPLS-2005>
116.532775878906

> <r_mmod_Torsional_Energy-OPLS-2005>
189.747268676758

> <r_mmod_Improper_Torsional_Energy-OPLS-2005>
6.44265985488892

> <r_mmod_Van_der_Waal_Energy-OPLS-2005>
144.710830688477

> <r_mmod_Electrostatic_Energy-OPLS-2005>
-321.295288085938

> <r_mmod_Solvation_Energy-OPLS-2005>
-466.523712158203

> <b_mmod_Minimization_Converged-OPLS-2005>
0

> <r_mmod_RMS_Derivative-OPLS-2005>
6.00212907791138

$$$$
35
                    3D
 Structure written by MMmdl.
157165  0  0  1  0            999 V2000
  -30.6857  -14.4403   20.6178 C   0  0  0  0  0  0
  -30.4289  -12.2971   19.4226 C   0  0  0  0  0  0
  -29.5017  -12.5282   18.2110 C   0  0  0  0  0  0
  -28.0199  -12.3894   18.6109 C   0  0  0  0  0  0
  -27.6686  -13.2029   19.8849 C   0  0  2  0  0  0
  -28.7025  -12.9384   21.0023 C   0  0  0  0  0  0
  -25.2615  -13.8155   20.5655 C   0  0  0  0  0  0
  -24.1855  -13.0438   20.9142 C   0  0  0  0  0  0
  -24.6399  -11.6902   20.8696 C   0  0  0  0  0  0
  -23.9062  -10.4287   21.0373 C   0  0  0  0  0  0
  -24.3617   -9.4214   21.9156 C   0  0  0  0  0  0
  -23.6294   -8.2252   22.0742 C   0  0  0  0  0  0
  -22.4272   -8.0278   21.3545 C   0  0  0  0  0  0
  -21.9905   -9.0246   20.4638 C   0  0  0  0  0  0
  -22.7229  -10.2124   20.3034 C   0  0  0  0  0  0
  -21.6860   -6.0731   22.5276 C   0  0  0  0  0  0
  -21.4022   -6.5633   23.8211 C   0  0  0  0  0  0
  -21.3666   -5.6783   24.9171 C   0  0  0  0  0  0
  -21.6047   -4.3042   24.7224 C   0  0  0  0  0  0
  -21.8824   -3.8141   23.4344 C   0  0  0  0  0  0
  -21.9202   -4.6962   22.3402 C   0  0  0  0  0  0
  -22.7880  -13.5241   21.1807 C   0  0  0  0  0  0
  -22.1657   -4.2146   21.0978 F   0  0  0  0  0  0
  -21.5637   -3.4525   25.7737 F   0  0  0  0  0  0
  -30.0450  -13.2485   20.4769 N   0  0  0  0  0  0
  -26.3058  -12.9321   20.3374 N   0  0  0  0  0  0
  -25.9328  -11.6481   20.5737 N   0  0  0  0  0  0
  -22.0520  -12.8241   22.0376 N   0  0  0  0  0  0
  -25.4346  -15.1876   20.4102 N   0  0  0  0  0  0
  -31.7516  -14.7059   20.0513 O   0  0  0  0  0  0
  -21.6645   -6.8869   21.4238 O   0  0  0  0  0  0
  -22.3569  -14.5549   20.6647 O   0  0  0  0  0  0
  -24.6149  -31.8674   23.2080 C   0  0  0  0  0  0
  -25.9043  -32.4822   23.8384 C   0  0  1  0  0  0
  -27.2367  -27.4333   20.0925 C   0  0  0  0  0  0
  -25.5901  -33.8629   24.2309 N   0  0  0  0  0  0
  -23.4012  -30.4916   21.5490 C   0  0  2  0  0  0
  -24.8450  -28.9528   20.1151 C   0  0  0  0  0  0
  -22.7399  -29.4675   22.4983 C   0  0  0  0  0  0
  -18.0280  -28.1378   22.8488 C   0  0  0  0  0  0
  -24.1490  -36.7317   23.2643 C   0  0  0  0  0  0
  -25.9289  -30.8330   21.3606 C   0  0  0  0  0  0
  -26.0034  -29.4659   20.7098 C   0  0  0  0  0  0
  -27.1965  -28.7111   20.6965 C   0  0  0  0  0  0
  -26.0519  -26.9257   19.5071 C   0  0  0  0  0  0
  -24.8638  -27.6815   19.5146 C   0  0  0  0  0  0
  -23.6072  -29.8202   20.1646 C   0  0  0  0  0  0
  -25.4114  -36.3118   24.0337 C   0  0  1  0  0  0
  -20.5871  -28.3678   23.1305 C   0  0  2  0  0  0
  -20.6771  -26.9412   22.5413 C   0  0  0  0  0  0
  -19.5755  -26.6382   21.5211 C   0  0  0  0  0  0
  -18.1931  -26.7926   22.1614 C   0  0  0  0  0  0
  -19.1529  -28.8842   23.2897 C   0  0  0  0  0  0
  -18.9458  -30.1451   23.8914 C   0  0  0  0  0  0
  -17.6458  -30.6588   24.0571 C   0  0  0  0  0  0
  -25.9031  -34.9482   23.5113 C   0  0  0  0  0  0
  -16.5353  -29.9093   23.6330 C   0  0  0  0  0  0
  -16.7269  -28.6503   23.0353 C   0  0  0  0  0  0
  -26.4469  -31.6621   25.0728 C   0  0  0  0  0  0
  -25.3722  -31.3746   26.1468 C   0  0  0  0  0  0
  -27.0307  -30.3067   24.6124 C   0  0  0  0  0  0
  -27.6038  -32.4354   25.7487 C   0  0  0  0  0  0
  -27.5582  -37.1815   24.8466 C   0  0  0  0  0  0
  -21.4127  -29.3041   22.3700 N   0  0  0  0  0  0
  -26.4303  -37.3797   23.9398 N   0  0  0  0  0  0
  -24.6670  -31.0786   22.0974 N   0  0  0  0  0  0
  -23.4159  -28.8224   23.3042 O   0  0  0  0  0  0
  -28.4350  -26.7468   20.1120 O   0  0  0  0  0  0
  -26.5596  -34.8936   22.4675 O   0  0  0  0  0  0
  -23.5344  -32.1433   23.7466 O   0  0  0  0  0  0
  -29.2710  -17.5481   22.0956 C   0  0  0  0  0  0
  -29.7111  -17.1663   19.7418 C   0  0  0  0  0  0
  -28.7476  -19.3158   20.4631 C   0  0  0  0  0  0
  -28.7942  -18.8524   21.8097 C   0  0  0  0  0  0
  -29.7177  -16.6860   21.0709 C   0  0  0  0  0  0
  -29.2306  -18.4575   19.4378 C   0  0  0  0  0  0
  -28.1326  -20.6484   20.0918 C   0  0  0  0  0  0
  -28.2888  -19.7062   22.9654 C   0  0  0  0  0  0
  -28.3658  -24.2468   20.2409 C   0  0  0  0  0  0
  -28.7677  -22.9710   19.4597 C   0  0  0  0  0  0
  -28.5992  -25.5205   19.3901 C   0  0  0  0  0  0
  -30.0563  -15.3354   21.4019 N   0  0  0  0  0  0
  -28.8983  -21.7398   20.2571 N   0  0  0  0  0  0
  -27.0101  -20.6941   19.5838 O   0  0  0  0  0  0
  -29.2323  -18.9362   17.7726 Cl  0  0  0  0  0  0
  -31.4745  -12.4038   19.1292 H   0  0  0  0  0  0
  -30.3298  -11.2747   19.7901 H   0  0  0  0  0  0
  -29.7398  -11.8246   17.4130 H   0  0  0  0  0  0
  -29.6800  -13.5240   17.8023 H   0  0  0  0  0  0
  -27.8166  -11.3310   18.7741 H   0  0  0  0  0  0
  -27.3789  -12.6957   17.7839 H   0  0  0  0  0  0
  -27.7250  -14.2587   19.6186 H   0  0  0  0  0  0
  -28.6715  -11.8894   21.3012 H   0  0  0  0  0  0
  -28.4478  -13.4995   21.9027 H   0  0  0  0  0  0
  -25.2763   -9.5700   22.4727 H   0  0  0  0  0  0
  -24.0003   -7.4657   22.7470 H   0  0  0  0  0  0
  -21.0830   -8.8761   19.8954 H   0  0  0  0  0  0
  -22.3670  -10.9663   19.6142 H   0  0  0  0  0  0
  -21.2002   -7.6137   23.9712 H   0  0  0  0  0  0
  -21.1485   -6.0508   25.9073 H   0  0  0  0  0  0
  -22.0599   -2.7603   23.2845 H   0  0  0  0  0  0
  -22.4122  -11.9900   22.4787 H   0  0  0  0  0  0
  -21.1145  -13.1273   22.2568 H   0  0  0  0  0  0
  -24.6719  -15.8458   20.5248 H   0  0  0  0  0  0
  -26.3010  -15.6303   20.1329 H   0  0  0  0  0  0
  -26.7102  -32.5517   23.1139 H   0  0  0  0  0  0
  -25.0081  -33.9797   25.0473 H   0  0  0  0  0  0
  -22.6918  -31.3098   21.4080 H   0  0  0  0  0  0
  -23.3751  -35.9649   23.3324 H   0  0  0  0  0  0
  -24.3582  -36.8916   22.2052 H   0  0  0  0  0  0
  -23.7238  -37.6530   23.6638 H   0  0  0  0  0  0
  -26.0444  -31.5976   20.5908 H   0  0  0  0  0  0
  -26.8148  -30.8833   21.9817 H   0  0  0  0  0  0
  -28.0941  -29.1085   21.1499 H   0  0  0  0  0  0
  -26.0178  -25.9477   19.0514 H   0  0  0  0  0  0
  -23.9689  -27.2762   19.0623 H   0  0  0  0  0  0
  -23.7115  -30.5924   19.4018 H   0  0  0  0  0  0
  -22.7306  -29.2397   19.8721 H   0  0  0  0  0  0
  -25.1290  -36.1985   25.0832 H   0  0  0  0  0  0
  -20.9987  -28.3250   24.1417 H   0  0  0  0  0  0
  -20.5683  -26.2289   23.3603 H   0  0  0  0  0  0
  -21.6640  -26.7452   22.1206 H   0  0  0  0  0  0
  -19.6929  -25.6289   21.1253 H   0  0  0  0  0  0
  -19.6713  -27.3180   20.6732 H   0  0  0  0  0  0
  -17.4209  -26.6694   21.4010 H   0  0  0  0  0  0
  -18.0331  -26.0056   22.8997 H   0  0  0  0  0  0
  -19.7937  -30.7258   24.2294 H   0  0  0  0  0  0
  -17.5020  -31.6279   24.5155 H   0  0  0  0  0  0
  -15.5357  -30.3005   23.7639 H   0  0  0  0  0  0
  -15.8667  -28.0826   22.7070 H   0  0  0  0  0  0
  -24.5867  -30.7140   25.7787 H   0  0  0  0  0  0
  -24.8952  -32.2917   26.4935 H   0  0  0  0  0  0
  -25.8049  -30.8878   27.0214 H   0  0  0  0  0  0
  -26.2865  -29.6827   24.1163 H   0  0  0  0  0  0
  -27.4062  -29.7315   25.4597 H   0  0  0  0  0  0
  -27.8699  -30.4401   23.9293 H   0  0  0  0  0  0
  -27.2656  -33.3641   26.2096 H   0  0  0  0  0  0
  -28.3823  -32.6947   25.0299 H   0  0  0  0  0  0
  -28.0736  -31.8470   26.5379 H   0  0  0  0  0  0
  -28.2608  -38.0108   24.7496 H   0  0  0  0  0  0
  -28.1073  -36.2632   24.6304 H   0  0  0  0  0  0
  -27.2303  -37.1483   25.8877 H   0  0  0  0  0  0
  -20.9285  -29.8727   21.6890 H   0  0  0  0  0  0
  -26.0198  -38.2881   24.1389 H   0  0  0  0  0  0
  -29.2670  -17.1935   23.1182 H   0  0  0  0  0  0
  -30.0327  -16.5369   18.9250 H   0  0  0  0  0  0
  -28.4196  -19.2020   23.9241 H   0  0  0  0  0  0
  -27.2256  -19.9169   22.8482 H   0  0  0  0  0  0
  -28.8244  -20.6548   23.0180 H   0  0  0  0  0  0
  -28.9543  -24.3214   21.1550 H   0  0  0  0  0  0
  -27.3201  -24.1872   20.5466 H   0  0  0  0  0  0
  -29.7424  -23.1342   18.9978 H   0  0  0  0  0  0
  -28.0775  -22.8264   18.6263 H   0  0  0  0  0  0
  -28.0326  -25.4999   18.4592 H   0  0  0  0  0  0
  -29.6430  -25.5191   19.0753 H   0  0  0  0  0  0
  -29.4525  -14.9139   22.0920 H   0  0  0  0  0  0
  -29.7785  -21.5987   20.7339 H   0  0  0  0  0  0
  1 25  1  0  0  0
  1 30  2  0  0  0
  1 82  1  0  0  0
  2  3  1  0  0  0
  2 25  1  0  0  0
  2 86  1  0  0  0
  2 87  1  0  0  0
  3  4  1  0  0  0
  3 88  1  0  0  0
  3 89  1  0  0  0
  4  5  1  0  0  0
  4 90  1  0  0  0
  4 91  1  0  0  0
  5  6  1  0  0  0
  5 26  1  0  0  0
  5 92  1  0  0  0
  6 25  1  0  0  0
  6 93  1  0  0  0
  6 94  1  0  0  0
  7  8  2  0  0  0
  7 26  1  0  0  0
  7 29  1  0  0  0
  8  9  1  0  0  0
  8 22  1  0  0  0
  9 10  1  0  0  0
  9 27  2  0  0  0
 10 11  2  0  0  0
 10 15  1  0  0  0
 11 12  1  0  0  0
 11 95  1  0  0  0
 12 13  2  0  0  0
 12 96  1  0  0  0
 13 14  1  0  0  0
 13 31  1  0  0  0
 14 15  2  0  0  0
 14 97  1  0  0  0
 15 98  1  0  0  0
 16 17  2  0  0  0
 16 21  1  0  0  0
 16 31  1  0  0  0
 17 18  1  0  0  0
 17 99  1  0  0  0
 18 19  2  0  0  0
 18100  1  0  0  0
 19 20  1  0  0  0
 19 24  1  0  0  0
 20 21  2  0  0  0
 20101  1  0  0  0
 21 23  1  0  0  0
 22 28  1  0  0  0
 22 32  2  0  0  0
 26 27  1  0  0  0
 28102  1  0  0  0
 28103  1  0  0  0
 29104  1  0  0  0
 29105  1  0  0  0
 33 34  1  0  0  0
 33 66  1  0  0  0
 33 70  2  0  0  0
 34 36  1  0  0  0
 34 59  1  0  0  0
 34106  1  0  0  0
 35 44  2  0  0  0
 35 45  1  0  0  0
 35 68  1  0  0  0
 36 56  1  0  0  0
 36107  1  0  0  0
 37 39  1  0  0  0
 37 47  1  0  0  0
 37 66  1  0  0  0
 37108  1  0  0  0
 38 43  2  0  0  0
 38 46  1  0  0  0
 38 47  1  0  0  0
 39 64  1  0  0  0
 39 67  2  0  0  0
 40 52  1  0  0  0
 40 53  2  0  0  0
 40 58  1  0  0  0
 41109  1  0  0  0
 41110  1  0  0  0
 41111  1  0  0  0
 41 48  1  0  0  0
 42 43  1  0  0  0
 42 66  1  0  0  0
 42112  1  0  0  0
 42113  1  0  0  0
 43 44  1  0  0  0
 44114  1  0  0  0
 45 46  2  0  0  0
 45115  1  0  0  0
 46116  1  0  0  0
 47117  1  0  0  0
 47118  1  0  0  0
 48 56  1  0  0  0
 48 65  1  0  0  0
 48119  1  0  0  0
 49 50  1  0  0  0
 49 53  1  0  0  0
 49 64  1  0  0  0
 49120  1  0  0  0
 50 51  1  0  0  0
 50121  1  0  0  0
 50122  1  0  0  0
 51 52  1  0  0  0
 51123  1  0  0  0
 51124  1  0  0  0
 52125  1  0  0  0
 52126  1  0  0  0
 53 54  1  0  0  0
 54 55  2  0  0  0
 54127  1  0  0  0
 55 57  1  0  0  0
 55128  1  0  0  0
 56 69  2  0  0  0
 57 58  2  0  0  0
 57129  1  0  0  0
 58130  1  0  0  0
 59 60  1  0  0  0
 59 61  1  0  0  0
 59 62  1  0  0  0
 60131  1  0  0  0
 60132  1  0  0  0
 60133  1  0  0  0
 61134  1  0  0  0
 61135  1  0  0  0
 61136  1  0  0  0
 62137  1  0  0  0
 62138  1  0  0  0
 62139  1  0  0  0
 63 65  1  0  0  0
 63140  1  0  0  0
 63141  1  0  0  0
 63142  1  0  0  0
 64143  1  0  0  0
 65144  1  0  0  0
 68 81  1  0  0  0
 71 74  2  0  0  0
 71 75  1  0  0  0
 71145  1  0  0  0
 72 75  2  0  0  0
 72 76  1  0  0  0
 72146  1  0  0  0
 73 74  1  0  0  0
 73 76  2  0  0  0
 73 77  1  0  0  0
 74 78  1  0  0  0
 75 82  1  0  0  0
 76 85  1  0  0  0
 77 83  1  0  0  0
 77 84  2  0  0  0
 78147  1  0  0  0
 78148  1  0  0  0
 78149  1  0  0  0
 79 80  1  0  0  0
 79 81  1  0  0  0
 79150  1  0  0  0
 79151  1  0  0  0
 80 83  1  0  0  0
 80152  1  0  0  0
 80153  1  0  0  0
 81154  1  0  0  0
 81155  1  0  0  0
 82156  1  0  0  0
 83157  1  0  0  0
M  ISO  4   1 100  68 101  81 101  82 100
M  END
> <chiral flag>
0

> <version>
0

> <s_m_source_file>
/data/baiqing/PycharmProjects/Reinvent-master-3.2/result/LINK_invent/BTK/process_docking_weight1_custom_product_contain_oxygen_bond_distance_aromatic_linkinvent_7_9_3/rearranged_h_0036.sdf

> <i_m_source_file_index>
36

> <r_mmod_Potential_Energy-OPLS-2005>
-1.51257348060608

> <r_mmod_Stretch_Energy-OPLS-2005>
38.6664619445801

> <r_mmod_Bend_Energy-OPLS-2005>
106.27294921875

> <r_mmod_Torsional_Energy-OPLS-2005>
257.185852050781

> <r_mmod_Improper_Torsional_Energy-OPLS-2005>
5.90417814254761

> <r_mmod_Van_der_Waal_Energy-OPLS-2005>
151.362426757812

> <r_mmod_Electrostatic_Energy-OPLS-2005>
-341.839263916016

> <r_mmod_Solvation_Energy-OPLS-2005>
-229.836700439453

> <b_mmod_Minimization_Converged-OPLS-2005>
0

> <r_mmod_RMS_Derivative-OPLS-2005>
1.94308817386627

$$$$
36
                    3D
 Structure written by MMmdl.
172181  0  0  1  0            999 V2000
  -30.7148  -14.6205   20.2907 C   0  0  0  0  0  0
  -30.4607  -12.3222   19.4787 C   0  0  0  0  0  0
  -29.5238  -12.3070   18.2509 C   0  0  0  0  0  0
  -28.0661  -12.1407   18.7095 C   0  0  0  0  0  0
  -27.6749  -13.1478   19.8303 C   0  0  2  0  0  0
  -28.7367  -13.1736   20.9568 C   0  0  0  0  0  0
  -25.2858  -13.8025   20.5662 C   0  0  0  0  0  0
  -24.2022  -13.0442   20.9188 C   0  0  0  0  0  0
  -24.6475  -11.6869   20.8737 C   0  0  0  0  0  0
  -23.9150  -10.4270   21.0354 C   0  0  0  0  0  0
  -24.3719   -9.4213   21.9125 C   0  0  0  0  0  0
  -23.6382   -8.2256   22.0724 C   0  0  0  0  0  0
  -22.4316   -8.0301   21.3558 C   0  0  0  0  0  0
  -21.9971   -9.0286   20.4669 C   0  0  0  0  0  0
  -22.7303  -10.2160   20.3034 C   0  0  0  0  0  0
  -21.6848   -6.0759   22.5284 C   0  0  0  0  0  0
  -21.3962   -6.5652   23.8225 C   0  0  0  0  0  0
  -21.3645   -5.6781   24.9184 C   0  0  0  0  0  0
  -21.6064   -4.3062   24.7216 C   0  0  0  0  0  0
  -21.8829   -3.8160   23.4338 C   0  0  0  0  0  0
  -21.9224   -4.6990   22.3396 C   0  0  0  0  0  0
  -22.8021  -13.5309   21.1811 C   0  0  0  0  0  0
  -22.1662   -4.2191   21.0968 F   0  0  0  0  0  0
  -21.5703   -3.4536   25.7726 F   0  0  0  0  0  0
  -30.0283  -13.4391   20.3215 N   0  0  0  0  0  0
  -26.3209  -12.9114   20.3292 N   0  0  0  0  0  0
  -25.9392  -11.6356   20.5853 N   0  0  0  0  0  0
  -22.0561  -12.8381   22.0297 N   0  0  0  0  0  0
  -25.4729  -15.1720   20.4042 N   0  0  0  0  0  0
  -31.9361  -14.6338   20.4098 O   0  0  0  0  0  0
  -21.6679   -6.8895   21.4236 O   0  0  0  0  0  0
  -22.3782  -14.5643   20.6607 O   0  0  0  0  0  0
  -24.6208  -31.8694   23.2153 C   0  0  0  0  0  0
  -25.9064  -32.4847   23.8438 C   0  0  1  0  0  0
  -27.1971  -27.3674   20.0814 C   0  0  0  0  0  0
  -25.5904  -33.8660   24.2339 N   0  0  0  0  0  0
  -23.4084  -30.4954   21.5641 C   0  0  2  0  0  0
  -24.8417  -28.9686   20.1040 C   0  0  0  0  0  0
  -22.7467  -29.4642   22.5082 C   0  0  0  0  0  0
  -18.0264  -28.1424   22.8476 C   0  0  0  0  0  0
  -24.1473  -36.7312   23.2635 C   0  0  0  0  0  0
  -25.9492  -30.8007   21.3870 C   0  0  0  0  0  0
  -26.0086  -29.4395   20.7169 C   0  0  0  0  0  0
  -27.1861  -28.6467   20.7016 C   0  0  0  0  0  0
  -26.0073  -26.9462   19.4342 C   0  0  0  0  0  0
  -24.8422  -27.7297   19.4512 C   0  0  0  0  0  0
  -23.6110  -29.8468   20.1713 C   0  0  0  0  0  0
  -25.4105  -36.3157   24.0352 C   0  0  1  0  0  0
  -20.5875  -28.3665   23.1366 C   0  0  2  0  0  0
  -20.6785  -26.9411   22.5474 C   0  0  0  0  0  0
  -19.5780  -26.6400   21.5257 C   0  0  0  0  0  0
  -18.1918  -26.7994   22.1581 C   0  0  0  0  0  0
  -19.1524  -28.8871   23.2911 C   0  0  0  0  0  0
  -18.9442  -30.1479   23.8915 C   0  0  0  0  0  0
  -17.6433  -30.6603   24.0580 C   0  0  0  0  0  0
  -25.9048  -34.9516   23.5136 C   0  0  0  0  0  0
  -16.5323  -29.9085   23.6347 C   0  0  0  0  0  0
  -16.7253  -28.6532   23.0326 C   0  0  0  0  0  0
  -26.4424  -31.6670   25.0822 C   0  0  0  0  0  0
  -25.3607  -31.3839   26.1530 C   0  0  0  0  0  0
  -27.0205  -30.3073   24.6294 C   0  0  0  0  0  0
  -27.6006  -32.4399   25.7516 C   0  0  0  0  0  0
  -27.5616  -37.1814   24.8454 C   0  0  0  0  0  0
  -21.4211  -29.2996   22.3784 N   0  0  0  0  0  0
  -26.4305  -37.3839   23.9427 N   0  0  0  0  0  0
  -24.6783  -31.0712   22.1109 N   0  0  0  0  0  0
  -23.4215  -28.8206   23.3150 O   0  0  0  0  0  0
  -28.3466  -26.5805   20.1426 O   0  0  0  0  0  0
  -26.5603  -34.8956   22.4711 O   0  0  0  0  0  0
  -23.5390  -32.1478   23.7496 O   0  0  0  0  0  0
  -28.4430  -19.3782   19.2433 C   0  0  0  0  0  0
  -28.2549  -16.9624   19.2449 C   0  0  0  0  0  0
  -29.7843  -19.3037   19.6794 C   0  0  0  0  0  0
  -30.3616  -18.0102   19.9395 C   0  0  0  0  0  0
  -29.5898  -16.8201   19.6912 C   0  0  0  0  0  0
  -27.6780  -18.2242   19.0423 C   0  0  0  0  0  0
  -30.2662  -24.6595   21.2839 C   0  0  0  0  0  0
  -30.7923  -23.5343   22.1819 C   0  0  0  0  0  0
  -29.4519  -22.8657   19.6949 C   0  0  0  0  0  0
  -29.0462  -24.1323   20.5218 C   0  0  2  0  0  0
  -31.1886  -22.2690   21.3874 C   0  0  1  0  0  0
  -31.8344  -17.8675   20.3271 C   0  0  0  0  0  0
  -31.6532  -21.1910   22.3780 C   0  0  0  0  0  0
  -30.7453  -15.5333   18.0408 C   0  0  0  0  0  0
  -30.5825  -20.6273   19.6145 C   0  0  0  0  0  0
  -28.3449  -25.2126   19.6351 C   0  0  0  0  0  0
  -30.1870  -15.5378   19.4089 N   0  0  0  0  0  0
  -30.1040  -21.7609   20.4874 N   0  3  2  0  0  0
  -26.0659  -18.3556   18.4277 Cl  0  0  0  0  0  0
  -31.5010  -12.4247   19.1715 H   0  0  0  0  0  0
  -30.4033  -11.3917   20.0430 H   0  0  0  0  0  0
  -29.8212  -11.5069   17.5772 H   0  0  0  0  0  0
  -29.5998  -13.2090   17.6647 H   0  0  0  0  0  0
  -27.9834  -11.1195   19.0934 H   0  0  0  0  0  0
  -27.3924  -12.2080   17.8576 H   0  0  0  0  0  0
  -27.6724  -14.1101   19.3365 H   0  0  0  0  0  0
  -28.7831  -12.2169   21.4776 H   0  0  0  0  0  0
  -28.5154  -13.9342   21.7054 H   0  0  0  0  0  0
  -25.2862   -9.5776   22.4739 H   0  0  0  0  0  0
  -24.0107   -7.4717   22.7506 H   0  0  0  0  0  0
  -21.0859   -8.8859   19.9075 H   0  0  0  0  0  0
  -22.3701  -10.9748   19.6233 H   0  0  0  0  0  0
  -21.1784   -7.6127   23.9746 H   0  0  0  0  0  0
  -21.1469   -6.0475   25.9108 H   0  0  0  0  0  0
  -22.0599   -2.7624   23.2814 H   0  0  0  0  0  0
  -22.4022  -12.0098   22.4924 H   0  0  0  0  0  0
  -21.1194  -13.1506   22.2325 H   0  0  0  0  0  0
  -24.7155  -15.8313   20.5198 H   0  0  0  0  0  0
  -26.3482  -15.6162   20.1709 H   0  0  0  0  0  0
  -26.7145  -32.5476   23.1197 H   0  0  0  0  0  0
  -25.0060  -33.9839   25.0480 H   0  0  0  0  0  0
  -22.6971  -31.3137   21.4414 H   0  0  0  0  0  0
  -23.3804  -35.9572   23.3285 H   0  0  0  0  0  0
  -24.3567  -36.8938   22.2049 H   0  0  0  0  0  0
  -23.7116  -37.6477   23.6640 H   0  0  0  0  0  0
  -26.0938  -31.5731   20.6317 H   0  0  0  0  0  0
  -26.8265  -30.8265   22.0223 H   0  0  0  0  0  0
  -28.0874  -29.0018   21.1796 H   0  0  0  0  0  0
  -25.9167  -26.0246   18.8847 H   0  0  0  0  0  0
  -23.9541  -27.3840   18.9381 H   0  0  0  0  0  0
  -23.7196  -30.6346   19.4248 H   0  0  0  0  0  0
  -22.7258  -29.2826   19.8735 H   0  0  0  0  0  0
  -25.1278  -36.2060   25.0850 H   0  0  0  0  0  0
  -20.9901  -28.3222   24.1516 H   0  0  0  0  0  0
  -20.5701  -26.2280   23.3649 H   0  0  0  0  0  0
  -21.6654  -26.7477   22.1257 H   0  0  0  0  0  0
  -19.6931  -25.6307   21.1285 H   0  0  0  0  0  0
  -19.6781  -27.3215   20.6797 H   0  0  0  0  0  0
  -17.4259  -26.6828   21.3912 H   0  0  0  0  0  0
  -18.0192  -26.0106   22.8912 H   0  0  0  0  0  0
  -19.7916  -30.7313   24.2291 H   0  0  0  0  0  0
  -17.4972  -31.6288   24.5175 H   0  0  0  0  0  0
  -15.5324  -30.2967   23.7715 H   0  0  0  0  0  0
  -15.8663  -28.0866   22.7000 H   0  0  0  0  0  0
  -24.5989  -30.6913   25.7967 H   0  0  0  0  0  0
  -24.8516  -32.2963   26.4659 H   0  0  0  0  0  0
  -25.7932  -30.9380   27.0496 H   0  0  0  0  0  0
  -26.2804  -29.6930   24.1179 H   0  0  0  0  0  0
  -27.3699  -29.7262   25.4838 H   0  0  0  0  0  0
  -27.8768  -30.4348   23.9660 H   0  0  0  0  0  0
  -27.2658  -33.3679   26.2166 H   0  0  0  0  0  0
  -28.3724  -32.7023   25.0263 H   0  0  0  0  0  0
  -28.0798  -31.8509   26.5352 H   0  0  0  0  0  0
  -28.2668  -38.0087   24.7537 H   0  0  0  0  0  0
  -28.1092  -36.2651   24.6221 H   0  0  0  0  0  0
  -27.2383  -37.1396   25.8868 H   0  0  0  0  0  0
  -20.9431  -29.8660   21.6936 H   0  0  0  0  0  0
  -26.0242  -38.2942   24.1431 H   0  0  0  0  0  0
  -28.0060  -20.3292   18.9742 H   0  0  0  0  0  0
  -27.6945  -16.1096   18.9053 H   0  0  0  0  0  0
  -31.0394  -25.0008   20.5898 H   0  0  0  0  0  0
  -29.9900  -25.5186   21.8994 H   0  0  0  0  0  0
  -30.0511  -23.2826   22.9445 H   0  0  0  0  0  0
  -31.6552  -23.9028   22.7365 H   0  0  0  0  0  0
  -30.1386  -23.1798   18.9082 H   0  0  0  0  0  0
  -28.5698  -22.4706   19.1905 H   0  0  0  0  0  0
  -28.3168  -23.8253   21.2752 H   0  0  0  0  0  0
  -32.0392  -22.5444   20.7608 H   0  0  0  0  0  0
  -32.2113  -18.6906   20.9192 H   0  0  0  0  0  0
  -32.4500  -17.7514   19.4338 H   0  0  0  0  0  0
  -31.9985  -17.0083   20.9695 H   0  0  0  0  0  0
  -30.8353  -20.5260   22.6631 H   0  0  0  0  0  0
  -32.0547  -21.6318   23.2911 H   0  0  0  0  0  0
  -32.4521  -20.5972   21.9376 H   0  0  0  0  0  0
  -30.0186  -15.1488   17.3285 H   0  0  0  0  0  0
  -31.6659  -14.9508   17.9592 H   0  0  0  0  0  0
  -30.9677  -16.5273   17.6591 H   0  0  0  0  0  0
  -30.5327  -20.9486   18.5741 H   0  0  0  0  0  0
  -31.6446  -20.4473   19.7596 H   0  0  0  0  0  0
  -27.3529  -24.7926   19.4867 H   0  0  0  0  0  0
  -28.8070  -25.2318   18.6471 H   0  0  0  0  0  0
  -29.3951  -21.3690   21.0892 H   0  0  0  0  0  0
  1 25  1  0  0  0
  1 30  2  0  0  0
  1 87  1  0  0  0
  2  3  1  0  0  0
  2 25  1  0  0  0
  2 90  1  0  0  0
  2 91  1  0  0  0
  3  4  1  0  0  0
  3 92  1  0  0  0
  3 93  1  0  0  0
  4  5  1  0  0  0
  4 94  1  0  0  0
  4 95  1  0  0  0
  5  6  1  0  0  0
  5 26  1  0  0  0
  5 96  1  0  0  0
  6 25  1  0  0  0
  6 97  1  0  0  0
  6 98  1  0  0  0
  7  8  2  0  0  0
  7 26  1  0  0  0
  7 29  1  0  0  0
  8  9  1  0  0  0
  8 22  1  0  0  0
  9 10  1  0  0  0
  9 27  2  0  0  0
 10 11  2  0  0  0
 10 15  1  0  0  0
 11 12  1  0  0  0
 11 99  1  0  0  0
 12 13  2  0  0  0
 12100  1  0  0  0
 13 14  1  0  0  0
 13 31  1  0  0  0
 14 15  2  0  0  0
 14101  1  0  0  0
 15102  1  0  0  0
 16 17  2  0  0  0
 16 21  1  0  0  0
 16 31  1  0  0  0
 17 18  1  0  0  0
 17103  1  0  0  0
 18 19  2  0  0  0
 18104  1  0  0  0
 19 20  1  0  0  0
 19 24  1  0  0  0
 20 21  2  0  0  0
 20105  1  0  0  0
 21 23  1  0  0  0
 22 28  1  0  0  0
 22 32  2  0  0  0
 26 27  1  0  0  0
 28106  1  0  0  0
 28107  1  0  0  0
 29108  1  0  0  0
 29109  1  0  0  0
 33 34  1  0  0  0
 33 66  1  0  0  0
 33 70  2  0  0  0
 34 36  1  0  0  0
 34 59  1  0  0  0
 34110  1  0  0  0
 35 44  2  0  0  0
 35 45  1  0  0  0
 35 68  1  0  0  0
 36 56  1  0  0  0
 36111  1  0  0  0
 37 39  1  0  0  0
 37 47  1  0  0  0
 37 66  1  0  0  0
 37112  1  0  0  0
 38 43  2  0  0  0
 38 46  1  0  0  0
 38 47  1  0  0  0
 39 64  1  0  0  0
 39 67  2  0  0  0
 40 52  1  0  0  0
 40 53  2  0  0  0
 40 58  1  0  0  0
 41113  1  0  0  0
 41114  1  0  0  0
 41115  1  0  0  0
 41 48  1  0  0  0
 42 43  1  0  0  0
 42 66  1  0  0  0
 42116  1  0  0  0
 42117  1  0  0  0
 43 44  1  0  0  0
 44118  1  0  0  0
 45 46  2  0  0  0
 45119  1  0  0  0
 46120  1  0  0  0
 47121  1  0  0  0
 47122  1  0  0  0
 48 56  1  0  0  0
 48 65  1  0  0  0
 48123  1  0  0  0
 49 50  1  0  0  0
 49 53  1  0  0  0
 49 64  1  0  0  0
 49124  1  0  0  0
 50 51  1  0  0  0
 50125  1  0  0  0
 50126  1  0  0  0
 51 52  1  0  0  0
 51127  1  0  0  0
 51128  1  0  0  0
 52129  1  0  0  0
 52130  1  0  0  0
 53 54  1  0  0  0
 54 55  2  0  0  0
 54131  1  0  0  0
 55 57  1  0  0  0
 55132  1  0  0  0
 56 69  2  0  0  0
 57 58  2  0  0  0
 57133  1  0  0  0
 58134  1  0  0  0
 59 60  1  0  0  0
 59 61  1  0  0  0
 59 62  1  0  0  0
 60135  1  0  0  0
 60136  1  0  0  0
 60137  1  0  0  0
 61138  1  0  0  0
 61139  1  0  0  0
 61140  1  0  0  0
 62141  1  0  0  0
 62142  1  0  0  0
 62143  1  0  0  0
 63 65  1  0  0  0
 63144  1  0  0  0
 63145  1  0  0  0
 63146  1  0  0  0
 64147  1  0  0  0
 65148  1  0  0  0
 68 86  1  0  0  0
 71 73  2  0  0  0
 71 76  1  0  0  0
 71149  1  0  0  0
 72 75  1  0  0  0
 72 76  2  0  0  0
 72150  1  0  0  0
 73 74  1  0  0  0
 73 85  1  0  0  0
 74 75  2  0  0  0
 74 82  1  0  0  0
 75 87  1  0  0  0
 76 89  1  0  0  0
 77 78  1  0  0  0
 77 80  1  0  0  0
 77151  1  0  0  0
 77152  1  0  0  0
 78 81  1  0  0  0
 78153  1  0  0  0
 78154  1  0  0  0
 79 80  1  0  0  0
 79 88  1  0  0  0
 79155  1  0  0  0
 79156  1  0  0  0
 80 86  1  0  0  0
 80157  1  0  0  0
 81 83  1  0  0  0
 81 88  1  0  0  0
 81158  1  0  0  0
 82159  1  0  0  0
 82160  1  0  0  0
 82161  1  0  0  0
 83162  1  0  0  0
 83163  1  0  0  0
 83164  1  0  0  0
 84 87  1  0  0  0
 84165  1  0  0  0
 84166  1  0  0  0
 84167  1  0  0  0
 85168  1  0  0  0
 85169  1  0  0  0
 85 88  1  0  0  0
 86170  1  0  0  0
 86171  1  0  0  0
 88172  1  0  0  0
M  CHG  1  88   1
M  ISO  4   1 100  68 101  86 101  87 100
M  END
> <chiral flag>
0

> <version>
0

> <s_m_source_file>
/data/baiqing/PycharmProjects/Reinvent-master-3.2/result/LINK_invent/BTK/process_docking_weight1_custom_product_contain_oxygen_bond_distance_aromatic_linkinvent_7_9_3/rearranged_h_0036.sdf

> <i_m_source_file_index>
37

> <r_mmod_Potential_Energy-OPLS-2005>
278.142364501953

> <r_mmod_Stretch_Energy-OPLS-2005>
61.6424598693848

> <r_mmod_Bend_Energy-OPLS-2005>
152.758636474609

> <r_mmod_Torsional_Energy-OPLS-2005>
394.044891357422

> <r_mmod_Improper_Torsional_Energy-OPLS-2005>
38.0953598022461

> <r_mmod_Van_der_Waal_Energy-OPLS-2005>
163.402481079102

> <r_mmod_Electrostatic_Energy-OPLS-2005>
-190.901092529297

> <r_mmod_Solvation_Energy-OPLS-2005>
-424.607482910156

> <b_mmod_Minimization_Converged-OPLS-2005>
0

> <r_mmod_RMS_Derivative-OPLS-2005>
8.63158988952637

$$$$
37
                    3D
 Structure written by MMmdl.
153161  0  0  1  0            999 V2000
  -30.3784  -15.4118   20.3254 C   0  0  0  0  0  0
  -30.4313  -12.9166   19.5079 C   0  0  0  0  0  0
  -29.5369  -12.5985   18.2813 C   0  0  0  0  0  0
  -28.0906  -12.2976   18.7160 C   0  0  0  0  0  0
  -27.5959  -13.2826   19.8047 C   0  0  2  0  0  0
  -28.6299  -13.5333   20.9212 C   0  0  0  0  0  0
  -25.2341  -13.8237   20.5783 C   0  0  0  0  0  0
  -24.1705  -13.0416   20.9268 C   0  0  0  0  0  0
  -24.6367  -11.6913   20.8745 C   0  0  0  0  0  0
  -23.9061  -10.4275   21.0390 C   0  0  0  0  0  0
  -24.3611   -9.4200   21.9168 C   0  0  0  0  0  0
  -23.6287   -8.2237   22.0745 C   0  0  0  0  0  0
  -22.4265   -8.0270   21.3546 C   0  0  0  0  0  0
  -21.9898   -9.0239   20.4644 C   0  0  0  0  0  0
  -22.7226  -10.2118   20.3044 C   0  0  0  0  0  0
  -21.6855   -6.0717   22.5274 C   0  0  0  0  0  0
  -21.4029   -6.5624   23.8209 C   0  0  0  0  0  0
  -21.3675   -5.6783   24.9178 C   0  0  0  0  0  0
  -21.6043   -4.3042   24.7234 C   0  0  0  0  0  0
  -21.8812   -3.8124   23.4359 C   0  0  0  0  0  0
  -21.9187   -4.6936   22.3408 C   0  0  0  0  0  0
  -22.7722  -13.5175   21.1914 C   0  0  0  0  0  0
  -22.1644   -4.2116   21.0989 F   0  0  0  0  0  0
  -21.5639   -3.4530   25.7754 F   0  0  0  0  0  0
  -29.8296  -14.0826   20.2632 N   0  0  0  0  0  0
  -26.2754  -12.9508   20.3193 N   0  0  0  0  0  0
  -25.9302  -11.6606   20.5677 N   0  0  0  0  0  0
  -22.0376  -12.8177   22.0478 N   0  0  0  0  0  0
  -25.3994  -15.1990   20.4286 N   0  0  0  0  0  0
  -31.6210  -15.3565   20.3156 O   0  0  0  0  0  0
  -21.6638   -6.8862   21.4237 O   0  0  0  0  0  0
  -22.3402  -14.5466   20.6737 O   0  0  0  0  0  0
  -24.6707  -31.8154   23.1622 C   0  0  0  0  0  0
  -25.9346  -32.4552   23.8119 C   0  0  1  0  0  0
  -27.2227  -26.8387   20.2054 C   0  0  0  0  0  0
  -25.5982  -33.8368   24.2034 N   0  0  0  0  0  0
  -23.4912  -30.4217   21.5149 C   0  0  2  0  0  0
  -24.9450  -28.7830   20.1292 C   0  0  0  0  0  0
  -22.7711  -29.4390   22.4760 C   0  0  0  0  0  0
  -18.0333  -28.1416   22.8467 C   0  0  0  0  0  0
  -24.1504  -36.7206   23.2650 C   0  0  0  0  0  0
  -26.0654  -30.5907   21.4067 C   0  0  0  0  0  0
  -26.1329  -29.1664   20.7651 C   0  0  0  0  0  0
  -27.2681  -28.2198   20.7701 C   0  0  0  0  0  0
  -26.0021  -26.6271   19.5256 C   0  0  0  0  0  0
  -24.9094  -27.5348   19.4881 C   0  0  0  0  0  0
  -23.7391  -29.7265   20.1478 C   0  0  0  0  0  0
  -25.4148  -36.2946   24.0292 C   0  0  1  0  0  0
  -20.5960  -28.3764   23.1187 C   0  0  2  0  0  0
  -20.6814  -26.9438   22.5407 C   0  0  0  0  0  0
  -19.5785  -26.6378   21.5224 C   0  0  0  0  0  0
  -18.1967  -26.7950   22.1627 C   0  0  0  0  0  0
  -19.1593  -28.8912   23.2813 C   0  0  0  0  0  0
  -18.9494  -30.1497   23.8855 C   0  0  0  0  0  0
  -17.6482  -30.6600   24.0557 C   0  0  0  0  0  0
  -25.9105  -34.9332   23.4991 C   0  0  0  0  0  0
  -16.5376  -29.9081   23.6336 C   0  0  0  0  0  0
  -16.7313  -28.6502   23.0360 C   0  0  0  0  0  0
  -26.4569  -31.6513   25.0676 C   0  0  0  0  0  0
  -25.3664  -31.3777   26.1307 C   0  0  0  0  0  0
  -27.0470  -30.2870   24.6446 C   0  0  0  0  0  0
  -27.6057  -32.4327   25.7482 C   0  0  0  0  0  0
  -27.5574  -37.1765   24.8462 C   0  0  0  0  0  0
  -21.4370  -29.3039   22.3525 N   0  0  0  0  0  0
  -26.4285  -37.3691   23.9398 N   0  0  0  0  0  0
  -24.7652  -30.9721   22.0819 N   0  0  0  0  0  0
  -23.4214  -28.7961   23.3037 O   0  0  0  0  0  0
  -28.2372  -25.7197   20.1172 O   0  0  0  0  0  0
  -26.5726  -34.8881   22.4591 O   0  0  0  0  0  0
  -23.5756  -32.1160   23.6656 O   0  0  0  0  0  0
  -31.1764  -18.5818   19.7980 C   0  0  0  0  0  0
  -29.8584  -18.2969   20.3050 C   0  0  0  0  0  0
  -32.0433  -19.3850   20.4347 C   0  0  0  0  0  0
  -28.9889  -19.5217   20.3614 C   0  0  0  0  0  0
  -29.1206  -21.1935   20.5273 C   0  0  0  0  0  0
  -28.3661  -22.4544   20.2182 C   0  0  0  0  0  0
  -31.4781  -17.9548   18.4410 C   0  0  0  0  0  0
  -30.2057  -17.3344   17.7627 C   0  0  0  0  0  0
  -29.1417  -16.6887   18.7231 C   0  0  0  0  0  0
  -28.3028  -24.1631   20.7586 C   0  0  0  0  0  0
  -29.6069  -16.7190   20.1191 N   0  0  0  0  0  0
  -31.4408  -13.1507   19.1659 H   0  0  0  0  0  0
  -30.5331  -12.0421   20.1519 H   0  0  0  0  0  0
  -29.9448  -11.7575   17.7198 H   0  0  0  0  0  0
  -29.5403  -13.4487   17.5978 H   0  0  0  0  0  0
  -28.0642  -11.2796   19.1036 H   0  0  0  0  0  0
  -27.4227  -12.3117   17.8541 H   0  0  0  0  0  0
  -27.4712  -14.2257   19.2768 H   0  0  0  0  0  0
  -28.8408  -12.6260   21.4881 H   0  0  0  0  0  0
  -28.2436  -14.2641   21.6330 H   0  0  0  0  0  0
  -25.2757   -9.5685   22.4735 H   0  0  0  0  0  0
  -23.9994   -7.4635   22.7467 H   0  0  0  0  0  0
  -21.0824   -8.8754   19.8964 H   0  0  0  0  0  0
  -22.3669  -10.9649   19.6151 H   0  0  0  0  0  0
  -21.2031   -7.6130   23.9711 H   0  0  0  0  0  0
  -21.1509   -6.0516   25.9086 H   0  0  0  0  0  0
  -22.0575   -2.7577   23.2871 H   0  0  0  0  0  0
  -22.3996  -11.9881   22.4939 H   0  0  0  0  0  0
  -21.0975  -13.1187   22.2638 H   0  0  0  0  0  0
  -24.6346  -15.8515   20.5656 H   0  0  0  0  0  0
  -26.2593  -15.6481   20.1406 H   0  0  0  0  0  0
  -26.7416  -32.5067   23.0831 H   0  0  0  0  0  0
  -25.0074  -33.9424   25.0144 H   0  0  0  0  0  0
  -22.8090  -31.2547   21.3331 H   0  0  0  0  0  0
  -23.3763  -35.9534   23.3279 H   0  0  0  0  0  0
  -24.3581  -36.8888   22.2068 H   0  0  0  0  0  0
  -23.7260  -37.6388   23.6728 H   0  0  0  0  0  0
  -26.2485  -31.3161   20.6127 H   0  0  0  0  0  0
  -26.9266  -30.6625   22.0597 H   0  0  0  0  0  0
  -28.1788  -28.5260   21.2652 H   0  0  0  0  0  0
  -25.8762  -25.6828   19.0143 H   0  0  0  0  0  0
  -24.0138  -27.2364   18.9604 H   0  0  0  0  0  0
  -23.9119  -30.4890   19.3872 H   0  0  0  0  0  0
  -22.8465  -29.1886   19.8225 H   0  0  0  0  0  0
  -25.1348  -36.1746   25.0783 H   0  0  0  0  0  0
  -21.0047  -28.3374   24.1312 H   0  0  0  0  0  0
  -20.5711  -26.2374   23.3649 H   0  0  0  0  0  0
  -21.6676  -26.7421   22.1205 H   0  0  0  0  0  0
  -19.6946  -25.6271   21.1295 H   0  0  0  0  0  0
  -19.6736  -27.3155   20.6727 H   0  0  0  0  0  0
  -17.4241  -26.6692   21.4028 H   0  0  0  0  0  0
  -18.0359  -26.0105   22.9035 H   0  0  0  0  0  0
  -19.7959  -30.7334   24.2213 H   0  0  0  0  0  0
  -17.5022  -31.6274   24.5165 H   0  0  0  0  0  0
  -15.5371  -30.2967   23.7683 H   0  0  0  0  0  0
  -15.8717  -28.0806   22.7098 H   0  0  0  0  0  0
  -24.5868  -30.7117   25.7588 H   0  0  0  0  0  0
  -24.8823  -32.2976   26.4589 H   0  0  0  0  0  0
  -25.7858  -30.9017   27.0176 H   0  0  0  0  0  0
  -26.3130  -29.6533   24.1455 H   0  0  0  0  0  0
  -27.3984  -29.7264   25.5117 H   0  0  0  0  0  0
  -27.9090  -30.4046   23.9879 H   0  0  0  0  0  0
  -27.2630  -33.3681   26.1921 H   0  0  0  0  0  0
  -28.3937  -32.6799   25.0354 H   0  0  0  0  0  0
  -28.0647  -31.8535   26.5505 H   0  0  0  0  0  0
  -28.2571  -38.0083   24.7499 H   0  0  0  0  0  0
  -28.1095  -36.2602   24.6304 H   0  0  0  0  0  0
  -27.2288  -37.1427   25.8866 H   0  0  0  0  0  0
  -20.9632  -29.8713   21.6635 H   0  0  0  0  0  0
  -26.0134  -38.2753   24.1378 H   0  0  0  0  0  0
  -31.7994  -19.8352   21.3866 H   0  0  0  0  0  0
  -33.0143  -19.6037   20.0141 H   0  0  0  0  0  0
  -27.9530  -19.2266   20.4474 H   0  0  0  0  0  0
  -29.9666  -21.4262   21.1590 H   0  0  0  0  0  0
  -27.5234  -22.2732   19.5650 H   0  0  0  0  0  0
  -32.2352  -17.1836   18.5817 H   0  0  0  0  0  0
  -31.9238  -18.7013   17.7822 H   0  0  0  0  0  0
  -30.5239  -16.5970   17.0244 H   0  0  0  0  0  0
  -29.7010  -18.1123   17.1871 H   0  0  0  0  0  0
  -28.8767  -15.6949   18.3615 H   0  0  0  0  0  0
  -28.2081  -17.2515   18.6637 H   0  0  0  0  0  0
  -29.1762  -24.2252   21.4074 H   0  0  0  0  0  0
  -27.4626  -24.1616   21.4522 H   0  0  0  0  0  0
  1 25  1  0  0  0
  1 30  2  0  0  0
  1 81  1  0  0  0
  2  3  1  0  0  0
  2 25  1  0  0  0
  2 82  1  0  0  0
  2 83  1  0  0  0
  3  4  1  0  0  0
  3 84  1  0  0  0
  3 85  1  0  0  0
  4  5  1  0  0  0
  4 86  1  0  0  0
  4 87  1  0  0  0
  5  6  1  0  0  0
  5 26  1  0  0  0
  5 88  1  0  0  0
  6 25  1  0  0  0
  6 89  1  0  0  0
  6 90  1  0  0  0
  7  8  2  0  0  0
  7 26  1  0  0  0
  7 29  1  0  0  0
  8  9  1  0  0  0
  8 22  1  0  0  0
  9 10  1  0  0  0
  9 27  2  0  0  0
 10 11  2  0  0  0
 10 15  1  0  0  0
 11 12  1  0  0  0
 11 91  1  0  0  0
 12 13  2  0  0  0
 12 92  1  0  0  0
 13 14  1  0  0  0
 13 31  1  0  0  0
 14 15  2  0  0  0
 14 93  1  0  0  0
 15 94  1  0  0  0
 16 17  2  0  0  0
 16 21  1  0  0  0
 16 31  1  0  0  0
 17 18  1  0  0  0
 17 95  1  0  0  0
 18 19  2  0  0  0
 18 96  1  0  0  0
 19 20  1  0  0  0
 19 24  1  0  0  0
 20 21  2  0  0  0
 20 97  1  0  0  0
 21 23  1  0  0  0
 22 28  1  0  0  0
 22 32  2  0  0  0
 26 27  1  0  0  0
 28 98  1  0  0  0
 28 99  1  0  0  0
 29100  1  0  0  0
 29101  1  0  0  0
 33 34  1  0  0  0
 33 66  1  0  0  0
 33 70  2  0  0  0
 34 36  1  0  0  0
 34 59  1  0  0  0
 34102  1  0  0  0
 35 44  2  0  0  0
 35 45  1  0  0  0
 35 68  1  0  0  0
 36 56  1  0  0  0
 36103  1  0  0  0
 37 39  1  0  0  0
 37 47  1  0  0  0
 37 66  1  0  0  0
 37104  1  0  0  0
 38 43  2  0  0  0
 38 46  1  0  0  0
 38 47  1  0  0  0
 39 64  1  0  0  0
 39 67  2  0  0  0
 40 52  1  0  0  0
 40 53  2  0  0  0
 40 58  1  0  0  0
 41105  1  0  0  0
 41106  1  0  0  0
 41107  1  0  0  0
 41 48  1  0  0  0
 42 43  1  0  0  0
 42 66  1  0  0  0
 42108  1  0  0  0
 42109  1  0  0  0
 43 44  1  0  0  0
 44110  1  0  0  0
 45 46  2  0  0  0
 45111  1  0  0  0
 46112  1  0  0  0
 47113  1  0  0  0
 47114  1  0  0  0
 48 56  1  0  0  0
 48 65  1  0  0  0
 48115  1  0  0  0
 49 50  1  0  0  0
 49 53  1  0  0  0
 49 64  1  0  0  0
 49116  1  0  0  0
 50 51  1  0  0  0
 50117  1  0  0  0
 50118  1  0  0  0
 51 52  1  0  0  0
 51119  1  0  0  0
 51120  1  0  0  0
 52121  1  0  0  0
 52122  1  0  0  0
 53 54  1  0  0  0
 54 55  2  0  0  0
 54123  1  0  0  0
 55 57  1  0  0  0
 55124  1  0  0  0
 56 69  2  0  0  0
 57 58  2  0  0  0
 57125  1  0  0  0
 58126  1  0  0  0
 59 60  1  0  0  0
 59 61  1  0  0  0
 59 62  1  0  0  0
 60127  1  0  0  0
 60128  1  0  0  0
 60129  1  0  0  0
 61130  1  0  0  0
 61131  1  0  0  0
 61132  1  0  0  0
 62133  1  0  0  0
 62134  1  0  0  0
 62135  1  0  0  0
 63 65  1  0  0  0
 63136  1  0  0  0
 63137  1  0  0  0
 63138  1  0  0  0
 64139  1  0  0  0
 65140  1  0  0  0
 68 80  1  0  0  0
 71 72  1  0  0  0
 71 73  2  0  0  0
 71 77  1  0  0  0
 72 74  2  0  0  0
 72 81  1  0  0  0
 73141  1  0  0  0
 73142  1  0  0  0
 74 75  1  0  0  0
 74143  1  0  0  0
 75 76  2  0  0  0
 75144  1  0  0  0
 76 80  1  0  0  0
 76145  1  0  0  0
 77 78  1  0  0  0
 77146  1  0  0  0
 77147  1  0  0  0
 78 79  1  0  0  0
 78148  1  0  0  0
 78149  1  0  0  0
 79 81  1  0  0  0
 79150  1  0  0  0
 79151  1  0  0  0
 80152  1  0  0  0
 80153  1  0  0  0
M  ISO  4   1 100  68 101  80 101  81 100
M  END
> <chiral flag>
0

> <version>
0

> <s_m_source_file>
/data/baiqing/PycharmProjects/Reinvent-master-3.2/result/LINK_invent/BTK/process_docking_weight1_custom_product_contain_oxygen_bond_distance_aromatic_linkinvent_7_9_3/rearranged_h_0036.sdf

> <i_m_source_file_index>
38

> <r_mmod_Potential_Energy-OPLS-2005>
1979.22021484375

> <r_mmod_Stretch_Energy-OPLS-2005>
728.39013671875

> <r_mmod_Bend_Energy-OPLS-2005>
557.740600585938

> <r_mmod_Torsional_Energy-OPLS-2005>
416.375122070312

> <r_mmod_Improper_Torsional_Energy-OPLS-2005>
17.9754409790039

> <r_mmod_Van_der_Waal_Energy-OPLS-2005>
125.953926086426

> <r_mmod_Electrostatic_Energy-OPLS-2005>
-290.036712646484

> <r_mmod_Solvation_Energy-OPLS-2005>
-186.421295166016

> <b_mmod_Minimization_Converged-OPLS-2005>
0

> <r_mmod_RMS_Derivative-OPLS-2005>
2.0649561882019

$$$$
38
                    3D
 Structure written by MMmdl.
169178  0  0  1  0            999 V2000
  -30.6614  -14.5417   20.5285 C   0  0  0  0  0  0
  -30.4285  -12.3289   19.4560 C   0  0  0  0  0  0
  -29.5055  -12.5033   18.2293 C   0  0  0  0  0  0
  -28.0214  -12.3752   18.6265 C   0  0  0  0  0  0
  -27.6607  -13.2154   19.8819 C   0  0  2  0  0  0
  -28.7019  -13.0087   21.0072 C   0  0  0  0  0  0
  -25.2538  -13.8188   20.5669 C   0  0  0  0  0  0
  -24.1810  -13.0452   20.9203 C   0  0  0  0  0  0
  -24.6370  -11.6929   20.8755 C   0  0  0  0  0  0
  -23.9056  -10.4302   21.0412 C   0  0  0  0  0  0
  -24.3597   -9.4236   21.9188 C   0  0  0  0  0  0
  -23.6276   -8.2258   22.0743 C   0  0  0  0  0  0
  -22.4250   -8.0281   21.3533 C   0  0  0  0  0  0
  -21.9894   -9.0256   20.4639 C   0  0  0  0  0  0
  -22.7230  -10.2135   20.3066 C   0  0  0  0  0  0
  -21.6844   -6.0728   22.5287 C   0  0  0  0  0  0
  -21.4003   -6.5636   23.8211 C   0  0  0  0  0  0
  -21.3666   -5.6799   24.9189 C   0  0  0  0  0  0
  -21.6053   -4.3066   24.7254 C   0  0  0  0  0  0
  -21.8813   -3.8150   23.4375 C   0  0  0  0  0  0
  -21.9185   -4.6958   22.3422 C   0  0  0  0  0  0
  -22.7825  -13.5214   21.1894 C   0  0  0  0  0  0
  -22.1654   -4.2146   21.1003 F   0  0  0  0  0  0
  -21.5636   -3.4547   25.7769 F   0  0  0  0  0  0
  -30.0335  -13.3281   20.4654 N   0  0  0  0  0  0
  -26.3000  -12.9378   20.3381 N   0  0  0  0  0  0
  -25.9299  -11.6537   20.5773 N   0  0  0  0  0  0
  -22.0481  -12.8166   22.0455 N   0  0  0  0  0  0
  -25.4265  -15.1910   20.4036 N   0  0  0  0  0  0
  -31.7677  -14.7309   20.0202 O   0  0  0  0  0  0
  -21.6629   -6.8863   21.4235 O   0  0  0  0  0  0
  -22.3490  -14.5534   20.6787 O   0  0  0  0  0  0
  -24.6198  -31.8650   23.2071 C   0  0  0  0  0  0
  -25.9064  -32.4802   23.8388 C   0  0  1  0  0  0
  -27.2387  -27.3825   20.1030 C   0  0  0  0  0  0
  -25.5906  -33.8610   24.2328 N   0  0  0  0  0  0
  -23.4105  -30.4886   21.5471 C   0  0  2  0  0  0
  -24.8571  -28.9496   20.1103 C   0  0  0  0  0  0
  -22.7440  -29.4645   22.4948 C   0  0  0  0  0  0
  -18.0281  -28.1382   22.8474 C   0  0  0  0  0  0
  -24.1480  -36.7313   23.2634 C   0  0  0  0  0  0
  -25.9439  -30.8121   21.3698 C   0  0  0  0  0  0
  -26.0178  -29.4420   20.7189 C   0  0  0  0  0  0
  -27.2042  -28.6657   20.7154 C   0  0  0  0  0  0
  -26.0595  -26.9340   19.4594 C   0  0  0  0  0  0
  -24.8771  -27.6988   19.4735 C   0  0  0  0  0  0
  -23.6217  -29.8215   20.1616 C   0  0  0  0  0  0
  -25.4103  -36.3110   24.0341 C   0  0  1  0  0  0
  -20.5871  -28.3682   23.1287 C   0  0  2  0  0  0
  -20.6766  -26.9412   22.5394 C   0  0  0  0  0  0
  -19.5747  -26.6388   21.5190 C   0  0  0  0  0  0
  -18.1930  -26.7925   22.1605 C   0  0  0  0  0  0
  -19.1532  -28.8849   23.2879 C   0  0  0  0  0  0
  -18.9452  -30.1455   23.8906 C   0  0  0  0  0  0
  -17.6458  -30.6582   24.0564 C   0  0  0  0  0  0
  -25.9034  -34.9473   23.5134 C   0  0  0  0  0  0
  -16.5354  -29.9092   23.6320 C   0  0  0  0  0  0
  -16.7271  -28.6502   23.0345 C   0  0  0  0  0  0
  -26.4487  -31.6593   25.0737 C   0  0  0  0  0  0
  -25.3748  -31.3694   26.1480 C   0  0  0  0  0  0
  -27.0305  -30.3029   24.6116 C   0  0  0  0  0  0
  -27.6077  -32.4299   25.7491 C   0  0  0  0  0  0
  -27.5592  -37.1806   24.8469 C   0  0  0  0  0  0
  -21.4157  -29.3055   22.3700 N   0  0  0  0  0  0
  -26.4296  -37.3800   23.9425 N   0  0  0  0  0  0
  -24.6765  -31.0712   22.0988 N   0  0  0  0  0  0
  -23.4186  -28.8186   23.3007 O   0  0  0  0  0  0
  -28.4052  -26.6222   20.1738 O   0  0  0  0  0  0
  -26.5605  -34.8927   22.4697 O   0  0  0  0  0  0
  -23.5374  -32.1432   23.7432 O   0  0  0  0  0  0
  -31.7142  -18.0697   19.9033 C   0  0  0  0  0  0
  -31.9602  -20.4785   20.1647 C   0  0  0  0  0  0
  -32.4848  -19.2343   19.7657 C   0  0  0  0  0  0
  -30.4019  -18.1181   20.4097 C   0  0  0  0  0  0
  -30.6593  -20.5905   20.7024 C   0  0  0  0  0  0
  -29.8737  -19.3928   20.8290 C   0  0  0  0  0  0
  -29.0437  -23.6866   17.8752 C   0  0  0  0  0  0
  -28.9550  -25.1444   18.3513 C   0  0  0  0  0  0
  -29.9037  -22.8191   18.8172 C   0  0  0  0  0  0
  -29.2892  -24.3089   20.7109 C   0  0  0  0  0  0
  -28.4134  -25.2181   19.7854 C   0  0  1  0  0  0
  -33.8694  -19.1386   19.1534 C   0  0  0  0  0  0
  -28.4573  -19.4702   21.3867 C   0  0  0  0  0  0
  -29.5570  -16.8187   20.2929 C   0  0  0  0  0  0
  -30.2239  -22.0172   21.1707 C   0  0  0  0  0  0
  -29.9181  -15.5653   21.0136 N   0  0  0  0  0  0
  -29.4294  -22.8813   20.2268 N   0  3  2  0  0  0
  -31.4737  -12.4292   19.1561 H   0  0  0  0  0  0
  -30.3352  -11.3249   19.8702 H   0  0  0  0  0  0
  -29.7473  -11.7599   17.4697 H   0  0  0  0  0  0
  -29.6824  -13.4778   17.7697 H   0  0  0  0  0  0
  -27.8166  -11.3199   18.8143 H   0  0  0  0  0  0
  -27.3829  -12.6596   17.7882 H   0  0  0  0  0  0
  -27.6963  -14.2627   19.5848 H   0  0  0  0  0  0
  -28.6859  -11.9719   21.3474 H   0  0  0  0  0  0
  -28.4559  -13.6045   21.8863 H   0  0  0  0  0  0
  -25.2741   -9.5697   22.4754 H   0  0  0  0  0  0
  -24.0003   -7.4635   22.7405 H   0  0  0  0  0  0
  -21.0839   -8.8760   19.8896 H   0  0  0  0  0  0
  -22.3700  -10.9655   19.6160 H   0  0  0  0  0  0
  -21.1982   -7.6138   23.9722 H   0  0  0  0  0  0
  -21.1480   -6.0532   25.9080 H   0  0  0  0  0  0
  -22.0578   -2.7605   23.2894 H   0  0  0  0  0  0
  -22.4068  -11.9806   22.4831 H   0  0  0  0  0  0
  -21.1089  -13.1136   22.2645 H   0  0  0  0  0  0
  -24.6597  -15.8501   20.4992 H   0  0  0  0  0  0
  -26.2773  -15.6223   20.0684 H   0  0  0  0  0  0
  -26.7137  -32.5497   23.1150 H   0  0  0  0  0  0
  -25.0075  -33.9771   25.0484 H   0  0  0  0  0  0
  -22.7017  -31.3068   21.4050 H   0  0  0  0  0  0
  -23.3760  -35.9627   23.3271 H   0  0  0  0  0  0
  -24.3587  -36.8958   22.2057 H   0  0  0  0  0  0
  -23.7211  -37.6495   23.6669 H   0  0  0  0  0  0
  -26.0633  -31.5709   20.5950 H   0  0  0  0  0  0
  -26.8301  -30.8684   21.9905 H   0  0  0  0  0  0
  -28.0937  -29.0382   21.2048 H   0  0  0  0  0  0
  -26.0171  -25.9958   18.9279 H   0  0  0  0  0  0
  -23.9917  -27.3233   18.9796 H   0  0  0  0  0  0
  -23.7372  -30.5965   19.4034 H   0  0  0  0  0  0
  -22.7443  -29.2463   19.8603 H   0  0  0  0  0  0
  -25.1273  -36.1980   25.0838 H   0  0  0  0  0  0
  -20.9965  -28.3255   24.1406 H   0  0  0  0  0  0
  -20.5645  -26.2305   23.3595 H   0  0  0  0  0  0
  -21.6643  -26.7440   22.1205 H   0  0  0  0  0  0
  -19.6912  -25.6297   21.1231 H   0  0  0  0  0  0
  -19.6688  -27.3191   20.6713 H   0  0  0  0  0  0
  -17.4192  -26.6666   21.4014 H   0  0  0  0  0  0
  -18.0345  -26.0071   22.9008 H   0  0  0  0  0  0
  -19.7938  -30.7253   24.2286 H   0  0  0  0  0  0
  -17.5021  -31.6265   24.5166 H   0  0  0  0  0  0
  -15.5357  -30.2998   23.7640 H   0  0  0  0  0  0
  -15.8664  -28.0825   22.7065 H   0  0  0  0  0  0
  -24.5906  -30.7064   25.7812 H   0  0  0  0  0  0
  -24.8954  -32.2838   26.4976 H   0  0  0  0  0  0
  -25.8093  -30.8823   27.0212 H   0  0  0  0  0  0
  -26.2836  -29.6788   24.1189 H   0  0  0  0  0  0
  -27.4091  -29.7277   25.4573 H   0  0  0  0  0  0
  -27.8675  -30.4351   23.9256 H   0  0  0  0  0  0
  -27.2734  -33.3615   26.2058 H   0  0  0  0  0  0
  -28.3886  -32.6808   25.0306 H   0  0  0  0  0  0
  -28.0728  -31.8409   26.5401 H   0  0  0  0  0  0
  -28.2590  -38.0117   24.7540 H   0  0  0  0  0  0
  -28.1098  -36.2654   24.6254 H   0  0  0  0  0  0
  -27.2317  -37.1417   25.8869 H   0  0  0  0  0  0
  -20.9334  -29.8814   21.6945 H   0  0  0  0  0  0
  -26.0182  -38.2876   24.1423 H   0  0  0  0  0  0
  -32.1201  -17.1297   19.5589 H   0  0  0  0  0  0
  -32.5724  -21.3657   20.0576 H   0  0  0  0  0  0
  -29.4634  -23.6535   16.8690 H   0  0  0  0  0  0
  -28.0404  -23.2685   17.7981 H   0  0  0  0  0  0
  -28.3206  -25.7220   17.6798 H   0  0  0  0  0  0
  -29.9432  -25.6063   18.3118 H   0  0  0  0  0  0
  -30.9467  -23.1353   18.7648 H   0  0  0  0  0  0
  -29.8687  -21.7894   18.4591 H   0  0  0  0  0  0
  -28.8497  -24.3042   21.7085 H   0  0  0  0  0  0
  -30.2779  -24.7572   20.8160 H   0  0  0  0  0  0
  -27.4164  -24.7844   19.8357 H   0  0  0  0  0  0
  -33.8212  -18.6240   18.1915 H   0  0  0  0  0  0
  -34.5381  -18.5688   19.8009 H   0  0  0  0  0  0
  -34.3096  -20.1220   18.9873 H   0  0  0  0  0  0
  -28.2874  -18.6681   22.1033 H   0  0  0  0  0  0
  -27.7261  -19.3767   20.5845 H   0  0  0  0  0  0
  -28.2482  -20.3969   21.9156 H   0  0  0  0  0  0
  -29.5210  -16.5805   19.2285 H   0  0  0  0  0  0
  -28.5207  -17.0251   20.5497 H   0  0  0  0  0  0
  -31.1433  -22.5651   21.3898 H   0  0  0  0  0  0
  -29.7149  -21.9634   22.1323 H   0  0  0  0  0  0
  -29.1713  -15.2440   21.6093 H   0  0  0  0  0  0
  -28.5013  -22.4851   20.2166 H   0  0  0  0  0  0
  1 25  1  0  0  0
  1 30  2  0  0  0
  1 86  1  0  0  0
  2  3  1  0  0  0
  2 25  1  0  0  0
  2 88  1  0  0  0
  2 89  1  0  0  0
  3  4  1  0  0  0
  3 90  1  0  0  0
  3 91  1  0  0  0
  4  5  1  0  0  0
  4 92  1  0  0  0
  4 93  1  0  0  0
  5  6  1  0  0  0
  5 26  1  0  0  0
  5 94  1  0  0  0
  6 25  1  0  0  0
  6 95  1  0  0  0
  6 96  1  0  0  0
  7  8  2  0  0  0
  7 26  1  0  0  0
  7 29  1  0  0  0
  8  9  1  0  0  0
  8 22  1  0  0  0
  9 10  1  0  0  0
  9 27  2  0  0  0
 10 11  2  0  0  0
 10 15  1  0  0  0
 11 12  1  0  0  0
 11 97  1  0  0  0
 12 13  2  0  0  0
 12 98  1  0  0  0
 13 14  1  0  0  0
 13 31  1  0  0  0
 14 15  2  0  0  0
 14 99  1  0  0  0
 15100  1  0  0  0
 16 17  2  0  0  0
 16 21  1  0  0  0
 16 31  1  0  0  0
 17 18  1  0  0  0
 17101  1  0  0  0
 18 19  2  0  0  0
 18102  1  0  0  0
 19 20  1  0  0  0
 19 24  1  0  0  0
 20 21  2  0  0  0
 20103  1  0  0  0
 21 23  1  0  0  0
 22 28  1  0  0  0
 22 32  2  0  0  0
 26 27  1  0  0  0
 28104  1  0  0  0
 28105  1  0  0  0
 29106  1  0  0  0
 29107  1  0  0  0
 33 34  1  0  0  0
 33 66  1  0  0  0
 33 70  2  0  0  0
 34 36  1  0  0  0
 34 59  1  0  0  0
 34108  1  0  0  0
 35 44  2  0  0  0
 35 45  1  0  0  0
 35 68  1  0  0  0
 36 56  1  0  0  0
 36109  1  0  0  0
 37 39  1  0  0  0
 37 47  1  0  0  0
 37 66  1  0  0  0
 37110  1  0  0  0
 38 43  2  0  0  0
 38 46  1  0  0  0
 38 47  1  0  0  0
 39 64  1  0  0  0
 39 67  2  0  0  0
 40 52  1  0  0  0
 40 53  2  0  0  0
 40 58  1  0  0  0
 41111  1  0  0  0
 41112  1  0  0  0
 41113  1  0  0  0
 41 48  1  0  0  0
 42 43  1  0  0  0
 42 66  1  0  0  0
 42114  1  0  0  0
 42115  1  0  0  0
 43 44  1  0  0  0
 44116  1  0  0  0
 45 46  2  0  0  0
 45117  1  0  0  0
 46118  1  0  0  0
 47119  1  0  0  0
 47120  1  0  0  0
 48 56  1  0  0  0
 48 65  1  0  0  0
 48121  1  0  0  0
 49 50  1  0  0  0
 49 53  1  0  0  0
 49 64  1  0  0  0
 49122  1  0  0  0
 50 51  1  0  0  0
 50123  1  0  0  0
 50124  1  0  0  0
 51 52  1  0  0  0
 51125  1  0  0  0
 51126  1  0  0  0
 52127  1  0  0  0
 52128  1  0  0  0
 53 54  1  0  0  0
 54 55  2  0  0  0
 54129  1  0  0  0
 55 57  1  0  0  0
 55130  1  0  0  0
 56 69  2  0  0  0
 57 58  2  0  0  0
 57131  1  0  0  0
 58132  1  0  0  0
 59 60  1  0  0  0
 59 61  1  0  0  0
 59 62  1  0  0  0
 60133  1  0  0  0
 60134  1  0  0  0
 60135  1  0  0  0
 61136  1  0  0  0
 61137  1  0  0  0
 61138  1  0  0  0
 62139  1  0  0  0
 62140  1  0  0  0
 62141  1  0  0  0
 63 65  1  0  0  0
 63142  1  0  0  0
 63143  1  0  0  0
 63144  1  0  0  0
 64145  1  0  0  0
 65146  1  0  0  0
 68 81  1  0  0  0
 71 73  2  0  0  0
 71 74  1  0  0  0
 71147  1  0  0  0
 72 73  1  0  0  0
 72 75  2  0  0  0
 72148  1  0  0  0
 73 82  1  0  0  0
 74 76  2  0  0  0
 74 84  1  0  0  0
 75 76  1  0  0  0
 75 85  1  0  0  0
 76 83  1  0  0  0
 77 78  1  0  0  0
 77 79  1  0  0  0
 77149  1  0  0  0
 77150  1  0  0  0
 78 81  1  0  0  0
 78151  1  0  0  0
 78152  1  0  0  0
 79 87  1  0  0  0
 79153  1  0  0  0
 79154  1  0  0  0
 80 81  1  0  0  0
 80 87  1  0  0  0
 80155  1  0  0  0
 80156  1  0  0  0
 81157  1  0  0  0
 82158  1  0  0  0
 82159  1  0  0  0
 82160  1  0  0  0
 83161  1  0  0  0
 83162  1  0  0  0
 83163  1  0  0  0
 84 86  1  0  0  0
 84164  1  0  0  0
 84165  1  0  0  0
 85166  1  0  0  0
 85167  1  0  0  0
 85 87  1  0  0  0
 86168  1  0  0  0
 87169  1  0  0  0
M  CHG  1  87   1
M  ISO  4   1 100  68 101  81 101  86 100
M  END
> <chiral flag>
0

> <version>
0

> <s_m_source_file>
/data/baiqing/PycharmProjects/Reinvent-master-3.2/result/LINK_invent/BTK/process_docking_weight1_custom_product_contain_oxygen_bond_distance_aromatic_linkinvent_7_9_3/rearranged_h_0036.sdf

> <i_m_source_file_index>
39

> <r_mmod_Potential_Energy-OPLS-2005>
-101.979194641113

> <r_mmod_Stretch_Energy-OPLS-2005>
60.5374183654785

> <r_mmod_Bend_Energy-OPLS-2005>
132.85075378418

> <r_mmod_Torsional_Energy-OPLS-2005>
247.288330078125

> <r_mmod_Improper_Torsional_Energy-OPLS-2005>
8.31904220581055

> <r_mmod_Van_der_Waal_Energy-OPLS-2005>
152.488555908203

> <r_mmod_Electrostatic_Energy-OPLS-2005>
-299.923065185547

> <r_mmod_Solvation_Energy-OPLS-2005>
-427.585083007812

> <b_mmod_Minimization_Converged-OPLS-2005>
0

> <r_mmod_RMS_Derivative-OPLS-2005>
3.60990715026855

$$$$
39
                    3D
 Structure written by MMmdl.
166175  0  0  1  0            999 V2000
  -30.6139  -14.6050   20.5402 C   0  0  0  0  0  0
  -30.4421  -12.3767   19.4383 C   0  0  0  0  0  0
  -29.5057  -12.5101   18.2153 C   0  0  0  0  0  0
  -28.0263  -12.3557   18.6264 C   0  0  0  0  0  0
  -27.6577  -13.2069   19.8724 C   0  0  2  0  0  0
  -28.7042  -13.0054   20.9920 C   0  0  0  0  0  0
  -25.2554  -13.8127   20.5705 C   0  0  0  0  0  0
  -24.1804  -13.0400   20.9187 C   0  0  0  0  0  0
  -24.6365  -11.6865   20.8722 C   0  0  0  0  0  0
  -23.9026  -10.4270   21.0380 C   0  0  0  0  0  0
  -24.3588   -9.4193   21.9155 C   0  0  0  0  0  0
  -23.6270   -8.2216   22.0742 C   0  0  0  0  0  0
  -22.4245   -8.0252   21.3544 C   0  0  0  0  0  0
  -21.9879   -9.0211   20.4636 C   0  0  0  0  0  0
  -22.7201  -10.2098   20.3032 C   0  0  0  0  0  0
  -21.6845   -6.0708   22.5272 C   0  0  0  0  0  0
  -21.4005   -6.5607   23.8214 C   0  0  0  0  0  0
  -21.3670   -5.6771   24.9172 C   0  0  0  0  0  0
  -21.6052   -4.3032   24.7236 C   0  0  0  0  0  0
  -21.8825   -3.8124   23.4352 C   0  0  0  0  0  0
  -21.9184   -4.6929   22.3408 C   0  0  0  0  0  0
  -22.7835  -13.5199   21.1871 C   0  0  0  0  0  0
  -22.1654   -4.2102   21.0986 F   0  0  0  0  0  0
  -21.5636   -3.4531   25.7752 F   0  0  0  0  0  0
  -30.0204  -13.3704   20.4453 N   0  0  0  0  0  0
  -26.2994  -12.9312   20.3366 N   0  0  0  0  0  0
  -25.9302  -11.6477   20.5770 N   0  0  0  0  0  0
  -22.0483  -12.8183   22.0432 N   0  0  0  0  0  0
  -25.4300  -15.1853   20.4165 N   0  0  0  0  0  0
  -31.7517  -14.8112   20.1068 O   0  0  0  0  0  0
  -21.6618   -6.8834   21.4233 O   0  0  0  0  0  0
  -22.3491  -14.5509   20.6721 O   0  0  0  0  0  0
  -24.6226  -31.8635   23.2068 C   0  0  0  0  0  0
  -25.9083  -32.4804   23.8384 C   0  0  1  0  0  0
  -27.2192  -27.3413   20.1149 C   0  0  0  0  0  0
  -25.5883  -33.8609   24.2289 N   0  0  0  0  0  0
  -23.4133  -30.4856   21.5518 C   0  0  2  0  0  0
  -24.8581  -28.9478   20.1178 C   0  0  0  0  0  0
  -22.7462  -29.4588   22.4968 C   0  0  0  0  0  0
  -18.0246  -28.1475   22.8486 C   0  0  0  0  0  0
  -24.1474  -36.7303   23.2646 C   0  0  0  0  0  0
  -25.9557  -30.8015   21.3727 C   0  0  0  0  0  0
  -26.0296  -29.4305   20.7146 C   0  0  0  0  0  0
  -27.2160  -28.6412   20.7034 C   0  0  0  0  0  0
  -26.0278  -26.9086   19.4869 C   0  0  0  0  0  0
  -24.8563  -27.6892   19.4988 C   0  0  0  0  0  0
  -23.6274  -29.8285   20.1660 C   0  0  0  0  0  0
  -25.4100  -36.3107   24.0340 C   0  0  1  0  0  0
  -20.5832  -28.3697   23.1296 C   0  0  2  0  0  0
  -20.6682  -26.9428   22.5421 C   0  0  0  0  0  0
  -19.5705  -26.6431   21.5194 C   0  0  0  0  0  0
  -18.1850  -26.8083   22.1506 C   0  0  0  0  0  0
  -19.1528  -28.8870   23.2911 C   0  0  0  0  0  0
  -18.9519  -30.1446   23.8983 C   0  0  0  0  0  0
  -17.6552  -30.6653   24.0673 C   0  0  0  0  0  0
  -25.9046  -34.9474   23.5121 C   0  0  0  0  0  0
  -16.5382  -29.9220   23.6449 C   0  0  0  0  0  0
  -16.7254  -28.6642   23.0410 C   0  0  0  0  0  0
  -26.4476  -31.6584   25.0729 C   0  0  0  0  0  0
  -25.3734  -31.3685   26.1460 C   0  0  0  0  0  0
  -27.0329  -30.3026   24.6149 C   0  0  0  0  0  0
  -27.6043  -32.4311   25.7504 C   0  0  0  0  0  0
  -27.5579  -37.1801   24.8479 C   0  0  0  0  0  0
  -21.4160  -29.3108   22.3789 N   0  0  0  0  0  0
  -26.4297  -37.3787   23.9409 N   0  0  0  0  0  0
  -24.6817  -31.0667   22.1008 N   0  0  0  0  0  0
  -23.4202  -28.8018   23.2935 O   0  0  0  0  0  0
  -28.3334  -26.4896   20.1593 O   0  0  0  0  0  0
  -26.5642  -34.8942   22.4707 O   0  0  0  0  0  0
  -23.5391  -32.1447   23.7372 O   0  0  0  0  0  0
  -29.8134  -19.3971   21.5922 C   0  0  0  0  0  0
  -30.0164  -17.9976   21.8059 C   0  0  0  0  0  0
  -29.3481  -17.5450   19.5481 C   0  0  0  0  0  0
  -29.3325  -19.9144   20.3529 C   0  0  0  0  0  0
  -29.1188  -18.9375   19.3227 C   0  0  0  0  0  0
  -29.8021  -17.0356   20.7849 C   0  0  0  0  0  0
  -27.8773  -25.2021   22.1564 C   0  0  0  0  0  0
  -27.7029  -23.8225   22.8189 C   0  0  0  0  0  0
  -29.1610  -23.9717   20.3416 C   0  0  0  0  0  0
  -28.0947  -25.1110   20.6445 C   0  0  2  0  0  0
  -27.6974  -22.6104   21.8453 C   0  0  2  0  0  0
  -27.4469  -21.3369   22.6692 C   0  0  0  0  0  0
  -29.1138  -21.4517   20.0148 C   0  0  0  0  0  0
  -28.6091  -19.3546   17.9422 C   0  0  0  0  0  0
  -29.8274  -15.6014   21.0498 N   0  0  0  0  0  0
  -28.9464  -22.6000   21.0096 N   0  3  1  0  0  0
  -28.6324  -18.3461   17.0690 F   0  0  0  0  0  0
  -27.3480  -19.7688   18.0510 F   0  0  0  0  0  0
  -29.3498  -20.3393   17.4326 F   0  0  0  0  0  0
  -31.4806  -12.5159   19.1331 H   0  0  0  0  0  0
  -30.3872  -11.3663   19.8477 H   0  0  0  0  0  0
  -29.7616  -11.7649   17.4592 H   0  0  0  0  0  0
  -29.6520  -13.4850   17.7494 H   0  0  0  0  0  0
  -27.8515  -11.3002   18.8410 H   0  0  0  0  0  0
  -27.3706  -12.6054   17.7918 H   0  0  0  0  0  0
  -27.6943  -14.2522   19.5639 H   0  0  0  0  0  0
  -28.7125  -11.9607   21.3106 H   0  0  0  0  0  0
  -28.4574  -13.5731   21.8878 H   0  0  0  0  0  0
  -25.2734   -9.5638   22.4721 H   0  0  0  0  0  0
  -23.9964   -7.4594   22.7473 H   0  0  0  0  0  0
  -21.0801   -8.8713   19.8949 H   0  0  0  0  0  0
  -22.3650  -10.9610   19.6118 H   0  0  0  0  0  0
  -21.2007   -7.6116   23.9698 H   0  0  0  0  0  0
  -21.1492   -6.0501   25.9070 H   0  0  0  0  0  0
  -22.0607   -2.7579   23.2876 H   0  0  0  0  0  0
  -22.4120  -11.9829   22.4775 H   0  0  0  0  0  0
  -21.1095  -13.1186   22.2692 H   0  0  0  0  0  0
  -24.6660  -15.8395   20.5552 H   0  0  0  0  0  0
  -26.2865  -15.6329   20.1178 H   0  0  0  0  0  0
  -26.7178  -32.5460   23.1156 H   0  0  0  0  0  0
  -24.9970  -33.9752   25.0391 H   0  0  0  0  0  0
  -22.7017  -31.3025   21.4162 H   0  0  0  0  0  0
  -23.3746  -35.9630   23.3334 H   0  0  0  0  0  0
  -24.3592  -36.8913   22.2070 H   0  0  0  0  0  0
  -23.7230  -37.6514   23.6654 H   0  0  0  0  0  0
  -26.0832  -31.5635   20.6013 H   0  0  0  0  0  0
  -26.8420  -30.8505   21.9945 H   0  0  0  0  0  0
  -28.1134  -29.0137   21.1791 H   0  0  0  0  0  0
  -25.9723  -25.9534   18.9838 H   0  0  0  0  0  0
  -23.9563  -27.3073   19.0375 H   0  0  0  0  0  0
  -23.7516  -30.6100   19.4158 H   0  0  0  0  0  0
  -22.7450  -29.2686   19.8552 H   0  0  0  0  0  0
  -25.1274  -36.1994   25.0840 H   0  0  0  0  0  0
  -20.9887  -28.3209   24.1429 H   0  0  0  0  0  0
  -20.5538  -26.2309   23.3594 H   0  0  0  0  0  0
  -21.6582  -26.7452   22.1317 H   0  0  0  0  0  0
  -19.6724  -25.6379   21.1124 H   0  0  0  0  0  0
  -19.6739  -27.3269   20.6739 H   0  0  0  0  0  0
  -17.4171  -26.7087   21.3827 H   0  0  0  0  0  0
  -18.0028  -26.0163   22.8786 H   0  0  0  0  0  0
  -19.8041  -30.7119   24.2418 H   0  0  0  0  0  0
  -17.5253  -31.6308   24.5336 H   0  0  0  0  0  0
  -15.5427  -30.3215   23.7833 H   0  0  0  0  0  0
  -15.8634  -28.1014   22.7109 H   0  0  0  0  0  0
  -24.5880  -30.7072   25.7771 H   0  0  0  0  0  0
  -24.8952  -32.2840   26.4955 H   0  0  0  0  0  0
  -25.8069  -30.8809   27.0196 H   0  0  0  0  0  0
  -26.2893  -29.6774   24.1202 H   0  0  0  0  0  0
  -27.4099  -29.7267   25.4610 H   0  0  0  0  0  0
  -27.8717  -30.4344   23.9315 H   0  0  0  0  0  0
  -27.2645  -33.3596   26.2094 H   0  0  0  0  0  0
  -28.3835  -32.6905   25.0324 H   0  0  0  0  0  0
  -28.0727  -31.8445   26.5418 H   0  0  0  0  0  0
  -28.2597  -38.0091   24.7507 H   0  0  0  0  0  0
  -28.1067  -36.2629   24.6318 H   0  0  0  0  0  0
  -27.2292  -37.1455   25.8879 H   0  0  0  0  0  0
  -20.9320  -29.9155   21.7309 H   0  0  0  0  0  0
  -26.0194  -38.2872   24.1405 H   0  0  0  0  0  0
  -30.0091  -20.0630   22.4205 H   0  0  0  0  0  0
  -30.3266  -17.6589   22.7842 H   0  0  0  0  0  0
  -29.1307  -16.8425   18.7583 H   0  0  0  0  0  0
  -28.7192  -25.7244   22.6125 H   0  0  0  0  0  0
  -27.0060  -25.8192   22.3684 H   0  0  0  0  0  0
  -26.7866  -23.8364   23.4130 H   0  0  0  0  0  0
  -28.5092  -23.6953   23.5389 H   0  0  0  0  0  0
  -30.1544  -24.3226   20.6222 H   0  0  0  0  0  0
  -29.1888  -23.8479   19.2608 H   0  0  0  0  0  0
  -27.1705  -24.7408   20.2079 H   0  0  0  0  0  0
  -26.8459  -22.7083   21.1695 H   0  0  0  0  0  0
  -28.2247  -21.1677   23.4137 H   0  0  0  0  0  0
  -27.3486  -20.4463   22.0512 H   0  0  0  0  0  0
  -26.5081  -21.4163   23.2168 H   0  0  0  0  0  0
  -28.2732  -21.5543   19.3324 H   0  0  0  0  0  0
  -29.9967  -21.7000   19.4263 H   0  0  0  0  0  0
  -28.9725  -15.2407   21.4455 H   0  0  0  0  0  0
  -29.7197  -22.5040   21.6536 H   0  0  0  0  0  0
  1 25  1  0  0  0
  1 30  2  0  0  0
  1 85  1  0  0  0
  2  3  1  0  0  0
  2 25  1  0  0  0
  2 90  1  0  0  0
  2 91  1  0  0  0
  3  4  1  0  0  0
  3 92  1  0  0  0
  3 93  1  0  0  0
  4  5  1  0  0  0
  4 94  1  0  0  0
  4 95  1  0  0  0
  5  6  1  0  0  0
  5 26  1  0  0  0
  5 96  1  0  0  0
  6 25  1  0  0  0
  6 97  1  0  0  0
  6 98  1  0  0  0
  7  8  2  0  0  0
  7 26  1  0  0  0
  7 29  1  0  0  0
  8  9  1  0  0  0
  8 22  1  0  0  0
  9 10  1  0  0  0
  9 27  2  0  0  0
 10 11  2  0  0  0
 10 15  1  0  0  0
 11 12  1  0  0  0
 11 99  1  0  0  0
 12 13  2  0  0  0
 12100  1  0  0  0
 13 14  1  0  0  0
 13 31  1  0  0  0
 14 15  2  0  0  0
 14101  1  0  0  0
 15102  1  0  0  0
 16 17  2  0  0  0
 16 21  1  0  0  0
 16 31  1  0  0  0
 17 18  1  0  0  0
 17103  1  0  0  0
 18 19  2  0  0  0
 18104  1  0  0  0
 19 20  1  0  0  0
 19 24  1  0  0  0
 20 21  2  0  0  0
 20105  1  0  0  0
 21 23  1  0  0  0
 22 28  1  0  0  0
 22 32  2  0  0  0
 26 27  1  0  0  0
 28106  1  0  0  0
 28107  1  0  0  0
 29108  1  0  0  0
 29109  1  0  0  0
 33 34  1  0  0  0
 33 66  1  0  0  0
 33 70  2  0  0  0
 34 36  1  0  0  0
 34 59  1  0  0  0
 34110  1  0  0  0
 35 44  2  0  0  0
 35 45  1  0  0  0
 35 68  1  0  0  0
 36 56  1  0  0  0
 36111  1  0  0  0
 37 39  1  0  0  0
 37 47  1  0  0  0
 37 66  1  0  0  0
 37112  1  0  0  0
 38 43  2  0  0  0
 38 46  1  0  0  0
 38 47  1  0  0  0
 39 64  1  0  0  0
 39 67  2  0  0  0
 40 52  1  0  0  0
 40 53  2  0  0  0
 40 58  1  0  0  0
 41113  1  0  0  0
 41114  1  0  0  0
 41115  1  0  0  0
 41 48  1  0  0  0
 42 43  1  0  0  0
 42 66  1  0  0  0
 42116  1  0  0  0
 42117  1  0  0  0
 43 44  1  0  0  0
 44118  1  0  0  0
 45 46  2  0  0  0
 45119  1  0  0  0
 46120  1  0  0  0
 47121  1  0  0  0
 47122  1  0  0  0
 48 56  1  0  0  0
 48 65  1  0  0  0
 48123  1  0  0  0
 49 50  1  0  0  0
 49 53  1  0  0  0
 49 64  1  0  0  0
 49124  1  0  0  0
 50 51  1  0  0  0
 50125  1  0  0  0
 50126  1  0  0  0
 51 52  1  0  0  0
 51127  1  0  0  0
 51128  1  0  0  0
 52129  1  0  0  0
 52130  1  0  0  0
 53 54  1  0  0  0
 54 55  2  0  0  0
 54131  1  0  0  0
 55 57  1  0  0  0
 55132  1  0  0  0
 56 69  2  0  0  0
 57 58  2  0  0  0
 57133  1  0  0  0
 58134  1  0  0  0
 59 60  1  0  0  0
 59 61  1  0  0  0
 59 62  1  0  0  0
 60135  1  0  0  0
 60136  1  0  0  0
 60137  1  0  0  0
 61138  1  0  0  0
 61139  1  0  0  0
 61140  1  0  0  0
 62141  1  0  0  0
 62142  1  0  0  0
 62143  1  0  0  0
 63 65  1  0  0  0
 63144  1  0  0  0
 63145  1  0  0  0
 63146  1  0  0  0
 64147  1  0  0  0
 65148  1  0  0  0
 68 80  1  0  0  0
 71 72  2  0  0  0
 71 74  1  0  0  0
 71149  1  0  0  0
 72 76  1  0  0  0
 72150  1  0  0  0
 73 75  1  0  0  0
 73 76  2  0  0  0
 73151  1  0  0  0
 74 75  2  0  0  0
 74 83  1  0  0  0
 75 84  1  0  0  0
 76 85  1  0  0  0
 77 78  1  0  0  0
 77 80  1  0  0  0
 77152  1  0  0  0
 77153  1  0  0  0
 78 81  1  0  0  0
 78154  1  0  0  0
 78155  1  0  0  0
 79 80  1  0  0  0
 79 86  1  0  0  0
 79156  1  0  0  0
 79157  1  0  0  0
 80158  1  0  0  0
 81 82  1  0  0  0
 81 86  1  0  0  0
 81159  1  0  0  0
 82160  1  0  0  0
 82161  1  0  0  0
 82162  1  0  0  0
 83163  1  0  0  0
 83164  1  0  0  0
 83 86  1  0  0  0
 84 87  1  0  0  0
 84 88  1  0  0  0
 84 89  1  0  0  0
 85165  1  0  0  0
 86166  1  0  0  0
M  CHG  1  86   1
M  ISO  4   1 100  68 101  80 101  85 100
M  END
> <chiral flag>
0

> <version>
0

> <s_m_source_file>
/data/baiqing/PycharmProjects/Reinvent-master-3.2/result/LINK_invent/BTK/process_docking_weight1_custom_product_contain_oxygen_bond_distance_aromatic_linkinvent_7_9_3/rearranged_h_0036.sdf

> <i_m_source_file_index>
40

> <r_mmod_Potential_Energy-OPLS-2005>
78.5854949951172

> <r_mmod_Stretch_Energy-OPLS-2005>
86.9271926879883

> <r_mmod_Bend_Energy-OPLS-2005>
162.619827270508

> <r_mmod_Torsional_Energy-OPLS-2005>
305.051147460938

> <r_mmod_Improper_Torsional_Energy-OPLS-2005>
4.98805236816406

> <r_mmod_Van_der_Waal_Energy-OPLS-2005>
159.814819335938

> <r_mmod_Electrostatic_Energy-OPLS-2005>
-254.18132019043

> <r_mmod_Solvation_Energy-OPLS-2005>
-426.034088134766

> <b_mmod_Minimization_Converged-OPLS-2005>
0

> <r_mmod_RMS_Derivative-OPLS-2005>
5.22726440429688

$$$$
40
                    3D
 Structure written by MMmdl.
170179  0  0  1  0            999 V2000
  -30.7376  -14.4648   20.4547 C   0  0  0  0  0  0
  -30.3864  -12.2672   19.4448 C   0  0  0  0  0  0
  -29.4759  -12.4530   18.2143 C   0  0  0  0  0  0
  -27.9943  -12.3360   18.6240 C   0  0  0  0  0  0
  -27.6414  -13.2109   19.8577 C   0  0  2  0  0  0
  -28.6928  -13.0777   20.9872 C   0  0  0  0  0  0
  -25.2378  -13.8043   20.5725 C   0  0  0  0  0  0
  -24.1730  -13.0282   20.9291 C   0  0  0  0  0  0
  -24.6358  -11.6807   20.8803 C   0  0  0  0  0  0
  -23.9033  -10.4212   21.0428 C   0  0  0  0  0  0
  -24.3587   -9.4143   21.9186 C   0  0  0  0  0  0
  -23.6288   -8.2155   22.0719 C   0  0  0  0  0  0
  -22.4265   -8.0217   21.3520 C   0  0  0  0  0  0
  -21.9908   -9.0176   20.4611 C   0  0  0  0  0  0
  -22.7212  -10.2075   20.3059 C   0  0  0  0  0  0
  -21.6841   -6.0713   22.5278 C   0  0  0  0  0  0
  -21.3989   -6.5620   23.8223 C   0  0  0  0  0  0
  -21.3675   -5.6772   24.9188 C   0  0  0  0  0  0
  -21.6073   -4.3044   24.7234 C   0  0  0  0  0  0
  -21.8811   -3.8130   23.4358 C   0  0  0  0  0  0
  -21.9182   -4.6936   22.3419 C   0  0  0  0  0  0
  -22.7749  -13.5116   21.1924 C   0  0  0  0  0  0
  -22.1661   -4.2144   21.0996 F   0  0  0  0  0  0
  -21.5655   -3.4520   25.7742 F   0  0  0  0  0  0
  -30.0200  -13.3166   20.4036 N   0  0  0  0  0  0
  -26.2894  -12.9312   20.3350 N   0  0  0  0  0  0
  -25.9299  -11.6465   20.5854 N   0  0  0  0  0  0
  -22.0380  -12.8136   22.0539 N   0  0  0  0  0  0
  -25.3593  -15.1732   20.4129 N   0  0  0  0  0  0
  -31.9334  -14.5175   20.1733 O   0  0  0  0  0  0
  -21.6612   -6.8833   21.4234 O   0  0  0  0  0  0
  -22.3468  -14.5421   20.6778 O   0  0  0  0  0  0
  -24.6112  -31.8713   23.2081 C   0  0  0  0  0  0
  -25.9061  -32.4811   23.8382 C   0  0  1  0  0  0
  -27.2294  -27.4563   20.1376 C   0  0  0  0  0  0
  -25.5894  -33.8600   24.2329 N   0  0  0  0  0  0
  -23.3976  -30.4946   21.5449 C   0  0  2  0  0  0
  -24.8457  -28.9477   20.1287 C   0  0  0  0  0  0
  -22.7332  -29.4769   22.4964 C   0  0  0  0  0  0
  -18.0255  -28.1431   22.8619 C   0  0  0  0  0  0
  -24.1503  -36.7320   23.2638 C   0  0  0  0  0  0
  -25.9187  -30.8469   21.3525 C   0  0  0  0  0  0
  -25.9983  -29.4759   20.7190 C   0  0  0  0  0  0
  -27.1959  -28.7374   20.7186 C   0  0  0  0  0  0
  -26.0750  -26.9485   19.5084 C   0  0  0  0  0  0
  -24.8733  -27.6781   19.5288 C   0  0  0  0  0  0
  -23.6102  -29.8120   20.1671 C   0  0  0  0  0  0
  -25.4107  -36.3086   24.0334 C   0  0  1  0  0  0
  -20.5874  -28.3795   23.1448 C   0  0  2  0  0  0
  -20.6715  -26.9460   22.5821 C   0  0  0  0  0  0
  -19.5847  -26.6600   21.5439 C   0  0  0  0  0  0
  -18.2012  -26.7896   22.1911 C   0  0  0  0  0  0
  -19.1522  -28.8935   23.2989 C   0  0  0  0  0  0
  -18.9504  -30.1568   23.8951 C   0  0  0  0  0  0
  -17.6470  -30.6656   24.0582 C   0  0  0  0  0  0
  -25.9029  -34.9452   23.5140 C   0  0  0  0  0  0
  -16.5361  -29.9177   23.6355 C   0  0  0  0  0  0
  -16.7258  -28.6565   23.0446 C   0  0  0  0  0  0
  -26.4493  -31.6532   25.0670 C   0  0  0  0  0  0
  -25.3790  -31.3581   26.1430 C   0  0  0  0  0  0
  -27.0287  -30.2991   24.5924 C   0  0  0  0  0  0
  -27.6069  -32.4241   25.7442 C   0  0  0  0  0  0
  -27.5566  -37.1796   24.8457 C   0  0  0  0  0  0
  -21.4102  -29.2975   22.3588 N   0  0  0  0  0  0
  -26.4295  -37.3761   23.9391 N   0  0  0  0  0  0
  -24.6615  -31.0840   22.0969 N   0  0  0  0  0  0
  -23.4065  -28.8517   23.3222 O   0  0  0  0  0  0
  -28.4052  -26.7540   20.1985 O   0  0  0  0  0  0
  -26.5611  -34.8904   22.4696 O   0  0  0  0  0  0
  -23.5343  -32.1495   23.7532 O   0  0  0  0  0  0
  -30.5414  -19.3576   19.8787 C   0  0  0  0  0  0
  -29.9279  -20.6113   19.7280 C   0  0  0  0  0  0
  -29.8001  -18.1685   19.9137 C   0  0  0  0  0  0
  -28.3929  -18.2449   19.7555 C   0  0  0  0  0  0
  -27.7241  -19.5033   19.7248 C   0  0  0  0  0  0
  -28.5026  -20.6968   19.6721 C   0  0  0  0  0  0
  -27.3067  -23.3825   21.4766 C   0  0  0  0  0  0
  -26.6922  -22.4347   22.2028 C   0  0  0  0  0  0
  -27.2702  -24.8938   21.6565 C   0  0  0  0  0  0
  -28.5041  -24.3816   19.6521 C   0  0  0  0  0  0
  -28.4049  -25.4240   20.7446 C   0  0  1  0  0  0
  -30.8638  -21.8103   19.5660 C   0  0  0  0  0  0
  -27.6459  -16.9707   19.4720 C   0  0  0  0  0  0
  -26.1852  -19.5467   19.6297 C   0  0  0  0  0  0
  -30.6202  -16.8675   19.9787 C   0  0  0  0  0  0
  -27.8277  -22.0429   19.3829 C   0  0  0  0  0  0
  -30.0332  -15.6099   20.4876 N   0  0  0  0  0  0
  -28.2210  -23.1015   20.3352 N   0  3  2  0  0  0
  -31.4411  -12.3013   19.1581 H   0  0  0  0  0  0
  -30.2294  -11.2821   19.8932 H   0  0  0  0  0  0
  -29.7083  -11.7077   17.4505 H   0  0  0  0  0  0
  -29.6500  -13.4309   17.7657 H   0  0  0  0  0  0
  -27.7858  -11.2878   18.8427 H   0  0  0  0  0  0
  -27.3478  -12.5928   17.7811 H   0  0  0  0  0  0
  -27.6532  -14.2389   19.5041 H   0  0  0  0  0  0
  -28.6659  -12.0801   21.4297 H   0  0  0  0  0  0
  -28.4901  -13.7799   21.7965 H   0  0  0  0  0  0
  -25.2714   -9.5641   22.4795 H   0  0  0  0  0  0
  -23.9995   -7.4560   22.7446 H   0  0  0  0  0  0
  -21.0843   -8.8716   19.8920 H   0  0  0  0  0  0
  -22.3670  -10.9626   19.6213 H   0  0  0  0  0  0
  -21.1952   -7.6119   23.9740 H   0  0  0  0  0  0
  -21.1529   -6.0494   25.9113 H   0  0  0  0  0  0
  -22.0574   -2.7582   23.2855 H   0  0  0  0  0  0
  -22.3979  -11.9815   22.4956 H   0  0  0  0  0  0
  -21.0991  -13.1129   22.2758 H   0  0  0  0  0  0
  -24.5666  -15.7750   20.6093 H   0  0  0  0  0  0
  -26.1472  -15.6715   20.0253 H   0  0  0  0  0  0
  -26.7169  -32.5564   23.1196 H   0  0  0  0  0  0
  -24.9997  -33.9774   25.0453 H   0  0  0  0  0  0
  -22.6896  -31.3090   21.3934 H   0  0  0  0  0  0
  -23.3722  -35.9696   23.3321 H   0  0  0  0  0  0
  -24.3613  -36.8926   22.2048 H   0  0  0  0  0  0
  -23.7298  -37.6553   23.6662 H   0  0  0  0  0  0
  -26.0130  -31.5968   20.5673 H   0  0  0  0  0  0
  -26.8157  -30.9227   21.9519 H   0  0  0  0  0  0
  -28.0846  -29.1297   21.1949 H   0  0  0  0  0  0
  -26.0947  -25.9885   19.0181 H   0  0  0  0  0  0
  -23.9839  -27.2526   19.0867 H   0  0  0  0  0  0
  -23.7416  -30.5785   19.4040 H   0  0  0  0  0  0
  -22.7366  -29.2318   19.8665 H   0  0  0  0  0  0
  -25.1289  -36.1953   25.0824 H   0  0  0  0  0  0
  -21.0095  -28.3561   24.1532 H   0  0  0  0  0  0
  -20.5223  -26.2581   23.4151 H   0  0  0  0  0  0
  -21.6689  -26.7214   22.2017 H   0  0  0  0  0  0
  -19.7220  -25.6609   21.1270 H   0  0  0  0  0  0
  -19.6810  -27.3670   20.7196 H   0  0  0  0  0  0
  -17.4222  -26.6339   21.4436 H   0  0  0  0  0  0
  -18.0625  -26.0135   22.9432 H   0  0  0  0  0  0
  -19.7964  -30.7385   24.2323 H   0  0  0  0  0  0
  -17.5076  -31.6346   24.5209 H   0  0  0  0  0  0
  -15.5393  -30.3155   23.7672 H   0  0  0  0  0  0
  -15.8663  -28.0842   22.7170 H   0  0  0  0  0  0
  -24.6000  -30.6885   25.7768 H   0  0  0  0  0  0
  -24.8951  -32.2725   26.4881 H   0  0  0  0  0  0
  -25.8193  -30.8764   27.0172 H   0  0  0  0  0  0
  -26.2775  -29.6753   24.1051 H   0  0  0  0  0  0
  -27.4218  -29.7156   25.4245 H   0  0  0  0  0  0
  -27.8539  -30.4319   23.8915 H   0  0  0  0  0  0
  -27.2683  -33.3537   26.2019 H   0  0  0  0  0  0
  -28.3890  -32.6794   25.0288 H   0  0  0  0  0  0
  -28.0730  -31.8363   26.5361 H   0  0  0  0  0  0
  -28.2585  -38.0087   24.7486 H   0  0  0  0  0  0
  -28.1070  -36.2615   24.6324 H   0  0  0  0  0  0
  -27.2294  -37.1485   25.8866 H   0  0  0  0  0  0
  -20.9354  -29.8285   21.6420 H   0  0  0  0  0  0
  -26.0185  -38.2855   24.1347 H   0  0  0  0  0  0
  -31.6234  -19.2873   19.8658 H   0  0  0  0  0  0
  -26.0457  -22.7005   23.0206 H   0  0  0  0  0  0
  -26.8215  -21.3822   21.9946 H   0  0  0  0  0  0
  -27.4192  -25.1869   22.6962 H   0  0  0  0  0  0
  -26.2707  -25.2120   21.3699 H   0  0  0  0  0  0
  -27.7552  -24.5621   18.8804 H   0  0  0  0  0  0
  -29.4815  -24.3997   19.1699 H   0  0  0  0  0  0
  -29.3223  -25.3492   21.3303 H   0  0  0  0  0  0
  -31.9147  -21.5147   19.5112 H   0  0  0  0  0  0
  -30.7861  -22.5135   20.3962 H   0  0  0  0  0  0
  -30.6601  -22.3324   18.6341 H   0  0  0  0  0  0
  -28.2256  -16.3687   18.7738 H   0  0  0  0  0  0
  -26.6828  -17.1009   18.9818 H   0  0  0  0  0  0
  -27.5336  -16.4370   20.4063 H   0  0  0  0  0  0
  -25.8615  -19.6928   18.5958 H   0  0  0  0  0  0
  -25.7324  -20.3226   20.2418 H   0  0  0  0  0  0
  -25.7069  -18.6422   19.9980 H   0  0  0  0  0  0
  -30.9701  -16.6907   18.9624 H   0  0  0  0  0  0
  -31.5168  -17.0697   20.5731 H   0  0  0  0  0  0
  -26.7397  -22.0055   19.3172 H   0  0  0  0  0  0
  -28.1422  -22.3117   18.3759 H   0  0  0  0  0  0
  -29.0323  -15.5536   20.5839 H   0  0  0  0  0  0
  -29.0843  -22.7652   20.7340 H   0  0  0  0  0  0
  1 25  1  0  0  0
  1 30  2  0  0  0
  1 87  1  0  0  0
  2  3  1  0  0  0
  2 25  1  0  0  0
  2 89  1  0  0  0
  2 90  1  0  0  0
  3  4  1  0  0  0
  3 91  1  0  0  0
  3 92  1  0  0  0
  4  5  1  0  0  0
  4 93  1  0  0  0
  4 94  1  0  0  0
  5  6  1  0  0  0
  5 26  1  0  0  0
  5 95  1  0  0  0
  6 25  1  0  0  0
  6 96  1  0  0  0
  6 97  1  0  0  0
  7  8  2  0  0  0
  7 26  1  0  0  0
  7 29  1  0  0  0
  8  9  1  0  0  0
  8 22  1  0  0  0
  9 10  1  0  0  0
  9 27  2  0  0  0
 10 11  2  0  0  0
 10 15  1  0  0  0
 11 12  1  0  0  0
 11 98  1  0  0  0
 12 13  2  0  0  0
 12 99  1  0  0  0
 13 14  1  0  0  0
 13 31  1  0  0  0
 14 15  2  0  0  0
 14100  1  0  0  0
 15101  1  0  0  0
 16 17  2  0  0  0
 16 21  1  0  0  0
 16 31  1  0  0  0
 17 18  1  0  0  0
 17102  1  0  0  0
 18 19  2  0  0  0
 18103  1  0  0  0
 19 20  1  0  0  0
 19 24  1  0  0  0
 20 21  2  0  0  0
 20104  1  0  0  0
 21 23  1  0  0  0
 22 28  1  0  0  0
 22 32  2  0  0  0
 26 27  1  0  0  0
 28105  1  0  0  0
 28106  1  0  0  0
 29107  1  0  0  0
 29108  1  0  0  0
 33 34  1  0  0  0
 33 66  1  0  0  0
 33 70  2  0  0  0
 34 36  1  0  0  0
 34 59  1  0  0  0
 34109  1  0  0  0
 35 44  2  0  0  0
 35 45  1  0  0  0
 35 68  1  0  0  0
 36 56  1  0  0  0
 36110  1  0  0  0
 37 39  1  0  0  0
 37 47  1  0  0  0
 37 66  1  0  0  0
 37111  1  0  0  0
 38 43  2  0  0  0
 38 46  1  0  0  0
 38 47  1  0  0  0
 39 64  1  0  0  0
 39 67  2  0  0  0
 40 52  1  0  0  0
 40 53  2  0  0  0
 40 58  1  0  0  0
 41112  1  0  0  0
 41113  1  0  0  0
 41114  1  0  0  0
 41 48  1  0  0  0
 42 43  1  0  0  0
 42 66  1  0  0  0
 42115  1  0  0  0
 42116  1  0  0  0
 43 44  1  0  0  0
 44117  1  0  0  0
 45 46  2  0  0  0
 45118  1  0  0  0
 46119  1  0  0  0
 47120  1  0  0  0
 47121  1  0  0  0
 48 56  1  0  0  0
 48 65  1  0  0  0
 48122  1  0  0  0
 49 50  1  0  0  0
 49 53  1  0  0  0
 49 64  1  0  0  0
 49123  1  0  0  0
 50 51  1  0  0  0
 50124  1  0  0  0
 50125  1  0  0  0
 51 52  1  0  0  0
 51126  1  0  0  0
 51127  1  0  0  0
 52128  1  0  0  0
 52129  1  0  0  0
 53 54  1  0  0  0
 54 55  2  0  0  0
 54130  1  0  0  0
 55 57  1  0  0  0
 55131  1  0  0  0
 56 69  2  0  0  0
 57 58  2  0  0  0
 57132  1  0  0  0
 58133  1  0  0  0
 59 60  1  0  0  0
 59 61  1  0  0  0
 59 62  1  0  0  0
 60134  1  0  0  0
 60135  1  0  0  0
 60136  1  0  0  0
 61137  1  0  0  0
 61138  1  0  0  0
 61139  1  0  0  0
 62140  1  0  0  0
 62141  1  0  0  0
 62142  1  0  0  0
 63 65  1  0  0  0
 63143  1  0  0  0
 63144  1  0  0  0
 63145  1  0  0  0
 64146  1  0  0  0
 65147  1  0  0  0
 68 81  1  0  0  0
 71 72  2  0  0  0
 71 73  1  0  0  0
 71148  1  0  0  0
 72 76  1  0  0  0
 72 82  1  0  0  0
 73 74  2  0  0  0
 73 85  1  0  0  0
 74 75  1  0  0  0
 74 83  1  0  0  0
 75 76  2  0  0  0
 75 84  1  0  0  0
 76 86  1  0  0  0
 77 78  2  0  0  0
 77 79  1  0  0  0
 77 88  1  0  0  0
 78149  1  0  0  0
 78150  1  0  0  0
 79 81  1  0  0  0
 79151  1  0  0  0
 79152  1  0  0  0
 80 81  1  0  0  0
 80 88  1  0  0  0
 80153  1  0  0  0
 80154  1  0  0  0
 81155  1  0  0  0
 82156  1  0  0  0
 82157  1  0  0  0
 82158  1  0  0  0
 83159  1  0  0  0
 83160  1  0  0  0
 83161  1  0  0  0
 84162  1  0  0  0
 84163  1  0  0  0
 84164  1  0  0  0
 85 87  1  0  0  0
 85165  1  0  0  0
 85166  1  0  0  0
 86167  1  0  0  0
 86168  1  0  0  0
 86 88  1  0  0  0
 87169  1  0  0  0
 88170  1  0  0  0
M  CHG  1  88   1
M  ISO  4   1 100  68 101  81 101  87 100
M  END
> <chiral flag>
0

> <version>
0

> <s_m_source_file>
/data/baiqing/PycharmProjects/Reinvent-master-3.2/result/LINK_invent/BTK/process_docking_weight1_custom_product_contain_oxygen_bond_distance_aromatic_linkinvent_7_9_3/rearranged_h_0036.sdf

> <i_m_source_file_index>
41

> <r_mmod_Potential_Energy-OPLS-2005>
-75.9706115722656

> <r_mmod_Stretch_Energy-OPLS-2005>
40.1017761230469

> <r_mmod_Bend_Energy-OPLS-2005>
160.392013549805

> <r_mmod_Torsional_Energy-OPLS-2005>
254.111083984375

> <r_mmod_Improper_Torsional_Energy-OPLS-2005>
11.4679689407349

> <r_mmod_Van_der_Waal_Energy-OPLS-2005>
175.411254882812

> <r_mmod_Electrostatic_Energy-OPLS-2005>
-334.965881347656

> <r_mmod_Solvation_Energy-OPLS-2005>
-409.663543701172

> <b_mmod_Minimization_Converged-OPLS-2005>
0

> <r_mmod_RMS_Derivative-OPLS-2005>
8.97221851348877

$$$$
41
                    3D
 Structure written by MMmdl.
172181  0  0  1  0            999 V2000
  -29.4869  -16.0012   20.2555 C   0  0  0  0  0  0
  -30.2575  -13.4152   19.5496 C   0  0  0  0  0  0
  -29.5081  -12.7379   18.3553 C   0  0  0  0  0  0
  -28.1040  -12.2672   18.7686 C   0  0  0  0  0  0
  -27.4884  -13.2679   19.7655 C   0  0  2  0  0  0
  -28.4053  -13.6657   20.9145 C   0  0  0  0  0  0
  -25.1896  -13.8125   20.5669 C   0  0  0  0  0  0
  -24.1393  -13.0348   20.9404 C   0  0  0  0  0  0
  -24.6071  -11.6842   20.8848 C   0  0  0  0  0  0
  -23.8871  -10.4248   21.0499 C   0  0  0  0  0  0
  -24.3521   -9.4190   21.9231 C   0  0  0  0  0  0
  -23.6262   -8.2194   22.0758 C   0  0  0  0  0  0
  -22.4242   -8.0230   21.3549 C   0  0  0  0  0  0
  -21.9840   -9.0180   20.4651 C   0  0  0  0  0  0
  -22.7101  -10.2084   20.3098 C   0  0  0  0  0  0
  -21.6837   -6.0715   22.5288 C   0  0  0  0  0  0
  -21.4003   -6.5635   23.8217 C   0  0  0  0  0  0
  -21.3653   -5.6793   24.9184 C   0  0  0  0  0  0
  -21.6040   -4.3054   24.7233 C   0  0  0  0  0  0
  -21.8821   -3.8140   23.4357 C   0  0  0  0  0  0
  -21.9198   -4.6951   22.3414 C   0  0  0  0  0  0
  -22.7484  -13.5160   21.2051 C   0  0  0  0  0  0
  -22.1667   -4.2148   21.0988 F   0  0  0  0  0  0
  -21.5635   -3.4545   25.7744 F   0  0  0  0  0  0
  -29.3790  -14.5094   20.2356 N   0  0  0  0  0  0
  -26.2013  -12.9252   20.2749 N   0  0  0  0  0  0
  -25.8884  -11.6422   20.5516 N   0  0  0  0  0  0
  -22.0167  -12.8165   22.0608 N   0  0  0  0  0  0
  -25.3661  -15.1864   20.3998 N   0  0  0  0  0  0
  -30.7504  -16.1116   20.1660 O   0  0  0  0  0  0
  -21.6618   -6.8834   21.4240 O   0  0  0  0  0  0
  -22.3248  -14.5485   20.6861 O   0  0  0  0  0  0
  -24.7053  -31.6857   22.6088 C   0  0  0  0  0  0
  -25.9048  -32.3641   23.5144 C   0  0  1  0  0  0
  -26.3156  -28.2481   21.7552 C   0  0  0  0  0  0
  -25.5006  -33.7362   23.9607 N   0  0  0  0  0  0
  -24.2083  -29.1907   20.6961 C   0  0  2  0  0  0
  -25.7464  -28.8942   19.3638 C   0  0  0  0  0  0
  -23.6369  -27.5248   22.4091 C   0  0  0  0  0  0
  -18.1636  -28.1125   22.8048 C   0  0  0  0  0  0
  -24.1356  -36.6964   23.2765 C   0  0  0  0  0  0
  -26.0403  -31.0981   20.6415 C   0  0  0  0  0  0
  -26.5594  -29.7402   20.1906 C   0  0  0  0  0  0
  -27.2763  -29.0619   21.1622 C   0  0  0  0  0  0
  -26.1267  -27.1512   20.7825 C   0  0  0  0  0  0
  -25.7891  -27.5010   19.4750 C   0  0  0  0  0  0
  -24.4067  -29.2824   19.2212 C   0  0  0  0  0  0
  -25.4121  -36.2416   24.0069 C   0  0  1  0  0  0
  -20.7429  -27.6583   23.2998 C   0  0  2  0  0  0
  -20.3502  -26.2813   22.8004 C   0  0  0  0  0  0
  -19.3643  -26.2408   21.6314 C   0  0  0  0  0  0
  -18.0520  -26.7635   22.1345 C   0  0  0  0  0  0
  -19.4309  -28.6672   23.2515 C   0  0  0  0  0  0
  -19.2724  -29.9502   23.8787 C   0  0  0  0  0  0
  -17.9975  -30.5864   24.0407 C   0  0  0  0  0  0
  -25.9091  -34.8950   23.4151 C   0  0  0  0  0  0
  -16.8037  -29.9720   23.6198 C   0  0  0  0  0  0
  -16.9007  -28.7302   22.9941 C   0  0  0  0  0  0
  -26.4003  -31.6337   24.8801 C   0  0  0  0  0  0
  -25.2827  -31.3700   25.9206 C   0  0  0  0  0  0
  -27.1016  -30.2881   24.6188 C   0  0  0  0  0  0
  -27.4950  -32.4795   25.6070 C   0  0  0  0  0  0
  -27.5445  -37.1478   24.8435 C   0  0  0  0  0  0
  -22.3486  -27.5741   23.2394 N   0  0  0  0  0  0
  -26.4136  -37.3353   23.9402 N   0  0  0  0  0  0
  -24.7581  -30.8994   21.2965 N   0  0  0  0  0  0
  -24.2771  -27.2217   23.3902 O   0  0  0  0  0  0
  -25.2059  -29.1285   22.5737 O   0  0  0  0  0  0
  -26.6463  -34.9116   22.4288 O   0  0  0  0  0  0
  -23.6445  -31.9363   23.2246 O   0  0  0  0  0  0
  -25.9981  -20.6830   18.5913 C   0  0  0  0  0  0
  -26.4245  -20.6155   19.9458 C   0  0  0  0  0  0
  -25.6718  -22.0499   20.5127 C   0  0  0  0  0  0
  -24.7142  -23.3325   19.8930 C   0  0  0  0  0  0
  -24.6239  -22.9313   18.5227 C   0  0  0  0  0  0
  -25.2019  -21.7136   17.9546 C   0  0  0  0  0  0
  -21.4171  -30.1680   19.5024 C   0  0  0  0  0  0
  -21.5819  -28.7682   18.4938 C   0  0  0  0  0  0
  -21.8185  -30.5542   21.1433 C   0  0  0  0  0  0
  -22.0664  -27.1312   18.7436 C   0  0  0  0  0  0
  -21.9654  -28.1085   20.8326 C   0  0  0  0  0  0
  -22.7788  -29.6919   22.2547 C   0  0  2  0  0  0
  -25.8861  -22.2151   22.0003 C   0  0  0  0  0  0
  -23.7964  -23.8484   17.6226 C   0  0  0  0  0  0
  -27.7162  -19.0779   20.4025 C   0  0  0  0  0  0
  -23.6107  -24.9876   20.4100 C   0  0  0  0  0  0
  -28.3215  -17.2195   20.2410 N   0  0  0  0  0  0
  -22.8744  -26.7444   19.9903 N   0  3  1  0  0  0
  -24.9138  -21.3976   16.2777 Cl  0  0  0  0  0  0
  -31.1730  -13.8677   19.1666 H   0  0  0  0  0  0
  -30.6018  -12.6658   20.2666 H   0  0  0  0  0  0
  -30.0885  -11.9102   17.9460 H   0  0  0  0  0  0
  -29.4086  -13.4700   17.5535 H   0  0  0  0  0  0
  -28.1861  -11.2847   19.2352 H   0  0  0  0  0  0
  -27.4636  -12.1448   17.8934 H   0  0  0  0  0  0
  -27.3111  -14.1487   19.1451 H   0  0  0  0  0  0
  -28.8094  -12.8040   21.4490 H   0  0  0  0  0  0
  -27.8729  -14.2706   21.6506 H   0  0  0  0  0  0
  -25.2669   -9.5717   22.4797 H   0  0  0  0  0  0
  -24.0009   -7.4588   22.7462 H   0  0  0  0  0  0
  -21.0784   -8.8673   19.8952 H   0  0  0  0  0  0
  -22.3552  -10.9633   19.6222 H   0  0  0  0  0  0
  -21.1979   -7.6146   23.9714 H   0  0  0  0  0  0
  -21.1468   -6.0530   25.9083 H   0  0  0  0  0  0
  -22.0601   -2.7608   23.2852 H   0  0  0  0  0  0
  -22.3810  -11.9799   22.4930 H   0  0  0  0  0  0
  -21.0790  -13.1185   22.2843 H   0  0  0  0  0  0
  -24.5292  -15.7591   20.4439 H   0  0  0  0  0  0
  -25.9753  -15.4745   19.6461 H   0  0  0  0  0  0
  -26.8079  -32.4881   22.9297 H   0  0  0  0  0  0
  -24.8097  -33.7759   24.6953 H   0  0  0  0  0  0
  -23.4353  -29.5310   20.1163 H   0  0  0  0  0  0
  -23.3627  -35.9283   23.3211 H   0  0  0  0  0  0
  -24.3198  -36.9025   22.2214 H   0  0  0  0  0  0
  -23.7171  -37.5982   23.7243 H   0  0  0  0  0  0
  -25.8561  -31.7159   19.7617 H   0  0  0  0  0  0
  -26.8386  -31.6121   21.1632 H   0  0  0  0  0  0
  -27.7761  -29.7313   21.8417 H   0  0  0  0  0  0
  -26.0788  -26.1280   21.1217 H   0  0  0  0  0  0
  -25.3738  -26.7964   18.7673 H   0  0  0  0  0  0
  -24.3905  -30.2705   18.7273 H   0  0  0  0  0  0
  -23.9996  -28.5771   18.5096 H   0  0  0  0  0  0
  -25.1509  -36.0718   25.0541 H   0  0  0  0  0  0
  -20.7043  -27.5394   24.3851 H   0  0  0  0  0  0
  -19.8672  -25.7674   23.6345 H   0  0  0  0  0  0
  -21.2009  -25.6282   22.5914 H   0  0  0  0  0  0
  -19.2177  -25.1971   21.3492 H   0  0  0  0  0  0
  -19.6277  -26.7330   20.7040 H   0  0  0  0  0  0
  -17.3499  -26.8148   21.3000 H   0  0  0  0  0  0
  -17.6207  -26.0630   22.8526 H   0  0  0  0  0  0
  -20.1393  -30.4352   24.3098 H   0  0  0  0  0  0
  -17.9404  -31.5492   24.5299 H   0  0  0  0  0  0
  -15.8434  -30.4500   23.7631 H   0  0  0  0  0  0
  -15.9933  -28.2464   22.6535 H   0  0  0  0  0  0
  -24.5399  -30.6783   25.5227 H   0  0  0  0  0  0
  -24.7590  -32.2853   26.1952 H   0  0  0  0  0  0
  -25.6641  -30.9173   26.8359 H   0  0  0  0  0  0
  -26.4175  -29.4641   24.4530 H   0  0  0  0  0  0
  -27.6830  -29.9633   25.4824 H   0  0  0  0  0  0
  -27.8109  -30.3626   23.8014 H   0  0  0  0  0  0
  -27.1042  -33.4211   25.9965 H   0  0  0  0  0  0
  -28.3186  -32.7122   24.9294 H   0  0  0  0  0  0
  -27.9247  -31.9510   26.4598 H   0  0  0  0  0  0
  -28.2435  -37.9795   24.7529 H   0  0  0  0  0  0
  -28.0932  -36.2312   24.6211 H   0  0  0  0  0  0
  -27.2137  -37.1093   25.8822 H   0  0  0  0  0  0
  -22.6413  -27.2250   24.1409 H   0  0  0  0  0  0
  -25.9835  -38.2327   24.1459 H   0  0  0  0  0  0
  -26.3263  -19.8738   17.9543 H   0  0  0  0  0  0
  -20.3621  -30.4337   19.4143 H   0  0  0  0  0  0
  -21.8804  -30.9683   18.9251 H   0  0  0  0  0  0
  -22.1298  -29.1187   17.6180 H   0  0  0  0  0  0
  -20.5896  -28.6578   18.0517 H   0  0  0  0  0  0
  -20.8448  -30.5828   21.6323 H   0  0  0  0  0  0
  -22.1037  -31.6048   21.1715 H   0  0  0  0  0  0
  -22.6024  -26.7874   17.8578 H   0  0  0  0  0  0
  -21.1706  -26.5054   18.7636 H   0  0  0  0  0  0
  -20.9015  -28.2904   20.6877 H   0  0  0  0  0  0
  -21.5846  -27.1799   21.1515 H   0  0  0  0  0  0
  -22.2855  -29.8910   23.2156 H   0  0  0  0  0  0
  -26.8073  -21.7237   22.3142 H   0  0  0  0  0  0
  -25.0490  -21.7742   22.5435 H   0  0  0  0  0  0
  -25.9476  -23.2663   22.2809 H   0  0  0  0  0  0
  -22.7368  -23.6257   17.7503 H   0  0  0  0  0  0
  -24.0235  -23.7760   16.5613 H   0  0  0  0  0  0
  -23.9671  -24.8958   17.8598 H   0  0  0  0  0  0
  -27.7567  -19.1862   21.4861 H   0  0  0  0  0  0
  -28.6334  -19.5566   20.0594 H   0  0  0  0  0  0
  -24.1407  -25.2006   21.3330 H   0  0  0  0  0  0
  -22.7080  -24.4964   20.7706 H   0  0  0  0  0  0
  -27.4635  -16.6842   20.2437 H   0  0  0  0  0  0
  -23.7607  -27.1913   19.7924 H   0  0  0  0  0  0
  1 25  1  0  0  0
  1 30  2  0  0  0
  1 87  1  0  0  0
  2  3  1  0  0  0
  2 25  1  0  0  0
  2 90  1  0  0  0
  2 91  1  0  0  0
  3  4  1  0  0  0
  3 92  1  0  0  0
  3 93  1  0  0  0
  4  5  1  0  0  0
  4 94  1  0  0  0
  4 95  1  0  0  0
  5  6  1  0  0  0
  5 26  1  0  0  0
  5 96  1  0  0  0
  6 25  1  0  0  0
  6 97  1  0  0  0
  6 98  1  0  0  0
  7  8  2  0  0  0
  7 26  1  0  0  0
  7 29  1  0  0  0
  8  9  1  0  0  0
  8 22  1  0  0  0
  9 10  1  0  0  0
  9 27  2  0  0  0
 10 11  2  0  0  0
 10 15  1  0  0  0
 11 12  1  0  0  0
 11 99  1  0  0  0
 12 13  2  0  0  0
 12100  1  0  0  0
 13 14  1  0  0  0
 13 31  1  0  0  0
 14 15  2  0  0  0
 14101  1  0  0  0
 15102  1  0  0  0
 16 17  2  0  0  0
 16 21  1  0  0  0
 16 31  1  0  0  0
 17 18  1  0  0  0
 17103  1  0  0  0
 18 19  2  0  0  0
 18104  1  0  0  0
 19 20  1  0  0  0
 19 24  1  0  0  0
 20 21  2  0  0  0
 20105  1  0  0  0
 21 23  1  0  0  0
 22 28  1  0  0  0
 22 32  2  0  0  0
 26 27  1  0  0  0
 28106  1  0  0  0
 28107  1  0  0  0
 29108  1  0  0  0
 29109  1  0  0  0
 33 34  1  0  0  0
 33 66  1  0  0  0
 33 70  2  0  0  0
 34 36  1  0  0  0
 34 59  1  0  0  0
 34110  1  0  0  0
 35 44  2  0  0  0
 35 45  1  0  0  0
 35 68  1  0  0  0
 36 56  1  0  0  0
 36111  1  0  0  0
 37 39  1  0  0  0
 37 47  1  0  0  0
 37 66  1  0  0  0
 37112  1  0  0  0
 38 43  2  0  0  0
 38 46  1  0  0  0
 38 47  1  0  0  0
 39 64  1  0  0  0
 39 67  2  0  0  0
 40 52  1  0  0  0
 40 53  2  0  0  0
 40 58  1  0  0  0
 41113  1  0  0  0
 41114  1  0  0  0
 41115  1  0  0  0
 41 48  1  0  0  0
 42 43  1  0  0  0
 42 66  1  0  0  0
 42116  1  0  0  0
 42117  1  0  0  0
 43 44  1  0  0  0
 44118  1  0  0  0
 45 46  2  0  0  0
 45119  1  0  0  0
 46120  1  0  0  0
 47121  1  0  0  0
 47122  1  0  0  0
 48 56  1  0  0  0
 48 65  1  0  0  0
 48123  1  0  0  0
 49 50  1  0  0  0
 49 53  1  0  0  0
 49 64  1  0  0  0
 49124  1  0  0  0
 50 51  1  0  0  0
 50125  1  0  0  0
 50126  1  0  0  0
 51 52  1  0  0  0
 51127  1  0  0  0
 51128  1  0  0  0
 52129  1  0  0  0
 52130  1  0  0  0
 53 54  1  0  0  0
 54 55  2  0  0  0
 54131  1  0  0  0
 55 57  1  0  0  0
 55132  1  0  0  0
 56 69  2  0  0  0
 57 58  2  0  0  0
 57133  1  0  0  0
 58134  1  0  0  0
 59 60  1  0  0  0
 59 61  1  0  0  0
 59 62  1  0  0  0
 60135  1  0  0  0
 60136  1  0  0  0
 60137  1  0  0  0
 61138  1  0  0  0
 61139  1  0  0  0
 61140  1  0  0  0
 62141  1  0  0  0
 62142  1  0  0  0
 62143  1  0  0  0
 63 65  1  0  0  0
 63144  1  0  0  0
 63145  1  0  0  0
 63146  1  0  0  0
 64147  1  0  0  0
 65148  1  0  0  0
 68 82  1  0  0  0
 71 72  2  0  0  0
 71 76  1  0  0  0
 71149  1  0  0  0
 72 73  1  0  0  0
 72 85  1  0  0  0
 73 74  2  0  0  0
 73 83  1  0  0  0
 74 75  1  0  0  0
 74 86  1  0  0  0
 75 76  2  0  0  0
 75 84  1  0  0  0
 76 89  1  0  0  0
 77 78  1  0  0  0
 77 79  1  0  0  0
 77150  1  0  0  0
 77151  1  0  0  0
 78 80  1  0  0  0
 78152  1  0  0  0
 78153  1  0  0  0
 79 82  1  0  0  0
 79154  1  0  0  0
 79155  1  0  0  0
 80 88  1  0  0  0
 80156  1  0  0  0
 80157  1  0  0  0
 81 82  1  0  0  0
 81 88  1  0  0  0
 81158  1  0  0  0
 81159  1  0  0  0
 82160  1  0  0  0
 83161  1  0  0  0
 83162  1  0  0  0
 83163  1  0  0  0
 84164  1  0  0  0
 84165  1  0  0  0
 84166  1  0  0  0
 85 87  1  0  0  0
 85167  1  0  0  0
 85168  1  0  0  0
 86169  1  0  0  0
 86170  1  0  0  0
 86 88  1  0  0  0
 87171  1  0  0  0
 88172  1  0  0  0
M  CHG  1  88   1
M  ISO  4   1 100  68 101  82 101  87 100
M  END
> <chiral flag>
0

> <version>
0

> <s_m_source_file>
/data/baiqing/PycharmProjects/Reinvent-master-3.2/result/LINK_invent/BTK/process_docking_weight1_custom_product_contain_oxygen_bond_distance_aromatic_linkinvent_7_9_3/rearranged_h_0036.sdf

> <i_m_source_file_index>
42

> <r_mmod_Potential_Energy-OPLS-2005>
18162.71875

> <r_mmod_Stretch_Energy-OPLS-2005>
6800.28173828125

> <r_mmod_Bend_Energy-OPLS-2005>
2382.94165039062

> <r_mmod_Torsional_Energy-OPLS-2005>
709.821899414062

> <r_mmod_Improper_Torsional_Energy-OPLS-2005>
107.362098693848

> <r_mmod_Van_der_Waal_Energy-OPLS-2005>
2315.76171875

> <r_mmod_Electrostatic_Energy-OPLS-2005>
-280.227447509766

> <r_mmod_Solvation_Energy-OPLS-2005>
-405.640411376953

> <b_mmod_Minimization_Converged-OPLS-2005>
0

> <r_mmod_RMS_Derivative-OPLS-2005>
7.31224966049194

$$$$
42
                    3D
 Structure written by MMmdl.
167176  0  0  1  0            999 V2000
  -30.7735  -14.3582   20.6943 C   0  0  0  0  0  0
  -30.4180  -12.2931   19.3884 C   0  0  0  0  0  0
  -29.4829  -12.5326   18.1894 C   0  0  0  0  0  0
  -28.0078  -12.3854   18.6074 C   0  0  0  0  0  0
  -27.6680  -13.2019   19.8818 C   0  0  2  0  0  0
  -28.7068  -12.9387   20.9934 C   0  0  0  0  0  0
  -25.2622  -13.8161   20.5685 C   0  0  0  0  0  0
  -24.1853  -13.0442   20.9154 C   0  0  0  0  0  0
  -24.6391  -11.6903   20.8716 C   0  0  0  0  0  0
  -23.9049  -10.4295   21.0397 C   0  0  0  0  0  0
  -24.3604   -9.4217   21.9178 C   0  0  0  0  0  0
  -23.6289   -8.2247   22.0755 C   0  0  0  0  0  0
  -22.4273   -8.0277   21.3543 C   0  0  0  0  0  0
  -21.9900   -9.0249   20.4646 C   0  0  0  0  0  0
  -22.7220  -10.2134   20.3055 C   0  0  0  0  0  0
  -21.6858   -6.0732   22.5275 C   0  0  0  0  0  0
  -21.4015   -6.5634   23.8209 C   0  0  0  0  0  0
  -21.3662   -5.6789   24.9173 C   0  0  0  0  0  0
  -21.6048   -4.3052   24.7226 C   0  0  0  0  0  0
  -21.8819   -3.8141   23.4347 C   0  0  0  0  0  0
  -21.9192   -4.6958   22.3401 C   0  0  0  0  0  0
  -22.7878  -13.5248   21.1820 C   0  0  0  0  0  0
  -22.1660   -4.2142   21.0979 F   0  0  0  0  0  0
  -21.5637   -3.4535   25.7737 F   0  0  0  0  0  0
  -30.0507  -13.2331   20.4575 N   0  0  0  0  0  0
  -26.3060  -12.9318   20.3400 N   0  0  0  0  0  0
  -25.9322  -11.6476   20.5755 N   0  0  0  0  0  0
  -22.0520  -12.8248   22.0385 N   0  0  0  0  0  0
  -25.4360  -15.1876   20.4095 N   0  0  0  0  0  0
  -31.7848  -14.6631   20.0541 O   0  0  0  0  0  0
  -21.6644   -6.8871   21.4236 O   0  0  0  0  0  0
  -22.3561  -14.5548   20.6667 O   0  0  0  0  0  0
  -24.6146  -31.8712   23.2139 C   0  0  0  0  0  0
  -25.9053  -32.4831   23.8420 C   0  0  1  0  0  0
  -27.2197  -27.4385   20.0918 C   0  0  0  0  0  0
  -25.5921  -33.8628   24.2349 N   0  0  0  0  0  0
  -23.4004  -30.5003   21.5538 C   0  0  2  0  0  0
  -24.8444  -28.9767   20.1103 C   0  0  0  0  0  0
  -22.7406  -29.4690   22.4980 C   0  0  0  0  0  0
  -18.0274  -28.1376   22.8491 C   0  0  0  0  0  0
  -24.1487  -36.7317   23.2635 C   0  0  0  0  0  0
  -25.9317  -30.8375   21.3691 C   0  0  0  0  0  0
  -26.0064  -29.4749   20.7124 C   0  0  0  0  0  0
  -27.1990  -28.7128   20.7027 C   0  0  0  0  0  0
  -26.0468  -26.9796   19.4468 C   0  0  0  0  0  0
  -24.8594  -27.7276   19.4727 C   0  0  0  0  0  0
  -23.6076  -29.8428   20.1651 C   0  0  0  0  0  0
  -25.4106  -36.3110   24.0334 C   0  0  1  0  0  0
  -20.5867  -28.3673   23.1314 C   0  0  2  0  0  0
  -20.6776  -26.9411   22.5418 C   0  0  0  0  0  0
  -19.5753  -26.6388   21.5214 C   0  0  0  0  0  0
  -18.1925  -26.7923   22.1624 C   0  0  0  0  0  0
  -19.1523  -28.8837   23.2905 C   0  0  0  0  0  0
  -18.9452  -30.1448   23.8913 C   0  0  0  0  0  0
  -17.6453  -30.6585   24.0567 C   0  0  0  0  0  0
  -25.9038  -34.9475   23.5132 C   0  0  0  0  0  0
  -16.5345  -29.9085   23.6325 C   0  0  0  0  0  0
  -16.7266  -28.6504   23.0339 C   0  0  0  0  0  0
  -26.4485  -31.6599   25.0739 C   0  0  0  0  0  0
  -25.3760  -31.3692   26.1494 C   0  0  0  0  0  0
  -27.0309  -30.3037   24.6105 C   0  0  0  0  0  0
  -27.6064  -32.4313   25.7501 C   0  0  0  0  0  0
  -27.5575  -37.1814   24.8465 C   0  0  0  0  0  0
  -21.4134  -29.3055   22.3718 N   0  0  0  0  0  0
  -26.4291  -37.3794   23.9411 N   0  0  0  0  0  0
  -24.6669  -31.0837   22.1033 N   0  0  0  0  0  0
  -23.4187  -28.8212   23.3002 O   0  0  0  0  0  0
  -28.3611  -26.6601   20.1274 O   0  0  0  0  0  0
  -26.5587  -34.8921   22.4684 O   0  0  0  0  0  0
  -23.5340  -32.1460   23.7547 O   0  0  0  0  0  0
  -29.9344  -19.9614   21.5986 C   0  0  0  0  0  0
  -28.5988  -20.0096   22.0569 C   0  0  0  0  0  0
  -28.0187  -18.8131   22.5652 C   0  0  0  0  0  0
  -30.1222  -17.5807   22.1673 C   0  0  0  0  0  0
  -30.6841  -18.7706   21.6391 C   0  0  0  0  0  0
  -28.7868  -17.6219   22.6477 C   0  0  0  0  0  0
  -28.7255  -22.8607   20.2152 C   0  0  0  0  0  0
  -28.5718  -21.9305   19.2515 C   0  0  0  0  0  0
  -29.1472  -24.3055   19.9268 C   0  0  0  0  0  0
  -28.2099  -25.1284   22.0457 C   0  0  0  0  0  0
  -27.7524  -23.7057   22.4159 C   0  0  0  0  0  0
  -28.1462  -25.2915   20.5302 C   0  0  1  0  0  0
  -26.5689  -18.7713   23.0471 C   0  0  0  0  0  0
  -30.9627  -16.2982   22.2812 C   0  0  0  0  0  0
  -27.7750  -21.3121   22.0222 C   0  0  0  0  0  0
  -30.3418  -15.0943   21.7234 N   0  0  0  0  0  0
  -28.4673  -22.6013   21.6981 N   0  3  2  0  0  0
  -32.3049  -18.8344   21.0375 Cl  0  0  0  0  0  0
  -28.0783  -16.2190   23.3868 Cl  0  0  0  0  0  0
  -31.4605  -12.3974   19.0817 H   0  0  0  0  0  0
  -30.3194  -11.2679   19.7494 H   0  0  0  0  0  0
  -29.7143  -11.8332   17.3847 H   0  0  0  0  0  0
  -29.6519  -13.5329   17.7869 H   0  0  0  0  0  0
  -27.8111  -11.3266   18.7795 H   0  0  0  0  0  0
  -27.3531  -12.6868   17.7890 H   0  0  0  0  0  0
  -27.7267  -14.2575   19.6151 H   0  0  0  0  0  0
  -28.6690  -11.8927   21.3016 H   0  0  0  0  0  0
  -28.4494  -13.5054   21.8881 H   0  0  0  0  0  0
  -25.2757   -9.5698   22.4744 H   0  0  0  0  0  0
  -24.0003   -7.4644   22.7479 H   0  0  0  0  0  0
  -21.0831   -8.8764   19.8955 H   0  0  0  0  0  0
  -22.3675  -10.9671   19.6164 H   0  0  0  0  0  0
  -21.2005   -7.6144   23.9708 H   0  0  0  0  0  0
  -21.1491   -6.0521   25.9074 H   0  0  0  0  0  0
  -22.0598   -2.7603   23.2849 H   0  0  0  0  0  0
  -22.4122  -11.9904   22.4773 H   0  0  0  0  0  0
  -21.1144  -13.1289   22.2579 H   0  0  0  0  0  0
  -24.6771  -15.8497   20.5260 H   0  0  0  0  0  0
  -26.3045  -15.6253   20.1278 H   0  0  0  0  0  0
  -26.7122  -32.5536   23.1185 H   0  0  0  0  0  0
  -25.0090  -33.9797   25.0503 H   0  0  0  0  0  0
  -22.6887  -31.3176   21.4201 H   0  0  0  0  0  0
  -23.3736  -35.9662   23.3311 H   0  0  0  0  0  0
  -24.3580  -36.8920   22.2048 H   0  0  0  0  0  0
  -23.7259  -37.6533   23.6641 H   0  0  0  0  0  0
  -26.0485  -31.6069   20.6047 H   0  0  0  0  0  0
  -26.8183  -30.8857   21.9890 H   0  0  0  0  0  0
  -28.0931  -29.0889   21.1802 H   0  0  0  0  0  0
  -26.0306  -26.0458   18.9041 H   0  0  0  0  0  0
  -23.9718  -27.3488   18.9851 H   0  0  0  0  0  0
  -23.7146  -30.6228   19.4102 H   0  0  0  0  0  0
  -22.7316  -29.2656   19.8655 H   0  0  0  0  0  0
  -25.1280  -36.1973   25.0825 H   0  0  0  0  0  0
  -20.9962  -28.3246   24.1432 H   0  0  0  0  0  0
  -20.5686  -26.2282   23.3609 H   0  0  0  0  0  0
  -21.6648  -26.7470   22.1209 H   0  0  0  0  0  0
  -19.6929  -25.6308   21.1220 H   0  0  0  0  0  0
  -19.6681  -27.3217   20.6759 H   0  0  0  0  0  0
  -17.4202  -26.6667   21.4024 H   0  0  0  0  0  0
  -18.0328  -26.0060   22.9017 H   0  0  0  0  0  0
  -19.7926  -30.7261   24.2290 H   0  0  0  0  0  0
  -17.5011  -31.6267   24.5166 H   0  0  0  0  0  0
  -15.5348  -30.2991   23.7648 H   0  0  0  0  0  0
  -15.8669  -28.0833   22.7029 H   0  0  0  0  0  0
  -24.5934  -30.7037   25.7835 H   0  0  0  0  0  0
  -24.8950  -32.2839   26.4964 H   0  0  0  0  0  0
  -25.8127  -30.8852   27.0238 H   0  0  0  0  0  0
  -26.2847  -29.6803   24.1160 H   0  0  0  0  0  0
  -27.4082  -29.7267   25.4561 H   0  0  0  0  0  0
  -27.8687  -30.4345   23.9250 H   0  0  0  0  0  0
  -27.2681  -33.3594   26.2117 H   0  0  0  0  0  0
  -28.3855  -32.6905   25.0322 H   0  0  0  0  0  0
  -28.0750  -31.8413   26.5387 H   0  0  0  0  0  0
  -28.2601  -38.0102   24.7498 H   0  0  0  0  0  0
  -28.1060  -36.2634   24.6302 H   0  0  0  0  0  0
  -27.2293  -37.1483   25.8869 H   0  0  0  0  0  0
  -20.9276  -29.8803   21.6969 H   0  0  0  0  0  0
  -26.0174  -38.2871   24.1411 H   0  0  0  0  0  0
  -30.4194  -20.8376   21.1954 H   0  0  0  0  0  0
  -28.7578  -22.1791   18.2164 H   0  0  0  0  0  0
  -28.2620  -20.9156   19.4472 H   0  0  0  0  0  0
  -29.1933  -24.4538   18.8479 H   0  0  0  0  0  0
  -30.1551  -24.4825   20.3044 H   0  0  0  0  0  0
  -29.2180  -25.3236   22.4120 H   0  0  0  0  0  0
  -27.5570  -25.8548   22.5310 H   0  0  0  0  0  0
  -26.6844  -23.6254   22.2026 H   0  0  0  0  0  0
  -27.8576  -23.5700   23.4933 H   0  0  0  0  0  0
  -27.1700  -24.9294   20.2156 H   0  0  0  0  0  0
  -26.0653  -17.8840   22.6619 H   0  0  0  0  0  0
  -25.9622  -19.6153   22.7268 H   0  0  0  0  0  0
  -26.5352  -18.7284   24.1361 H   0  0  0  0  0  0
  -31.9639  -16.4224   21.8719 H   0  0  0  0  0  0
  -31.1202  -16.1153   23.3444 H   0  0  0  0  0  0
  -27.3548  -21.4010   23.0250 H   0  0  0  0  0  0
  -26.9200  -21.1878   21.3560 H   0  0  0  0  0  0
  -29.5142  -14.7622   22.1970 H   0  0  0  0  0  0
  -29.3607  -22.5395   22.1630 H   0  0  0  0  0  0
  1 25  1  0  0  0
  1 30  2  0  0  0
  1 86  1  0  0  0
  2  3  1  0  0  0
  2 25  1  0  0  0
  2 90  1  0  0  0
  2 91  1  0  0  0
  3  4  1  0  0  0
  3 92  1  0  0  0
  3 93  1  0  0  0
  4  5  1  0  0  0
  4 94  1  0  0  0
  4 95  1  0  0  0
  5  6  1  0  0  0
  5 26  1  0  0  0
  5 96  1  0  0  0
  6 25  1  0  0  0
  6 97  1  0  0  0
  6 98  1  0  0  0
  7  8  2  0  0  0
  7 26  1  0  0  0
  7 29  1  0  0  0
  8  9  1  0  0  0
  8 22  1  0  0  0
  9 10  1  0  0  0
  9 27  2  0  0  0
 10 11  2  0  0  0
 10 15  1  0  0  0
 11 12  1  0  0  0
 11 99  1  0  0  0
 12 13  2  0  0  0
 12100  1  0  0  0
 13 14  1  0  0  0
 13 31  1  0  0  0
 14 15  2  0  0  0
 14101  1  0  0  0
 15102  1  0  0  0
 16 17  2  0  0  0
 16 21  1  0  0  0
 16 31  1  0  0  0
 17 18  1  0  0  0
 17103  1  0  0  0
 18 19  2  0  0  0
 18104  1  0  0  0
 19 20  1  0  0  0
 19 24  1  0  0  0
 20 21  2  0  0  0
 20105  1  0  0  0
 21 23  1  0  0  0
 22 28  1  0  0  0
 22 32  2  0  0  0
 26 27  1  0  0  0
 28106  1  0  0  0
 28107  1  0  0  0
 29108  1  0  0  0
 29109  1  0  0  0
 33 34  1  0  0  0
 33 66  1  0  0  0
 33 70  2  0  0  0
 34 36  1  0  0  0
 34 59  1  0  0  0
 34110  1  0  0  0
 35 44  2  0  0  0
 35 45  1  0  0  0
 35 68  1  0  0  0
 36 56  1  0  0  0
 36111  1  0  0  0
 37 39  1  0  0  0
 37 47  1  0  0  0
 37 66  1  0  0  0
 37112  1  0  0  0
 38 43  2  0  0  0
 38 46  1  0  0  0
 38 47  1  0  0  0
 39 64  1  0  0  0
 39 67  2  0  0  0
 40 52  1  0  0  0
 40 53  2  0  0  0
 40 58  1  0  0  0
 41113  1  0  0  0
 41114  1  0  0  0
 41115  1  0  0  0
 41 48  1  0  0  0
 42 43  1  0  0  0
 42 66  1  0  0  0
 42116  1  0  0  0
 42117  1  0  0  0
 43 44  1  0  0  0
 44118  1  0  0  0
 45 46  2  0  0  0
 45119  1  0  0  0
 46120  1  0  0  0
 47121  1  0  0  0
 47122  1  0  0  0
 48 56  1  0  0  0
 48 65  1  0  0  0
 48123  1  0  0  0
 49 50  1  0  0  0
 49 53  1  0  0  0
 49 64  1  0  0  0
 49124  1  0  0  0
 50 51  1  0  0  0
 50125  1  0  0  0
 50126  1  0  0  0
 51 52  1  0  0  0
 51127  1  0  0  0
 51128  1  0  0  0
 52129  1  0  0  0
 52130  1  0  0  0
 53 54  1  0  0  0
 54 55  2  0  0  0
 54131  1  0  0  0
 55 57  1  0  0  0
 55132  1  0  0  0
 56 69  2  0  0  0
 57 58  2  0  0  0
 57133  1  0  0  0
 58134  1  0  0  0
 59 60  1  0  0  0
 59 61  1  0  0  0
 59 62  1  0  0  0
 60135  1  0  0  0
 60136  1  0  0  0
 60137  1  0  0  0
 61138  1  0  0  0
 61139  1  0  0  0
 61140  1  0  0  0
 62141  1  0  0  0
 62142  1  0  0  0
 62143  1  0  0  0
 63 65  1  0  0  0
 63144  1  0  0  0
 63145  1  0  0  0
 63146  1  0  0  0
 64147  1  0  0  0
 65148  1  0  0  0
 68 82  1  0  0  0
 71 72  2  0  0  0
 71 75  1  0  0  0
 71149  1  0  0  0
 72 73  1  0  0  0
 72 85  1  0  0  0
 73 76  2  0  0  0
 73 83  1  0  0  0
 74 75  2  0  0  0
 74 76  1  0  0  0
 74 84  1  0  0  0
 75 88  1  0  0  0
 76 89  1  0  0  0
 77 78  2  0  0  0
 77 79  1  0  0  0
 77 87  1  0  0  0
 78150  1  0  0  0
 78151  1  0  0  0
 79 82  1  0  0  0
 79152  1  0  0  0
 79153  1  0  0  0
 80 81  1  0  0  0
 80 82  1  0  0  0
 80154  1  0  0  0
 80155  1  0  0  0
 81 87  1  0  0  0
 81156  1  0  0  0
 81157  1  0  0  0
 82158  1  0  0  0
 83159  1  0  0  0
 83160  1  0  0  0
 83161  1  0  0  0
 84 86  1  0  0  0
 84162  1  0  0  0
 84163  1  0  0  0
 85164  1  0  0  0
 85165  1  0  0  0
 85 87  1  0  0  0
 86166  1  0  0  0
 87167  1  0  0  0
M  CHG  1  87   1
M  ISO  4   1 100  68 101  82 101  86 100
M  END
> <chiral flag>
0

> <version>
0

> <s_m_source_file>
/data/baiqing/PycharmProjects/Reinvent-master-3.2/result/LINK_invent/BTK/process_docking_weight1_custom_product_contain_oxygen_bond_distance_aromatic_linkinvent_7_9_3/rearranged_h_0036.sdf

> <i_m_source_file_index>
43

> <r_mmod_Potential_Energy-OPLS-2005>
-158.55290222168

> <r_mmod_Stretch_Energy-OPLS-2005>
44.6479835510254

> <r_mmod_Bend_Energy-OPLS-2005>
115.341087341309

> <r_mmod_Torsional_Energy-OPLS-2005>
222.83235168457

> <r_mmod_Improper_Torsional_Energy-OPLS-2005>
1.91873395442963

> <r_mmod_Van_der_Waal_Energy-OPLS-2005>
180.006759643555

> <r_mmod_Electrostatic_Energy-OPLS-2005>
-281.673461914062

> <r_mmod_Solvation_Energy-OPLS-2005>
-451.914978027344

> <b_mmod_Minimization_Converged-OPLS-2005>
0

> <r_mmod_RMS_Derivative-OPLS-2005>
1.30662715435028

$$$$
43
                    3D
 Structure written by MMmdl.
166175  0  0  1  0            999 V2000
  -30.7156  -14.4908   20.5392 C   0  0  0  0  0  0
  -30.4157  -12.3118   19.4325 C   0  0  0  0  0  0
  -29.4957  -12.5021   18.2100 C   0  0  0  0  0  0
  -28.0171  -12.3633   18.6206 C   0  0  0  0  0  0
  -27.6574  -13.2159   19.8681 C   0  0  2  0  0  0
  -28.7007  -13.0339   20.9942 C   0  0  0  0  0  0
  -25.2574  -13.8183   20.5680 C   0  0  0  0  0  0
  -24.1837  -13.0449   20.9186 C   0  0  0  0  0  0
  -24.6401  -11.6917   20.8738 C   0  0  0  0  0  0
  -23.9075  -10.4299   21.0400 C   0  0  0  0  0  0
  -24.3622   -9.4213   21.9182 C   0  0  0  0  0  0
  -23.6291   -8.2251   22.0750 C   0  0  0  0  0  0
  -22.4271   -8.0295   21.3540 C   0  0  0  0  0  0
  -21.9908   -9.0268   20.4643 C   0  0  0  0  0  0
  -22.7245  -10.2140   20.3047 C   0  0  0  0  0  0
  -21.6853   -6.0736   22.5278 C   0  0  0  0  0  0
  -21.4016   -6.5632   23.8219 C   0  0  0  0  0  0
  -21.3652   -5.6782   24.9177 C   0  0  0  0  0  0
  -21.6045   -4.3048   24.7225 C   0  0  0  0  0  0
  -21.8820   -3.8144   23.4348 C   0  0  0  0  0  0
  -21.9192   -4.6963   22.3401 C   0  0  0  0  0  0
  -22.7860  -13.5245   21.1848 C   0  0  0  0  0  0
  -22.1666   -4.2144   21.0976 F   0  0  0  0  0  0
  -21.5621   -3.4532   25.7743 F   0  0  0  0  0  0
  -30.0300  -13.3199   20.4340 N   0  0  0  0  0  0
  -26.3007  -12.9367   20.3334 N   0  0  0  0  0  0
  -25.9331  -11.6519   20.5760 N   0  0  0  0  0  0
  -22.0478  -12.8245   22.0395 N   0  0  0  0  0  0
  -25.4294  -15.1902   20.4103 N   0  0  0  0  0  0
  -31.8617  -14.6281   20.1067 O   0  0  0  0  0  0
  -21.6639   -6.8890   21.4241 O   0  0  0  0  0  0
  -22.3556  -14.5553   20.6699 O   0  0  0  0  0  0
  -24.6186  -31.8663   23.2103 C   0  0  0  0  0  0
  -25.9074  -32.4809   23.8397 C   0  0  1  0  0  0
  -27.2224  -27.3993   20.0943 C   0  0  0  0  0  0
  -25.5922  -33.8606   24.2346 N   0  0  0  0  0  0
  -23.4068  -30.4945   21.5516 C   0  0  2  0  0  0
  -24.8493  -28.9650   20.1109 C   0  0  0  0  0  0
  -22.7426  -29.4657   22.4958 C   0  0  0  0  0  0
  -18.0280  -28.1383   22.8484 C   0  0  0  0  0  0
  -24.1480  -36.7291   23.2637 C   0  0  0  0  0  0
  -25.9409  -30.8224   21.3685 C   0  0  0  0  0  0
  -26.0147  -29.4568   20.7116 C   0  0  0  0  0  0
  -27.2025  -28.6827   20.6999 C   0  0  0  0  0  0
  -26.0326  -26.9446   19.4724 C   0  0  0  0  0  0
  -24.8558  -27.7104   19.4873 C   0  0  0  0  0  0
  -23.6158  -29.8369   20.1634 C   0  0  0  0  0  0
  -25.4099  -36.3099   24.0347 C   0  0  1  0  0  0
  -20.5874  -28.3670   23.1296 C   0  0  2  0  0  0
  -20.6771  -26.9400   22.5408 C   0  0  0  0  0  0
  -19.5750  -26.6391   21.5201 C   0  0  0  0  0  0
  -18.1929  -26.7929   22.1613 C   0  0  0  0  0  0
  -19.1532  -28.8842   23.2894 C   0  0  0  0  0  0
  -18.9457  -30.1442   23.8915 C   0  0  0  0  0  0
  -17.6461  -30.6580   24.0572 C   0  0  0  0  0  0
  -25.9035  -34.9464   23.5141 C   0  0  0  0  0  0
  -16.5354  -29.9089   23.6324 C   0  0  0  0  0  0
  -16.7270  -28.6507   23.0342 C   0  0  0  0  0  0
  -26.4500  -31.6572   25.0712 C   0  0  0  0  0  0
  -25.3778  -31.3664   26.1464 C   0  0  0  0  0  0
  -27.0325  -30.3016   24.6071 C   0  0  0  0  0  0
  -27.6085  -32.4278   25.7477 C   0  0  0  0  0  0
  -27.5576  -37.1800   24.8470 C   0  0  0  0  0  0
  -21.4151  -29.3035   22.3692 N   0  0  0  0  0  0
  -26.4284  -37.3787   23.9420 N   0  0  0  0  0  0
  -24.6744  -31.0748   22.1022 N   0  0  0  0  0  0
  -23.4187  -28.8184   23.2999 O   0  0  0  0  0  0
  -28.3792  -26.6279   20.1406 O   0  0  0  0  0  0
  -26.5583  -34.8920   22.4693 O   0  0  0  0  0  0
  -23.5372  -32.1426   23.7484 O   0  0  0  0  0  0
  -30.0325  -19.4462   21.0838 C   0  0  0  0  0  0
  -28.4232  -17.8645   21.9834 C   0  0  0  0  0  0
  -29.6266  -18.1014   21.2916 C   0  0  0  0  0  0
  -29.2811  -20.5477   21.5760 C   0  0  0  0  0  0
  -28.0757  -20.2800   22.2850 C   0  0  0  0  0  0
  -27.6564  -18.9379   22.4721 C   0  0  0  0  0  0
  -28.3897  -23.3861   18.1437 C   0  0  0  0  0  0
  -28.5286  -24.8947   18.4166 C   0  0  0  0  0  0
  -29.3029  -22.5504   19.0640 C   0  0  0  0  0  0
  -29.2341  -24.3393   20.7701 C   0  0  0  0  0  0
  -28.2706  -25.1994   19.9040 C   0  0  1  0  0  0
  -27.2233  -21.3890   22.8953 C   0  0  0  0  0  0
  -30.5184  -16.9493   20.8021 C   0  0  0  0  0  0
  -29.8375  -21.9824   21.4230 C   0  0  0  0  0  0
  -30.0171  -15.5673   20.9541 N   0  0  0  0  0  0
  -29.0670  -22.8685   20.4974 N   0  3  2  0  0  0
  -26.2061  -18.5745   23.3402 Cl  0  0  0  0  0  0
  -31.4631  -12.3899   19.1347 H   0  0  0  0  0  0
  -30.2992  -11.3098   19.8493 H   0  0  0  0  0  0
  -29.7384  -11.7731   17.4355 H   0  0  0  0  0  0
  -29.6663  -13.4858   17.7686 H   0  0  0  0  0  0
  -27.8308  -11.3086   18.8274 H   0  0  0  0  0  0
  -27.3686  -12.6273   17.7843 H   0  0  0  0  0  0
  -27.6896  -14.2582   19.5498 H   0  0  0  0  0  0
  -28.6761  -12.0127   21.3758 H   0  0  0  0  0  0
  -28.4683  -13.6748   21.8461 H   0  0  0  0  0  0
  -25.2765   -9.5686   22.4766 H   0  0  0  0  0  0
  -23.9994   -7.4637   22.7463 H   0  0  0  0  0  0
  -21.0832   -8.8804   19.8949 H   0  0  0  0  0  0
  -22.3716  -10.9687   19.6158 H   0  0  0  0  0  0
  -21.2010   -7.6142   23.9729 H   0  0  0  0  0  0
  -21.1467   -6.0508   25.9084 H   0  0  0  0  0  0
  -22.0598   -2.7603   23.2857 H   0  0  0  0  0  0
  -22.4087  -11.9903   22.4792 H   0  0  0  0  0  0
  -21.1102  -13.1293   22.2590 H   0  0  0  0  0  0
  -24.6617  -15.8442   20.5221 H   0  0  0  0  0  0
  -26.2750  -15.6295   20.0719 H   0  0  0  0  0  0
  -26.7130  -32.5522   23.1146 H   0  0  0  0  0  0
  -25.0114  -33.9756   25.0521 H   0  0  0  0  0  0
  -22.6977  -31.3137   21.4163 H   0  0  0  0  0  0
  -23.3746  -35.9620   23.3310 H   0  0  0  0  0  0
  -24.3582  -36.8883   22.2049 H   0  0  0  0  0  0
  -23.7218  -37.6496   23.6636 H   0  0  0  0  0  0
  -26.0574  -31.5891   20.6013 H   0  0  0  0  0  0
  -26.8284  -30.8734   21.9879 H   0  0  0  0  0  0
  -28.0990  -29.0551   21.1765 H   0  0  0  0  0  0
  -25.9716  -25.9954   18.9633 H   0  0  0  0  0  0
  -23.9622  -27.3305   19.0108 H   0  0  0  0  0  0
  -23.7312  -30.6181   19.4112 H   0  0  0  0  0  0
  -22.7365  -29.2663   19.8589 H   0  0  0  0  0  0
  -25.1265  -36.1968   25.0838 H   0  0  0  0  0  0
  -20.9973  -28.3249   24.1415 H   0  0  0  0  0  0
  -20.5662  -26.2277   23.3598 H   0  0  0  0  0  0
  -21.6645  -26.7435   22.1209 H   0  0  0  0  0  0
  -19.6917  -25.6308   21.1213 H   0  0  0  0  0  0
  -19.6693  -27.3216   20.6745 H   0  0  0  0  0  0
  -17.4194  -26.6666   21.4024 H   0  0  0  0  0  0
  -18.0342  -26.0069   22.9007 H   0  0  0  0  0  0
  -19.7935  -30.7252   24.2295 H   0  0  0  0  0  0
  -17.5017  -31.6258   24.5178 H   0  0  0  0  0  0
  -15.5356  -30.2999   23.7638 H   0  0  0  0  0  0
  -15.8667  -28.0836   22.7048 H   0  0  0  0  0  0
  -24.5982  -30.6964   25.7813 H   0  0  0  0  0  0
  -24.8936  -32.2810   26.4898 H   0  0  0  0  0  0
  -25.8158  -30.8863   27.0223 H   0  0  0  0  0  0
  -26.2850  -29.6765   24.1170 H   0  0  0  0  0  0
  -27.4152  -29.7252   25.4502 H   0  0  0  0  0  0
  -27.8666  -30.4332   23.9176 H   0  0  0  0  0  0
  -27.2722  -33.3581   26.2065 H   0  0  0  0  0  0
  -28.3901  -32.6818   25.0305 H   0  0  0  0  0  0
  -28.0740  -31.8383   26.5384 H   0  0  0  0  0  0
  -28.2602  -38.0090   24.7516 H   0  0  0  0  0  0
  -28.1064  -36.2623   24.6297 H   0  0  0  0  0  0
  -27.2299  -37.1446   25.8875 H   0  0  0  0  0  0
  -20.9304  -29.8767   21.6927 H   0  0  0  0  0  0
  -26.0173  -38.2861   24.1442 H   0  0  0  0  0  0
  -30.9651  -19.6299   20.5665 H   0  0  0  0  0  0
  -28.0803  -16.8582   22.1707 H   0  0  0  0  0  0
  -28.6304  -23.1765   17.1008 H   0  0  0  0  0  0
  -27.3513  -23.0815   18.2819 H   0  0  0  0  0  0
  -27.8415  -25.4509   17.7798 H   0  0  0  0  0  0
  -29.5307  -25.2293   18.1458 H   0  0  0  0  0  0
  -30.3493  -22.7379   18.8160 H   0  0  0  0  0  0
  -29.1279  -21.4889   18.8825 H   0  0  0  0  0  0
  -29.0351  -24.5422   21.8228 H   0  0  0  0  0  0
  -30.2684  -24.6330   20.5852 H   0  0  0  0  0  0
  -27.2763  -24.8508   20.1852 H   0  0  0  0  0  0
  -27.5802  -22.3969   22.7010 H   0  0  0  0  0  0
  -27.1852  -21.2680   23.9785 H   0  0  0  0  0  0
  -26.2017  -21.3290   22.5179 H   0  0  0  0  0  0
  -31.4750  -17.0287   21.3221 H   0  0  0  0  0  0
  -30.7325  -17.1224   19.7453 H   0  0  0  0  0  0
  -30.8800  -21.9472   21.1021 H   0  0  0  0  0  0
  -29.8672  -22.4265   22.4187 H   0  0  0  0  0  0
  -29.0605  -15.4283   21.2354 H   0  0  0  0  0  0
  -28.0988  -22.6491   20.6795 H   0  0  0  0  0  0
  1 25  1  0  0  0
  1 30  2  0  0  0
  1 85  1  0  0  0
  2  3  1  0  0  0
  2 25  1  0  0  0
  2 88  1  0  0  0
  2 89  1  0  0  0
  3  4  1  0  0  0
  3 90  1  0  0  0
  3 91  1  0  0  0
  4  5  1  0  0  0
  4 92  1  0  0  0
  4 93  1  0  0  0
  5  6  1  0  0  0
  5 26  1  0  0  0
  5 94  1  0  0  0
  6 25  1  0  0  0
  6 95  1  0  0  0
  6 96  1  0  0  0
  7  8  2  0  0  0
  7 26  1  0  0  0
  7 29  1  0  0  0
  8  9  1  0  0  0
  8 22  1  0  0  0
  9 10  1  0  0  0
  9 27  2  0  0  0
 10 11  2  0  0  0
 10 15  1  0  0  0
 11 12  1  0  0  0
 11 97  1  0  0  0
 12 13  2  0  0  0
 12 98  1  0  0  0
 13 14  1  0  0  0
 13 31  1  0  0  0
 14 15  2  0  0  0
 14 99  1  0  0  0
 15100  1  0  0  0
 16 17  2  0  0  0
 16 21  1  0  0  0
 16 31  1  0  0  0
 17 18  1  0  0  0
 17101  1  0  0  0
 18 19  2  0  0  0
 18102  1  0  0  0
 19 20  1  0  0  0
 19 24  1  0  0  0
 20 21  2  0  0  0
 20103  1  0  0  0
 21 23  1  0  0  0
 22 28  1  0  0  0
 22 32  2  0  0  0
 26 27  1  0  0  0
 28104  1  0  0  0
 28105  1  0  0  0
 29106  1  0  0  0
 29107  1  0  0  0
 33 34  1  0  0  0
 33 66  1  0  0  0
 33 70  2  0  0  0
 34 36  1  0  0  0
 34 59  1  0  0  0
 34108  1  0  0  0
 35 44  2  0  0  0
 35 45  1  0  0  0
 35 68  1  0  0  0
 36 56  1  0  0  0
 36109  1  0  0  0
 37 39  1  0  0  0
 37 47  1  0  0  0
 37 66  1  0  0  0
 37110  1  0  0  0
 38 43  2  0  0  0
 38 46  1  0  0  0
 38 47  1  0  0  0
 39 64  1  0  0  0
 39 67  2  0  0  0
 40 52  1  0  0  0
 40 53  2  0  0  0
 40 58  1  0  0  0
 41111  1  0  0  0
 41112  1  0  0  0
 41113  1  0  0  0
 41 48  1  0  0  0
 42 43  1  0  0  0
 42 66  1  0  0  0
 42114  1  0  0  0
 42115  1  0  0  0
 43 44  1  0  0  0
 44116  1  0  0  0
 45 46  2  0  0  0
 45117  1  0  0  0
 46118  1  0  0  0
 47119  1  0  0  0
 47120  1  0  0  0
 48 56  1  0  0  0
 48 65  1  0  0  0
 48121  1  0  0  0
 49 50  1  0  0  0
 49 53  1  0  0  0
 49 64  1  0  0  0
 49122  1  0  0  0
 50 51  1  0  0  0
 50123  1  0  0  0
 50124  1  0  0  0
 51 52  1  0  0  0
 51125  1  0  0  0
 51126  1  0  0  0
 52127  1  0  0  0
 52128  1  0  0  0
 53 54  1  0  0  0
 54 55  2  0  0  0
 54129  1  0  0  0
 55 57  1  0  0  0
 55130  1  0  0  0
 56 69  2  0  0  0
 57 58  2  0  0  0
 57131  1  0  0  0
 58132  1  0  0  0
 59 60  1  0  0  0
 59 61  1  0  0  0
 59 62  1  0  0  0
 60133  1  0  0  0
 60134  1  0  0  0
 60135  1  0  0  0
 61136  1  0  0  0
 61137  1  0  0  0
 61138  1  0  0  0
 62139  1  0  0  0
 62140  1  0  0  0
 62141  1  0  0  0
 63 65  1  0  0  0
 63142  1  0  0  0
 63143  1  0  0  0
 63144  1  0  0  0
 64145  1  0  0  0
 65146  1  0  0  0
 68 81  1  0  0  0
 71 73  2  0  0  0
 71 74  1  0  0  0
 71147  1  0  0  0
 72 73  1  0  0  0
 72 76  2  0  0  0
 72148  1  0  0  0
 73 83  1  0  0  0
 74 75  2  0  0  0
 74 84  1  0  0  0
 75 76  1  0  0  0
 75 82  1  0  0  0
 76 87  1  0  0  0
 77 78  1  0  0  0
 77 79  1  0  0  0
 77149  1  0  0  0
 77150  1  0  0  0
 78 81  1  0  0  0
 78151  1  0  0  0
 78152  1  0  0  0
 79 86  1  0  0  0
 79153  1  0  0  0
 79154  1  0  0  0
 80 81  1  0  0  0
 80 86  1  0  0  0
 80155  1  0  0  0
 80156  1  0  0  0
 81157  1  0  0  0
 82158  1  0  0  0
 82159  1  0  0  0
 82160  1  0  0  0
 83 85  1  0  0  0
 83161  1  0  0  0
 83162  1  0  0  0
 84163  1  0  0  0
 84164  1  0  0  0
 84 86  1  0  0  0
 85165  1  0  0  0
 86166  1  0  0  0
M  CHG  1  86   1
M  ISO  4   1 100  68 101  81 101  85 100
M  END
> <chiral flag>
0

> <version>
0

> <s_m_source_file>
/data/baiqing/PycharmProjects/Reinvent-master-3.2/result/LINK_invent/BTK/process_docking_weight1_custom_product_contain_oxygen_bond_distance_aromatic_linkinvent_7_9_3/rearranged_h_0036.sdf

> <i_m_source_file_index>
44

> <r_mmod_Potential_Energy-OPLS-2005>
-174.080856323242

> <r_mmod_Stretch_Energy-OPLS-2005>
46.4901542663574

> <r_mmod_Bend_Energy-OPLS-2005>
104.546440124512

> <r_mmod_Torsional_Energy-OPLS-2005>
215.316711425781

> <r_mmod_Improper_Torsional_Energy-OPLS-2005>
4.96995210647583

> <r_mmod_Van_der_Waal_Energy-OPLS-2005>
157.851791381836

> <r_mmod_Electrostatic_Energy-OPLS-2005>
-294.114562988281

> <r_mmod_Solvation_Energy-OPLS-2005>
-428.603363037109

> <b_mmod_Minimization_Converged-OPLS-2005>
0

> <r_mmod_RMS_Derivative-OPLS-2005>
1.60059487819672

$$$$
44
                    3D
 Structure written by MMmdl.
164173  0  0  1  0            999 V2000
  -30.6109  -14.7340   20.4603 C   0  0  0  0  0  0
  -30.4336  -12.4461   19.4668 C   0  0  0  0  0  0
  -29.5099  -12.5013   18.2302 C   0  0  0  0  0  0
  -28.0360  -12.3248   18.6460 C   0  0  0  0  0  0
  -27.6414  -13.2259   19.8467 C   0  0  2  0  0  0
  -28.6864  -13.1569   20.9814 C   0  0  0  0  0  0
  -25.2517  -13.8167   20.5690 C   0  0  0  0  0  0
  -24.1802  -13.0421   20.9194 C   0  0  0  0  0  0
  -24.6387  -11.6899   20.8745 C   0  0  0  0  0  0
  -23.9058  -10.4281   21.0404 C   0  0  0  0  0  0
  -24.3613   -9.4205   21.9185 C   0  0  0  0  0  0
  -23.6289   -8.2246   22.0762 C   0  0  0  0  0  0
  -22.4271   -8.0282   21.3548 C   0  0  0  0  0  0
  -21.9905   -9.0250   20.4650 C   0  0  0  0  0  0
  -22.7233  -10.2125   20.3054 C   0  0  0  0  0  0
  -21.6852   -6.0735   22.5279 C   0  0  0  0  0  0
  -21.4012   -6.5640   23.8211 C   0  0  0  0  0  0
  -21.3653   -5.6793   24.9175 C   0  0  0  0  0  0
  -21.6039   -4.3055   24.7222 C   0  0  0  0  0  0
  -21.8823   -3.8145   23.4344 C   0  0  0  0  0  0
  -21.9195   -4.6964   22.3402 C   0  0  0  0  0  0
  -22.7828  -13.5219   21.1849 C   0  0  0  0  0  0
  -22.1664   -4.2152   21.0978 F   0  0  0  0  0  0
  -21.5622   -3.4538   25.7733 F   0  0  0  0  0  0
  -29.9865  -13.5083   20.3967 N   0  0  0  0  0  0
  -26.2933  -12.9369   20.3256 N   0  0  0  0  0  0
  -25.9310  -11.6514   20.5727 N   0  0  0  0  0  0
  -22.0466  -12.8217   22.0405 N   0  0  0  0  0  0
  -25.4205  -15.1892   20.4118 N   0  0  0  0  0  0
  -31.8050  -14.8169   20.1591 O   0  0  0  0  0  0
  -21.6641   -6.8876   21.4239 O   0  0  0  0  0  0
  -22.3528  -14.5532   20.6699 O   0  0  0  0  0  0
  -24.6309  -31.8522   23.1948 C   0  0  0  0  0  0
  -25.9124  -32.4746   23.8308 C   0  0  1  0  0  0
  -27.2277  -27.2509   20.1211 C   0  0  0  0  0  0
  -25.5923  -33.8551   24.2239 N   0  0  0  0  0  0
  -23.4284  -30.4710   21.5404 C   0  0  2  0  0  0
  -24.8747  -28.9139   20.1058 C   0  0  0  0  0  0
  -22.7506  -29.4560   22.4938 C   0  0  0  0  0  0
  -18.0284  -28.1386   22.8494 C   0  0  0  0  0  0
  -24.1480  -36.7270   23.2648 C   0  0  0  0  0  0
  -25.9744  -30.7607   21.3743 C   0  0  0  0  0  0
  -26.0446  -29.3823   20.7158 C   0  0  0  0  0  0
  -27.2169  -28.5600   20.7145 C   0  0  0  0  0  0
  -26.0299  -26.8453   19.4917 C   0  0  0  0  0  0
  -24.8740  -27.6539   19.4863 C   0  0  0  0  0  0
  -23.6428  -29.7992   20.1571 C   0  0  0  0  0  0
  -25.4114  -36.3070   24.0327 C   0  0  1  0  0  0
  -20.5885  -28.3663   23.1301 C   0  0  2  0  0  0
  -20.6767  -26.9390   22.5427 C   0  0  0  0  0  0
  -19.5748  -26.6364   21.5233 C   0  0  0  0  0  0
  -18.1920  -26.7936   22.1620 C   0  0  0  0  0  0
  -19.1535  -28.8848   23.2886 C   0  0  0  0  0  0
  -18.9464  -30.1467   23.8880 C   0  0  0  0  0  0
  -17.6465  -30.6591   24.0565 C   0  0  0  0  0  0
  -25.9052  -34.9439   23.5084 C   0  0  0  0  0  0
  -16.5352  -29.9085   23.6353 C   0  0  0  0  0  0
  -16.7267  -28.6504   23.0366 C   0  0  0  0  0  0
  -26.4483  -31.6602   25.0721 C   0  0  0  0  0  0
  -25.3697  -31.3761   26.1443 C   0  0  0  0  0  0
  -27.0353  -30.3034   24.6202 C   0  0  0  0  0  0
  -27.6038  -32.4353   25.7489 C   0  0  0  0  0  0
  -27.5579  -37.1797   24.8474 C   0  0  0  0  0  0
  -21.4206  -29.3022   22.3709 N   0  0  0  0  0  0
  -26.4291  -37.3776   23.9418 N   0  0  0  0  0  0
  -24.6976  -31.0474   22.0929 N   0  0  0  0  0  0
  -23.4213  -28.8105   23.3030 O   0  0  0  0  0  0
  -28.3463  -26.3885   20.2221 O   0  0  0  0  0  0
  -26.5640  -34.8921   22.4666 O   0  0  0  0  0  0
  -23.5451  -32.1342   23.7235 O   0  0  0  0  0  0
  -31.7871  -19.0275   21.3969 C   0  0  0  0  0  0
  -31.4363  -17.6840   21.1797 C   0  0  0  0  0  0
  -30.8832  -20.0911   21.1826 C   0  0  0  0  0  0
  -29.5773  -19.8467   20.6759 C   0  0  0  0  0  0
  -29.2340  -18.4317   20.4658 C   0  0  0  0  0  0
  -30.1528  -17.3183   20.7244 C   0  0  0  0  0  0
  -28.3527  -23.7002   20.4483 C   0  0  0  0  0  0
  -30.5028  -23.6995   18.5231 C   0  0  0  0  0  0
  -29.8811  -25.0730   18.8784 C   0  0  0  0  0  0
  -29.5481  -22.4981   18.6868 C   0  0  0  0  0  0
  -28.4934  -25.0387   19.5607 C   0  0  2  0  0  0
  -31.3650  -21.4813   21.5625 C   0  0  0  0  0  0
  -27.8391  -18.1028   19.9564 C   0  0  0  0  0  0
  -28.5365  -21.0706   20.5071 C   0  0  0  0  0  0
  -28.8692  -22.4845   19.9864 N   0  0  0  0  0  0
  -29.8179  -15.8679   20.6200 N   0  0  0  0  0  0
  -27.7268  -23.7650   21.5089 O   0  0  0  0  0  0
  -31.4741  -12.5699   19.1626 H   0  0  0  0  0  0
  -30.3776  -11.4673   19.9463 H   0  0  0  0  0  0
  -29.7913  -11.7277   17.5137 H   0  0  0  0  0  0
  -29.6374  -13.4563   17.7167 H   0  0  0  0  0  0
  -27.8968  -11.2755   18.9110 H   0  0  0  0  0  0
  -27.3780  -12.5121   17.7970 H   0  0  0  0  0  0
  -27.6365  -14.2467   19.4651 H   0  0  0  0  0  0
  -28.7185  -12.1570   21.4184 H   0  0  0  0  0  0
  -28.4221  -13.8369   21.7926 H   0  0  0  0  0  0
  -25.2758   -9.5686   22.4761 H   0  0  0  0  0  0
  -23.9995   -7.4639   22.7488 H   0  0  0  0  0  0
  -21.0838   -8.8761   19.8958 H   0  0  0  0  0  0
  -22.3689  -10.9661   19.6165 H   0  0  0  0  0  0
  -21.2006   -7.6150   23.9715 H   0  0  0  0  0  0
  -21.1462   -6.0522   25.9076 H   0  0  0  0  0  0
  -22.0605   -2.7609   23.2841 H   0  0  0  0  0  0
  -22.4075  -11.9875   22.4789 H   0  0  0  0  0  0
  -21.1086  -13.1253   22.2600 H   0  0  0  0  0  0
  -24.6511  -15.8389   20.5291 H   0  0  0  0  0  0
  -26.2576  -15.6272   20.0547 H   0  0  0  0  0  0
  -26.7196  -32.5366   23.1051 H   0  0  0  0  0  0
  -25.0130  -33.9705   25.0423 H   0  0  0  0  0  0
  -22.7257  -31.2926   21.3926 H   0  0  0  0  0  0
  -23.3761  -35.9585   23.3304 H   0  0  0  0  0  0
  -24.3579  -36.8899   22.2069 H   0  0  0  0  0  0
  -23.7207  -37.6456   23.6668 H   0  0  0  0  0  0
  -26.1186  -31.5200   20.6041 H   0  0  0  0  0  0
  -26.8515  -30.8081   22.0081 H   0  0  0  0  0  0
  -28.1106  -28.9119   21.2095 H   0  0  0  0  0  0
  -25.9400  -25.8742   19.0310 H   0  0  0  0  0  0
  -23.9743  -27.2830   19.0148 H   0  0  0  0  0  0
  -23.7590  -30.5719   19.3967 H   0  0  0  0  0  0
  -22.7607  -29.2277   19.8583 H   0  0  0  0  0  0
  -25.1300  -36.1923   25.0819 H   0  0  0  0  0  0
  -20.9967  -28.3200   24.1423 H   0  0  0  0  0  0
  -20.5685  -26.2263   23.3616 H   0  0  0  0  0  0
  -21.6633  -26.7425   22.1216 H   0  0  0  0  0  0
  -19.6913  -25.6272   21.1264 H   0  0  0  0  0  0
  -19.6700  -27.3172   20.6766 H   0  0  0  0  0  0
  -17.4214  -26.6717   21.3993 H   0  0  0  0  0  0
  -18.0271  -26.0068   22.8991 H   0  0  0  0  0  0
  -19.7942  -30.7300   24.2200 H   0  0  0  0  0  0
  -17.5022  -31.6269   24.5169 H   0  0  0  0  0  0
  -15.5358  -30.2994   23.7690 H   0  0  0  0  0  0
  -15.8657  -28.0831   22.7093 H   0  0  0  0  0  0
  -24.5907  -30.7053   25.7805 H   0  0  0  0  0  0
  -24.8836  -32.2924   26.4791 H   0  0  0  0  0  0
  -25.8012  -30.9029   27.0274 H   0  0  0  0  0  0
  -26.2945  -29.6782   24.1206 H   0  0  0  0  0  0
  -27.4062  -29.7291   25.4708 H   0  0  0  0  0  0
  -27.8793  -30.4370   23.9438 H   0  0  0  0  0  0
  -27.2663  -33.3706   26.1961 H   0  0  0  0  0  0
  -28.3882  -32.6822   25.0326 H   0  0  0  0  0  0
  -28.0646  -31.8540   26.5487 H   0  0  0  0  0  0
  -28.2604  -38.0090   24.7529 H   0  0  0  0  0  0
  -28.1065  -36.2624   24.6280 H   0  0  0  0  0  0
  -27.2305  -37.1427   25.8882 H   0  0  0  0  0  0
  -20.9381  -29.8784   21.6958 H   0  0  0  0  0  0
  -26.0162  -38.2847   24.1422 H   0  0  0  0  0  0
  -32.7782  -19.2377   21.7765 H   0  0  0  0  0  0
  -32.1772  -16.9323   21.4125 H   0  0  0  0  0  0
  -31.3797  -23.5449   19.1515 H   0  0  0  0  0  0
  -30.8853  -23.7189   17.5022 H   0  0  0  0  0  0
  -29.8038  -25.6754   17.9719 H   0  0  0  0  0  0
  -30.5836  -25.6127   19.5158 H   0  0  0  0  0  0
  -30.1030  -21.5711   18.5400 H   0  0  0  0  0  0
  -28.7909  -22.5209   17.9010 H   0  0  0  0  0  0
  -27.7710  -24.9281   18.7552 H   0  0  0  0  0  0
  -32.1463  -21.4305   22.3230 H   0  0  0  0  0  0
  -30.5698  -22.0979   21.9805 H   0  0  0  0  0  0
  -31.7898  -21.9806   20.6946 H   0  0  0  0  0  0
  -27.0874  -18.3975   20.6892 H   0  0  0  0  0  0
  -27.7015  -17.0434   19.7470 H   0  0  0  0  0  0
  -27.6432  -18.6313   19.0234 H   0  0  0  0  0  0
  -28.0614  -21.1823   21.4817 H   0  0  0  0  0  0
  -27.7348  -20.7343   19.8528 H   0  0  0  0  0  0
  -28.8352  -15.6544   20.6829 H   0  0  0  0  0  0
  1 25  1  0  0  0
  1 30  2  0  0  0
  1 86  1  0  0  0
  2  3  1  0  0  0
  2 25  1  0  0  0
  2 88  1  0  0  0
  2 89  1  0  0  0
  3  4  1  0  0  0
  3 90  1  0  0  0
  3 91  1  0  0  0
  4  5  1  0  0  0
  4 92  1  0  0  0
  4 93  1  0  0  0
  5  6  1  0  0  0
  5 26  1  0  0  0
  5 94  1  0  0  0
  6 25  1  0  0  0
  6 95  1  0  0  0
  6 96  1  0  0  0
  7  8  2  0  0  0
  7 26  1  0  0  0
  7 29  1  0  0  0
  8  9  1  0  0  0
  8 22  1  0  0  0
  9 10  1  0  0  0
  9 27  2  0  0  0
 10 11  2  0  0  0
 10 15  1  0  0  0
 11 12  1  0  0  0
 11 97  1  0  0  0
 12 13  2  0  0  0
 12 98  1  0  0  0
 13 14  1  0  0  0
 13 31  1  0  0  0
 14 15  2  0  0  0
 14 99  1  0  0  0
 15100  1  0  0  0
 16 17  2  0  0  0
 16 21  1  0  0  0
 16 31  1  0  0  0
 17 18  1  0  0  0
 17101  1  0  0  0
 18 19  2  0  0  0
 18102  1  0  0  0
 19 20  1  0  0  0
 19 24  1  0  0  0
 20 21  2  0  0  0
 20103  1  0  0  0
 21 23  1  0  0  0
 22 28  1  0  0  0
 22 32  2  0  0  0
 26 27  1  0  0  0
 28104  1  0  0  0
 28105  1  0  0  0
 29106  1  0  0  0
 29107  1  0  0  0
 33 34  1  0  0  0
 33 66  1  0  0  0
 33 70  2  0  0  0
 34 36  1  0  0  0
 34 59  1  0  0  0
 34108  1  0  0  0
 35 44  2  0  0  0
 35 45  1  0  0  0
 35 68  1  0  0  0
 36 56  1  0  0  0
 36109  1  0  0  0
 37 39  1  0  0  0
 37 47  1  0  0  0
 37 66  1  0  0  0
 37110  1  0  0  0
 38 43  2  0  0  0
 38 46  1  0  0  0
 38 47  1  0  0  0
 39 64  1  0  0  0
 39 67  2  0  0  0
 40 52  1  0  0  0
 40 53  2  0  0  0
 40 58  1  0  0  0
 41111  1  0  0  0
 41112  1  0  0  0
 41113  1  0  0  0
 41 48  1  0  0  0
 42 43  1  0  0  0
 42 66  1  0  0  0
 42114  1  0  0  0
 42115  1  0  0  0
 43 44  1  0  0  0
 44116  1  0  0  0
 45 46  2  0  0  0
 45117  1  0  0  0
 46118  1  0  0  0
 47119  1  0  0  0
 47120  1  0  0  0
 48 56  1  0  0  0
 48 65  1  0  0  0
 48121  1  0  0  0
 49 50  1  0  0  0
 49 53  1  0  0  0
 49 64  1  0  0  0
 49122  1  0  0  0
 50 51  1  0  0  0
 50123  1  0  0  0
 50124  1  0  0  0
 51 52  1  0  0  0
 51125  1  0  0  0
 51126  1  0  0  0
 52127  1  0  0  0
 52128  1  0  0  0
 53 54  1  0  0  0
 54 55  2  0  0  0
 54129  1  0  0  0
 55 57  1  0  0  0
 55130  1  0  0  0
 56 69  2  0  0  0
 57 58  2  0  0  0
 57131  1  0  0  0
 58132  1  0  0  0
 59 60  1  0  0  0
 59 61  1  0  0  0
 59 62  1  0  0  0
 60133  1  0  0  0
 60134  1  0  0  0
 60135  1  0  0  0
 61136  1  0  0  0
 61137  1  0  0  0
 61138  1  0  0  0
 62139  1  0  0  0
 62140  1  0  0  0
 62141  1  0  0  0
 63 65  1  0  0  0
 63142  1  0  0  0
 63143  1  0  0  0
 63144  1  0  0  0
 64145  1  0  0  0
 65146  1  0  0  0
 68 81  1  0  0  0
 71 72  2  0  0  0
 71 73  1  0  0  0
 71147  1  0  0  0
 72 76  1  0  0  0
 72148  1  0  0  0
 73 74  2  0  0  0
 73 82  1  0  0  0
 74 75  1  0  0  0
 74 84  1  0  0  0
 75 76  2  0  0  0
 75 83  1  0  0  0
 76 86  1  0  0  0
 77 81  1  0  0  0
 77 85  1  0  0  0
 77 87  2  0  0  0
 78 79  1  0  0  0
 78 80  1  0  0  0
 78149  1  0  0  0
 78150  1  0  0  0
 79 81  1  0  0  0
 79151  1  0  0  0
 79152  1  0  0  0
 80 85  1  0  0  0
 80153  1  0  0  0
 80154  1  0  0  0
 81155  1  0  0  0
 82156  1  0  0  0
 82157  1  0  0  0
 82158  1  0  0  0
 83159  1  0  0  0
 83160  1  0  0  0
 83161  1  0  0  0
 84 85  1  0  0  0
 84162  1  0  0  0
 84163  1  0  0  0
 86164  1  0  0  0
M  ISO  4   1 100  68 101  81 101  86 100
M  END
> <chiral flag>
0

> <version>
0

> <s_m_source_file>
/data/baiqing/PycharmProjects/Reinvent-master-3.2/result/LINK_invent/BTK/process_docking_weight1_custom_product_contain_oxygen_bond_distance_aromatic_linkinvent_7_9_3/rearranged_h_0036.sdf

> <i_m_source_file_index>
45

> <r_mmod_Potential_Energy-OPLS-2005>
227.776519775391

> <r_mmod_Stretch_Energy-OPLS-2005>
144.085372924805

> <r_mmod_Bend_Energy-OPLS-2005>
184.228210449219

> <r_mmod_Torsional_Energy-OPLS-2005>
247.96891784668

> <r_mmod_Improper_Torsional_Energy-OPLS-2005>
7.25725126266479

> <r_mmod_Van_der_Waal_Energy-OPLS-2005>
146.975189208984

> <r_mmod_Electrostatic_Energy-OPLS-2005>
-355.822052001953

> <r_mmod_Solvation_Energy-OPLS-2005>
-231.152877807617

> <b_mmod_Minimization_Converged-OPLS-2005>
0

> <r_mmod_RMS_Derivative-OPLS-2005>
2.08424782752991

$$$$
45
                    3D
 Structure written by MMmdl.
166175  0  0  1  0            999 V2000
  -30.5173  -14.9587   20.4361 C   0  0  0  0  0  0
  -30.4528  -12.5976   19.5093 C   0  0  0  0  0  0
  -29.5379  -12.5461   18.2631 C   0  0  0  0  0  0
  -28.0685  -12.3172   18.6718 C   0  0  0  0  0  0
  -27.6334  -13.2467   19.8354 C   0  0  2  0  0  0
  -28.6714  -13.2612   20.9774 C   0  0  0  0  0  0
  -25.2449  -13.8148   20.5657 C   0  0  0  0  0  0
  -24.1777  -13.0408   20.9221 C   0  0  0  0  0  0
  -24.6408  -11.6908   20.8763 C   0  0  0  0  0  0
  -23.9085  -10.4297   21.0402 C   0  0  0  0  0  0
  -24.3638   -9.4217   21.9172 C   0  0  0  0  0  0
  -23.6326   -8.2251   22.0739 C   0  0  0  0  0  0
  -22.4307   -8.0280   21.3519 C   0  0  0  0  0  0
  -21.9928   -9.0264   20.4627 C   0  0  0  0  0  0
  -22.7267  -10.2147   20.3042 C   0  0  0  0  0  0
  -21.6870   -6.0760   22.5279 C   0  0  0  0  0  0
  -21.4030   -6.5650   23.8215 C   0  0  0  0  0  0
  -21.3663   -5.6785   24.9163 C   0  0  0  0  0  0
  -21.6062   -4.3053   24.7194 C   0  0  0  0  0  0
  -21.8834   -3.8153   23.4309 C   0  0  0  0  0  0
  -21.9194   -4.6989   22.3379 C   0  0  0  0  0  0
  -22.7797  -13.5214   21.1867 C   0  0  0  0  0  0
  -22.1641   -4.2171   21.0958 F   0  0  0  0  0  0
  -21.5615   -3.4539   25.7706 F   0  0  0  0  0  0
  -29.9528  -13.6841   20.3946 N   0  0  0  0  0  0
  -26.2904  -12.9409   20.3203 N   0  0  0  0  0  0
  -25.9345  -11.6553   20.5739 N   0  0  0  0  0  0
  -22.0409  -12.8237   22.0427 N   0  0  0  0  0  0
  -25.4049  -15.1832   20.3970 N   0  0  0  0  0  0
  -31.7166  -15.0524   20.1544 O   0  0  0  0  0  0
  -21.6639   -6.8918   21.4248 O   0  0  0  0  0  0
  -22.3500  -14.5521   20.6698 O   0  0  0  0  0  0
  -24.6391  -31.8448   23.1873 C   0  0  0  0  0  0
  -25.9159  -32.4702   23.8262 C   0  0  1  0  0  0
  -27.2381  -27.1562   20.1820 C   0  0  0  0  0  0
  -25.5894  -33.8511   24.2179 N   0  0  0  0  0  0
  -23.4436  -30.4590   21.5332 C   0  0  2  0  0  0
  -24.9001  -28.8746   20.1283 C   0  0  0  0  0  0
  -22.7545  -29.4535   22.4866 C   0  0  0  0  0  0
  -18.0306  -28.1380   22.8492 C   0  0  0  0  0  0
  -24.1487  -36.7268   23.2636 C   0  0  0  0  0  0
  -25.9978  -30.7264   21.3813 C   0  0  0  0  0  0
  -26.0751  -29.3341   20.7382 C   0  0  0  0  0  0
  -27.2490  -28.4948   20.7391 C   0  0  0  0  0  0
  -26.0359  -26.7780   19.5510 C   0  0  0  0  0  0
  -24.8901  -27.6091   19.5197 C   0  0  0  0  0  0
  -23.6726  -29.7714   20.1610 C   0  0  0  0  0  0
  -25.4126  -36.3021   24.0296 C   0  0  1  0  0  0
  -20.5913  -28.3710   23.1248 C   0  0  2  0  0  0
  -20.6782  -26.9414   22.5420 C   0  0  0  0  0  0
  -19.5753  -26.6374   21.5220 C   0  0  0  0  0  0
  -18.1933  -26.7932   22.1621 C   0  0  0  0  0  0
  -19.1555  -28.8855   23.2874 C   0  0  0  0  0  0
  -18.9474  -30.1460   23.8898 C   0  0  0  0  0  0
  -17.6468  -30.6611   24.0551 C   0  0  0  0  0  0
  -25.9066  -34.9389   23.5060 C   0  0  0  0  0  0
  -16.5362  -29.9108   23.6321 C   0  0  0  0  0  0
  -16.7281  -28.6501   23.0376 C   0  0  0  0  0  0
  -26.4492  -31.6582   25.0701 C   0  0  0  0  0  0
  -25.3665  -31.3806   26.1392 C   0  0  0  0  0  0
  -27.0310  -30.2956   24.6241 C   0  0  0  0  0  0
  -27.5993  -32.4360   25.7510 C   0  0  0  0  0  0
  -27.5597  -37.1786   24.8460 C   0  0  0  0  0  0
  -21.4222  -29.3045   22.3624 N   0  0  0  0  0  0
  -26.4289  -37.3734   23.9408 N   0  0  0  0  0  0
  -24.7136  -31.0308   22.0911 N   0  0  0  0  0  0
  -23.4204  -28.8066   23.2989 O   0  0  0  0  0  0
  -28.3424  -26.2415   20.1222 O   0  0  0  0  0  0
  -26.5665  -34.8874   22.4647 O   0  0  0  0  0  0
  -23.5522  -32.1298   23.7123 O   0  0  0  0  0  0
  -30.6589  -19.9377   21.0977 C   0  0  0  0  0  0
  -28.6072  -19.9057   19.9853 C   0  0  0  0  0  0
  -30.7372  -18.4833   21.0887 C   0  0  0  0  0  0
  -28.6551  -18.4451   19.9781 C   0  0  0  0  0  0
  -29.6005  -20.7633   20.5600 C   0  0  0  0  0  0
  -29.7322  -17.6331   20.5175 C   0  0  0  0  0  0
  -30.6241  -22.9326   21.3117 C   0  0  0  0  0  0
  -31.9105  -22.9858   20.9091 C   0  0  0  0  0  0
  -30.1404  -23.8260   22.4383 C   0  0  0  0  0  0
  -29.5200  -25.1023   21.8454 C   0  0  0  0  0  0
  -28.6320  -23.3313   20.0594 C   0  0  0  0  0  0
  -28.4111  -24.8487   20.7952 C   0  0  2  0  0  0
  -31.9220  -17.8410   21.7868 C   0  0  0  0  0  0
  -27.4415  -17.7545   19.3850 C   0  0  0  0  0  0
  -32.5277  -22.3488   19.6752 C   0  0  0  0  0  0
  -29.5884  -22.2613   20.6669 N   0  0  0  0  0  0
  -29.6649  -16.0907   20.5926 N   0  0  0  0  0  0
  -31.4870  -12.7655   19.2070 H   0  0  0  0  0  0
  -30.4484  -11.6426   20.0361 H   0  0  0  0  0  0
  -29.8757  -11.7677   17.5793 H   0  0  0  0  0  0
  -29.6178  -13.4864   17.7156 H   0  0  0  0  0  0
  -27.9756  -11.2754   18.9776 H   0  0  0  0  0  0
  -27.4146  -12.4472   17.8100 H   0  0  0  0  0  0
  -27.5968  -14.2507   19.4079 H   0  0  0  0  0  0
  -28.7539  -12.2778   21.4423 H   0  0  0  0  0  0
  -28.3661  -13.9538   21.7625 H   0  0  0  0  0  0
  -25.2800   -9.5729   22.4701 H   0  0  0  0  0  0
  -24.0044   -7.4674   22.7470 H   0  0  0  0  0  0
  -21.0843   -8.8827   19.8944 H   0  0  0  0  0  0
  -22.3753  -10.9677   19.6113 H   0  0  0  0  0  0
  -21.2050   -7.6159   23.9744 H   0  0  0  0  0  0
  -21.1446   -6.0488   25.9073 H   0  0  0  0  0  0
  -22.0608   -2.7612   23.2793 H   0  0  0  0  0  0
  -22.4002  -11.9957   22.4929 H   0  0  0  0  0  0
  -21.0995  -13.1257   22.2521 H   0  0  0  0  0  0
  -24.6295  -15.8288   20.5049 H   0  0  0  0  0  0
  -26.2320  -15.6163   20.0180 H   0  0  0  0  0  0
  -26.7214  -32.5349   23.1007 H   0  0  0  0  0  0
  -24.9921  -33.9626   25.0232 H   0  0  0  0  0  0
  -22.7464  -31.2848   21.3724 H   0  0  0  0  0  0
  -23.3724  -35.9632   23.3277 H   0  0  0  0  0  0
  -24.3554  -36.8928   22.2056 H   0  0  0  0  0  0
  -23.7265  -37.6456   23.6702 H   0  0  0  0  0  0
  -26.1406  -31.4692   20.5962 H   0  0  0  0  0  0
  -26.8763  -30.7877   22.0124 H   0  0  0  0  0  0
  -28.1546  -28.8520   21.2077 H   0  0  0  0  0  0
  -25.9749  -25.8056   19.0826 H   0  0  0  0  0  0
  -23.9914  -27.2456   19.0397 H   0  0  0  0  0  0
  -23.8116  -30.5362   19.3976 H   0  0  0  0  0  0
  -22.7918  -29.2048   19.8521 H   0  0  0  0  0  0
  -25.1321  -36.1824   25.0779 H   0  0  0  0  0  0
  -21.0035  -28.3296   24.1348 H   0  0  0  0  0  0
  -20.5652  -26.2312   23.3632 H   0  0  0  0  0  0
  -21.6650  -26.7422   22.1212 H   0  0  0  0  0  0
  -19.6911  -25.6280   21.1258 H   0  0  0  0  0  0
  -19.6699  -27.3175   20.6740 H   0  0  0  0  0  0
  -17.4211  -26.6683   21.4019 H   0  0  0  0  0  0
  -18.0350  -26.0094   22.9031 H   0  0  0  0  0  0
  -19.7935  -30.7276   24.2282 H   0  0  0  0  0  0
  -17.5017  -31.6291   24.5160 H   0  0  0  0  0  0
  -15.5358  -30.3015   23.7640 H   0  0  0  0  0  0
  -15.8674  -28.0817   22.7128 H   0  0  0  0  0  0
  -24.5785  -30.7240   25.7703 H   0  0  0  0  0  0
  -24.8943  -32.3028   26.4779 H   0  0  0  0  0  0
  -25.7910  -30.8963   27.0188 H   0  0  0  0  0  0
  -26.2900  -29.6731   24.1215 H   0  0  0  0  0  0
  -27.3862  -29.7193   25.4790 H   0  0  0  0  0  0
  -27.8838  -30.4152   23.9556 H   0  0  0  0  0  0
  -27.2508  -33.3621   26.2080 H   0  0  0  0  0  0
  -28.3812  -32.6998   25.0388 H   0  0  0  0  0  0
  -28.0640  -31.8515   26.5451 H   0  0  0  0  0  0
  -28.2575  -38.0112   24.7495 H   0  0  0  0  0  0
  -28.1107  -36.2629   24.6286 H   0  0  0  0  0  0
  -27.2295  -37.1446   25.8849 H   0  0  0  0  0  0
  -20.9432  -29.8733   21.6785 H   0  0  0  0  0  0
  -26.0135  -38.2781   24.1424 H   0  0  0  0  0  0
  -31.4845  -20.4421   21.5738 H   0  0  0  0  0  0
  -27.7414  -20.3855   19.5541 H   0  0  0  0  0  0
  -32.5805  -23.6360   21.4563 H   0  0  0  0  0  0
  -30.9635  -24.0661   23.1145 H   0  0  0  0  0  0
  -29.3981  -23.2863   23.0303 H   0  0  0  0  0  0
  -30.3233  -25.6697   21.3724 H   0  0  0  0  0  0
  -29.1425  -25.7398   22.6493 H   0  0  0  0  0  0
  -28.9885  -23.5052   19.0430 H   0  0  0  0  0  0
  -27.6492  -22.8719   19.9395 H   0  0  0  0  0  0
  -27.4925  -24.7399   21.3712 H   0  0  0  0  0  0
  -32.4465  -18.5501   22.4268 H   0  0  0  0  0  0
  -32.6321  -17.4563   21.0544 H   0  0  0  0  0  0
  -31.5896  -17.0187   22.4187 H   0  0  0  0  0  0
  -26.9353  -18.4019   18.6689 H   0  0  0  0  0  0
  -26.7249  -17.5295   20.1750 H   0  0  0  0  0  0
  -27.7098  -16.8330   18.8698 H   0  0  0  0  0  0
  -31.9194  -21.5541   19.2514 H   0  0  0  0  0  0
  -33.5128  -21.9484   19.9178 H   0  0  0  0  0  0
  -32.6611  -23.1083   18.9035 H   0  0  0  0  0  0
  -28.7190  -15.7651   20.7097 H   0  0  0  0  0  0
  1 25  1  0  0  0
  1 30  2  0  0  0
  1 87  1  0  0  0
  2  3  1  0  0  0
  2 25  1  0  0  0
  2 88  1  0  0  0
  2 89  1  0  0  0
  3  4  1  0  0  0
  3 90  1  0  0  0
  3 91  1  0  0  0
  4  5  1  0  0  0
  4 92  1  0  0  0
  4 93  1  0  0  0
  5  6  1  0  0  0
  5 26  1  0  0  0
  5 94  1  0  0  0
  6 25  1  0  0  0
  6 95  1  0  0  0
  6 96  1  0  0  0
  7  8  2  0  0  0
  7 26  1  0  0  0
  7 29  1  0  0  0
  8  9  1  0  0  0
  8 22  1  0  0  0
  9 10  1  0  0  0
  9 27  2  0  0  0
 10 11  2  0  0  0
 10 15  1  0  0  0
 11 12  1  0  0  0
 11 97  1  0  0  0
 12 13  2  0  0  0
 12 98  1  0  0  0
 13 14  1  0  0  0
 13 31  1  0  0  0
 14 15  2  0  0  0
 14 99  1  0  0  0
 15100  1  0  0  0
 16 17  2  0  0  0
 16 21  1  0  0  0
 16 31  1  0  0  0
 17 18  1  0  0  0
 17101  1  0  0  0
 18 19  2  0  0  0
 18102  1  0  0  0
 19 20  1  0  0  0
 19 24  1  0  0  0
 20 21  2  0  0  0
 20103  1  0  0  0
 21 23  1  0  0  0
 22 28  1  0  0  0
 22 32  2  0  0  0
 26 27  1  0  0  0
 28104  1  0  0  0
 28105  1  0  0  0
 29106  1  0  0  0
 29107  1  0  0  0
 33 34  1  0  0  0
 33 66  1  0  0  0
 33 70  2  0  0  0
 34 36  1  0  0  0
 34 59  1  0  0  0
 34108  1  0  0  0
 35 44  2  0  0  0
 35 45  1  0  0  0
 35 68  1  0  0  0
 36 56  1  0  0  0
 36109  1  0  0  0
 37 39  1  0  0  0
 37 47  1  0  0  0
 37 66  1  0  0  0
 37110  1  0  0  0
 38 43  2  0  0  0
 38 46  1  0  0  0
 38 47  1  0  0  0
 39 64  1  0  0  0
 39 67  2  0  0  0
 40 52  1  0  0  0
 40 53  2  0  0  0
 40 58  1  0  0  0
 41111  1  0  0  0
 41112  1  0  0  0
 41113  1  0  0  0
 41 48  1  0  0  0
 42 43  1  0  0  0
 42 66  1  0  0  0
 42114  1  0  0  0
 42115  1  0  0  0
 43 44  1  0  0  0
 44116  1  0  0  0
 45 46  2  0  0  0
 45117  1  0  0  0
 46118  1  0  0  0
 47119  1  0  0  0
 47120  1  0  0  0
 48 56  1  0  0  0
 48 65  1  0  0  0
 48121  1  0  0  0
 49 50  1  0  0  0
 49 53  1  0  0  0
 49 64  1  0  0  0
 49122  1  0  0  0
 50 51  1  0  0  0
 50123  1  0  0  0
 50124  1  0  0  0
 51 52  1  0  0  0
 51125  1  0  0  0
 51126  1  0  0  0
 52127  1  0  0  0
 52128  1  0  0  0
 53 54  1  0  0  0
 54 55  2  0  0  0
 54129  1  0  0  0
 55 57  1  0  0  0
 55130  1  0  0  0
 56 69  2  0  0  0
 57 58  2  0  0  0
 57131  1  0  0  0
 58132  1  0  0  0
 59 60  1  0  0  0
 59 61  1  0  0  0
 59 62  1  0  0  0
 60133  1  0  0  0
 60134  1  0  0  0
 60135  1  0  0  0
 61136  1  0  0  0
 61137  1  0  0  0
 61138  1  0  0  0
 62139  1  0  0  0
 62140  1  0  0  0
 62141  1  0  0  0
 63 65  1  0  0  0
 63142  1  0  0  0
 63143  1  0  0  0
 63144  1  0  0  0
 64145  1  0  0  0
 65146  1  0  0  0
 68 82  1  0  0  0
 71 73  2  0  0  0
 71 75  1  0  0  0
 71147  1  0  0  0
 72 74  1  0  0  0
 72 75  2  0  0  0
 72148  1  0  0  0
 73 76  1  0  0  0
 73 83  1  0  0  0
 74 76  2  0  0  0
 74 84  1  0  0  0
 75 86  1  0  0  0
 76 87  1  0  0  0
 77 78  2  0  0  0
 77 79  1  0  0  0
 77 86  1  0  0  0
 78 85  1  0  0  0
 78149  1  0  0  0
 79 80  1  0  0  0
 79150  1  0  0  0
 79151  1  0  0  0
 80 82  1  0  0  0
 80152  1  0  0  0
 80153  1  0  0  0
 81 82  1  0  0  0
 81 86  1  0  0  0
 81154  1  0  0  0
 81155  1  0  0  0
 82156  1  0  0  0
 83157  1  0  0  0
 83158  1  0  0  0
 83159  1  0  0  0
 84160  1  0  0  0
 84161  1  0  0  0
 84162  1  0  0  0
 85163  1  0  0  0
 85164  1  0  0  0
 85165  1  0  0  0
 87166  1  0  0  0
M  ISO  4   1 100  68 101  82 101  87 100
M  END
> <chiral flag>
0

> <version>
0

> <s_m_source_file>
/data/baiqing/PycharmProjects/Reinvent-master-3.2/result/LINK_invent/BTK/process_docking_weight1_custom_product_contain_oxygen_bond_distance_aromatic_linkinvent_7_9_3/rearranged_h_0036.sdf

> <i_m_source_file_index>
46

> <r_mmod_Potential_Energy-OPLS-2005>
512.995361328125

> <r_mmod_Stretch_Energy-OPLS-2005>
236.299987792969

> <r_mmod_Bend_Energy-OPLS-2005>
293.968627929688

> <r_mmod_Torsional_Energy-OPLS-2005>
296.595794677734

> <r_mmod_Improper_Torsional_Energy-OPLS-2005>
6.20331144332886

> <r_mmod_Van_der_Waal_Energy-OPLS-2005>
134.055068969727

> <r_mmod_Electrostatic_Energy-OPLS-2005>
-433.983245849609

> <r_mmod_Solvation_Energy-OPLS-2005>
-200.789794921875

> <b_mmod_Minimization_Converged-OPLS-2005>
0

> <r_mmod_RMS_Derivative-OPLS-2005>
4.85001659393311

$$$$
46
                    3D
 Structure written by MMmdl.
162170  0  0  1  0            999 V2000
  -30.6219  -14.5509   20.5320 C   0  0  0  0  0  0
  -30.4414  -12.3415   19.4264 C   0  0  0  0  0  0
  -29.5035  -12.4948   18.2082 C   0  0  0  0  0  0
  -28.0216  -12.3478   18.6184 C   0  0  0  0  0  0
  -27.6573  -13.1964   19.8655 C   0  0  2  0  0  0
  -28.7016  -12.9900   20.9849 C   0  0  0  0  0  0
  -25.2592  -13.8144   20.5678 C   0  0  0  0  0  0
  -24.1831  -13.0442   20.9196 C   0  0  0  0  0  0
  -24.6373  -11.6905   20.8760 C   0  0  0  0  0  0
  -23.9042  -10.4296   21.0426 C   0  0  0  0  0  0
  -24.3598   -9.4214   21.9196 C   0  0  0  0  0  0
  -23.6282   -8.2244   22.0755 C   0  0  0  0  0  0
  -22.4262   -8.0284   21.3555 C   0  0  0  0  0  0
  -21.9903   -9.0256   20.4650 C   0  0  0  0  0  0
  -22.7225  -10.2139   20.3066 C   0  0  0  0  0  0
  -21.6846   -6.0738   22.5274 C   0  0  0  0  0  0
  -21.4006   -6.5641   23.8212 C   0  0  0  0  0  0
  -21.3663   -5.6794   24.9177 C   0  0  0  0  0  0
  -21.6046   -4.3053   24.7224 C   0  0  0  0  0  0
  -21.8821   -3.8148   23.4343 C   0  0  0  0  0  0
  -21.9194   -4.6968   22.3400 C   0  0  0  0  0  0
  -22.7859  -13.5256   21.1873 C   0  0  0  0  0  0
  -22.1664   -4.2154   21.0977 F   0  0  0  0  0  0
  -21.5636   -3.4538   25.7739 F   0  0  0  0  0  0
  -30.0209  -13.3322   20.4263 N   0  0  0  0  0  0
  -26.2993  -12.9273   20.3313 N   0  0  0  0  0  0
  -25.9286  -11.6454   20.5758 N   0  0  0  0  0  0
  -22.0489  -12.8244   22.0410 N   0  0  0  0  0  0
  -25.4367  -15.1858   20.4078 N   0  0  0  0  0  0
  -31.7812  -14.7612   20.1612 O   0  0  0  0  0  0
  -21.6639   -6.8875   21.4235 O   0  0  0  0  0  0
  -22.3560  -14.5581   20.6739 O   0  0  0  0  0  0
  -24.6179  -31.8641   23.2061 C   0  0  0  0  0  0
  -25.9047  -32.4811   23.8373 C   0  0  1  0  0  0
  -27.2309  -27.3981   20.1082 C   0  0  0  0  0  0
  -25.5897  -33.8608   24.2314 N   0  0  0  0  0  0
  -23.4094  -30.4858   21.5488 C   0  0  2  0  0  0
  -24.8553  -28.9422   20.1170 C   0  0  0  0  0  0
  -22.7438  -29.4630   22.4993 C   0  0  0  0  0  0
  -18.0284  -28.1366   22.8497 C   0  0  0  0  0  0
  -24.1497  -36.7278   23.2646 C   0  0  0  0  0  0
  -25.9393  -30.8209   21.3597 C   0  0  0  0  0  0
  -26.0162  -29.4502   20.7117 C   0  0  0  0  0  0
  -27.2116  -28.6871   20.6985 C   0  0  0  0  0  0
  -26.0516  -26.9064   19.5134 C   0  0  0  0  0  0
  -24.8671  -27.6715   19.5137 C   0  0  0  0  0  0
  -23.6191  -29.8138   20.1651 C   0  0  0  0  0  0
  -25.4114  -36.3088   24.0352 C   0  0  1  0  0  0
  -20.5877  -28.3638   23.1333 C   0  0  2  0  0  0
  -20.6768  -26.9375   22.5418 C   0  0  0  0  0  0
  -19.5740  -26.6362   21.5220 C   0  0  0  0  0  0
  -18.1914  -26.7918   22.1625 C   0  0  0  0  0  0
  -19.1531  -28.8813   23.2918 C   0  0  0  0  0  0
  -18.9460  -30.1435   23.8905 C   0  0  0  0  0  0
  -17.6465  -30.6566   24.0567 C   0  0  0  0  0  0
  -25.9028  -34.9465   23.5119 C   0  0  0  0  0  0
  -16.5353  -29.9075   23.6325 C   0  0  0  0  0  0
  -16.7272  -28.6497   23.0340 C   0  0  0  0  0  0
  -26.4452  -31.6613   25.0713 C   0  0  0  0  0  0
  -25.3734  -31.3718   26.1466 C   0  0  0  0  0  0
  -27.0253  -30.3064   24.6048 C   0  0  0  0  0  0
  -27.6027  -32.4320   25.7480 C   0  0  0  0  0  0
  -27.5571  -37.1799   24.8479 C   0  0  0  0  0  0
  -21.4159  -29.3021   22.3752 N   0  0  0  0  0  0
  -26.4292  -37.3776   23.9418 N   0  0  0  0  0  0
  -24.6748  -31.0719   22.0974 N   0  0  0  0  0  0
  -23.4197  -28.8160   23.3035 O   0  0  0  0  0  0
  -28.3851  -26.6383   20.0747 O   0  0  0  0  0  0
  -26.5585  -34.8924   22.4678 O   0  0  0  0  0  0
  -23.5354  -32.1412   23.7423 O   0  0  0  0  0  0
  -30.1072  -18.3262   23.3017 C   0  0  0  0  0  0
  -29.9292  -18.0244   20.5266 C   0  0  0  0  0  0
  -30.0924  -19.4758   22.4838 C   0  0  0  0  0  0
  -30.0417  -17.0297   22.7557 C   0  0  0  0  0  0
  -29.9952  -19.3461   21.0718 C   0  0  0  0  0  0
  -29.9762  -16.8621   21.3525 C   0  0  0  0  0  0
  -30.1849  -20.8274   23.1713 C   0  0  0  0  0  0
  -30.0046  -15.8317   23.6945 C   0  0  0  0  0  0
  -30.0848  -20.5852   20.1358 C   0  0  0  0  0  0
  -28.4844  -24.0712   19.9294 C   0  0  0  0  0  0
  -28.9491  -22.8169   20.7529 C   0  0  0  0  0  0
  -28.3625  -25.3773   20.7870 C   0  0  0  0  0  0
  -29.7517  -15.5478   20.8280 N   0  0  0  0  0  0
  -28.8983  -21.4968   20.0354 N   0  3  0  0  0  0
  -31.4822  -12.4742   19.1268 H   0  0  0  0  0  0
  -30.3747  -11.3353   19.8431 H   0  0  0  0  0  0
  -29.7565  -11.7562   17.4465 H   0  0  0  0  0  0
  -29.6555  -13.4716   17.7463 H   0  0  0  0  0  0
  -27.8370  -11.2929   18.8235 H   0  0  0  0  0  0
  -27.3710  -12.6126   17.7832 H   0  0  0  0  0  0
  -27.6931  -14.2388   19.5509 H   0  0  0  0  0  0
  -28.6971  -11.9517   21.3210 H   0  0  0  0  0  0
  -28.4560  -13.5836   21.8663 H   0  0  0  0  0  0
  -25.2747   -9.5700   22.4767 H   0  0  0  0  0  0
  -24.0010   -7.4633   22.7458 H   0  0  0  0  0  0
  -21.0845   -8.8771   19.8936 H   0  0  0  0  0  0
  -22.3692  -10.9681   19.6170 H   0  0  0  0  0  0
  -21.1979   -7.6150   23.9721 H   0  0  0  0  0  0
  -21.1489   -6.0522   25.9086 H   0  0  0  0  0  0
  -22.0594   -2.7611   23.2843 H   0  0  0  0  0  0
  -22.4073  -11.9862   22.4747 H   0  0  0  0  0  0
  -21.1107  -13.1270   22.2621 H   0  0  0  0  0  0
  -24.6769  -15.8476   20.5197 H   0  0  0  0  0  0
  -26.2831  -15.6179   20.0587 H   0  0  0  0  0  0
  -26.7125  -32.5494   23.1139 H   0  0  0  0  0  0
  -25.0118  -33.9790   25.0497 H   0  0  0  0  0  0
  -22.7004  -31.3050   21.4048 H   0  0  0  0  0  0
  -23.3749  -35.9616   23.3321 H   0  0  0  0  0  0
  -24.3605  -36.8859   22.2063 H   0  0  0  0  0  0
  -23.7268  -37.6498   23.6637 H   0  0  0  0  0  0
  -26.0546  -31.5825   20.5876 H   0  0  0  0  0  0
  -26.8277  -30.8773   21.9766 H   0  0  0  0  0  0
  -28.1112  -29.0761   21.1532 H   0  0  0  0  0  0
  -26.0491  -25.9310   19.0484 H   0  0  0  0  0  0
  -23.9748  -27.2758   19.0492 H   0  0  0  0  0  0
  -23.7324  -30.5874   19.4050 H   0  0  0  0  0  0
  -22.7423  -29.2360   19.8688 H   0  0  0  0  0  0
  -25.1298  -36.1926   25.0852 H   0  0  0  0  0  0
  -20.9970  -28.3155   24.1457 H   0  0  0  0  0  0
  -20.5659  -26.2229   23.3592 H   0  0  0  0  0  0
  -21.6631  -26.7407   22.1212 H   0  0  0  0  0  0
  -19.6909  -25.6285   21.1211 H   0  0  0  0  0  0
  -19.6678  -27.3207   20.6778 H   0  0  0  0  0  0
  -17.4198  -26.6678   21.4014 H   0  0  0  0  0  0
  -18.0302  -26.0068   22.9017 H   0  0  0  0  0  0
  -19.7939  -30.7248   24.2246 H   0  0  0  0  0  0
  -17.5023  -31.6251   24.5158 H   0  0  0  0  0  0
  -15.5354  -30.2972   23.7654 H   0  0  0  0  0  0
  -15.8676  -28.0823   22.7028 H   0  0  0  0  0  0
  -24.5938  -30.7017   25.7830 H   0  0  0  0  0  0
  -24.8876  -32.2859   26.4879 H   0  0  0  0  0  0
  -25.8105  -30.8953   27.0244 H   0  0  0  0  0  0
  -26.2775  -29.6880   24.1068 H   0  0  0  0  0  0
  -27.4030  -29.7244   25.4462 H   0  0  0  0  0  0
  -27.8599  -30.4407   23.9168 H   0  0  0  0  0  0
  -27.2650  -33.3632   26.2036 H   0  0  0  0  0  0
  -28.3837  -32.6847   25.0301 H   0  0  0  0  0  0
  -28.0670  -31.8448   26.5418 H   0  0  0  0  0  0
  -28.2592  -38.0089   24.7477 H   0  0  0  0  0  0
  -28.1058  -36.2606   24.6331 H   0  0  0  0  0  0
  -27.2287  -37.1473   25.8888 H   0  0  0  0  0  0
  -20.9306  -29.8754   21.6996 H   0  0  0  0  0  0
  -26.0160  -38.2841   24.1411 H   0  0  0  0  0  0
  -30.1654  -18.4418   24.3755 H   0  0  0  0  0  0
  -29.8437  -17.8996   19.4548 H   0  0  0  0  0  0
  -29.2008  -21.2909   23.2271 H   0  0  0  0  0  0
  -30.8724  -21.5003   22.6610 H   0  0  0  0  0  0
  -30.5505  -20.7228   24.1928 H   0  0  0  0  0  0
  -30.0193  -16.1359   24.7404 H   0  0  0  0  0  0
  -30.8642  -15.1835   23.5246 H   0  0  0  0  0  0
  -29.0961  -15.2498   23.5370 H   0  0  0  0  0  0
  -30.2580  -20.2101   19.1260 H   0  0  0  0  0  0
  -30.9878  -21.1515   20.3658 H   0  0  0  0  0  0
  -27.5268  -23.8707   19.4478 H   0  0  0  0  0  0
  -29.2001  -24.2448   19.1251 H   0  0  0  0  0  0
  -28.3242  -22.7324   21.6421 H   0  0  0  0  0  0
  -29.9587  -23.0139   21.1137 H   0  0  0  0  0  0
  -29.2169  -25.4204   21.4628 H   0  0  0  0  0  0
  -27.4894  -25.3095   21.4404 H   0  0  0  0  0  0
  -28.8162  -15.2017   20.9742 H   0  0  0  0  0  0
  -28.0695  -20.9867   20.2935 H   0  0  0  0  0  0
  -28.8131  -21.7042   19.0544 H   0  0  0  0  0  0
  1 25  1  0  0  0
  1 30  2  0  0  0
  1 83  1  0  0  0
  2  3  1  0  0  0
  2 25  1  0  0  0
  2 85  1  0  0  0
  2 86  1  0  0  0
  3  4  1  0  0  0
  3 87  1  0  0  0
  3 88  1  0  0  0
  4  5  1  0  0  0
  4 89  1  0  0  0
  4 90  1  0  0  0
  5  6  1  0  0  0
  5 26  1  0  0  0
  5 91  1  0  0  0
  6 25  1  0  0  0
  6 92  1  0  0  0
  6 93  1  0  0  0
  7  8  2  0  0  0
  7 26  1  0  0  0
  7 29  1  0  0  0
  8  9  1  0  0  0
  8 22  1  0  0  0
  9 10  1  0  0  0
  9 27  2  0  0  0
 10 11  2  0  0  0
 10 15  1  0  0  0
 11 12  1  0  0  0
 11 94  1  0  0  0
 12 13  2  0  0  0
 12 95  1  0  0  0
 13 14  1  0  0  0
 13 31  1  0  0  0
 14 15  2  0  0  0
 14 96  1  0  0  0
 15 97  1  0  0  0
 16 17  2  0  0  0
 16 21  1  0  0  0
 16 31  1  0  0  0
 17 18  1  0  0  0
 17 98  1  0  0  0
 18 19  2  0  0  0
 18 99  1  0  0  0
 19 20  1  0  0  0
 19 24  1  0  0  0
 20 21  2  0  0  0
 20100  1  0  0  0
 21 23  1  0  0  0
 22 28  1  0  0  0
 22 32  2  0  0  0
 26 27  1  0  0  0
 28101  1  0  0  0
 28102  1  0  0  0
 29103  1  0  0  0
 29104  1  0  0  0
 33 34  1  0  0  0
 33 66  1  0  0  0
 33 70  2  0  0  0
 34 36  1  0  0  0
 34 59  1  0  0  0
 34105  1  0  0  0
 35 44  2  0  0  0
 35 45  1  0  0  0
 35 68  1  0  0  0
 36 56  1  0  0  0
 36106  1  0  0  0
 37 39  1  0  0  0
 37 47  1  0  0  0
 37 66  1  0  0  0
 37107  1  0  0  0
 38 43  2  0  0  0
 38 46  1  0  0  0
 38 47  1  0  0  0
 39 64  1  0  0  0
 39 67  2  0  0  0
 40 52  1  0  0  0
 40 53  2  0  0  0
 40 58  1  0  0  0
 41108  1  0  0  0
 41109  1  0  0  0
 41110  1  0  0  0
 41 48  1  0  0  0
 42 43  1  0  0  0
 42 66  1  0  0  0
 42111  1  0  0  0
 42112  1  0  0  0
 43 44  1  0  0  0
 44113  1  0  0  0
 45 46  2  0  0  0
 45114  1  0  0  0
 46115  1  0  0  0
 47116  1  0  0  0
 47117  1  0  0  0
 48 56  1  0  0  0
 48 65  1  0  0  0
 48118  1  0  0  0
 49 50  1  0  0  0
 49 53  1  0  0  0
 49 64  1  0  0  0
 49119  1  0  0  0
 50 51  1  0  0  0
 50120  1  0  0  0
 50121  1  0  0  0
 51 52  1  0  0  0
 51122  1  0  0  0
 51123  1  0  0  0
 52124  1  0  0  0
 52125  1  0  0  0
 53 54  1  0  0  0
 54 55  2  0  0  0
 54126  1  0  0  0
 55 57  1  0  0  0
 55127  1  0  0  0
 56 69  2  0  0  0
 57 58  2  0  0  0
 57128  1  0  0  0
 58129  1  0  0  0
 59 60  1  0  0  0
 59 61  1  0  0  0
 59 62  1  0  0  0
 60130  1  0  0  0
 60131  1  0  0  0
 60132  1  0  0  0
 61133  1  0  0  0
 61134  1  0  0  0
 61135  1  0  0  0
 62136  1  0  0  0
 62137  1  0  0  0
 62138  1  0  0  0
 63 65  1  0  0  0
 63139  1  0  0  0
 63140  1  0  0  0
 63141  1  0  0  0
 64142  1  0  0  0
 65143  1  0  0  0
 68 82  1  0  0  0
 71 73  2  0  0  0
 71 74  1  0  0  0
 71144  1  0  0  0
 72 75  2  0  0  0
 72 76  1  0  0  0
 72145  1  0  0  0
 73 75  1  0  0  0
 73 77  1  0  0  0
 74 76  2  0  0  0
 74 78  1  0  0  0
 75 79  1  0  0  0
 76 83  1  0  0  0
 77146  1  0  0  0
 77147  1  0  0  0
 77148  1  0  0  0
 78149  1  0  0  0
 78150  1  0  0  0
 78151  1  0  0  0
 79 84  1  0  0  0
 79152  1  0  0  0
 79153  1  0  0  0
 80 81  1  0  0  0
 80 82  1  0  0  0
 80154  1  0  0  0
 80155  1  0  0  0
 81 84  1  0  0  0
 81156  1  0  0  0
 81157  1  0  0  0
 82158  1  0  0  0
 82159  1  0  0  0
 83160  1  0  0  0
 84161  1  0  0  0
 84162  1  0  0  0
M  CHG  1  84   1
M  ISO  4   1 100  68 101  82 101  83 100
M  END
> <chiral flag>
0

> <version>
0

> <s_m_source_file>
/data/baiqing/PycharmProjects/Reinvent-master-3.2/result/LINK_invent/BTK/process_docking_weight1_custom_product_contain_oxygen_bond_distance_aromatic_linkinvent_7_9_3/rearranged_h_0036.sdf

> <i_m_source_file_index>
47

> <r_mmod_Potential_Energy-OPLS-2005>
-195.811370849609

> <r_mmod_Stretch_Energy-OPLS-2005>
49.3104667663574

> <r_mmod_Bend_Energy-OPLS-2005>
114.332252502441

> <r_mmod_Torsional_Energy-OPLS-2005>
270.138427734375

> <r_mmod_Improper_Torsional_Energy-OPLS-2005>
8.51552104949951

> <r_mmod_Van_der_Waal_Energy-OPLS-2005>
141.099960327148

> <r_mmod_Electrostatic_Energy-OPLS-2005>
-328.147674560547

> <r_mmod_Solvation_Energy-OPLS-2005>
-474.283569335938

> <b_mmod_Minimization_Converged-OPLS-2005>
0

> <r_mmod_RMS_Derivative-OPLS-2005>
2.62124252319336

$$$$
47
                    3D
 Structure written by MMmdl.
169178  0  0  1  0            999 V2000
  -30.5872  -14.6345   20.5147 C   0  0  0  0  0  0
  -30.4504  -12.3966   19.4518 C   0  0  0  0  0  0
  -29.5177  -12.5119   18.2258 C   0  0  0  0  0  0
  -28.0347  -12.3515   18.6279 C   0  0  0  0  0  0
  -27.6523  -13.2086   19.8637 C   0  0  2  0  0  0
  -28.6931  -13.0258   20.9901 C   0  0  0  0  0  0
  -25.2544  -13.8149   20.5658 C   0  0  0  0  0  0
  -24.1817  -13.0437   20.9182 C   0  0  0  0  0  0
  -24.6364  -11.6899   20.8737 C   0  0  0  0  0  0
  -23.9055  -10.4290   21.0404 C   0  0  0  0  0  0
  -24.3614   -9.4204   21.9191 C   0  0  0  0  0  0
  -23.6292   -8.2240   22.0774 C   0  0  0  0  0  0
  -22.4269   -8.0284   21.3554 C   0  0  0  0  0  0
  -21.9891   -9.0252   20.4647 C   0  0  0  0  0  0
  -22.7218  -10.2125   20.3050 C   0  0  0  0  0  0
  -21.6841   -6.0741   22.5288 C   0  0  0  0  0  0
  -21.4003   -6.5646   23.8217 C   0  0  0  0  0  0
  -21.3667   -5.6793   24.9185 C   0  0  0  0  0  0
  -21.6046   -4.3061   24.7220 C   0  0  0  0  0  0
  -21.8819   -3.8153   23.4347 C   0  0  0  0  0  0
  -21.9176   -4.6975   22.3399 C   0  0  0  0  0  0
  -22.7840  -13.5251   21.1834 C   0  0  0  0  0  0
  -22.1651   -4.2168   21.0977 F   0  0  0  0  0  0
  -21.5625   -3.4535   25.7732 F   0  0  0  0  0  0
  -30.0101  -13.3946   20.4438 N   0  0  0  0  0  0
  -26.2964  -12.9307   20.3263 N   0  0  0  0  0  0
  -25.9278  -11.6476   20.5715 N   0  0  0  0  0  0
  -22.0449  -12.8278   22.0387 N   0  0  0  0  0  0
  -25.4241  -15.1887   20.4089 N   0  0  0  0  0  0
  -31.7439  -14.8221   20.1278 O   0  0  0  0  0  0
  -21.6631   -6.8889   21.4252 O   0  0  0  0  0  0
  -22.3547  -14.5554   20.6659 O   0  0  0  0  0  0
  -24.6300  -31.8596   23.1982 C   0  0  0  0  0  0
  -25.9150  -32.4766   23.8325 C   0  0  1  0  0  0
  -27.2216  -27.3214   20.1168 C   0  0  0  0  0  0
  -25.5973  -33.8570   24.2259 N   0  0  0  0  0  0
  -23.4211  -30.4798   21.5446 C   0  0  2  0  0  0
  -24.8615  -28.9172   20.1273 C   0  0  0  0  0  0
  -22.7488  -29.4625   22.4972 C   0  0  0  0  0  0
  -18.0294  -28.1382   22.8488 C   0  0  0  0  0  0
  -24.1467  -36.7310   23.2630 C   0  0  0  0  0  0
  -25.9592  -30.7892   21.3634 C   0  0  0  0  0  0
  -26.0312  -29.4088   20.7208 C   0  0  0  0  0  0
  -27.2180  -28.6228   20.7024 C   0  0  0  0  0  0
  -26.0334  -26.8653   19.5179 C   0  0  0  0  0  0
  -24.8608  -27.6466   19.5257 C   0  0  0  0  0  0
  -23.6319  -29.8011   20.1664 C   0  0  0  0  0  0
  -25.4101  -36.3077   24.0296 C   0  0  1  0  0  0
  -20.5882  -28.3664   23.1277 C   0  0  2  0  0  0
  -20.6753  -26.9382   22.5400 C   0  0  0  0  0  0
  -19.5728  -26.6377   21.5194 C   0  0  0  0  0  0
  -18.1920  -26.7932   22.1621 C   0  0  0  0  0  0
  -19.1550  -28.8849   23.2878 C   0  0  0  0  0  0
  -18.9470  -30.1444   23.8892 C   0  0  0  0  0  0
  -17.6472  -30.6572   24.0576 C   0  0  0  0  0  0
  -25.9047  -34.9441   23.5066 C   0  0  0  0  0  0
  -16.5359  -29.9079   23.6324 C   0  0  0  0  0  0
  -16.7292  -28.6503   23.0352 C   0  0  0  0  0  0
  -26.4534  -31.6588   25.0703 C   0  0  0  0  0  0
  -25.3826  -31.3822   26.1507 C   0  0  0  0  0  0
  -27.0266  -30.2942   24.6171 C   0  0  0  0  0  0
  -27.6144  -32.4308   25.7466 C   0  0  0  0  0  0
  -27.5564  -37.1793   24.8446 C   0  0  0  0  0  0
  -21.4199  -29.3036   22.3702 N   0  0  0  0  0  0
  -26.4283  -37.3771   23.9379 N   0  0  0  0  0  0
  -24.6892  -31.0616   22.0934 N   0  0  0  0  0  0
  -23.4204  -28.8173   23.3057 O   0  0  0  0  0  0
  -28.3692  -26.5406   20.0166 O   0  0  0  0  0  0
  -26.5628  -34.8940   22.4634 O   0  0  0  0  0  0
  -23.5465  -32.1379   23.7329 O   0  0  0  0  0  0
  -28.2514  -19.0525   21.4932 C   0  0  0  0  0  0
  -29.8416  -19.3183   19.7178 C   0  0  0  0  0  0
  -28.8252  -19.8999   20.5168 C   0  0  0  0  0  0
  -28.6308  -17.6900   21.6433 C   0  0  0  0  0  0
  -30.2197  -17.9403   19.8258 C   0  0  0  0  0  0
  -29.6035  -17.0779   20.7946 C   0  0  0  0  0  0
  -29.9513  -25.2889   21.1699 C   0  0  0  0  0  0
  -30.3777  -24.0815   22.0090 C   0  0  0  0  0  0
  -28.2420  -23.8740   19.9766 C   0  0  0  0  0  0
  -28.4880  -25.2593   20.7318 C   0  0  2  0  0  0
  -29.4735  -22.8317   21.9058 C   0  0  2  0  0  0
  -27.9189  -16.8759   22.7189 C   0  0  0  0  0  0
  -31.2340  -17.4420   18.8103 C   0  0  0  0  0  0
  -30.2864  -21.6576   22.4835 C   0  0  0  0  0  0
  -28.2145  -21.3322   20.2606 C   0  0  0  0  0  0
  -29.7381  -15.6252   20.9342 N   0  0  0  0  0  0
  -28.9769  -22.6280   20.5071 N   0  3  1  0  0  0
  -31.4855  -12.5560   19.1492 H   0  0  0  0  0  0
  -30.4189  -11.3931   19.8822 H   0  0  0  0  0  0
  -29.7903  -11.7649   17.4801 H   0  0  0  0  0  0
  -29.6614  -13.4851   17.7514 H   0  0  0  0  0  0
  -27.8639  -11.2963   18.8465 H   0  0  0  0  0  0
  -27.3919  -12.5892   17.7813 H   0  0  0  0  0  0
  -27.6759  -14.2484   19.5397 H   0  0  0  0  0  0
  -28.7077  -11.9864   21.3216 H   0  0  0  0  0  0
  -28.4277  -13.6086   21.8736 H   0  0  0  0  0  0
  -25.2761   -9.5679   22.4765 H   0  0  0  0  0  0
  -23.9984   -7.4637   22.7512 H   0  0  0  0  0  0
  -21.0812   -8.8779   19.8964 H   0  0  0  0  0  0
  -22.3696  -10.9671   19.6160 H   0  0  0  0  0  0
  -21.2009   -7.6148   23.9735 H   0  0  0  0  0  0
  -21.1484   -6.0518   25.9088 H   0  0  0  0  0  0
  -22.0588   -2.7618   23.2829 H   0  0  0  0  0  0
  -22.4032  -11.9932   22.4786 H   0  0  0  0  0  0
  -21.1079  -13.1366   22.2595 H   0  0  0  0  0  0
  -24.6551  -15.8384   20.5317 H   0  0  0  0  0  0
  -26.2650  -15.6334   20.0654 H   0  0  0  0  0  0
  -26.7225  -32.5440   23.1078 H   0  0  0  0  0  0
  -25.0119  -33.9701   25.0407 H   0  0  0  0  0  0
  -22.7145  -31.2989   21.3962 H   0  0  0  0  0  0
  -23.3709  -35.9668   23.3318 H   0  0  0  0  0  0
  -24.3534  -36.8938   22.2042 H   0  0  0  0  0  0
  -23.7276  -37.6533   23.6674 H   0  0  0  0  0  0
  -26.0791  -31.5382   20.5791 H   0  0  0  0  0  0
  -26.8459  -30.8482   21.9847 H   0  0  0  0  0  0
  -28.1302  -29.0055   21.1410 H   0  0  0  0  0  0
  -26.0144  -25.9013   19.0270 H   0  0  0  0  0  0
  -23.9636  -27.2618   19.0623 H   0  0  0  0  0  0
  -23.7495  -30.5677   19.3987 H   0  0  0  0  0  0
  -22.7513  -29.2269   19.8733 H   0  0  0  0  0  0
  -25.1285  -36.1908   25.0795 H   0  0  0  0  0  0
  -20.9978  -28.3233   24.1398 H   0  0  0  0  0  0
  -20.5576  -26.2287   23.3603 H   0  0  0  0  0  0
  -21.6627  -26.7363   22.1226 H   0  0  0  0  0  0
  -19.6847  -25.6287   21.1226 H   0  0  0  0  0  0
  -19.6659  -27.3183   20.6716 H   0  0  0  0  0  0
  -17.4170  -26.6689   21.4040 H   0  0  0  0  0  0
  -18.0315  -26.0078   22.9013 H   0  0  0  0  0  0
  -19.7948  -30.7265   24.2238 H   0  0  0  0  0  0
  -17.5032  -31.6239   24.5198 H   0  0  0  0  0  0
  -15.5355  -30.2982   23.7634 H   0  0  0  0  0  0
  -15.8704  -28.0818   22.7047 H   0  0  0  0  0  0
  -24.5857  -30.7308   25.7889 H   0  0  0  0  0  0
  -24.9212  -32.3037   26.5043 H   0  0  0  0  0  0
  -25.8192  -30.8906   27.0200 H   0  0  0  0  0  0
  -26.2696  -29.6716   24.1389 H   0  0  0  0  0  0
  -27.4041  -29.7259   25.4685 H   0  0  0  0  0  0
  -27.8598  -30.4095   23.9245 H   0  0  0  0  0  0
  -27.2724  -33.3529   26.2217 H   0  0  0  0  0  0
  -28.3877  -32.7029   25.0270 H   0  0  0  0  0  0
  -28.0934  -31.8393   26.5277 H   0  0  0  0  0  0
  -28.2589  -38.0080   24.7467 H   0  0  0  0  0  0
  -28.1045  -36.2604   24.6282 H   0  0  0  0  0  0
  -27.2282  -37.1474   25.8854 H   0  0  0  0  0  0
  -20.9386  -29.8806   21.6949 H   0  0  0  0  0  0
  -26.0157  -38.2842   24.1386 H   0  0  0  0  0  0
  -27.4607  -19.4468   22.1183 H   0  0  0  0  0  0
  -30.3003  -19.9315   18.9553 H   0  0  0  0  0  0
  -30.5655  -25.3136   20.2708 H   0  0  0  0  0  0
  -30.1715  -26.2085   21.7115 H   0  0  0  0  0  0
  -30.4380  -24.3745   23.0588 H   0  0  0  0  0  0
  -31.3999  -23.8320   21.7190 H   0  0  0  0  0  0
  -28.4922  -23.9770   18.9197 H   0  0  0  0  0  0
  -27.1685  -23.6858   19.9992 H   0  0  0  0  0  0
  -27.8538  -25.2946   21.6208 H   0  0  0  0  0  0
  -28.5946  -22.9803   22.5369 H   0  0  0  0  0  0
  -27.3066  -17.5097   23.3615 H   0  0  0  0  0  0
  -28.6298  -16.3561   23.3625 H   0  0  0  0  0  0
  -27.2572  -16.1351   22.2704 H   0  0  0  0  0  0
  -32.2271  -17.3577   19.2547 H   0  0  0  0  0  0
  -31.3127  -18.1300   17.9687 H   0  0  0  0  0  0
  -30.9382  -16.4832   18.3865 H   0  0  0  0  0  0
  -30.9663  -21.2278   21.7459 H   0  0  0  0  0  0
  -29.6478  -20.8711   22.8763 H   0  0  0  0  0  0
  -30.8940  -21.9833   23.3276 H   0  0  0  0  0  0
  -27.3015  -21.3977   20.8546 H   0  0  0  0  0  0
  -27.8716  -21.3363   19.2246 H   0  0  0  0  0  0
  -28.9089  -15.2165   21.3366 H   0  0  0  0  0  0
  -29.8108  -22.5457   19.9426 H   0  0  0  0  0  0
  1 25  1  0  0  0
  1 30  2  0  0  0
  1 86  1  0  0  0
  2  3  1  0  0  0
  2 25  1  0  0  0
  2 88  1  0  0  0
  2 89  1  0  0  0
  3  4  1  0  0  0
  3 90  1  0  0  0
  3 91  1  0  0  0
  4  5  1  0  0  0
  4 92  1  0  0  0
  4 93  1  0  0  0
  5  6  1  0  0  0
  5 26  1  0  0  0
  5 94  1  0  0  0
  6 25  1  0  0  0
  6 95  1  0  0  0
  6 96  1  0  0  0
  7  8  2  0  0  0
  7 26  1  0  0  0
  7 29  1  0  0  0
  8  9  1  0  0  0
  8 22  1  0  0  0
  9 10  1  0  0  0
  9 27  2  0  0  0
 10 11  2  0  0  0
 10 15  1  0  0  0
 11 12  1  0  0  0
 11 97  1  0  0  0
 12 13  2  0  0  0
 12 98  1  0  0  0
 13 14  1  0  0  0
 13 31  1  0  0  0
 14 15  2  0  0  0
 14 99  1  0  0  0
 15100  1  0  0  0
 16 17  2  0  0  0
 16 21  1  0  0  0
 16 31  1  0  0  0
 17 18  1  0  0  0
 17101  1  0  0  0
 18 19  2  0  0  0
 18102  1  0  0  0
 19 20  1  0  0  0
 19 24  1  0  0  0
 20 21  2  0  0  0
 20103  1  0  0  0
 21 23  1  0  0  0
 22 28  1  0  0  0
 22 32  2  0  0  0
 26 27  1  0  0  0
 28104  1  0  0  0
 28105  1  0  0  0
 29106  1  0  0  0
 29107  1  0  0  0
 33 34  1  0  0  0
 33 66  1  0  0  0
 33 70  2  0  0  0
 34 36  1  0  0  0
 34 59  1  0  0  0
 34108  1  0  0  0
 35 44  2  0  0  0
 35 45  1  0  0  0
 35 68  1  0  0  0
 36 56  1  0  0  0
 36109  1  0  0  0
 37 39  1  0  0  0
 37 47  1  0  0  0
 37 66  1  0  0  0
 37110  1  0  0  0
 38 43  2  0  0  0
 38 46  1  0  0  0
 38 47  1  0  0  0
 39 64  1  0  0  0
 39 67  2  0  0  0
 40 52  1  0  0  0
 40 53  2  0  0  0
 40 58  1  0  0  0
 41111  1  0  0  0
 41112  1  0  0  0
 41113  1  0  0  0
 41 48  1  0  0  0
 42 43  1  0  0  0
 42 66  1  0  0  0
 42114  1  0  0  0
 42115  1  0  0  0
 43 44  1  0  0  0
 44116  1  0  0  0
 45 46  2  0  0  0
 45117  1  0  0  0
 46118  1  0  0  0
 47119  1  0  0  0
 47120  1  0  0  0
 48 56  1  0  0  0
 48 65  1  0  0  0
 48121  1  0  0  0
 49 50  1  0  0  0
 49 53  1  0  0  0
 49 64  1  0  0  0
 49122  1  0  0  0
 50 51  1  0  0  0
 50123  1  0  0  0
 50124  1  0  0  0
 51 52  1  0  0  0
 51125  1  0  0  0
 51126  1  0  0  0
 52127  1  0  0  0
 52128  1  0  0  0
 53 54  1  0  0  0
 54 55  2  0  0  0
 54129  1  0  0  0
 55 57  1  0  0  0
 55130  1  0  0  0
 56 69  2  0  0  0
 57 58  2  0  0  0
 57131  1  0  0  0
 58132  1  0  0  0
 59 60  1  0  0  0
 59 61  1  0  0  0
 59 62  1  0  0  0
 60133  1  0  0  0
 60134  1  0  0  0
 60135  1  0  0  0
 61136  1  0  0  0
 61137  1  0  0  0
 61138  1  0  0  0
 62139  1  0  0  0
 62140  1  0  0  0
 62141  1  0  0  0
 63 65  1  0  0  0
 63142  1  0  0  0
 63143  1  0  0  0
 63144  1  0  0  0
 64145  1  0  0  0
 65146  1  0  0  0
 68 80  1  0  0  0
 71 73  2  0  0  0
 71 74  1  0  0  0
 71147  1  0  0  0
 72 73  1  0  0  0
 72 75  2  0  0  0
 72148  1  0  0  0
 73 85  1  0  0  0
 74 76  2  0  0  0
 74 82  1  0  0  0
 75 76  1  0  0  0
 75 83  1  0  0  0
 76 86  1  0  0  0
 77 78  1  0  0  0
 77 80  1  0  0  0
 77149  1  0  0  0
 77150  1  0  0  0
 78 81  1  0  0  0
 78151  1  0  0  0
 78152  1  0  0  0
 79 80  1  0  0  0
 79 87  1  0  0  0
 79153  1  0  0  0
 79154  1  0  0  0
 80155  1  0  0  0
 81 84  1  0  0  0
 81 87  1  0  0  0
 81156  1  0  0  0
 82157  1  0  0  0
 82158  1  0  0  0
 82159  1  0  0  0
 83160  1  0  0  0
 83161  1  0  0  0
 83162  1  0  0  0
 84163  1  0  0  0
 84164  1  0  0  0
 84165  1  0  0  0
 85166  1  0  0  0
 85167  1  0  0  0
 85 87  1  0  0  0
 86168  1  0  0  0
 87169  1  0  0  0
M  CHG  1  87   1
M  ISO  4   1 100  68 101  80 101  86 100
M  END
> <chiral flag>
0

> <version>
0

> <s_m_source_file>
/data/baiqing/PycharmProjects/Reinvent-master-3.2/result/LINK_invent/BTK/process_docking_weight1_custom_product_contain_oxygen_bond_distance_aromatic_linkinvent_7_9_3/rearranged_h_0036.sdf

> <i_m_source_file_index>
48

> <r_mmod_Potential_Energy-OPLS-2005>
44.8213157653809

> <r_mmod_Stretch_Energy-OPLS-2005>
82.0088500976562

> <r_mmod_Bend_Energy-OPLS-2005>
185.807723999023

> <r_mmod_Torsional_Energy-OPLS-2005>
294.975524902344

> <r_mmod_Improper_Torsional_Energy-OPLS-2005>
4.93772888183594

> <r_mmod_Van_der_Waal_Energy-OPLS-2005>
147.877151489258

> <r_mmod_Electrostatic_Energy-OPLS-2005>
-304.410552978516

> <r_mmod_Solvation_Energy-OPLS-2005>
-409.700592041016

> <b_mmod_Minimization_Converged-OPLS-2005>
0

> <r_mmod_RMS_Derivative-OPLS-2005>
4.34365320205688

$$$$
48
                    3D
 Structure written by MMmdl.
170179  0  0  1  0            999 V2000
  -29.6485  -15.5438   20.7077 C   0  0  0  0  0  0
  -30.3269  -13.1156   19.6876 C   0  0  0  0  0  0
  -29.5347  -12.7057   18.4020 C   0  0  0  0  0  0
  -28.0943  -12.2906   18.7480 C   0  0  0  0  0  0
  -27.5253  -13.2262   19.8339 C   0  0  2  0  0  0
  -28.4242  -13.3514   21.0570 C   0  0  0  0  0  0
  -25.1857  -13.7929   20.5306 C   0  0  0  0  0  0
  -24.1330  -13.0237   20.9148 C   0  0  0  0  0  0
  -24.6009  -11.6741   20.8758 C   0  0  0  0  0  0
  -23.8820  -10.4166   21.0467 C   0  0  0  0  0  0
  -24.3486   -9.4133   21.9217 C   0  0  0  0  0  0
  -23.6222   -8.2143   22.0751 C   0  0  0  0  0  0
  -22.4202   -8.0179   21.3535 C   0  0  0  0  0  0
  -21.9782   -9.0122   20.4638 C   0  0  0  0  0  0
  -22.7042  -10.2023   20.3079 C   0  0  0  0  0  0
  -21.6818   -6.0681   22.5287 C   0  0  0  0  0  0
  -21.3981   -6.5603   23.8214 C   0  0  0  0  0  0
  -21.3654   -5.6763   24.9180 C   0  0  0  0  0  0
  -21.6051   -4.3027   24.7233 C   0  0  0  0  0  0
  -21.8833   -3.8114   23.4356 C   0  0  0  0  0  0
  -21.9184   -4.6920   22.3410 C   0  0  0  0  0  0
  -22.7460  -13.5101   21.1943 C   0  0  0  0  0  0
  -22.1663   -4.2114   21.0986 F   0  0  0  0  0  0
  -21.5644   -3.4518   25.7751 F   0  0  0  0  0  0
  -29.5245  -14.1139   20.5455 N   0  0  0  0  0  0
  -26.2076  -12.9074   20.2774 N   0  0  0  0  0  0
  -25.8846  -11.6276   20.5569 N   0  0  0  0  0  0
  -22.0213  -12.8120   22.0590 N   0  0  0  0  0  0
  -25.3551  -15.1554   20.3410 N   0  0  0  0  0  0
  -30.8568  -15.7844   20.4217 O   0  0  0  0  0  0
  -21.6589   -6.8783   21.4230 O   0  0  0  0  0  0
  -22.3180  -14.5427   20.6809 O   0  0  0  0  0  0
  -24.6559  -31.9288   23.2385 C   0  0  0  0  0  0
  -25.9465  -32.5040   23.8674 C   0  0  1  0  0  0
  -26.6454  -27.2590   20.1698 C   0  0  0  0  0  0
  -25.6328  -33.8805   24.2601 N   0  0  0  0  0  0
  -23.4562  -30.6016   21.5886 C   0  0  2  0  0  0
  -24.8366  -29.2175   19.9250 C   0  0  0  0  0  0
  -23.0038  -29.5105   22.5822 C   0  0  0  0  0  0
  -18.4776  -27.6630   22.6056 C   0  0  0  0  0  0
  -24.1526  -36.7353   23.2596 C   0  0  0  0  0  0
  -25.9845  -30.8132   21.4461 C   0  0  0  0  0  0
  -25.9468  -29.4803   20.7277 C   0  0  0  0  0  0
  -26.9223  -28.4749   20.8550 C   0  0  0  0  0  0
  -25.9857  -27.2950   18.9745 C   0  0  0  0  0  0
  -24.9189  -28.1922   18.9579 C   0  0  0  0  0  0
  -23.6432  -30.1325   20.1174 C   0  0  0  0  0  0
  -25.4134  -36.3195   24.0334 C   0  0  1  0  0  0
  -21.2110  -28.1362   23.4189 C   0  0  2  0  0  0
  -22.1542  -26.5772   22.6692 C   0  0  0  0  0  0
  -20.5177  -25.3150   21.3541 C   0  0  0  0  0  0
  -18.7477  -26.2122   21.6329 C   0  0  0  0  0  0
  -19.5340  -28.4620   23.3237 C   0  0  0  0  0  0
  -19.1395  -29.7301   23.9117 C   0  0  0  0  0  0
  -17.8241  -30.2497   23.9456 C   0  0  0  0  0  0
  -25.9131  -34.9573   23.5180 C   0  0  0  0  0  0
  -16.8033  -29.4706   23.3907 C   0  0  0  0  0  0
  -17.1344  -28.2306   22.7498 C   0  0  0  0  0  0
  -26.4610  -31.6645   25.0984 C   0  0  0  0  0  0
  -25.3723  -31.3804   26.1589 C   0  0  0  0  0  0
  -27.0348  -30.3003   24.6470 C   0  0  0  0  0  0
  -27.6179  -32.4246   25.7849 C   0  0  0  0  0  0
  -27.5597  -37.1881   24.8458 C   0  0  0  0  0  0
  -21.7274  -29.3683   22.8201 N   0  0  0  0  0  0
  -26.4305  -37.3877   23.9416 N   0  0  0  0  0  0
  -24.7156  -31.1685   22.1162 N   0  0  0  0  0  0
  -23.8034  -28.8389   23.2260 O   0  0  0  0  0  0
  -25.8641  -26.2781   20.7572 O   0  0  0  0  0  0
  -26.5513  -34.8962   22.4640 O   0  0  0  0  0  0
  -23.5730  -32.2026   23.7800 O   0  0  0  0  0  0
  -26.7932  -20.6896   21.9450 C   0  0  0  0  0  0
  -27.7383  -19.4944   21.6267 C   0  0  0  0  0  0
  -26.0018  -18.1839   21.5291 C   0  0  0  0  0  0
  -25.2888  -20.8194   22.0623 C   0  0  0  0  0  0
  -25.0348  -19.3639   21.8004 C   0  0  0  0  0  0
  -27.4918  -18.0273   21.3685 C   0  0  0  0  0  0
  -21.5974  -24.3021   23.6082 C   0  0  0  0  0  0
  -21.5698  -23.7663   24.8467 C   0  0  0  0  0  0
  -20.2828  -25.8167   23.4947 C   0  0  0  0  0  0
  -20.8003  -27.4923   21.1708 C   0  0  0  0  0  0
  -22.5394  -27.0418   20.3147 C   0  0  0  0  0  0
  -24.0804  -24.5770   21.5775 C   0  0  0  0  0  0
  -24.1784  -26.2296   21.0140 C   0  0  1  0  0  0
  -22.5027  -22.7584   25.4876 C   0  0  0  0  0  0
  -24.1004  -22.1556   22.7560 C   0  0  0  0  0  0
  -23.5582  -18.9730   21.8680 C   0  0  0  0  0  0
  -28.4679  -16.5754   21.0325 N   0  0  0  0  0  0
  -23.0851  -23.6261   22.4729 N   0  3  1  0  0  0
  -23.2868  -17.9390   21.0742 F   0  0  0  0  0  0
  -23.2495  -18.6453   23.1215 F   0  0  0  0  0  0
  -22.7673  -19.9762   21.4832 F   0  0  0  0  0  0
  -31.2827  -13.5527   19.3971 H   0  0  0  0  0  0
  -30.5835  -12.2320   20.2735 H   0  0  0  0  0  0
  -30.0502  -11.9091   17.8644 H   0  0  0  0  0  0
  -29.4998  -13.5639   17.7290 H   0  0  0  0  0  0
  -28.1078  -11.2647   19.1191 H   0  0  0  0  0  0
  -27.4654  -12.2889   17.8568 H   0  0  0  0  0  0
  -27.4505  -14.1984   19.3451 H   0  0  0  0  0  0
  -28.7020  -12.3878   21.4810 H   0  0  0  0  0  0
  -27.9261  -13.9126   21.8506 H   0  0  0  0  0  0
  -25.2638   -9.5658   22.4767 H   0  0  0  0  0  0
  -23.9971   -7.4519   22.7437 H   0  0  0  0  0  0
  -21.0729   -8.8585   19.8931 H   0  0  0  0  0  0
  -22.3478  -10.9561   19.6196 H   0  0  0  0  0  0
  -21.1950   -7.6109   23.9702 H   0  0  0  0  0  0
  -21.1475   -6.0495   25.9080 H   0  0  0  0  0  0
  -22.0623   -2.7578   23.2861 H   0  0  0  0  0  0
  -22.3869  -11.9766   22.4910 H   0  0  0  0  0  0
  -21.0882  -13.1162   22.2961 H   0  0  0  0  0  0
  -24.5700  -15.7952   20.3849 H   0  0  0  0  0  0
  -26.2116  -15.5820   20.0093 H   0  0  0  0  0  0
  -26.7518  -32.5597   23.1378 H   0  0  0  0  0  0
  -25.0594  -33.9985   25.0817 H   0  0  0  0  0  0
  -22.6873  -31.3774   21.5706 H   0  0  0  0  0  0
  -23.3808  -35.9669   23.3260 H   0  0  0  0  0  0
  -24.3631  -36.8974   22.2013 H   0  0  0  0  0  0
  -23.7268  -37.6550   23.6599 H   0  0  0  0  0  0
  -26.2139  -31.5895   20.7165 H   0  0  0  0  0  0
  -26.8412  -30.7651   22.1077 H   0  0  0  0  0  0
  -27.6766  -28.5328   21.6277 H   0  0  0  0  0  0
  -25.8949  -26.4133   18.3550 H   0  0  0  0  0  0
  -24.1591  -28.0790   18.1969 H   0  0  0  0  0  0
  -23.8758  -31.0204   19.5266 H   0  0  0  0  0  0
  -22.7008  -29.8126   19.6852 H   0  0  0  0  0  0
  -25.1295  -36.2057   25.0822 H   0  0  0  0  0  0
  -21.4646  -28.1884   24.4810 H   0  0  0  0  0  0
  -22.2084  -25.7598   21.9956 H   0  0  0  0  0  0
  -22.8712  -26.2360   23.4230 H   0  0  0  0  0  0
  -20.3730  -24.2543   21.5745 H   0  0  0  0  0  0
  -20.7233  -25.2021   20.2920 H   0  0  0  0  0  0
  -18.3324  -26.4411   20.6501 H   0  0  0  0  0  0
  -18.0301  -25.4657   21.9796 H   0  0  0  0  0  0
  -19.9010  -30.3235   24.3974 H   0  0  0  0  0  0
  -17.6116  -31.1992   24.4201 H   0  0  0  0  0  0
  -15.7780  -29.8126   23.4221 H   0  0  0  0  0  0
  -16.3201  -27.6871   22.2910 H   0  0  0  0  0  0
  -24.5898  -30.7206   25.7820 H   0  0  0  0  0  0
  -24.8926  -32.2986   26.4975 H   0  0  0  0  0  0
  -25.7918  -30.8925   27.0396 H   0  0  0  0  0  0
  -26.2935  -29.6874   24.1325 H   0  0  0  0  0  0
  -27.3740  -29.7159   25.5031 H   0  0  0  0  0  0
  -27.8997  -30.4180   23.9942 H   0  0  0  0  0  0
  -27.2832  -33.3562   26.2423 H   0  0  0  0  0  0
  -28.4079  -32.6751   25.0758 H   0  0  0  0  0  0
  -28.0706  -31.8302   26.5793 H   0  0  0  0  0  0
  -28.2589  -38.0199   24.7536 H   0  0  0  0  0  0
  -28.1127  -36.2735   24.6255 H   0  0  0  0  0  0
  -27.2310  -37.1495   25.8855 H   0  0  0  0  0  0
  -21.0613  -29.9755   22.3636 H   0  0  0  0  0  0
  -26.0187  -38.2950   24.1422 H   0  0  0  0  0  0
  -27.3252  -21.6057   22.1607 H   0  0  0  0  0  0
  -28.7859  -19.7610   21.6284 H   0  0  0  0  0  0
  -25.4754  -17.2533   21.4854 H   0  0  0  0  0  0
  -20.8094  -24.1262   25.5235 H   0  0  0  0  0  0
  -20.3506  -26.2744   24.4840 H   0  0  0  0  0  0
  -19.3186  -25.3305   23.6577 H   0  0  0  0  0  0
  -20.5075  -28.5385   21.0946 H   0  0  0  0  0  0
  -20.2067  -27.3464   20.2597 H   0  0  0  0  0  0
  -22.6824  -27.8512   19.6497 H   0  0  0  0  0  0
  -22.2998  -26.3136   19.5411 H   0  0  0  0  0  0
  -25.0059  -24.4867   22.1426 H   0  0  0  0  0  0
  -24.2626  -23.9829   20.6818 H   0  0  0  0  0  0
  -24.3504  -26.8369   21.8960 H   0  0  0  0  0  0
  -23.5385  -23.0981   25.4446 H   0  0  0  0  0  0
  -22.3953  -21.7672   25.0564 H   0  0  0  0  0  0
  -22.2417  -22.6597   26.5425 H   0  0  0  0  0  0
  -24.6925  -22.4929   23.6057 H   0  0  0  0  0  0
  -23.3625  -21.4989   23.2001 H   0  0  0  0  0  0
  -29.2757  -17.1760   20.9328 H   0  0  0  0  0  0
  -22.5422  -23.2374   21.7165 H   0  0  0  0  0  0
  1 25  1  0  0  0
  1 30  2  0  0  0
  1 87  1  0  0  0
  2  3  1  0  0  0
  2 25  1  0  0  0
  2 92  1  0  0  0
  2 93  1  0  0  0
  3  4  1  0  0  0
  3 94  1  0  0  0
  3 95  1  0  0  0
  4  5  1  0  0  0
  4 96  1  0  0  0
  4 97  1  0  0  0
  5  6  1  0  0  0
  5 26  1  0  0  0
  5 98  1  0  0  0
  6 25  1  0  0  0
  6 99  1  0  0  0
  6100  1  0  0  0
  7  8  2  0  0  0
  7 26  1  0  0  0
  7 29  1  0  0  0
  8  9  1  0  0  0
  8 22  1  0  0  0
  9 10  1  0  0  0
  9 27  2  0  0  0
 10 11  2  0  0  0
 10 15  1  0  0  0
 11 12  1  0  0  0
 11101  1  0  0  0
 12 13  2  0  0  0
 12102  1  0  0  0
 13 14  1  0  0  0
 13 31  1  0  0  0
 14 15  2  0  0  0
 14103  1  0  0  0
 15104  1  0  0  0
 16 17  2  0  0  0
 16 21  1  0  0  0
 16 31  1  0  0  0
 17 18  1  0  0  0
 17105  1  0  0  0
 18 19  2  0  0  0
 18106  1  0  0  0
 19 20  1  0  0  0
 19 24  1  0  0  0
 20 21  2  0  0  0
 20107  1  0  0  0
 21 23  1  0  0  0
 22 28  1  0  0  0
 22 32  2  0  0  0
 26 27  1  0  0  0
 28108  1  0  0  0
 28109  1  0  0  0
 29110  1  0  0  0
 29111  1  0  0  0
 33 34  1  0  0  0
 33 66  1  0  0  0
 33 70  2  0  0  0
 34 36  1  0  0  0
 34 59  1  0  0  0
 34112  1  0  0  0
 35 44  2  0  0  0
 35 45  1  0  0  0
 35 68  1  0  0  0
 36 56  1  0  0  0
 36113  1  0  0  0
 37 39  1  0  0  0
 37 47  1  0  0  0
 37 66  1  0  0  0
 37114  1  0  0  0
 38 43  2  0  0  0
 38 46  1  0  0  0
 38 47  1  0  0  0
 39 64  1  0  0  0
 39 67  2  0  0  0
 40 52  1  0  0  0
 40 53  2  0  0  0
 40 58  1  0  0  0
 41115  1  0  0  0
 41116  1  0  0  0
 41117  1  0  0  0
 41 48  1  0  0  0
 42 43  1  0  0  0
 42 66  1  0  0  0
 42118  1  0  0  0
 42119  1  0  0  0
 43 44  1  0  0  0
 44120  1  0  0  0
 45 46  2  0  0  0
 45121  1  0  0  0
 46122  1  0  0  0
 47123  1  0  0  0
 47124  1  0  0  0
 48 56  1  0  0  0
 48 65  1  0  0  0
 48125  1  0  0  0
 49 50  1  0  0  0
 49 53  1  0  0  0
 49 64  1  0  0  0
 49126  1  0  0  0
 50 51  1  0  0  0
 50127  1  0  0  0
 50128  1  0  0  0
 51 52  1  0  0  0
 51129  1  0  0  0
 51130  1  0  0  0
 52131  1  0  0  0
 52132  1  0  0  0
 53 54  1  0  0  0
 54 55  2  0  0  0
 54133  1  0  0  0
 55 57  1  0  0  0
 55134  1  0  0  0
 56 69  2  0  0  0
 57 58  2  0  0  0
 57135  1  0  0  0
 58136  1  0  0  0
 59 60  1  0  0  0
 59 61  1  0  0  0
 59 62  1  0  0  0
 60137  1  0  0  0
 60138  1  0  0  0
 60139  1  0  0  0
 61140  1  0  0  0
 61141  1  0  0  0
 61142  1  0  0  0
 62143  1  0  0  0
 62144  1  0  0  0
 62145  1  0  0  0
 63 65  1  0  0  0
 63146  1  0  0  0
 63147  1  0  0  0
 63148  1  0  0  0
 64149  1  0  0  0
 65150  1  0  0  0
 68 83  1  0  0  0
 71 72  2  0  0  0
 71 74  1  0  0  0
 71151  1  0  0  0
 72 76  1  0  0  0
 72152  1  0  0  0
 73 75  1  0  0  0
 73 76  2  0  0  0
 73153  1  0  0  0
 74 75  2  0  0  0
 74 85  1  0  0  0
 75 86  1  0  0  0
 76 87  1  0  0  0
 77 78  2  0  0  0
 77 79  1  0  0  0
 77 88  1  0  0  0
 78 84  1  0  0  0
 78154  1  0  0  0
 79 80  1  0  0  0
 79155  1  0  0  0
 79156  1  0  0  0
 80 81  1  0  0  0
 80157  1  0  0  0
 80158  1  0  0  0
 81 83  1  0  0  0
 81159  1  0  0  0
 81160  1  0  0  0
 82 83  1  0  0  0
 82 88  1  0  0  0
 82161  1  0  0  0
 82162  1  0  0  0
 83163  1  0  0  0
 84164  1  0  0  0
 84165  1  0  0  0
 84166  1  0  0  0
 85167  1  0  0  0
 85168  1  0  0  0
 85 88  1  0  0  0
 86 89  1  0  0  0
 86 90  1  0  0  0
 86 91  1  0  0  0
 87169  1  0  0  0
 88170  1  0  0  0
M  CHG  1  88   1
M  ISO  4   1 100  68 101  83 101  87 100
M  END
> <chiral flag>
0

> <version>
0

> <s_m_source_file>
/data/baiqing/PycharmProjects/Reinvent-master-3.2/result/LINK_invent/BTK/process_docking_weight1_custom_product_contain_oxygen_bond_distance_aromatic_linkinvent_7_9_3/rearranged_h_0036.sdf

> <i_m_source_file_index>
49

> <r_mmod_Potential_Energy-OPLS-2005>
12317.8203125

> <r_mmod_Stretch_Energy-OPLS-2005>
6056.06982421875

> <r_mmod_Bend_Energy-OPLS-2005>
1818.24560546875

> <r_mmod_Torsional_Energy-OPLS-2005>
477.685089111328

> <r_mmod_Improper_Torsional_Energy-OPLS-2005>
32.5885696411133

> <r_mmod_Van_der_Waal_Energy-OPLS-2005>
2098.98999023438

> <r_mmod_Electrostatic_Energy-OPLS-2005>
-322.516754150391

> <r_mmod_Solvation_Energy-OPLS-2005>
-388.568267822266

> <b_mmod_Minimization_Converged-OPLS-2005>
0

> <r_mmod_RMS_Derivative-OPLS-2005>
6.47969770431519

$$$$
49
                    3D
 Structure written by MMmdl.
164173  0  0  1  0            999 V2000
  -30.5884  -14.7213   20.4973 C   0  0  0  0  0  0
  -30.4450  -12.4421   19.4678 C   0  0  0  0  0  0
  -29.5201  -12.5053   18.2351 C   0  0  0  0  0  0
  -28.0434  -12.3270   18.6397 C   0  0  0  0  0  0
  -27.6385  -13.2196   19.8412 C   0  0  2  0  0  0
  -28.6748  -13.1296   20.9768 C   0  0  0  0  0  0
  -25.2508  -13.8198   20.5663 C   0  0  0  0  0  0
  -24.1762  -13.0436   20.9216 C   0  0  0  0  0  0
  -24.6350  -11.6919   20.8733 C   0  0  0  0  0  0
  -23.9028  -10.4303   21.0414 C   0  0  0  0  0  0
  -24.3595   -9.4226   21.9195 C   0  0  0  0  0  0
  -23.6276   -8.2261   22.0760 C   0  0  0  0  0  0
  -22.4263   -8.0277   21.3549 C   0  0  0  0  0  0
  -21.9888   -9.0256   20.4660 C   0  0  0  0  0  0
  -22.7207  -10.2143   20.3066 C   0  0  0  0  0  0
  -21.6849   -6.0721   22.5280 C   0  0  0  0  0  0
  -21.4017   -6.5623   23.8204 C   0  0  0  0  0  0
  -21.3672   -5.6774   24.9165 C   0  0  0  0  0  0
  -21.6029   -4.3029   24.7218 C   0  0  0  0  0  0
  -21.8825   -3.8126   23.4340 C   0  0  0  0  0  0
  -21.9200   -4.6956   22.3391 C   0  0  0  0  0  0
  -22.7789  -13.5252   21.1856 C   0  0  0  0  0  0
  -22.1662   -4.2138   21.0967 F   0  0  0  0  0  0
  -21.5646   -3.4519   25.7737 F   0  0  0  0  0  0
  -29.9809  -13.4896   20.4070 N   0  0  0  0  0  0
  -26.2874  -12.9347   20.3168 N   0  0  0  0  0  0
  -25.9246  -11.6504   20.5642 N   0  0  0  0  0  0
  -22.0376  -12.8277   22.0421 N   0  0  0  0  0  0
  -25.4202  -15.1925   20.4120 N   0  0  0  0  0  0
  -31.7858  -14.8406   20.2146 O   0  0  0  0  0  0
  -21.6625   -6.8874   21.4240 O   0  0  0  0  0  0
  -22.3456  -14.5509   20.6627 O   0  0  0  0  0  0
  -24.6355  -31.8520   23.2002 C   0  0  0  0  0  0
  -25.9187  -32.4715   23.8328 C   0  0  1  0  0  0
  -27.2034  -27.2417   20.1469 C   0  0  0  0  0  0
  -25.6001  -33.8530   24.2220 N   0  0  0  0  0  0
  -23.4259  -30.4863   21.5414 C   0  0  2  0  0  0
  -24.8589  -28.9162   20.1174 C   0  0  0  0  0  0
  -22.7497  -29.4662   22.4897 C   0  0  0  0  0  0
  -18.0313  -28.1463   22.8449 C   0  0  0  0  0  0
  -24.1516  -36.7288   23.2643 C   0  0  0  0  0  0
  -25.9739  -30.7702   21.3648 C   0  0  0  0  0  0
  -26.0389  -29.3926   20.7027 C   0  0  0  0  0  0
  -27.2107  -28.5721   20.6905 C   0  0  0  0  0  0
  -25.9813  -26.8032   19.5915 C   0  0  0  0  0  0
  -24.8347  -27.6284   19.5505 C   0  0  0  0  0  0
  -23.6431  -29.8257   20.1554 C   0  0  0  0  0  0
  -25.4136  -36.3029   24.0305 C   0  0  1  0  0  0
  -20.5912  -28.3755   23.1262 C   0  0  2  0  0  0
  -20.6849  -26.9483   22.5413 C   0  0  0  0  0  0
  -19.5808  -26.6427   21.5239 C   0  0  0  0  0  0
  -18.1973  -26.8008   22.1621 C   0  0  0  0  0  0
  -19.1559  -28.8921   23.2855 C   0  0  0  0  0  0
  -18.9487  -30.1537   23.8857 C   0  0  0  0  0  0
  -17.6477  -30.6627   24.0591 C   0  0  0  0  0  0
  -25.9072  -34.9403   23.5030 C   0  0  0  0  0  0
  -16.5366  -29.9124   23.6357 C   0  0  0  0  0  0
  -16.7301  -28.6585   23.0287 C   0  0  0  0  0  0
  -26.4522  -31.6553   25.0723 C   0  0  0  0  0  0
  -25.3752  -31.3738   26.1427 C   0  0  0  0  0  0
  -27.0341  -30.2962   24.6226 C   0  0  0  0  0  0
  -27.6046  -32.4297   25.7518 C   0  0  0  0  0  0
  -27.5579  -37.1803   24.8445 C   0  0  0  0  0  0
  -21.4216  -29.3076   22.3610 N   0  0  0  0  0  0
  -26.4294  -37.3748   23.9376 N   0  0  0  0  0  0
  -24.6997  -31.0513   22.0951 N   0  0  0  0  0  0
  -23.4183  -28.8202   23.3010 O   0  0  0  0  0  0
  -28.3491  -26.4150   20.2272 O   0  0  0  0  0  0
  -26.5614  -34.8859   22.4582 O   0  0  0  0  0  0
  -23.5506  -32.1362   23.7302 O   0  0  0  0  0  0
  -29.2444  -18.3955   20.5858 C   0  0  0  0  0  0
  -31.1176  -17.5244   21.8480 C   0  0  0  0  0  0
  -29.4590  -19.7539   21.0757 C   0  0  0  0  0  0
  -30.4983  -19.9111   22.0394 C   0  0  0  0  0  0
  -30.0493  -17.2472   20.9745 C   0  0  0  0  0  0
  -31.3355  -18.8100   22.3798 C   0  0  0  0  0  0
  -29.3062  -22.3420   18.7550 C   0  0  0  0  0  0
  -30.3483  -21.6364   18.2838 C   0  0  0  0  0  0
  -28.3640  -23.2071   17.9080 C   0  0  0  0  0  0
  -28.3261  -24.7121   18.2998 C   0  0  0  0  0  0
  -28.2097  -23.6337   20.6586 C   0  0  0  0  0  0
  -28.5401  -24.9720   19.8046 C   0  0  2  0  0  0
  -30.6779  -21.2388   22.7740 C   0  0  0  0  0  0
  -28.4743  -20.9786   20.7410 C   0  0  0  0  0  0
  -29.7624  -15.8313   20.6288 N   0  0  0  0  0  0
  -28.9698  -22.3524   20.2229 N   0  3  1  0  0  0
  -32.6516  -18.9651   23.4957 Cl  0  0  0  0  0  0
  -31.4835  -12.5893   19.1624 H   0  0  0  0  0  0
  -30.4096  -11.4509   19.9253 H   0  0  0  0  0  0
  -29.7980  -11.7365   17.5141 H   0  0  0  0  0  0
  -29.6478  -13.4653   17.7326 H   0  0  0  0  0  0
  -27.9099  -11.2773   18.9003 H   0  0  0  0  0  0
  -27.3870  -12.5165   17.7906 H   0  0  0  0  0  0
  -27.6437  -14.2438   19.4691 H   0  0  0  0  0  0
  -28.6944  -12.1210   21.3925 H   0  0  0  0  0  0
  -28.3969  -13.7956   21.7946 H   0  0  0  0  0  0
  -25.2775   -9.5675   22.4718 H   0  0  0  0  0  0
  -24.0010   -7.4629   22.7442 H   0  0  0  0  0  0
  -21.0836   -8.8745   19.8938 H   0  0  0  0  0  0
  -22.3692  -10.9654   19.6129 H   0  0  0  0  0  0
  -21.1997   -7.6125   23.9716 H   0  0  0  0  0  0
  -21.1487   -6.0489   25.9068 H   0  0  0  0  0  0
  -22.0593   -2.7591   23.2824 H   0  0  0  0  0  0
  -22.3965  -12.0019   22.4963 H   0  0  0  0  0  0
  -21.0951  -13.1274   22.2479 H   0  0  0  0  0  0
  -24.6546  -15.8454   20.5439 H   0  0  0  0  0  0
  -26.2570  -15.6379   20.0583 H   0  0  0  0  0  0
  -26.7258  -32.5258   23.1060 H   0  0  0  0  0  0
  -25.0224  -33.9697   25.0406 H   0  0  0  0  0  0
  -22.7243  -31.3136   21.4013 H   0  0  0  0  0  0
  -23.3734  -35.9676   23.3302 H   0  0  0  0  0  0
  -24.3636  -36.8918   22.2070 H   0  0  0  0  0  0
  -23.7293  -37.6496   23.6670 H   0  0  0  0  0  0
  -26.1096  -31.5377   20.6007 H   0  0  0  0  0  0
  -26.8580  -30.8121   21.9920 H   0  0  0  0  0  0
  -28.1192  -28.9439   21.1436 H   0  0  0  0  0  0
  -25.8681  -25.7843   19.2545 H   0  0  0  0  0  0
  -23.9145  -27.2380   19.1315 H   0  0  0  0  0  0
  -23.7951  -30.6158   19.4187 H   0  0  0  0  0  0
  -22.7549  -29.2906   19.8201 H   0  0  0  0  0  0
  -25.1328  -36.1884   25.0813 H   0  0  0  0  0  0
  -20.9995  -28.3379   24.1382 H   0  0  0  0  0  0
  -20.5864  -26.2369   23.3625 H   0  0  0  0  0  0
  -21.6713  -26.7593   22.1146 H   0  0  0  0  0  0
  -19.6987  -25.6323   21.1307 H   0  0  0  0  0  0
  -19.6787  -27.3227   20.6761 H   0  0  0  0  0  0
  -17.4284  -26.6770   21.3990 H   0  0  0  0  0  0
  -18.0338  -26.0177   22.9040 H   0  0  0  0  0  0
  -19.7952  -30.7402   24.2173 H   0  0  0  0  0  0
  -17.5015  -31.6291   24.5234 H   0  0  0  0  0  0
  -15.5359  -30.3000   23.7724 H   0  0  0  0  0  0
  -15.8720  -28.0941   22.6895 H   0  0  0  0  0  0
  -24.5958  -30.7041   25.7779 H   0  0  0  0  0  0
  -24.8934  -32.2929   26.4775 H   0  0  0  0  0  0
  -25.8125  -30.8992   27.0212 H   0  0  0  0  0  0
  -26.2913  -29.6713   24.1271 H   0  0  0  0  0  0
  -27.3999  -29.7230   25.4740 H   0  0  0  0  0  0
  -27.8807  -30.4183   23.9479 H   0  0  0  0  0  0
  -27.2651  -33.3605   26.2059 H   0  0  0  0  0  0
  -28.3929  -32.6832   25.0428 H   0  0  0  0  0  0
  -28.0610  -31.8422   26.5479 H   0  0  0  0  0  0
  -28.2566  -38.0127   24.7459 H   0  0  0  0  0  0
  -28.1103  -36.2626   24.6313 H   0  0  0  0  0  0
  -27.2288  -37.1512   25.8855 H   0  0  0  0  0  0
  -20.9429  -29.8681   21.6700 H   0  0  0  0  0  0
  -26.0135  -38.2802   24.1423 H   0  0  0  0  0  0
  -28.4034  -18.2254   19.9284 H   0  0  0  0  0  0
  -31.7686  -16.7332   22.1824 H   0  0  0  0  0  0
  -30.5828  -21.6124   17.2294 H   0  0  0  0  0  0
  -30.9894  -21.0585   18.9338 H   0  0  0  0  0  0
  -27.3616  -22.7806   17.9700 H   0  0  0  0  0  0
  -28.6450  -23.1135   16.8555 H   0  0  0  0  0  0
  -27.3874  -25.1341   17.9483 H   0  0  0  0  0  0
  -29.0981  -25.2587   17.7564 H   0  0  0  0  0  0
  -27.1379  -23.4351   20.6522 H   0  0  0  0  0  0
  -28.4640  -23.8166   21.7030 H   0  0  0  0  0  0
  -29.6283  -24.9718   19.8883 H   0  0  0  0  0  0
  -30.8661  -22.0624   22.0918 H   0  0  0  0  0  0
  -31.5233  -21.2423   23.4574 H   0  0  0  0  0  0
  -29.7935  -21.4704   23.3696 H   0  0  0  0  0  0
  -27.9163  -21.1634   21.6586 H   0  0  0  0  0  0
  -27.7304  -20.6010   20.0403 H   0  0  0  0  0  0
  -28.7825  -15.6027   20.5573 H   0  0  0  0  0  0
  -29.8492  -22.4581   20.7037 H   0  0  0  0  0  0
  1 25  1  0  0  0
  1 30  2  0  0  0
  1 85  1  0  0  0
  2  3  1  0  0  0
  2 25  1  0  0  0
  2 88  1  0  0  0
  2 89  1  0  0  0
  3  4  1  0  0  0
  3 90  1  0  0  0
  3 91  1  0  0  0
  4  5  1  0  0  0
  4 92  1  0  0  0
  4 93  1  0  0  0
  5  6  1  0  0  0
  5 26  1  0  0  0
  5 94  1  0  0  0
  6 25  1  0  0  0
  6 95  1  0  0  0
  6 96  1  0  0  0
  7  8  2  0  0  0
  7 26  1  0  0  0
  7 29  1  0  0  0
  8  9  1  0  0  0
  8 22  1  0  0  0
  9 10  1  0  0  0
  9 27  2  0  0  0
 10 11  2  0  0  0
 10 15  1  0  0  0
 11 12  1  0  0  0
 11 97  1  0  0  0
 12 13  2  0  0  0
 12 98  1  0  0  0
 13 14  1  0  0  0
 13 31  1  0  0  0
 14 15  2  0  0  0
 14 99  1  0  0  0
 15100  1  0  0  0
 16 17  2  0  0  0
 16 21  1  0  0  0
 16 31  1  0  0  0
 17 18  1  0  0  0
 17101  1  0  0  0
 18 19  2  0  0  0
 18102  1  0  0  0
 19 20  1  0  0  0
 19 24  1  0  0  0
 20 21  2  0  0  0
 20103  1  0  0  0
 21 23  1  0  0  0
 22 28  1  0  0  0
 22 32  2  0  0  0
 26 27  1  0  0  0
 28104  1  0  0  0
 28105  1  0  0  0
 29106  1  0  0  0
 29107  1  0  0  0
 33 34  1  0  0  0
 33 66  1  0  0  0
 33 70  2  0  0  0
 34 36  1  0  0  0
 34 59  1  0  0  0
 34108  1  0  0  0
 35 44  2  0  0  0
 35 45  1  0  0  0
 35 68  1  0  0  0
 36 56  1  0  0  0
 36109  1  0  0  0
 37 39  1  0  0  0
 37 47  1  0  0  0
 37 66  1  0  0  0
 37110  1  0  0  0
 38 43  2  0  0  0
 38 46  1  0  0  0
 38 47  1  0  0  0
 39 64  1  0  0  0
 39 67  2  0  0  0
 40 52  1  0  0  0
 40 53  2  0  0  0
 40 58  1  0  0  0
 41111  1  0  0  0
 41112  1  0  0  0
 41113  1  0  0  0
 41 48  1  0  0  0
 42 43  1  0  0  0
 42 66  1  0  0  0
 42114  1  0  0  0
 42115  1  0  0  0
 43 44  1  0  0  0
 44116  1  0  0  0
 45 46  2  0  0  0
 45117  1  0  0  0
 46118  1  0  0  0
 47119  1  0  0  0
 47120  1  0  0  0
 48 56  1  0  0  0
 48 65  1  0  0  0
 48121  1  0  0  0
 49 50  1  0  0  0
 49 53  1  0  0  0
 49 64  1  0  0  0
 49122  1  0  0  0
 50 51  1  0  0  0
 50123  1  0  0  0
 50124  1  0  0  0
 51 52  1  0  0  0
 51125  1  0  0  0
 51126  1  0  0  0
 52127  1  0  0  0
 52128  1  0  0  0
 53 54  1  0  0  0
 54 55  2  0  0  0
 54129  1  0  0  0
 55 57  1  0  0  0
 55130  1  0  0  0
 56 69  2  0  0  0
 57 58  2  0  0  0
 57131  1  0  0  0
 58132  1  0  0  0
 59 60  1  0  0  0
 59 61  1  0  0  0
 59 62  1  0  0  0
 60133  1  0  0  0
 60134  1  0  0  0
 60135  1  0  0  0
 61136  1  0  0  0
 61137  1  0  0  0
 61138  1  0  0  0
 62139  1  0  0  0
 62140  1  0  0  0
 62141  1  0  0  0
 63 65  1  0  0  0
 63142  1  0  0  0
 63143  1  0  0  0
 63144  1  0  0  0
 64145  1  0  0  0
 65146  1  0  0  0
 68 82  1  0  0  0
 71 73  2  0  0  0
 71 75  1  0  0  0
 71147  1  0  0  0
 72 75  2  0  0  0
 72 76  1  0  0  0
 72148  1  0  0  0
 73 74  1  0  0  0
 73 84  1  0  0  0
 74 76  2  0  0  0
 74 83  1  0  0  0
 75 85  1  0  0  0
 76 87  1  0  0  0
 77 78  2  0  0  0
 77 79  1  0  0  0
 77 86  1  0  0  0
 78149  1  0  0  0
 78150  1  0  0  0
 79 80  1  0  0  0
 79151  1  0  0  0
 79152  1  0  0  0
 80 82  1  0  0  0
 80153  1  0  0  0
 80154  1  0  0  0
 81 82  1  0  0  0
 81 86  1  0  0  0
 81155  1  0  0  0
 81156  1  0  0  0
 82157  1  0  0  0
 83158  1  0  0  0
 83159  1  0  0  0
 83160  1  0  0  0
 84161  1  0  0  0
 84162  1  0  0  0
 84 86  1  0  0  0
 85163  1  0  0  0
 86164  1  0  0  0
M  CHG  1  86   1
M  ISO  4   1 100  68 101  82 101  85 100
M  END
> <chiral flag>
0

> <version>
0

> <s_m_source_file>
/data/baiqing/PycharmProjects/Reinvent-master-3.2/result/LINK_invent/BTK/process_docking_weight1_custom_product_contain_oxygen_bond_distance_aromatic_linkinvent_7_9_3/rearranged_h_0036.sdf

> <i_m_source_file_index>
50

> <r_mmod_Potential_Energy-OPLS-2005>
142.641815185547

> <r_mmod_Stretch_Energy-OPLS-2005>
135.113189697266

> <r_mmod_Bend_Energy-OPLS-2005>
222.120468139648

> <r_mmod_Torsional_Energy-OPLS-2005>
242.643936157227

> <r_mmod_Improper_Torsional_Energy-OPLS-2005>
8.31558704376221

> <r_mmod_Van_der_Waal_Energy-OPLS-2005>
139.122634887695

> <r_mmod_Electrostatic_Energy-OPLS-2005>
-247.776718139648

> <r_mmod_Solvation_Energy-OPLS-2005>
-441.546112060547

> <b_mmod_Minimization_Converged-OPLS-2005>
0

> <r_mmod_RMS_Derivative-OPLS-2005>
6.24118232727051

$$$$
50
                    3D
 Structure written by MMmdl.
170179  0  0  1  0            999 V2000
  -30.6606  -14.4945   20.5597 C   0  0  0  0  0  0
  -30.4314  -12.3152   19.4262 C   0  0  0  0  0  0
  -29.4999  -12.5057   18.2094 C   0  0  0  0  0  0
  -28.0187  -12.3671   18.6187 C   0  0  0  0  0  0
  -27.6627  -13.2025   19.8778 C   0  0  2  0  0  0
  -28.7029  -12.9733   20.9981 C   0  0  0  0  0  0
  -25.2600  -13.8149   20.5692 C   0  0  0  0  0  0
  -24.1844  -13.0432   20.9178 C   0  0  0  0  0  0
  -24.6391  -11.6899   20.8734 C   0  0  0  0  0  0
  -23.9046  -10.4295   21.0404 C   0  0  0  0  0  0
  -24.3603   -9.4215   21.9185 C   0  0  0  0  0  0
  -23.6292   -8.2241   22.0751 C   0  0  0  0  0  0
  -22.4270   -8.0279   21.3542 C   0  0  0  0  0  0
  -21.9898   -9.0248   20.4644 C   0  0  0  0  0  0
  -22.7215  -10.2137   20.3057 C   0  0  0  0  0  0
  -21.6849   -6.0734   22.5281 C   0  0  0  0  0  0
  -21.4013   -6.5637   23.8216 C   0  0  0  0  0  0
  -21.3661   -5.6791   24.9178 C   0  0  0  0  0  0
  -21.6044   -4.3053   24.7224 C   0  0  0  0  0  0
  -21.8819   -3.8144   23.4345 C   0  0  0  0  0  0
  -21.9192   -4.6963   22.3402 C   0  0  0  0  0  0
  -22.7866  -13.5235   21.1840 C   0  0  0  0  0  0
  -22.1663   -4.2153   21.0979 F   0  0  0  0  0  0
  -21.5630   -3.4535   25.7735 F   0  0  0  0  0  0
  -30.0318  -13.2927   20.4500 N   0  0  0  0  0  0
  -26.3025  -12.9307   20.3367 N   0  0  0  0  0  0
  -25.9317  -11.6471   20.5759 N   0  0  0  0  0  0
  -22.0501  -12.8243   22.0405 N   0  0  0  0  0  0
  -25.4338  -15.1867   20.4127 N   0  0  0  0  0  0
  -31.7871  -14.7105   20.1033 O   0  0  0  0  0  0
  -21.6635   -6.8876   21.4244 O   0  0  0  0  0  0
  -22.3552  -14.5542   20.6689 O   0  0  0  0  0  0
  -24.6141  -31.8657   23.2068 C   0  0  0  0  0  0
  -25.9038  -32.4799   23.8370 C   0  0  1  0  0  0
  -27.2410  -27.4226   20.1056 C   0  0  0  0  0  0
  -25.5896  -33.8599   24.2311 N   0  0  0  0  0  0
  -23.4017  -30.4862   21.5472 C   0  0  2  0  0  0
  -24.8484  -28.9416   20.1160 C   0  0  0  0  0  0
  -22.7398  -29.4651   22.4994 C   0  0  0  0  0  0
  -18.0267  -28.1377   22.8491 C   0  0  0  0  0  0
  -24.1487  -36.7308   23.2641 C   0  0  0  0  0  0
  -25.9281  -30.8288   21.3579 C   0  0  0  0  0  0
  -26.0051  -29.4598   20.7092 C   0  0  0  0  0  0
  -27.2003  -28.7080   20.6962 C   0  0  0  0  0  0
  -26.0657  -26.9114   19.5132 C   0  0  0  0  0  0
  -24.8742  -27.6682   19.5154 C   0  0  0  0  0  0
  -23.6097  -29.8100   20.1638 C   0  0  0  0  0  0
  -25.4108  -36.3099   24.0337 C   0  0  1  0  0  0
  -20.5857  -28.3661   23.1326 C   0  0  2  0  0  0
  -20.6758  -26.9400   22.5421 C   0  0  0  0  0  0
  -19.5740  -26.6389   21.5212 C   0  0  0  0  0  0
  -18.1918  -26.7923   22.1622 C   0  0  0  0  0  0
  -19.1517  -28.8834   23.2904 C   0  0  0  0  0  0
  -18.9447  -30.1443   23.8911 C   0  0  0  0  0  0
  -17.6451  -30.6584   24.0566 C   0  0  0  0  0  0
  -25.9035  -34.9463   23.5124 C   0  0  0  0  0  0
  -16.5340  -29.9088   23.6327 C   0  0  0  0  0  0
  -16.7257  -28.6506   23.0345 C   0  0  0  0  0  0
  -26.4470  -31.6570   25.0695 C   0  0  0  0  0  0
  -25.3741  -31.3658   26.1444 C   0  0  0  0  0  0
  -27.0303  -30.3013   24.6064 C   0  0  0  0  0  0
  -27.6049  -32.4281   25.7462 C   0  0  0  0  0  0
  -27.5577  -37.1810   24.8466 C   0  0  0  0  0  0
  -21.4128  -29.3026   22.3730 N   0  0  0  0  0  0
  -26.4292  -37.3785   23.9407 N   0  0  0  0  0  0
  -24.6662  -31.0756   22.0962 N   0  0  0  0  0  0
  -23.4170  -28.8207   23.3046 O   0  0  0  0  0  0
  -28.4440  -26.7464   20.1240 O   0  0  0  0  0  0
  -26.5601  -34.8920   22.4688 O   0  0  0  0  0  0
  -23.5338  -32.1415   23.7470 O   0  0  0  0  0  0
  -27.7838  -19.0008   23.2166 C   0  0  0  0  0  0
  -29.3569  -19.3826   20.9451 C   0  0  0  0  0  0
  -28.4706  -17.8994   22.6683 C   0  0  0  0  0  0
  -27.8840  -20.2916   22.6619 C   0  0  0  0  0  0
  -29.2826  -18.0779   21.5114 C   0  0  0  0  0  0
  -28.6801  -20.5033   21.5078 C   0  0  0  0  0  0
  -30.6462  -23.8532   20.6654 C   0  0  0  0  0  0
  -29.9916  -24.9567   20.2191 C   0  0  0  0  0  0
  -32.1010  -23.9068   21.1058 C   0  0  0  0  0  0
  -32.3041  -22.7867   22.1344 C   0  0  0  0  0  0
  -30.9228  -22.1599   22.3059 C   0  0  0  0  0  0
  -28.3100  -16.5586   23.3691 C   0  0  0  0  0  0
  -27.1274  -21.4229   23.3435 C   0  0  0  0  0  0
  -30.1008  -16.9400   20.8444 C   0  0  0  0  0  0
  -28.8514  -21.9248   20.9047 C   0  0  0  0  0  0
  -28.5405  -25.3254   19.9207 C   0  0  0  0  0  0
  -29.8844  -15.4933   21.0277 N   0  0  0  0  0  0
  -30.2367  -22.4486   21.0313 N   0  3  1  0  0  0
  -31.4750  -12.4312   19.1269 H   0  0  0  0  0  0
  -30.3446  -11.3017   19.8208 H   0  0  0  0  0  0
  -29.7425  -11.7796   17.4317 H   0  0  0  0  0  0
  -29.6664  -13.4899   17.7691 H   0  0  0  0  0  0
  -27.8261  -11.3114   18.8092 H   0  0  0  0  0  0
  -27.3702  -12.6464   17.7874 H   0  0  0  0  0  0
  -27.7078  -14.2514   19.5849 H   0  0  0  0  0  0
  -28.6826  -11.9325   21.3246 H   0  0  0  0  0  0
  -28.4646  -13.5591   21.8870 H   0  0  0  0  0  0
  -25.2754   -9.5689   22.4751 H   0  0  0  0  0  0
  -24.0009   -7.4632   22.7464 H   0  0  0  0  0  0
  -21.0828   -8.8754   19.8954 H   0  0  0  0  0  0
  -22.3667  -10.9671   19.6164 H   0  0  0  0  0  0
  -21.2007   -7.6148   23.9716 H   0  0  0  0  0  0
  -21.1483   -6.0523   25.9079 H   0  0  0  0  0  0
  -22.0599   -2.7607   23.2839 H   0  0  0  0  0  0
  -22.4102  -11.9907   22.4812 H   0  0  0  0  0  0
  -21.1122  -13.1282   22.2600 H   0  0  0  0  0  0
  -24.6679  -15.8406   20.5266 H   0  0  0  0  0  0
  -26.2821  -15.6289   20.0827 H   0  0  0  0  0  0
  -26.7106  -32.5511   23.1131 H   0  0  0  0  0  0
  -25.0046  -33.9755   25.0456 H   0  0  0  0  0  0
  -22.6907  -31.3027   21.4051 H   0  0  0  0  0  0
  -23.3740  -35.9650   23.3316 H   0  0  0  0  0  0
  -24.3577  -36.8911   22.2053 H   0  0  0  0  0  0
  -23.7250  -37.6520   23.6649 H   0  0  0  0  0  0
  -26.0380  -31.5923   20.5865 H   0  0  0  0  0  0
  -26.8169  -30.8859   21.9744 H   0  0  0  0  0  0
  -28.0960  -29.1087   21.1501 H   0  0  0  0  0  0
  -26.0610  -25.9384   19.0438 H   0  0  0  0  0  0
  -23.9828  -27.2634   19.0556 H   0  0  0  0  0  0
  -23.7161  -30.5811   19.3999 H   0  0  0  0  0  0
  -22.7336  -29.2278   19.8721 H   0  0  0  0  0  0
  -25.1287  -36.1960   25.0830 H   0  0  0  0  0  0
  -20.9945  -28.3224   24.1448 H   0  0  0  0  0  0
  -20.5661  -26.2266   23.3604 H   0  0  0  0  0  0
  -21.6631  -26.7445   22.1215 H   0  0  0  0  0  0
  -19.6904  -25.6305   21.1227 H   0  0  0  0  0  0
  -19.6683  -27.3212   20.6753 H   0  0  0  0  0  0
  -17.4188  -26.6669   21.4024 H   0  0  0  0  0  0
  -18.0321  -26.0062   22.9016 H   0  0  0  0  0  0
  -19.7926  -30.7253   24.2285 H   0  0  0  0  0  0
  -17.5009  -31.6267   24.5164 H   0  0  0  0  0  0
  -15.5345  -30.2996   23.7646 H   0  0  0  0  0  0
  -15.8655  -28.0835   22.7049 H   0  0  0  0  0  0
  -24.5914  -30.7010   25.7774 H   0  0  0  0  0  0
  -24.8933  -32.2807   26.4917 H   0  0  0  0  0  0
  -25.8100  -30.8807   27.0187 H   0  0  0  0  0  0
  -26.2845  -29.6769   24.1131 H   0  0  0  0  0  0
  -27.4094  -29.7253   25.4517 H   0  0  0  0  0  0
  -27.8669  -30.4340   23.9199 H   0  0  0  0  0  0
  -27.2674  -33.3567   26.2079 H   0  0  0  0  0  0
  -28.3842  -32.6861   25.0278 H   0  0  0  0  0  0
  -28.0737  -31.8376   26.5344 H   0  0  0  0  0  0
  -28.2607  -38.0096   24.7496 H   0  0  0  0  0  0
  -28.1059  -36.2625   24.6309 H   0  0  0  0  0  0
  -27.2293  -37.1481   25.8870 H   0  0  0  0  0  0
  -20.9288  -29.8734   21.6941 H   0  0  0  0  0  0
  -26.0178  -38.2864   24.1398 H   0  0  0  0  0  0
  -27.1723  -18.8540   24.0969 H   0  0  0  0  0  0
  -29.9703  -19.5218   20.0653 H   0  0  0  0  0  0
  -30.6336  -25.8159   20.0840 H   0  0  0  0  0  0
  -32.3212  -24.8772   21.5535 H   0  0  0  0  0  0
  -32.7614  -23.7852   20.2454 H   0  0  0  0  0  0
  -32.6999  -23.1534   23.0826 H   0  0  0  0  0  0
  -33.0083  -22.0492   21.7470 H   0  0  0  0  0  0
  -30.3820  -22.6414   23.1226 H   0  0  0  0  0  0
  -31.0038  -21.0972   22.5361 H   0  0  0  0  0  0
  -27.7396  -16.6574   24.2930 H   0  0  0  0  0  0
  -29.2778  -16.1347   23.6395 H   0  0  0  0  0  0
  -27.7738  -15.8528   22.7353 H   0  0  0  0  0  0
  -26.5977  -21.0728   24.2297 H   0  0  0  0  0  0
  -26.3848  -21.8532   22.6711 H   0  0  0  0  0  0
  -27.8083  -22.2096   23.6685 H   0  0  0  0  0  0
  -29.1159  -16.7733   20.4044 H   0  0  0  0  0  0
  -30.5645  -16.8442   21.8271 H   0  0  0  0  0  0
  -28.1722  -22.6374   21.3646 H   0  0  0  0  0  0
  -28.5816  -21.8971   19.8487 H   0  0  0  0  0  0
  -27.8538  -24.7873   20.5731 H   0  0  0  0  0  0
  -28.3089  -25.0807   18.8833 H   0  0  0  0  0  0
  -28.9785  -15.2183   21.3726 H   0  0  0  0  0  0
  -30.7279  -21.8560   20.3799 H   0  0  0  0  0  0
  1 25  1  0  0  0
  1 30  2  0  0  0
  1 87  1  0  0  0
  2  3  1  0  0  0
  2 25  1  0  0  0
  2 89  1  0  0  0
  2 90  1  0  0  0
  3  4  1  0  0  0
  3 91  1  0  0  0
  3 92  1  0  0  0
  4  5  1  0  0  0
  4 93  1  0  0  0
  4 94  1  0  0  0
  5  6  1  0  0  0
  5 26  1  0  0  0
  5 95  1  0  0  0
  6 25  1  0  0  0
  6 96  1  0  0  0
  6 97  1  0  0  0
  7  8  2  0  0  0
  7 26  1  0  0  0
  7 29  1  0  0  0
  8  9  1  0  0  0
  8 22  1  0  0  0
  9 10  1  0  0  0
  9 27  2  0  0  0
 10 11  2  0  0  0
 10 15  1  0  0  0
 11 12  1  0  0  0
 11 98  1  0  0  0
 12 13  2  0  0  0
 12 99  1  0  0  0
 13 14  1  0  0  0
 13 31  1  0  0  0
 14 15  2  0  0  0
 14100  1  0  0  0
 15101  1  0  0  0
 16 17  2  0  0  0
 16 21  1  0  0  0
 16 31  1  0  0  0
 17 18  1  0  0  0
 17102  1  0  0  0
 18 19  2  0  0  0
 18103  1  0  0  0
 19 20  1  0  0  0
 19 24  1  0  0  0
 20 21  2  0  0  0
 20104  1  0  0  0
 21 23  1  0  0  0
 22 28  1  0  0  0
 22 32  2  0  0  0
 26 27  1  0  0  0
 28105  1  0  0  0
 28106  1  0  0  0
 29107  1  0  0  0
 29108  1  0  0  0
 33 34  1  0  0  0
 33 66  1  0  0  0
 33 70  2  0  0  0
 34 36  1  0  0  0
 34 59  1  0  0  0
 34109  1  0  0  0
 35 44  2  0  0  0
 35 45  1  0  0  0
 35 68  1  0  0  0
 36 56  1  0  0  0
 36110  1  0  0  0
 37 39  1  0  0  0
 37 47  1  0  0  0
 37 66  1  0  0  0
 37111  1  0  0  0
 38 43  2  0  0  0
 38 46  1  0  0  0
 38 47  1  0  0  0
 39 64  1  0  0  0
 39 67  2  0  0  0
 40 52  1  0  0  0
 40 53  2  0  0  0
 40 58  1  0  0  0
 41112  1  0  0  0
 41113  1  0  0  0
 41114  1  0  0  0
 41 48  1  0  0  0
 42 43  1  0  0  0
 42 66  1  0  0  0
 42115  1  0  0  0
 42116  1  0  0  0
 43 44  1  0  0  0
 44117  1  0  0  0
 45 46  2  0  0  0
 45118  1  0  0  0
 46119  1  0  0  0
 47120  1  0  0  0
 47121  1  0  0  0
 48 56  1  0  0  0
 48 65  1  0  0  0
 48122  1  0  0  0
 49 50  1  0  0  0
 49 53  1  0  0  0
 49 64  1  0  0  0
 49123  1  0  0  0
 50 51  1  0  0  0
 50124  1  0  0  0
 50125  1  0  0  0
 51 52  1  0  0  0
 51126  1  0  0  0
 51127  1  0  0  0
 52128  1  0  0  0
 52129  1  0  0  0
 53 54  1  0  0  0
 54 55  2  0  0  0
 54130  1  0  0  0
 55 57  1  0  0  0
 55131  1  0  0  0
 56 69  2  0  0  0
 57 58  2  0  0  0
 57132  1  0  0  0
 58133  1  0  0  0
 59 60  1  0  0  0
 59 61  1  0  0  0
 59 62  1  0  0  0
 60134  1  0  0  0
 60135  1  0  0  0
 60136  1  0  0  0
 61137  1  0  0  0
 61138  1  0  0  0
 61139  1  0  0  0
 62140  1  0  0  0
 62141  1  0  0  0
 62142  1  0  0  0
 63 65  1  0  0  0
 63143  1  0  0  0
 63144  1  0  0  0
 63145  1  0  0  0
 64146  1  0  0  0
 65147  1  0  0  0
 68 86  1  0  0  0
 71 73  2  0  0  0
 71 74  1  0  0  0
 71148  1  0  0  0
 72 75  2  0  0  0
 72 76  1  0  0  0
 72149  1  0  0  0
 73 75  1  0  0  0
 73 82  1  0  0  0
 74 76  2  0  0  0
 74 83  1  0  0  0
 75 84  1  0  0  0
 76 85  1  0  0  0
 77 78  2  0  0  0
 77 79  1  0  0  0
 77 88  1  0  0  0
 78 86  1  0  0  0
 78150  1  0  0  0
 79 80  1  0  0  0
 79151  1  0  0  0
 79152  1  0  0  0
 80 81  1  0  0  0
 80153  1  0  0  0
 80154  1  0  0  0
 81 88  1  0  0  0
 81155  1  0  0  0
 81156  1  0  0  0
 82157  1  0  0  0
 82158  1  0  0  0
 82159  1  0  0  0
 83160  1  0  0  0
 83161  1  0  0  0
 83162  1  0  0  0
 84 87  1  0  0  0
 84163  1  0  0  0
 84164  1  0  0  0
 85165  1  0  0  0
 85166  1  0  0  0
 85 88  1  0  0  0
 86167  1  0  0  0
 86168  1  0  0  0
 87169  1  0  0  0
 88170  1  0  0  0
M  CHG  1  88   1
M  ISO  4   1 100  68 101  86 101  87 100
M  END
> <chiral flag>
0

> <version>
0

> <s_m_source_file>
/data/baiqing/PycharmProjects/Reinvent-master-3.2/result/LINK_invent/BTK/process_docking_weight1_custom_product_contain_oxygen_bond_distance_aromatic_linkinvent_7_9_3/rearranged_h_0036.sdf

> <i_m_source_file_index>
51

> <r_mmod_Potential_Energy-OPLS-2005>
79.9677505493164

> <r_mmod_Stretch_Energy-OPLS-2005>
45.5210304260254

> <r_mmod_Bend_Energy-OPLS-2005>
389.558349609375

> <r_mmod_Torsional_Energy-OPLS-2005>
224.544464111328

> <r_mmod_Improper_Torsional_Energy-OPLS-2005>
5.12038516998291

> <r_mmod_Van_der_Waal_Energy-OPLS-2005>
147.171264648438

> <r_mmod_Electrostatic_Energy-OPLS-2005>
-321.616821289062

> <r_mmod_Solvation_Energy-OPLS-2005>
-425.224060058594

> <b_mmod_Minimization_Converged-OPLS-2005>
0

> <r_mmod_RMS_Derivative-OPLS-2005>
0.90751188993454

$$$$
51
                    3D
 Structure written by MMmdl.
156164  0  0  1  0            999 V2000
  -30.6274  -14.7244   20.4979 C   0  0  0  0  0  0
  -30.4345  -12.4527   19.4715 C   0  0  0  0  0  0
  -29.5058  -12.5048   18.2384 C   0  0  0  0  0  0
  -28.0351  -12.3226   18.6562 C   0  0  0  0  0  0
  -27.6419  -13.2292   19.8516 C   0  0  2  0  0  0
  -28.6838  -13.1633   20.9898 C   0  0  0  0  0  0
  -25.2505  -13.8191   20.5638 C   0  0  0  0  0  0
  -24.1800  -13.0440   20.9208 C   0  0  0  0  0  0
  -24.6398  -11.6924   20.8773 C   0  0  0  0  0  0
  -23.9073  -10.4292   21.0418 C   0  0  0  0  0  0
  -24.3625   -9.4199   21.9186 C   0  0  0  0  0  0
  -23.6297   -8.2236   22.0757 C   0  0  0  0  0  0
  -22.4283   -8.0285   21.3536 C   0  0  0  0  0  0
  -21.9915   -9.0258   20.4638 C   0  0  0  0  0  0
  -22.7255  -10.2132   20.3053 C   0  0  0  0  0  0
  -21.6850   -6.0734   22.5268 C   0  0  0  0  0  0
  -21.4016   -6.5637   23.8207 C   0  0  0  0  0  0
  -21.3649   -5.6789   24.9169 C   0  0  0  0  0  0
  -21.6043   -4.3055   24.7216 C   0  0  0  0  0  0
  -21.8824   -3.8143   23.4340 C   0  0  0  0  0  0
  -21.9199   -4.6959   22.3395 C   0  0  0  0  0  0
  -22.7823  -13.5215   21.1861 C   0  0  0  0  0  0
  -22.1669   -4.2145   21.0974 F   0  0  0  0  0  0
  -21.5617   -3.4541   25.7729 F   0  0  0  0  0  0
  -29.9883  -13.5080   20.4095 N   0  0  0  0  0  0
  -26.2939  -12.9392   20.3278 N   0  0  0  0  0  0
  -25.9330  -11.6539   20.5788 N   0  0  0  0  0  0
  -22.0483  -12.8177   22.0418 N   0  0  0  0  0  0
  -25.4148  -15.1900   20.3887 N   0  0  0  0  0  0
  -31.8161  -14.8121   20.1781 O   0  0  0  0  0  0
  -21.6647   -6.8886   21.4234 O   0  0  0  0  0  0
  -22.3492  -14.5519   20.6730 O   0  0  0  0  0  0
  -24.6294  -31.8569   23.1972 C   0  0  0  0  0  0
  -25.9139  -32.4750   23.8314 C   0  0  1  0  0  0
  -27.2301  -27.2906   20.1420 C   0  0  0  0  0  0
  -25.5952  -33.8541   24.2248 N   0  0  0  0  0  0
  -23.4232  -30.4743   21.5413 C   0  0  2  0  0  0
  -24.8740  -28.9167   20.1164 C   0  0  0  0  0  0
  -22.7496  -29.4587   22.4948 C   0  0  0  0  0  0
  -18.0282  -28.1355   22.8464 C   0  0  0  0  0  0
  -24.1497  -36.7265   23.2633 C   0  0  0  0  0  0
  -25.9634  -30.7834   21.3660 C   0  0  0  0  0  0
  -26.0420  -29.4030   20.7178 C   0  0  0  0  0  0
  -27.2255  -28.6020   20.7178 C   0  0  0  0  0  0
  -26.0433  -26.8594   19.5150 C   0  0  0  0  0  0
  -24.8768  -27.6503   19.5068 C   0  0  0  0  0  0
  -23.6421  -29.8010   20.1593 C   0  0  0  0  0  0
  -25.4119  -36.3066   24.0314 C   0  0  1  0  0  0
  -20.5887  -28.3669   23.1282 C   0  0  2  0  0  0
  -20.6797  -26.9397   22.5400 C   0  0  0  0  0  0
  -19.5782  -26.6377   21.5183 C   0  0  0  0  0  0
  -18.1951  -26.7912   22.1584 C   0  0  0  0  0  0
  -19.1536  -28.8822   23.2873 C   0  0  0  0  0  0
  -18.9477  -30.1427   23.8890 C   0  0  0  0  0  0
  -17.6480  -30.6578   24.0527 C   0  0  0  0  0  0
  -25.9057  -34.9429   23.5079 C   0  0  0  0  0  0
  -16.5365  -29.9061   23.6328 C   0  0  0  0  0  0
  -16.7277  -28.6481   23.0346 C   0  0  0  0  0  0
  -26.4505  -31.6567   25.0687 C   0  0  0  0  0  0
  -25.3725  -31.3712   26.1413 C   0  0  0  0  0  0
  -27.0322  -30.2999   24.6100 C   0  0  0  0  0  0
  -27.6100  -32.4257   25.7448 C   0  0  0  0  0  0
  -27.5582  -37.1785   24.8460 C   0  0  0  0  0  0
  -21.4207  -29.3011   22.3682 N   0  0  0  0  0  0
  -26.4287  -37.3766   23.9416 N   0  0  0  0  0  0
  -24.6910  -31.0556   22.0936 N   0  0  0  0  0  0
  -23.4224  -28.8147   23.3043 O   0  0  0  0  0  0
  -28.3448  -26.4326   20.1458 O   0  0  0  0  0  0
  -26.5633  -34.8904   22.4654 O   0  0  0  0  0  0
  -23.5454  -32.1355   23.7311 O   0  0  0  0  0  0
  -31.4714  -17.6183   21.4042 C   0  0  0  0  0  0
  -31.8794  -18.9555   21.5514 C   0  0  0  0  0  0
  -29.3835  -18.4146   20.4263 C   0  0  0  0  0  0
  -29.7933  -19.8201   20.5607 C   0  0  0  0  0  0
  -30.2283  -17.2910   20.8249 C   0  0  0  0  0  0
  -31.0778  -20.0320   21.1279 C   0  0  0  0  0  0
  -28.0299  -18.0780   19.8182 C   0  0  0  0  0  0
  -28.9989  -21.0942   19.9806 C   0  0  0  0  0  0
  -28.7308  -23.7482   19.9553 C   0  0  0  0  0  0
  -28.2165  -25.0633   20.7387 C   0  0  0  0  0  0
  -29.8533  -15.8569   20.7187 N   0  0  0  0  0  0
  -28.8907  -22.4273   20.7406 N   0  3  0  0  0  0
  -31.7444  -21.6175   21.3029 Cl  0  0  0  0  0  0
  -31.4717  -12.5853   19.1600 H   0  0  0  0  0  0
  -30.3884  -11.4749   19.9539 H   0  0  0  0  0  0
  -29.7872  -11.7323   17.5222 H   0  0  0  0  0  0
  -29.6265  -13.4594   17.7243 H   0  0  0  0  0  0
  -27.8994  -11.2760   18.9305 H   0  0  0  0  0  0
  -27.3722  -12.5036   17.8094 H   0  0  0  0  0  0
  -27.6380  -14.2495   19.4678 H   0  0  0  0  0  0
  -28.7151  -12.1681   21.4369 H   0  0  0  0  0  0
  -28.4162  -13.8504   21.7953 H   0  0  0  0  0  0
  -25.2771   -9.5663   22.4765 H   0  0  0  0  0  0
  -23.9997   -7.4619   22.7476 H   0  0  0  0  0  0
  -21.0848   -8.8775   19.8939 H   0  0  0  0  0  0
  -22.3719  -10.9669   19.6160 H   0  0  0  0  0  0
  -21.2021   -7.6151   23.9700 H   0  0  0  0  0  0
  -21.1458   -6.0526   25.9067 H   0  0  0  0  0  0
  -22.0617   -2.7606   23.2841 H   0  0  0  0  0  0
  -22.4114  -11.9826   22.4747 H   0  0  0  0  0  0
  -21.1097  -13.1157   22.2646 H   0  0  0  0  0  0
  -24.6210  -15.8221   20.4288 H   0  0  0  0  0  0
  -26.2237  -15.6004   19.9410 H   0  0  0  0  0  0
  -26.7214  -32.5398   23.1066 H   0  0  0  0  0  0
  -25.0125  -33.9665   25.0421 H   0  0  0  0  0  0
  -22.7167  -31.2942   21.3951 H   0  0  0  0  0  0
  -23.3769  -35.9588   23.3257 H   0  0  0  0  0  0
  -24.3619  -36.8929   22.2066 H   0  0  0  0  0  0
  -23.7224  -37.6433   23.6688 H   0  0  0  0  0  0
  -26.0863  -31.5450   20.5943 H   0  0  0  0  0  0
  -26.8443  -30.8400   21.9916 H   0  0  0  0  0  0
  -28.1240  -28.9738   21.1906 H   0  0  0  0  0  0
  -26.0141  -25.8913   19.0320 H   0  0  0  0  0  0
  -23.9807  -27.2685   19.0350 H   0  0  0  0  0  0
  -23.7606  -30.5724   19.3981 H   0  0  0  0  0  0
  -22.7626  -29.2272   19.8600 H   0  0  0  0  0  0
  -25.1301  -36.1902   25.0806 H   0  0  0  0  0  0
  -20.9936  -28.3245   24.1416 H   0  0  0  0  0  0
  -20.5700  -26.2263   23.3595 H   0  0  0  0  0  0
  -21.6677  -26.7453   22.1198 H   0  0  0  0  0  0
  -19.6961  -25.6292   21.1210 H   0  0  0  0  0  0
  -19.6745  -27.3188   20.6728 H   0  0  0  0  0  0
  -17.4238  -26.6644   21.3976 H   0  0  0  0  0  0
  -18.0350  -26.0033   22.8952 H   0  0  0  0  0  0
  -19.7961  -30.7208   24.2280 H   0  0  0  0  0  0
  -17.5047  -31.6257   24.5133 H   0  0  0  0  0  0
  -15.5368  -30.2957   23.7663 H   0  0  0  0  0  0
  -15.8675  -28.0791   22.7076 H   0  0  0  0  0  0
  -24.5932  -30.7021   25.7754 H   0  0  0  0  0  0
  -24.8862  -32.2860   26.4800 H   0  0  0  0  0  0
  -25.8029  -30.8937   27.0217 H   0  0  0  0  0  0
  -26.2859  -29.6749   24.1176 H   0  0  0  0  0  0
  -27.4109  -29.7271   25.4573 H   0  0  0  0  0  0
  -27.8695  -30.4311   23.9238 H   0  0  0  0  0  0
  -27.2826  -33.3676   26.1855 H   0  0  0  0  0  0
  -28.3998  -32.6571   25.0289 H   0  0  0  0  0  0
  -28.0614  -31.8414   26.5480 H   0  0  0  0  0  0
  -28.2561  -38.0123   24.7555 H   0  0  0  0  0  0
  -28.1104  -36.2645   24.6218 H   0  0  0  0  0  0
  -27.2295  -37.1352   25.8859 H   0  0  0  0  0  0
  -20.9412  -29.8706   21.6851 H   0  0  0  0  0  0
  -26.0152  -38.2813   24.1466 H   0  0  0  0  0  0
  -32.1391  -16.8429   21.7535 H   0  0  0  0  0  0
  -32.8467  -19.1654   21.9877 H   0  0  0  0  0  0
  -27.2672  -18.0501   20.5968 H   0  0  0  0  0  0
  -28.0385  -17.1061   19.3249 H   0  0  0  0  0  0
  -27.7284  -18.7910   19.0553 H   0  0  0  0  0  0
  -27.9733  -20.8138   19.7502 H   0  0  0  0  0  0
  -29.4612  -21.3107   19.0167 H   0  0  0  0  0  0
  -29.7037  -23.9780   19.5221 H   0  0  0  0  0  0
  -28.0672  -23.5767   19.1087 H   0  0  0  0  0  0
  -28.7815  -25.1211   21.6698 H   0  0  0  0  0  0
  -27.1881  -24.8958   21.0604 H   0  0  0  0  0  0
  -28.8681  -15.6611   20.7983 H   0  0  0  0  0  0
  -29.7271  -22.5065   21.3023 H   0  0  0  0  0  0
  -28.1174  -22.3328   21.3809 H   0  0  0  0  0  0
  1 25  1  0  0  0
  1 30  2  0  0  0
  1 81  1  0  0  0
  2  3  1  0  0  0
  2 25  1  0  0  0
  2 84  1  0  0  0
  2 85  1  0  0  0
  3  4  1  0  0  0
  3 86  1  0  0  0
  3 87  1  0  0  0
  4  5  1  0  0  0
  4 88  1  0  0  0
  4 89  1  0  0  0
  5  6  1  0  0  0
  5 26  1  0  0  0
  5 90  1  0  0  0
  6 25  1  0  0  0
  6 91  1  0  0  0
  6 92  1  0  0  0
  7  8  2  0  0  0
  7 26  1  0  0  0
  7 29  1  0  0  0
  8  9  1  0  0  0
  8 22  1  0  0  0
  9 10  1  0  0  0
  9 27  2  0  0  0
 10 11  2  0  0  0
 10 15  1  0  0  0
 11 12  1  0  0  0
 11 93  1  0  0  0
 12 13  2  0  0  0
 12 94  1  0  0  0
 13 14  1  0  0  0
 13 31  1  0  0  0
 14 15  2  0  0  0
 14 95  1  0  0  0
 15 96  1  0  0  0
 16 17  2  0  0  0
 16 21  1  0  0  0
 16 31  1  0  0  0
 17 18  1  0  0  0
 17 97  1  0  0  0
 18 19  2  0  0  0
 18 98  1  0  0  0
 19 20  1  0  0  0
 19 24  1  0  0  0
 20 21  2  0  0  0
 20 99  1  0  0  0
 21 23  1  0  0  0
 22 28  1  0  0  0
 22 32  2  0  0  0
 26 27  1  0  0  0
 28100  1  0  0  0
 28101  1  0  0  0
 29102  1  0  0  0
 29103  1  0  0  0
 33 34  1  0  0  0
 33 66  1  0  0  0
 33 70  2  0  0  0
 34 36  1  0  0  0
 34 59  1  0  0  0
 34104  1  0  0  0
 35 44  2  0  0  0
 35 45  1  0  0  0
 35 68  1  0  0  0
 36 56  1  0  0  0
 36105  1  0  0  0
 37 39  1  0  0  0
 37 47  1  0  0  0
 37 66  1  0  0  0
 37106  1  0  0  0
 38 43  2  0  0  0
 38 46  1  0  0  0
 38 47  1  0  0  0
 39 64  1  0  0  0
 39 67  2  0  0  0
 40 52  1  0  0  0
 40 53  2  0  0  0
 40 58  1  0  0  0
 41107  1  0  0  0
 41108  1  0  0  0
 41109  1  0  0  0
 41 48  1  0  0  0
 42 43  1  0  0  0
 42 66  1  0  0  0
 42110  1  0  0  0
 42111  1  0  0  0
 43 44  1  0  0  0
 44112  1  0  0  0
 45 46  2  0  0  0
 45113  1  0  0  0
 46114  1  0  0  0
 47115  1  0  0  0
 47116  1  0  0  0
 48 56  1  0  0  0
 48 65  1  0  0  0
 48117  1  0  0  0
 49 50  1  0  0  0
 49 53  1  0  0  0
 49 64  1  0  0  0
 49118  1  0  0  0
 50 51  1  0  0  0
 50119  1  0  0  0
 50120  1  0  0  0
 51 52  1  0  0  0
 51121  1  0  0  0
 51122  1  0  0  0
 52123  1  0  0  0
 52124  1  0  0  0
 53 54  1  0  0  0
 54 55  2  0  0  0
 54125  1  0  0  0
 55 57  1  0  0  0
 55126  1  0  0  0
 56 69  2  0  0  0
 57 58  2  0  0  0
 57127  1  0  0  0
 58128  1  0  0  0
 59 60  1  0  0  0
 59 61  1  0  0  0
 59 62  1  0  0  0
 60129  1  0  0  0
 60130  1  0  0  0
 60131  1  0  0  0
 61132  1  0  0  0
 61133  1  0  0  0
 61134  1  0  0  0
 62135  1  0  0  0
 62136  1  0  0  0
 62137  1  0  0  0
 63 65  1  0  0  0
 63138  1  0  0  0
 63139  1  0  0  0
 63140  1  0  0  0
 64141  1  0  0  0
 65142  1  0  0  0
 68 80  1  0  0  0
 71 72  2  0  0  0
 71 75  1  0  0  0
 71143  1  0  0  0
 72 76  1  0  0  0
 72144  1  0  0  0
 73 74  1  0  0  0
 73 75  2  0  0  0
 73 77  1  0  0  0
 74 76  2  0  0  0
 74 78  1  0  0  0
 75 81  1  0  0  0
 76 83  1  0  0  0
 77145  1  0  0  0
 77146  1  0  0  0
 77147  1  0  0  0
 78 82  1  0  0  0
 78148  1  0  0  0
 78149  1  0  0  0
 79 80  1  0  0  0
 79 82  1  0  0  0
 79150  1  0  0  0
 79151  1  0  0  0
 80152  1  0  0  0
 80153  1  0  0  0
 81154  1  0  0  0
 82155  1  0  0  0
 82156  1  0  0  0
M  CHG  1  82   1
M  ISO  4   1 100  68 101  80 101  81 100
M  END
> <chiral flag>
0

> <version>
0

> <s_m_source_file>
/data/baiqing/PycharmProjects/Reinvent-master-3.2/result/LINK_invent/BTK/process_docking_weight1_custom_product_contain_oxygen_bond_distance_aromatic_linkinvent_7_9_3/rearranged_h_0036.sdf

> <i_m_source_file_index>
52

> <r_mmod_Potential_Energy-OPLS-2005>
-40.938289642334

> <r_mmod_Stretch_Energy-OPLS-2005>
121.628639221191

> <r_mmod_Bend_Energy-OPLS-2005>
154.050643920898

> <r_mmod_Torsional_Energy-OPLS-2005>
238.62141418457

> <r_mmod_Improper_Torsional_Energy-OPLS-2005>
6.60172033309937

> <r_mmod_Van_der_Waal_Energy-OPLS-2005>
140.758010864258

> <r_mmod_Electrostatic_Energy-OPLS-2005>
-319.163818359375

> <r_mmod_Solvation_Energy-OPLS-2005>
-454.901824951172

> <b_mmod_Minimization_Converged-OPLS-2005>
0

> <r_mmod_RMS_Derivative-OPLS-2005>
3.06791853904724

$$$$
52
                    3D
 Structure written by MMmdl.
173182  0  0  1  0            999 V2000
  -30.6947  -14.5295   20.4435 C   0  0  0  0  0  0
  -30.4113  -12.3055   19.4382 C   0  0  0  0  0  0
  -29.4688  -12.4188   18.2151 C   0  0  0  0  0  0
  -28.0052  -12.2810   18.6504 C   0  0  0  0  0  0
  -27.6461  -13.1990   19.8473 C   0  0  2  0  0  0
  -28.6914  -13.0751   20.9773 C   0  0  0  0  0  0
  -25.2556  -13.8157   20.5635 C   0  0  0  0  0  0
  -24.1793  -13.0439   20.9156 C   0  0  0  0  0  0
  -24.6331  -11.6916   20.8731 C   0  0  0  0  0  0
  -23.9007  -10.4302   21.0411 C   0  0  0  0  0  0
  -24.3582   -9.4221   21.9182 C   0  0  0  0  0  0
  -23.6297   -8.2226   22.0715 C   0  0  0  0  0  0
  -22.4285   -8.0254   21.3507 C   0  0  0  0  0  0
  -21.9911   -9.0215   20.4597 C   0  0  0  0  0  0
  -22.7203  -10.2118   20.3039 C   0  0  0  0  0  0
  -21.6852   -6.0733   22.5296 C   0  0  0  0  0  0
  -21.4009   -6.5631   23.8227 C   0  0  0  0  0  0
  -21.3673   -5.6762   24.9185 C   0  0  0  0  0  0
  -21.6058   -4.3034   24.7212 C   0  0  0  0  0  0
  -21.8831   -3.8132   23.4337 C   0  0  0  0  0  0
  -21.9187   -4.6970   22.3396 C   0  0  0  0  0  0
  -22.7838  -13.5260   21.1849 C   0  0  0  0  0  0
  -22.1660   -4.2155   21.0976 F   0  0  0  0  0  0
  -21.5644   -3.4514   25.7732 F   0  0  0  0  0  0
  -30.0205  -13.3450   20.4053 N   0  0  0  0  0  0
  -26.2942  -12.9293   20.3290 N   0  0  0  0  0  0
  -25.9246  -11.6468   20.5778 N   0  0  0  0  0  0
  -22.0472  -12.8247   22.0404 N   0  0  0  0  0  0
  -25.4365  -15.1846   20.4020 N   0  0  0  0  0  0
  -31.8962  -14.6167   20.1878 O   0  0  0  0  0  0
  -21.6619   -6.8881   21.4245 O   0  0  0  0  0  0
  -22.3549  -14.5581   20.6726 O   0  0  0  0  0  0
  -24.6177  -31.8668   23.2045 C   0  0  0  0  0  0
  -25.9054  -32.4825   23.8359 C   0  0  1  0  0  0
  -27.2205  -27.4053   20.1022 C   0  0  0  0  0  0
  -25.5905  -33.8621   24.2296 N   0  0  0  0  0  0
  -23.4085  -30.4884   21.5452 C   0  0  2  0  0  0
  -24.8559  -28.9533   20.1135 C   0  0  0  0  0  0
  -22.7442  -29.4645   22.4953 C   0  0  0  0  0  0
  -18.0275  -28.1409   22.8512 C   0  0  0  0  0  0
  -24.1478  -36.7291   23.2636 C   0  0  0  0  0  0
  -25.9391  -30.8261   21.3591 C   0  0  0  0  0  0
  -26.0179  -29.4539   20.7170 C   0  0  0  0  0  0
  -27.2078  -28.6814   20.7181 C   0  0  0  0  0  0
  -26.0522  -26.9413   19.4675 C   0  0  0  0  0  0
  -24.8685  -27.6970   19.4863 C   0  0  0  0  0  0
  -23.6179  -29.8182   20.1614 C   0  0  0  0  0  0
  -25.4111  -36.3104   24.0327 C   0  0  1  0  0  0
  -20.5872  -28.3683   23.1340 C   0  0  2  0  0  0
  -20.6763  -26.9421   22.5427 C   0  0  0  0  0  0
  -19.5733  -26.6397   21.5236 C   0  0  0  0  0  0
  -18.1909  -26.7957   22.1640 C   0  0  0  0  0  0
  -19.1529  -28.8854   23.2921 C   0  0  0  0  0  0
  -18.9454  -30.1464   23.8934 C   0  0  0  0  0  0
  -17.6463  -30.6618   24.0568 C   0  0  0  0  0  0
  -25.9050  -34.9481   23.5107 C   0  0  0  0  0  0
  -16.5351  -29.9135   23.6331 C   0  0  0  0  0  0
  -16.7263  -28.6545   23.0359 C   0  0  0  0  0  0
  -26.4451  -31.6623   25.0705 C   0  0  0  0  0  0
  -25.3678  -31.3763   26.1423 C   0  0  0  0  0  0
  -27.0274  -30.3078   24.6056 C   0  0  0  0  0  0
  -27.6010  -32.4321   25.7518 C   0  0  0  0  0  0
  -27.5581  -37.1796   24.8467 C   0  0  0  0  0  0
  -21.4154  -29.3066   22.3750 N   0  0  0  0  0  0
  -26.4285  -37.3808   23.9423 N   0  0  0  0  0  0
  -24.6744  -31.0745   22.0953 N   0  0  0  0  0  0
  -23.4220  -28.8153   23.2951 O   0  0  0  0  0  0
  -28.3198  -26.5743   20.1309 O   0  0  0  0  0  0
  -26.5611  -34.8944   22.4666 O   0  0  0  0  0  0
  -23.5358  -32.1411   23.7417 O   0  0  0  0  0  0
  -29.4565  -18.0353   20.4150 C   0  0  0  0  0  0
  -29.3033  -19.2971   19.7714 C   0  0  0  0  0  0
  -29.6768  -19.3862   18.4039 C   0  0  0  0  0  0
  -30.3597  -18.3123   17.7837 C   0  0  0  0  0  0
  -30.5055  -17.0571   18.4379 C   0  0  0  0  0  0
  -30.0125  -16.8926   19.7775 C   0  0  0  0  0  0
  -28.3591  -23.1020   20.3977 C   0  0  0  0  0  0
  -27.1800  -23.2093   19.7404 C   0  0  0  0  0  0
  -31.2986  -23.2425   20.7938 C   0  0  0  0  0  0
  -30.4650  -24.4985   20.5191 C   0  0  0  0  0  0
  -30.6421  -22.0103   20.1349 C   0  0  0  0  0  0
  -29.0559  -24.2983   21.0884 C   0  0  1  0  0  0
  -29.2936  -20.5780   17.5359 C   0  0  0  0  0  0
  -30.9092  -18.5003   16.3639 C   0  0  0  0  0  0
  -31.1502  -15.9381   17.6188 C   0  0  0  0  0  0
  -28.6343  -20.4603   20.5668 C   0  0  0  0  0  0
  -28.2794  -25.6483   21.2380 C   0  0  0  0  0  0
  -29.9257  -15.6404   20.5103 N   0  0  0  0  0  0
  -29.2315  -21.8493   20.5946 N   0  3  2  0  0  0
  -26.2948  -22.0050   18.8706 Cl  0  0  0  0  0  0
  -31.4526  -12.3949   19.1245 H   0  0  0  0  0  0
  -30.3209  -11.3161   19.8941 H   0  0  0  0  0  0
  -29.7101  -11.6508   17.4779 H   0  0  0  0  0  0
  -29.5783  -13.3676   17.7023 H   0  0  0  0  0  0
  -27.8531  -11.2371   18.9267 H   0  0  0  0  0  0
  -27.3344  -12.4695   17.8113 H   0  0  0  0  0  0
  -27.6668  -14.2201   19.4665 H   0  0  0  0  0  0
  -28.6688  -12.0708   21.4020 H   0  0  0  0  0  0
  -28.4550  -13.7560   21.7958 H   0  0  0  0  0  0
  -25.2720   -9.5704   22.4761 H   0  0  0  0  0  0
  -24.0018   -7.4612   22.7420 H   0  0  0  0  0  0
  -21.0856   -8.8698   19.8911 H   0  0  0  0  0  0
  -22.3646  -10.9625   19.6133 H   0  0  0  0  0  0
  -21.2001   -7.6135   23.9755 H   0  0  0  0  0  0
  -21.1500   -6.0471   25.9094 H   0  0  0  0  0  0
  -22.0613   -2.7602   23.2797 H   0  0  0  0  0  0
  -22.4052  -11.9860   22.4709 H   0  0  0  0  0  0
  -21.1113  -13.1310   22.2668 H   0  0  0  0  0  0
  -24.6668  -15.8441   20.4559 H   0  0  0  0  0  0
  -26.3069  -15.6110   20.1102 H   0  0  0  0  0  0
  -26.7126  -32.5544   23.1129 H   0  0  0  0  0  0
  -25.0050  -33.9776   25.0434 H   0  0  0  0  0  0
  -22.6991  -31.3048   21.4005 H   0  0  0  0  0  0
  -23.3766  -35.9594   23.3288 H   0  0  0  0  0  0
  -24.3570  -36.8920   22.2054 H   0  0  0  0  0  0
  -23.7197  -37.6474   23.6659 H   0  0  0  0  0  0
  -26.0364  -31.5808   20.5764 H   0  0  0  0  0  0
  -26.8351  -30.8996   21.9641 H   0  0  0  0  0  0
  -28.1037  -29.0472   21.2007 H   0  0  0  0  0  0
  -26.0435  -25.9909   18.9572 H   0  0  0  0  0  0
  -23.9790  -27.3114   19.0079 H   0  0  0  0  0  0
  -23.7236  -30.5860   19.3945 H   0  0  0  0  0  0
  -22.7453  -29.2302   19.8713 H   0  0  0  0  0  0
  -25.1290  -36.1946   25.0818 H   0  0  0  0  0  0
  -20.9973  -28.3223   24.1457 H   0  0  0  0  0  0
  -20.5691  -26.2276   23.3602 H   0  0  0  0  0  0
  -21.6619  -26.7475   22.1188 H   0  0  0  0  0  0
  -19.6877  -25.6306   21.1260 H   0  0  0  0  0  0
  -19.6686  -27.3206   20.6766 H   0  0  0  0  0  0
  -17.4187  -26.6740   21.4026 H   0  0  0  0  0  0
  -18.0286  -26.0106   22.9036 H   0  0  0  0  0  0
  -19.7932  -30.7256   24.2328 H   0  0  0  0  0  0
  -17.5035  -31.6314   24.5154 H   0  0  0  0  0  0
  -15.5354  -30.3052   23.7653 H   0  0  0  0  0  0
  -15.8657  -28.0883   22.7063 H   0  0  0  0  0  0
  -24.5838  -30.7134   25.7747 H   0  0  0  0  0  0
  -24.8867  -32.2941   26.4818 H   0  0  0  0  0  0
  -25.7979  -30.8956   27.0214 H   0  0  0  0  0  0
  -26.2825  -29.6888   24.1046 H   0  0  0  0  0  0
  -27.4008  -29.7273   25.4498 H   0  0  0  0  0  0
  -27.8664  -30.4433   23.9226 H   0  0  0  0  0  0
  -27.2613  -33.3593   26.2145 H   0  0  0  0  0  0
  -28.3839  -32.6923   25.0384 H   0  0  0  0  0  0
  -28.0652  -31.8401   26.5414 H   0  0  0  0  0  0
  -28.2572  -38.0123   24.7568 H   0  0  0  0  0  0
  -28.1098  -36.2655   24.6225 H   0  0  0  0  0  0
  -27.2301  -37.1362   25.8868 H   0  0  0  0  0  0
  -20.9292  -29.8881   21.7075 H   0  0  0  0  0  0
  -26.0163  -38.2866   24.1472 H   0  0  0  0  0  0
  -29.0880  -17.9296   21.4266 H   0  0  0  0  0  0
  -26.6884  -24.1636   19.7157 H   0  0  0  0  0  0
  -31.3904  -23.0926   21.8712 H   0  0  0  0  0  0
  -32.3147  -23.3865   20.4264 H   0  0  0  0  0  0
  -30.4127  -24.6833   19.4437 H   0  0  0  0  0  0
  -30.9332  -25.3766   20.9654 H   0  0  0  0  0  0
  -31.2351  -21.1229   20.3567 H   0  0  0  0  0  0
  -30.6801  -22.1620   19.0592 H   0  0  0  0  0  0
  -29.1762  -23.9613   22.1204 H   0  0  0  0  0  0
  -28.7904  -20.2258   16.6332 H   0  0  0  0  0  0
  -30.1673  -21.1482   17.2224 H   0  0  0  0  0  0
  -28.6096  -21.2556   18.0246 H   0  0  0  0  0  0
  -31.0807  -19.5406   16.0953 H   0  0  0  0  0  0
  -30.2143  -18.0795   15.6371 H   0  0  0  0  0  0
  -31.8819  -18.0241   16.2394 H   0  0  0  0  0  0
  -30.8560  -15.9743   16.5699 H   0  0  0  0  0  0
  -30.8670  -14.9463   17.9229 H   0  0  0  0  0  0
  -32.2377  -16.0072   17.6721 H   0  0  0  0  0  0
  -28.7007  -20.1747   21.6167 H   0  0  0  0  0  0
  -27.5641  -20.4510   20.3949 H   0  0  0  0  0  0
  -28.7426  -26.1841   22.0670 H   0  0  0  0  0  0
  -27.2613  -25.4466   21.5792 H   0  0  0  0  0  0
  -29.0742  -15.5154   21.0376 H   0  0  0  0  0  0
  -29.4028  -21.8542   21.5884 H   0  0  0  0  0  0
  1 25  1  0  0  0
  1 30  2  0  0  0
  1 88  1  0  0  0
  2  3  1  0  0  0
  2 25  1  0  0  0
  2 91  1  0  0  0
  2 92  1  0  0  0
  3  4  1  0  0  0
  3 93  1  0  0  0
  3 94  1  0  0  0
  4  5  1  0  0  0
  4 95  1  0  0  0
  4 96  1  0  0  0
  5  6  1  0  0  0
  5 26  1  0  0  0
  5 97  1  0  0  0
  6 25  1  0  0  0
  6 98  1  0  0  0
  6 99  1  0  0  0
  7  8  2  0  0  0
  7 26  1  0  0  0
  7 29  1  0  0  0
  8  9  1  0  0  0
  8 22  1  0  0  0
  9 10  1  0  0  0
  9 27  2  0  0  0
 10 11  2  0  0  0
 10 15  1  0  0  0
 11 12  1  0  0  0
 11100  1  0  0  0
 12 13  2  0  0  0
 12101  1  0  0  0
 13 14  1  0  0  0
 13 31  1  0  0  0
 14 15  2  0  0  0
 14102  1  0  0  0
 15103  1  0  0  0
 16 17  2  0  0  0
 16 21  1  0  0  0
 16 31  1  0  0  0
 17 18  1  0  0  0
 17104  1  0  0  0
 18 19  2  0  0  0
 18105  1  0  0  0
 19 20  1  0  0  0
 19 24  1  0  0  0
 20 21  2  0  0  0
 20106  1  0  0  0
 21 23  1  0  0  0
 22 28  1  0  0  0
 22 32  2  0  0  0
 26 27  1  0  0  0
 28107  1  0  0  0
 28108  1  0  0  0
 29109  1  0  0  0
 29110  1  0  0  0
 33 34  1  0  0  0
 33 66  1  0  0  0
 33 70  2  0  0  0
 34 36  1  0  0  0
 34 59  1  0  0  0
 34111  1  0  0  0
 35 44  2  0  0  0
 35 45  1  0  0  0
 35 68  1  0  0  0
 36 56  1  0  0  0
 36112  1  0  0  0
 37 39  1  0  0  0
 37 47  1  0  0  0
 37 66  1  0  0  0
 37113  1  0  0  0
 38 43  2  0  0  0
 38 46  1  0  0  0
 38 47  1  0  0  0
 39 64  1  0  0  0
 39 67  2  0  0  0
 40 52  1  0  0  0
 40 53  2  0  0  0
 40 58  1  0  0  0
 41114  1  0  0  0
 41115  1  0  0  0
 41116  1  0  0  0
 41 48  1  0  0  0
 42 43  1  0  0  0
 42 66  1  0  0  0
 42117  1  0  0  0
 42118  1  0  0  0
 43 44  1  0  0  0
 44119  1  0  0  0
 45 46  2  0  0  0
 45120  1  0  0  0
 46121  1  0  0  0
 47122  1  0  0  0
 47123  1  0  0  0
 48 56  1  0  0  0
 48 65  1  0  0  0
 48124  1  0  0  0
 49 50  1  0  0  0
 49 53  1  0  0  0
 49 64  1  0  0  0
 49125  1  0  0  0
 50 51  1  0  0  0
 50126  1  0  0  0
 50127  1  0  0  0
 51 52  1  0  0  0
 51128  1  0  0  0
 51129  1  0  0  0
 52130  1  0  0  0
 52131  1  0  0  0
 53 54  1  0  0  0
 54 55  2  0  0  0
 54132  1  0  0  0
 55 57  1  0  0  0
 55133  1  0  0  0
 56 69  2  0  0  0
 57 58  2  0  0  0
 57134  1  0  0  0
 58135  1  0  0  0
 59 60  1  0  0  0
 59 61  1  0  0  0
 59 62  1  0  0  0
 60136  1  0  0  0
 60137  1  0  0  0
 60138  1  0  0  0
 61139  1  0  0  0
 61140  1  0  0  0
 61141  1  0  0  0
 62142  1  0  0  0
 62143  1  0  0  0
 62144  1  0  0  0
 63 65  1  0  0  0
 63145  1  0  0  0
 63146  1  0  0  0
 63147  1  0  0  0
 64148  1  0  0  0
 65149  1  0  0  0
 68 87  1  0  0  0
 71 72  2  0  0  0
 71 76  1  0  0  0
 71150  1  0  0  0
 72 73  1  0  0  0
 72 86  1  0  0  0
 73 74  2  0  0  0
 73 83  1  0  0  0
 74 75  1  0  0  0
 74 84  1  0  0  0
 75 76  2  0  0  0
 75 85  1  0  0  0
 76 88  1  0  0  0
 77 78  2  0  0  0
 77 82  1  0  0  0
 77 89  1  0  0  0
 78 90  1  0  0  0
 78151  1  0  0  0
 79 80  1  0  0  0
 79 81  1  0  0  0
 79152  1  0  0  0
 79153  1  0  0  0
 80 82  1  0  0  0
 80154  1  0  0  0
 80155  1  0  0  0
 81 89  1  0  0  0
 81156  1  0  0  0
 81157  1  0  0  0
 82 87  1  0  0  0
 82158  1  0  0  0
 83159  1  0  0  0
 83160  1  0  0  0
 83161  1  0  0  0
 84162  1  0  0  0
 84163  1  0  0  0
 84164  1  0  0  0
 85165  1  0  0  0
 85166  1  0  0  0
 85167  1  0  0  0
 86168  1  0  0  0
 86169  1  0  0  0
 86 89  1  0  0  0
 87170  1  0  0  0
 87171  1  0  0  0
 88172  1  0  0  0
 89173  1  0  0  0
M  CHG  1  89   1
M  ISO  4   1 100  68 101  87 101  88 100
M  END
> <chiral flag>
0

> <version>
0

> <s_m_source_file>
/data/baiqing/PycharmProjects/Reinvent-master-3.2/result/LINK_invent/BTK/process_docking_weight1_custom_product_contain_oxygen_bond_distance_aromatic_linkinvent_7_9_3/rearranged_h_0036.sdf

> <i_m_source_file_index>
53

> <r_mmod_Potential_Energy-OPLS-2005>
-5.56963300704956

> <r_mmod_Stretch_Energy-OPLS-2005>
60.9854774475098

> <r_mmod_Bend_Energy-OPLS-2005>
179.588027954102

> <r_mmod_Torsional_Energy-OPLS-2005>
301.659149169922

> <r_mmod_Improper_Torsional_Energy-OPLS-2005>
7.40242767333984

> <r_mmod_Van_der_Waal_Energy-OPLS-2005>
181.150772094727

> <r_mmod_Electrostatic_Energy-OPLS-2005>
-334.345855712891

> <r_mmod_Solvation_Energy-OPLS-2005>
-434.369506835938

> <b_mmod_Minimization_Converged-OPLS-2005>
0

> <r_mmod_RMS_Derivative-OPLS-2005>
4.33019399642944

$$$$
53
                    3D
 Structure written by MMmdl.
170179  0  0  1  0            999 V2000
  -30.6071  -14.6459   20.5070 C   0  0  0  0  0  0
  -30.4417  -12.3949   19.4562 C   0  0  0  0  0  0
  -29.5126  -12.5186   18.2271 C   0  0  0  0  0  0
  -28.0327  -12.3585   18.6318 C   0  0  0  0  0  0
  -27.6564  -13.2181   19.8683 C   0  0  2  0  0  0
  -28.6998  -13.0564   20.9976 C   0  0  0  0  0  0
  -25.2566  -13.8174   20.5689 C   0  0  0  0  0  0
  -24.1827  -13.0440   20.9179 C   0  0  0  0  0  0
  -24.6395  -11.6911   20.8732 C   0  0  0  0  0  0
  -23.9057  -10.4298   21.0406 C   0  0  0  0  0  0
  -24.3609   -9.4213   21.9187 C   0  0  0  0  0  0
  -23.6295   -8.2241   22.0756 C   0  0  0  0  0  0
  -22.4280   -8.0278   21.3544 C   0  0  0  0  0  0
  -21.9909   -9.0249   20.4645 C   0  0  0  0  0  0
  -22.7229  -10.2133   20.3053 C   0  0  0  0  0  0
  -21.6848   -6.0736   22.5284 C   0  0  0  0  0  0
  -21.4012   -6.5638   23.8219 C   0  0  0  0  0  0
  -21.3661   -5.6787   24.9179 C   0  0  0  0  0  0
  -21.6050   -4.3049   24.7223 C   0  0  0  0  0  0
  -21.8821   -3.8143   23.4339 C   0  0  0  0  0  0
  -21.9186   -4.6965   22.3399 C   0  0  0  0  0  0
  -22.7848  -13.5235   21.1842 C   0  0  0  0  0  0
  -22.1658   -4.2150   21.0978 F   0  0  0  0  0  0
  -21.5636   -3.4532   25.7733 F   0  0  0  0  0  0
  -30.0174  -13.4080   20.4432 N   0  0  0  0  0  0
  -26.3000  -12.9354   20.3332 N   0  0  0  0  0  0
  -25.9323  -11.6504   20.5747 N   0  0  0  0  0  0
  -22.0466  -12.8244   22.0389 N   0  0  0  0  0  0
  -25.4279  -15.1899   20.4135 N   0  0  0  0  0  0
  -31.7562  -14.8309   20.0949 O   0  0  0  0  0  0
  -21.6639   -6.8881   21.4247 O   0  0  0  0  0  0
  -22.3543  -14.5544   20.6696 O   0  0  0  0  0  0
  -24.6244  -31.8600   23.2019 C   0  0  0  0  0  0
  -25.9091  -32.4784   23.8348 C   0  0  1  0  0  0
  -27.2319  -27.3308   20.1170 C   0  0  0  0  0  0
  -25.5903  -33.8588   24.2275 N   0  0  0  0  0  0
  -23.4181  -30.4804   21.5453 C   0  0  2  0  0  0
  -24.8661  -28.9300   20.1172 C   0  0  0  0  0  0
  -22.7463  -29.4614   22.4959 C   0  0  0  0  0  0
  -18.0279  -28.1382   22.8488 C   0  0  0  0  0  0
  -24.1486  -36.7302   23.2638 C   0  0  0  0  0  0
  -25.9577  -30.7936   21.3707 C   0  0  0  0  0  0
  -26.0346  -29.4199   20.7154 C   0  0  0  0  0  0
  -27.2227  -28.6335   20.7006 C   0  0  0  0  0  0
  -26.0434  -26.8840   19.5021 C   0  0  0  0  0  0
  -24.8714  -27.6666   19.5019 C   0  0  0  0  0  0
  -23.6323  -29.8092   20.1632 C   0  0  0  0  0  0
  -25.4113  -36.3094   24.0328 C   0  0  1  0  0  0
  -20.5875  -28.3676   23.1299 C   0  0  2  0  0  0
  -20.6770  -26.9404   22.5415 C   0  0  0  0  0  0
  -19.5746  -26.6379   21.5217 C   0  0  0  0  0  0
  -18.1922  -26.7926   22.1622 C   0  0  0  0  0  0
  -19.1530  -28.8846   23.2891 C   0  0  0  0  0  0
  -18.9451  -30.1449   23.8902 C   0  0  0  0  0  0
  -17.6453  -30.6587   24.0551 C   0  0  0  0  0  0
  -25.9052  -34.9459   23.5108 C   0  0  0  0  0  0
  -16.5346  -29.9078   23.6327 C   0  0  0  0  0  0
  -16.7266  -28.6495   23.0350 C   0  0  0  0  0  0
  -26.4473  -31.6582   25.0715 C   0  0  0  0  0  0
  -25.3698  -31.3712   26.1434 C   0  0  0  0  0  0
  -27.0307  -30.3003   24.6160 C   0  0  0  0  0  0
  -27.6037  -32.4304   25.7488 C   0  0  0  0  0  0
  -27.5590  -37.1802   24.8458 C   0  0  0  0  0  0
  -21.4178  -29.3031   22.3697 N   0  0  0  0  0  0
  -26.4294  -37.3787   23.9413 N   0  0  0  0  0  0
  -24.6855  -31.0611   22.0966 N   0  0  0  0  0  0
  -23.4192  -28.8166   23.3043 O   0  0  0  0  0  0
  -28.3667  -26.5125   20.0933 O   0  0  0  0  0  0
  -26.5633  -34.8923   22.4682 O   0  0  0  0  0  0
  -23.5409  -32.1394   23.7354 O   0  0  0  0  0  0
  -29.1206  -19.3576   21.5946 C   0  0  0  0  0  0
  -29.1524  -19.9887   20.3262 C   0  0  0  0  0  0
  -29.4164  -17.9760   21.7811 C   0  0  0  0  0  0
  -29.5647  -19.1579   19.2352 C   0  0  0  0  0  0
  -29.8155  -17.7448   19.4047 C   0  0  0  0  0  0
  -29.7519  -17.1193   20.6928 C   0  0  0  0  0  0
  -28.8630  -24.0131   19.6256 C   0  0  0  0  0  0
  -29.0231  -24.1885   18.3021 C   0  0  0  0  0  0
  -29.0822  -23.7045   22.5414 C   0  0  0  0  0  0
  -28.9010  -25.1160   21.9713 C   0  0  0  0  0  0
  -29.9813  -22.8683   21.6200 C   0  0  0  0  0  0
  -28.2621  -25.1144   20.5736 C   0  0  1  0  0  0
  -29.3052  -17.4080   23.1855 C   0  0  0  0  0  0
  -29.6711  -19.7762   17.8431 C   0  0  0  0  0  0
  -30.0609  -16.8810   18.1695 C   0  0  0  0  0  0
  -28.5381  -21.4436   20.1444 C   0  0  0  0  0  0
  -29.7957  -15.6676   20.9324 N   0  0  0  0  0  0
  -29.3886  -22.6953   20.2723 N   0  3  1  0  0  0
  -31.4847  -12.5206   19.1598 H   0  0  0  0  0  0
  -30.3749  -11.3959   19.8893 H   0  0  0  0  0  0
  -29.7776  -11.7724   17.4775 H   0  0  0  0  0  0
  -29.6579  -13.4904   17.7534 H   0  0  0  0  0  0
  -27.8616  -11.3041   18.8502 H   0  0  0  0  0  0
  -27.3818  -12.6037   17.7917 H   0  0  0  0  0  0
  -27.6786  -14.2576   19.5382 H   0  0  0  0  0  0
  -28.7100  -12.0292   21.3652 H   0  0  0  0  0  0
  -28.4416  -13.6726   21.8598 H   0  0  0  0  0  0
  -25.2747   -9.5705   22.4761 H   0  0  0  0  0  0
  -24.0006   -7.4633   22.7475 H   0  0  0  0  0  0
  -21.0836   -8.8763   19.8951 H   0  0  0  0  0  0
  -22.3682  -10.9671   19.6161 H   0  0  0  0  0  0
  -21.2000   -7.6149   23.9725 H   0  0  0  0  0  0
  -21.1491   -6.0516   25.9090 H   0  0  0  0  0  0
  -22.0596   -2.7607   23.2829 H   0  0  0  0  0  0
  -22.4061  -11.9906   22.4794 H   0  0  0  0  0  0
  -21.1094  -13.1314   22.2582 H   0  0  0  0  0  0
  -24.6635  -15.8458   20.5298 H   0  0  0  0  0  0
  -26.2842  -15.6325   20.1039 H   0  0  0  0  0  0
  -26.7166  -32.5457   23.1107 H   0  0  0  0  0  0
  -25.0003  -33.9728   25.0385 H   0  0  0  0  0  0
  -22.7117  -31.3004   21.4006 H   0  0  0  0  0  0
  -23.3762  -35.9620   23.3280 H   0  0  0  0  0  0
  -24.3579  -36.8945   22.2055 H   0  0  0  0  0  0
  -23.7218  -37.6490   23.6674 H   0  0  0  0  0  0
  -26.0853  -31.5575   20.6030 H   0  0  0  0  0  0
  -26.8399  -30.8447   21.9974 H   0  0  0  0  0  0
  -28.1252  -29.0120   21.1607 H   0  0  0  0  0  0
  -26.0178  -25.9195   19.0156 H   0  0  0  0  0  0
  -23.9772  -27.2856   19.0276 H   0  0  0  0  0  0
  -23.7479  -30.5820   19.4021 H   0  0  0  0  0  0
  -22.7538  -29.2340   19.8658 H   0  0  0  0  0  0
  -25.1286  -36.1949   25.0822 H   0  0  0  0  0  0
  -20.9968  -28.3245   24.1419 H   0  0  0  0  0  0
  -20.5678  -26.2285   23.3608 H   0  0  0  0  0  0
  -21.6640  -26.7441   22.1204 H   0  0  0  0  0  0
  -19.6905  -25.6287   21.1244 H   0  0  0  0  0  0
  -19.6686  -27.3196   20.6750 H   0  0  0  0  0  0
  -17.4197  -26.6679   21.4017 H   0  0  0  0  0  0
  -18.0314  -26.0068   22.9016 H   0  0  0  0  0  0
  -19.7929  -30.7256   24.2283 H   0  0  0  0  0  0
  -17.5007  -31.6272   24.5142 H   0  0  0  0  0  0
  -15.5345  -30.2973   23.7658 H   0  0  0  0  0  0
  -15.8668  -28.0811   22.7063 H   0  0  0  0  0  0
  -24.5867  -30.7081   25.7740 H   0  0  0  0  0  0
  -24.8894  -32.2875   26.4875 H   0  0  0  0  0  0
  -25.8002  -30.8859   27.0202 H   0  0  0  0  0  0
  -26.2876  -29.6770   24.1177 H   0  0  0  0  0  0
  -27.3988  -29.7245   25.4663 H   0  0  0  0  0  0
  -27.8753  -30.4282   23.9386 H   0  0  0  0  0  0
  -27.2648  -33.3591   26.2090 H   0  0  0  0  0  0
  -28.3837  -32.6881   25.0313 H   0  0  0  0  0  0
  -28.0721  -31.8412   26.5383 H   0  0  0  0  0  0
  -28.2584  -38.0126   24.7550 H   0  0  0  0  0  0
  -28.1110  -36.2657   24.6227 H   0  0  0  0  0  0
  -27.2316  -37.1383   25.8862 H   0  0  0  0  0  0
  -20.9359  -29.8738   21.6891 H   0  0  0  0  0  0
  -26.0177  -38.2863   24.1429 H   0  0  0  0  0  0
  -28.8005  -19.9365   22.4510 H   0  0  0  0  0  0
  -28.7042  -25.1054   17.8265 H   0  0  0  0  0  0
  -29.4699  -23.4352   17.6687 H   0  0  0  0  0  0
  -28.1163  -23.2185   22.6820 H   0  0  0  0  0  0
  -29.5393  -23.7713   23.5289 H   0  0  0  0  0  0
  -29.8728  -25.6095   21.9192 H   0  0  0  0  0  0
  -28.2932  -25.7165   22.6493 H   0  0  0  0  0  0
  -30.2127  -21.9062   22.0750 H   0  0  0  0  0  0
  -30.9416  -23.3717   21.4999 H   0  0  0  0  0  0
  -27.2152  -24.8354   20.6972 H   0  0  0  0  0  0
  -29.2673  -18.2009   23.9333 H   0  0  0  0  0  0
  -30.1658  -16.7804   23.4196 H   0  0  0  0  0  0
  -28.3996  -16.8094   23.2852 H   0  0  0  0  0  0
  -29.8770  -20.8447   17.8756 H   0  0  0  0  0  0
  -28.7455  -19.6225   17.2879 H   0  0  0  0  0  0
  -30.4922  -19.3414   17.2737 H   0  0  0  0  0  0
  -29.5478  -17.2623   17.2883 H   0  0  0  0  0  0
  -29.6749  -15.8725   18.2946 H   0  0  0  0  0  0
  -31.1268  -16.8186   17.9513 H   0  0  0  0  0  0
  -27.7057  -21.5411   20.8418 H   0  0  0  0  0  0
  -28.0581  -21.4765   19.1661 H   0  0  0  0  0  0
  -28.9896  -15.3215   21.4295 H   0  0  0  0  0  0
  -30.1969  -22.4377   19.7268 H   0  0  0  0  0  0
  1 25  1  0  0  0
  1 30  2  0  0  0
  1 87  1  0  0  0
  2  3  1  0  0  0
  2 25  1  0  0  0
  2 89  1  0  0  0
  2 90  1  0  0  0
  3  4  1  0  0  0
  3 91  1  0  0  0
  3 92  1  0  0  0
  4  5  1  0  0  0
  4 93  1  0  0  0
  4 94  1  0  0  0
  5  6  1  0  0  0
  5 26  1  0  0  0
  5 95  1  0  0  0
  6 25  1  0  0  0
  6 96  1  0  0  0
  6 97  1  0  0  0
  7  8  2  0  0  0
  7 26  1  0  0  0
  7 29  1  0  0  0
  8  9  1  0  0  0
  8 22  1  0  0  0
  9 10  1  0  0  0
  9 27  2  0  0  0
 10 11  2  0  0  0
 10 15  1  0  0  0
 11 12  1  0  0  0
 11 98  1  0  0  0
 12 13  2  0  0  0
 12 99  1  0  0  0
 13 14  1  0  0  0
 13 31  1  0  0  0
 14 15  2  0  0  0
 14100  1  0  0  0
 15101  1  0  0  0
 16 17  2  0  0  0
 16 21  1  0  0  0
 16 31  1  0  0  0
 17 18  1  0  0  0
 17102  1  0  0  0
 18 19  2  0  0  0
 18103  1  0  0  0
 19 20  1  0  0  0
 19 24  1  0  0  0
 20 21  2  0  0  0
 20104  1  0  0  0
 21 23  1  0  0  0
 22 28  1  0  0  0
 22 32  2  0  0  0
 26 27  1  0  0  0
 28105  1  0  0  0
 28106  1  0  0  0
 29107  1  0  0  0
 29108  1  0  0  0
 33 34  1  0  0  0
 33 66  1  0  0  0
 33 70  2  0  0  0
 34 36  1  0  0  0
 34 59  1  0  0  0
 34109  1  0  0  0
 35 44  2  0  0  0
 35 45  1  0  0  0
 35 68  1  0  0  0
 36 56  1  0  0  0
 36110  1  0  0  0
 37 39  1  0  0  0
 37 47  1  0  0  0
 37 66  1  0  0  0
 37111  1  0  0  0
 38 43  2  0  0  0
 38 46  1  0  0  0
 38 47  1  0  0  0
 39 64  1  0  0  0
 39 67  2  0  0  0
 40 52  1  0  0  0
 40 53  2  0  0  0
 40 58  1  0  0  0
 41112  1  0  0  0
 41113  1  0  0  0
 41114  1  0  0  0
 41 48  1  0  0  0
 42 43  1  0  0  0
 42 66  1  0  0  0
 42115  1  0  0  0
 42116  1  0  0  0
 43 44  1  0  0  0
 44117  1  0  0  0
 45 46  2  0  0  0
 45118  1  0  0  0
 46119  1  0  0  0
 47120  1  0  0  0
 47121  1  0  0  0
 48 56  1  0  0  0
 48 65  1  0  0  0
 48122  1  0  0  0
 49 50  1  0  0  0
 49 53  1  0  0  0
 49 64  1  0  0  0
 49123  1  0  0  0
 50 51  1  0  0  0
 50124  1  0  0  0
 50125  1  0  0  0
 51 52  1  0  0  0
 51126  1  0  0  0
 51127  1  0  0  0
 52128  1  0  0  0
 52129  1  0  0  0
 53 54  1  0  0  0
 54 55  2  0  0  0
 54130  1  0  0  0
 55 57  1  0  0  0
 55131  1  0  0  0
 56 69  2  0  0  0
 57 58  2  0  0  0
 57132  1  0  0  0
 58133  1  0  0  0
 59 60  1  0  0  0
 59 61  1  0  0  0
 59 62  1  0  0  0
 60134  1  0  0  0
 60135  1  0  0  0
 60136  1  0  0  0
 61137  1  0  0  0
 61138  1  0  0  0
 61139  1  0  0  0
 62140  1  0  0  0
 62141  1  0  0  0
 62142  1  0  0  0
 63 65  1  0  0  0
 63143  1  0  0  0
 63144  1  0  0  0
 63145  1  0  0  0
 64146  1  0  0  0
 65147  1  0  0  0
 68 82  1  0  0  0
 71 72  2  0  0  0
 71 73  1  0  0  0
 71148  1  0  0  0
 72 74  1  0  0  0
 72 86  1  0  0  0
 73 76  2  0  0  0
 73 83  1  0  0  0
 74 75  2  0  0  0
 74 84  1  0  0  0
 75 76  1  0  0  0
 75 85  1  0  0  0
 76 87  1  0  0  0
 77 78  2  0  0  0
 77 82  1  0  0  0
 77 88  1  0  0  0
 78149  1  0  0  0
 78150  1  0  0  0
 79 80  1  0  0  0
 79 81  1  0  0  0
 79151  1  0  0  0
 79152  1  0  0  0
 80 82  1  0  0  0
 80153  1  0  0  0
 80154  1  0  0  0
 81 88  1  0  0  0
 81155  1  0  0  0
 81156  1  0  0  0
 82157  1  0  0  0
 83158  1  0  0  0
 83159  1  0  0  0
 83160  1  0  0  0
 84161  1  0  0  0
 84162  1  0  0  0
 84163  1  0  0  0
 85164  1  0  0  0
 85165  1  0  0  0
 85166  1  0  0  0
 86167  1  0  0  0
 86168  1  0  0  0
 86 88  1  0  0  0
 87169  1  0  0  0
 88170  1  0  0  0
M  CHG  1  88   1
M  ISO  4   1 100  68 101  82 101  87 100
M  END
> <chiral flag>
0

> <version>
0

> <s_m_source_file>
/data/baiqing/PycharmProjects/Reinvent-master-3.2/result/LINK_invent/BTK/process_docking_weight1_custom_product_contain_oxygen_bond_distance_aromatic_linkinvent_7_9_3/rearranged_h_0036.sdf

> <i_m_source_file_index>
54

> <r_mmod_Potential_Energy-OPLS-2005>
-50.9735565185547

> <r_mmod_Stretch_Energy-OPLS-2005>
91.9795227050781

> <r_mmod_Bend_Energy-OPLS-2005>
155.404830932617

> <r_mmod_Torsional_Energy-OPLS-2005>
261.638885498047

> <r_mmod_Improper_Torsional_Energy-OPLS-2005>
5.84393072128296

> <r_mmod_Van_der_Waal_Energy-OPLS-2005>
142.384399414062

> <r_mmod_Electrostatic_Energy-OPLS-2005>
-324.982360839844

> <r_mmod_Solvation_Energy-OPLS-2005>
-427.394134521484

> <b_mmod_Minimization_Converged-OPLS-2005>
0

> <r_mmod_RMS_Derivative-OPLS-2005>
1.70737993717194

$$$$
54
                    3D
 Structure written by MMmdl.
166175  0  0  1  0            999 V2000
  -30.6378  -14.6440   20.5055 C   0  0  0  0  0  0
  -30.4416  -12.3958   19.4566 C   0  0  0  0  0  0
  -29.5126  -12.5055   18.2269 C   0  0  0  0  0  0
  -28.0367  -12.3431   18.6381 C   0  0  0  0  0  0
  -27.6560  -13.2190   19.8623 C   0  0  2  0  0  0
  -28.7009  -13.0810   20.9925 C   0  0  0  0  0  0
  -25.2598  -13.8205   20.5696 C   0  0  0  0  0  0
  -24.1857  -13.0478   20.9225 C   0  0  0  0  0  0
  -24.6405  -11.6942   20.8756 C   0  0  0  0  0  0
  -23.9069  -10.4324   21.0402 C   0  0  0  0  0  0
  -24.3613   -9.4242   21.9190 C   0  0  0  0  0  0
  -23.6289   -8.2279   22.0735 C   0  0  0  0  0  0
  -22.4275   -8.0318   21.3528 C   0  0  0  0  0  0
  -21.9907   -9.0295   20.4628 C   0  0  0  0  0  0
  -22.7236  -10.2181   20.3053 C   0  0  0  0  0  0
  -21.6858   -6.0744   22.5280 C   0  0  0  0  0  0
  -21.4048   -6.5642   23.8226 C   0  0  0  0  0  0
  -21.3643   -5.6781   24.9172 C   0  0  0  0  0  0
  -21.6021   -4.3045   24.7216 C   0  0  0  0  0  0
  -21.8817   -3.8145   23.4344 C   0  0  0  0  0  0
  -21.9196   -4.6965   22.3398 C   0  0  0  0  0  0
  -22.7884  -13.5282   21.1864 C   0  0  0  0  0  0
  -22.1652   -4.2159   21.0970 F   0  0  0  0  0  0
  -21.5595   -3.4526   25.7725 F   0  0  0  0  0  0
  -30.0208  -13.4210   20.4320 N   0  0  0  0  0  0
  -26.3008  -12.9373   20.3303 N   0  0  0  0  0  0
  -25.9331  -11.6543   20.5747 N   0  0  0  0  0  0
  -22.0465  -12.8301   22.0384 N   0  0  0  0  0  0
  -25.4373  -15.1917   20.4075 N   0  0  0  0  0  0
  -31.7950  -14.8044   20.1037 O   0  0  0  0  0  0
  -21.6639   -6.8911   21.4249 O   0  0  0  0  0  0
  -22.3610  -14.5581   20.6679 O   0  0  0  0  0  0
  -24.6246  -31.8609   23.2032 C   0  0  0  0  0  0
  -25.9089  -32.4773   23.8361 C   0  0  1  0  0  0
  -27.2392  -27.3344   20.1107 C   0  0  0  0  0  0
  -25.5915  -33.8574   24.2275 N   0  0  0  0  0  0
  -23.4176  -30.4842   21.5478 C   0  0  2  0  0  0
  -24.8635  -28.9410   20.1190 C   0  0  0  0  0  0
  -22.7461  -29.4623   22.4954 C   0  0  0  0  0  0
  -18.0289  -28.1368   22.8478 C   0  0  0  0  0  0
  -24.1484  -36.7288   23.2627 C   0  0  0  0  0  0
  -25.9583  -30.7984   21.3712 C   0  0  0  0  0  0
  -26.0352  -29.4273   20.7129 C   0  0  0  0  0  0
  -27.2241  -28.6381   20.6950 C   0  0  0  0  0  0
  -26.0265  -26.8890   19.5258 C   0  0  0  0  0  0
  -24.8597  -27.6735   19.5242 C   0  0  0  0  0  0
  -23.6311  -29.8196   20.1643 C   0  0  0  0  0  0
  -25.4099  -36.3056   24.0322 C   0  0  1  0  0  0
  -20.5883  -28.3670   23.1274 C   0  0  2  0  0  0
  -20.6768  -26.9396   22.5392 C   0  0  0  0  0  0
  -19.5741  -26.6367   21.5194 C   0  0  0  0  0  0
  -18.1929  -26.7915   22.1618 C   0  0  0  0  0  0
  -19.1537  -28.8841   23.2871 C   0  0  0  0  0  0
  -18.9468  -30.1440   23.8889 C   0  0  0  0  0  0
  -17.6466  -30.6575   24.0557 C   0  0  0  0  0  0
  -25.9051  -34.9437   23.5104 C   0  0  0  0  0  0
  -16.5360  -29.9077   23.6320 C   0  0  0  0  0  0
  -16.7276  -28.6492   23.0358 C   0  0  0  0  0  0
  -26.4487  -31.6579   25.0721 C   0  0  0  0  0  0
  -25.3739  -31.3751   26.1472 C   0  0  0  0  0  0
  -27.0311  -30.2998   24.6156 C   0  0  0  0  0  0
  -27.6053  -32.4319   25.7469 C   0  0  0  0  0  0
  -27.5580  -37.1762   24.8434 C   0  0  0  0  0  0
  -21.4179  -29.3035   22.3681 N   0  0  0  0  0  0
  -26.4258  -37.3761   23.9427 N   0  0  0  0  0  0
  -24.6856  -31.0633   22.0990 N   0  0  0  0  0  0
  -23.4181  -28.8156   23.3030 O   0  0  0  0  0  0
  -28.3910  -26.5218   20.1356 O   0  0  0  0  0  0
  -26.5633  -34.8911   22.4672 O   0  0  0  0  0  0
  -23.5408  -32.1398   23.7382 O   0  0  0  0  0  0
  -30.8995  -19.2863   20.0052 C   0  0  0  0  0  0
  -30.8757  -17.8602   20.0419 C   0  0  0  0  0  0
  -30.0287  -20.0954   20.7892 C   0  0  0  0  0  0
  -29.1085  -19.3890   21.6181 C   0  0  0  0  0  0
  -29.0397  -17.9486   21.6095 C   0  0  0  0  0  0
  -29.9504  -17.1483   20.8507 C   0  0  0  0  0  0
  -27.7839  -23.2567   18.2633 C   0  0  0  0  0  0
  -28.2195  -24.7209   18.4274 C   0  0  0  0  0  0
  -28.8019  -22.2831   18.8888 C   0  0  0  0  0  0
  -29.3709  -24.0937   20.5398 C   0  0  0  0  0  0
  -28.2664  -25.0591   19.9288 C   0  0  1  0  0  0
  -28.2047  -20.1754   22.5639 C   0  0  0  0  0  0
  -27.9771  -17.2490   22.4580 C   0  0  0  0  0  0
  -30.2160  -21.6694   20.8261 C   0  0  0  0  0  0
  -29.8491  -15.6846   20.9174 N   0  0  0  0  0  0
  -29.1298  -22.5968   20.3066 N   0  3  2  0  0  0
  -31.4843  -12.5157   19.1556 H   0  0  0  0  0  0
  -30.3711  -11.4037   19.9061 H   0  0  0  0  0  0
  -29.7764  -11.7509   17.4840 H   0  0  0  0  0  0
  -29.6544  -13.4759   17.7453 H   0  0  0  0  0  0
  -27.8764  -11.2896   18.8760 H   0  0  0  0  0  0
  -27.3851  -12.5675   17.7936 H   0  0  0  0  0  0
  -27.6713  -14.2529   19.5173 H   0  0  0  0  0  0
  -28.7085  -12.0607   21.3789 H   0  0  0  0  0  0
  -28.4406  -13.7166   21.8411 H   0  0  0  0  0  0
  -25.2755   -9.5711   22.4789 H   0  0  0  0  0  0
  -23.9976   -7.4655   22.7444 H   0  0  0  0  0  0
  -21.0835   -8.8842   19.8928 H   0  0  0  0  0  0
  -22.3701  -10.9740   19.6177 H   0  0  0  0  0  0
  -21.2090   -7.6155   23.9753 H   0  0  0  0  0  0
  -21.1437   -6.0495   25.9076 H   0  0  0  0  0  0
  -22.0606   -2.7604   23.2849 H   0  0  0  0  0  0
  -22.4048  -11.9978   22.4827 H   0  0  0  0  0  0
  -21.1082  -13.1383   22.2524 H   0  0  0  0  0  0
  -24.6694  -15.8487   20.4975 H   0  0  0  0  0  0
  -26.2638  -15.6066   19.9986 H   0  0  0  0  0  0
  -26.7157  -32.5453   23.1110 H   0  0  0  0  0  0
  -25.0033  -33.9729   25.0402 H   0  0  0  0  0  0
  -22.7097  -31.3033   21.4057 H   0  0  0  0  0  0
  -23.3716  -35.9649   23.3285 H   0  0  0  0  0  0
  -24.3573  -36.8915   22.2040 H   0  0  0  0  0  0
  -23.7283  -37.6507   23.6664 H   0  0  0  0  0  0
  -26.0877  -31.5658   20.6057 H   0  0  0  0  0  0
  -26.8379  -30.8441   22.0021 H   0  0  0  0  0  0
  -28.1245  -29.0133   21.1638 H   0  0  0  0  0  0
  -25.9259  -25.9165   19.0749 H   0  0  0  0  0  0
  -23.9564  -27.2840   19.0744 H   0  0  0  0  0  0
  -23.7501  -30.5962   19.4085 H   0  0  0  0  0  0
  -22.7508  -29.2514   19.8593 H   0  0  0  0  0  0
  -25.1270  -36.1886   25.0809 H   0  0  0  0  0  0
  -20.9969  -28.3248   24.1396 H   0  0  0  0  0  0
  -20.5633  -26.2292   23.3595 H   0  0  0  0  0  0
  -21.6650  -26.7410   22.1211 H   0  0  0  0  0  0
  -19.6905  -25.6278   21.1226 H   0  0  0  0  0  0
  -19.6675  -27.3171   20.6718 H   0  0  0  0  0  0
  -17.4188  -26.6642   21.4034 H   0  0  0  0  0  0
  -18.0345  -26.0054   22.9011 H   0  0  0  0  0  0
  -19.7947  -30.7254   24.2254 H   0  0  0  0  0  0
  -17.5032  -31.6256   24.5156 H   0  0  0  0  0  0
  -15.5363  -30.2991   23.7640 H   0  0  0  0  0  0
  -15.8676  -28.0806   22.7099 H   0  0  0  0  0  0
  -24.5889  -30.7106   25.7846 H   0  0  0  0  0  0
  -24.8971  -32.2945   26.4896 H   0  0  0  0  0  0
  -25.8075  -30.8940   27.0246 H   0  0  0  0  0  0
  -26.2866  -29.6752   24.1203 H   0  0  0  0  0  0
  -27.4044  -29.7252   25.4642 H   0  0  0  0  0  0
  -27.8728  -30.4290   23.9346 H   0  0  0  0  0  0
  -27.2671  -33.3641   26.2011 H   0  0  0  0  0  0
  -28.3870  -32.6834   25.0288 H   0  0  0  0  0  0
  -28.0698  -31.8467   26.5413 H   0  0  0  0  0  0
  -28.2524  -38.0128   24.7566 H   0  0  0  0  0  0
  -28.1146  -36.2668   24.6124 H   0  0  0  0  0  0
  -27.2318  -37.1242   25.8835 H   0  0  0  0  0  0
  -20.9348  -29.8790   21.6926 H   0  0  0  0  0  0
  -26.0123  -38.2806   24.1508 H   0  0  0  0  0  0
  -31.6440  -19.7616   19.3804 H   0  0  0  0  0  0
  -31.5826  -17.3215   19.4259 H   0  0  0  0  0  0
  -27.6697  -23.0242   17.2050 H   0  0  0  0  0  0
  -26.7998  -23.1104   18.7126 H   0  0  0  0  0  0
  -27.5545  -25.3736   17.8684 H   0  0  0  0  0  0
  -29.2040  -24.8693   17.9815 H   0  0  0  0  0  0
  -29.7171  -22.2888   18.2950 H   0  0  0  0  0  0
  -28.4040  -21.2676   18.8378 H   0  0  0  0  0  0
  -29.4505  -24.2762   21.6124 H   0  0  0  0  0  0
  -30.3406  -24.3613   20.1178 H   0  0  0  0  0  0
  -27.3316  -24.7608   20.4055 H   0  0  0  0  0  0
  -28.6040  -21.1541   22.8228 H   0  0  0  0  0  0
  -28.0808  -19.6576   23.5158 H   0  0  0  0  0  0
  -27.2207  -20.3185   22.1180 H   0  0  0  0  0  0
  -27.0541  -17.8265   22.5132 H   0  0  0  0  0  0
  -28.3498  -17.0926   23.4711 H   0  0  0  0  0  0
  -27.6799  -16.2840   22.0507 H   0  0  0  0  0  0
  -31.1226  -21.9041   20.2655 H   0  0  0  0  0  0
  -30.4567  -21.9525   21.8516 H   0  0  0  0  0  0
  -28.9765  -15.3591   21.2995 H   0  0  0  0  0  0
  -28.3020  -22.3781   20.8397 H   0  0  0  0  0  0
  1 25  1  0  0  0
  1 30  2  0  0  0
  1 85  1  0  0  0
  2  3  1  0  0  0
  2 25  1  0  0  0
  2 87  1  0  0  0
  2 88  1  0  0  0
  3  4  1  0  0  0
  3 89  1  0  0  0
  3 90  1  0  0  0
  4  5  1  0  0  0
  4 91  1  0  0  0
  4 92  1  0  0  0
  5  6  1  0  0  0
  5 26  1  0  0  0
  5 93  1  0  0  0
  6 25  1  0  0  0
  6 94  1  0  0  0
  6 95  1  0  0  0
  7  8  2  0  0  0
  7 26  1  0  0  0
  7 29  1  0  0  0
  8  9  1  0  0  0
  8 22  1  0  0  0
  9 10  1  0  0  0
  9 27  2  0  0  0
 10 11  2  0  0  0
 10 15  1  0  0  0
 11 12  1  0  0  0
 11 96  1  0  0  0
 12 13  2  0  0  0
 12 97  1  0  0  0
 13 14  1  0  0  0
 13 31  1  0  0  0
 14 15  2  0  0  0
 14 98  1  0  0  0
 15 99  1  0  0  0
 16 17  2  0  0  0
 16 21  1  0  0  0
 16 31  1  0  0  0
 17 18  1  0  0  0
 17100  1  0  0  0
 18 19  2  0  0  0
 18101  1  0  0  0
 19 20  1  0  0  0
 19 24  1  0  0  0
 20 21  2  0  0  0
 20102  1  0  0  0
 21 23  1  0  0  0
 22 28  1  0  0  0
 22 32  2  0  0  0
 26 27  1  0  0  0
 28103  1  0  0  0
 28104  1  0  0  0
 29105  1  0  0  0
 29106  1  0  0  0
 33 34  1  0  0  0
 33 66  1  0  0  0
 33 70  2  0  0  0
 34 36  1  0  0  0
 34 59  1  0  0  0
 34107  1  0  0  0
 35 44  2  0  0  0
 35 45  1  0  0  0
 35 68  1  0  0  0
 36 56  1  0  0  0
 36108  1  0  0  0
 37 39  1  0  0  0
 37 47  1  0  0  0
 37 66  1  0  0  0
 37109  1  0  0  0
 38 43  2  0  0  0
 38 46  1  0  0  0
 38 47  1  0  0  0
 39 64  1  0  0  0
 39 67  2  0  0  0
 40 52  1  0  0  0
 40 53  2  0  0  0
 40 58  1  0  0  0
 41110  1  0  0  0
 41111  1  0  0  0
 41112  1  0  0  0
 41 48  1  0  0  0
 42 43  1  0  0  0
 42 66  1  0  0  0
 42113  1  0  0  0
 42114  1  0  0  0
 43 44  1  0  0  0
 44115  1  0  0  0
 45 46  2  0  0  0
 45116  1  0  0  0
 46117  1  0  0  0
 47118  1  0  0  0
 47119  1  0  0  0
 48 56  1  0  0  0
 48 65  1  0  0  0
 48120  1  0  0  0
 49 50  1  0  0  0
 49 53  1  0  0  0
 49 64  1  0  0  0
 49121  1  0  0  0
 50 51  1  0  0  0
 50122  1  0  0  0
 50123  1  0  0  0
 51 52  1  0  0  0
 51124  1  0  0  0
 51125  1  0  0  0
 52126  1  0  0  0
 52127  1  0  0  0
 53 54  1  0  0  0
 54 55  2  0  0  0
 54128  1  0  0  0
 55 57  1  0  0  0
 55129  1  0  0  0
 56 69  2  0  0  0
 57 58  2  0  0  0
 57130  1  0  0  0
 58131  1  0  0  0
 59 60  1  0  0  0
 59 61  1  0  0  0
 59 62  1  0  0  0
 60132  1  0  0  0
 60133  1  0  0  0
 60134  1  0  0  0
 61135  1  0  0  0
 61136  1  0  0  0
 61137  1  0  0  0
 62138  1  0  0  0
 62139  1  0  0  0
 62140  1  0  0  0
 63 65  1  0  0  0
 63141  1  0  0  0
 63142  1  0  0  0
 63143  1  0  0  0
 64144  1  0  0  0
 65145  1  0  0  0
 68 81  1  0  0  0
 71 72  2  0  0  0
 71 73  1  0  0  0
 71146  1  0  0  0
 72 76  1  0  0  0
 72147  1  0  0  0
 73 74  2  0  0  0
 73 84  1  0  0  0
 74 75  1  0  0  0
 74 82  1  0  0  0
 75 76  2  0  0  0
 75 83  1  0  0  0
 76 85  1  0  0  0
 77 78  1  0  0  0
 77 79  1  0  0  0
 77148  1  0  0  0
 77149  1  0  0  0
 78 81  1  0  0  0
 78150  1  0  0  0
 78151  1  0  0  0
 79 86  1  0  0  0
 79152  1  0  0  0
 79153  1  0  0  0
 80 81  1  0  0  0
 80 86  1  0  0  0
 80154  1  0  0  0
 80155  1  0  0  0
 81156  1  0  0  0
 82157  1  0  0  0
 82158  1  0  0  0
 82159  1  0  0  0
 83160  1  0  0  0
 83161  1  0  0  0
 83162  1  0  0  0
 84163  1  0  0  0
 84164  1  0  0  0
 84 86  1  0  0  0
 85165  1  0  0  0
 86166  1  0  0  0
M  CHG  1  86   1
M  ISO  4   1 100  68 101  81 101  85 100
M  END
> <chiral flag>
0

> <version>
0

> <s_m_source_file>
/data/baiqing/PycharmProjects/Reinvent-master-3.2/result/LINK_invent/BTK/process_docking_weight1_custom_product_contain_oxygen_bond_distance_aromatic_linkinvent_7_9_3/rearranged_h_0036.sdf

> <i_m_source_file_index>
55

> <r_mmod_Potential_Energy-OPLS-2005>
-27.9737911224365

> <r_mmod_Stretch_Energy-OPLS-2005>
87.2339477539062

> <r_mmod_Bend_Energy-OPLS-2005>
148.20637512207

> <r_mmod_Torsional_Energy-OPLS-2005>
230.200042724609

> <r_mmod_Improper_Torsional_Energy-OPLS-2005>
4.16231679916382

> <r_mmod_Van_der_Waal_Energy-OPLS-2005>
156.45051574707

> <r_mmod_Electrostatic_Energy-OPLS-2005>
-274.951416015625

> <r_mmod_Solvation_Energy-OPLS-2005>
-423.326446533203

> <b_mmod_Minimization_Converged-OPLS-2005>
0

> <r_mmod_RMS_Derivative-OPLS-2005>
3.494389295578

$$$$
55
                    3D
 Structure written by MMmdl.
172181  0  0  1  0            999 V2000
  -30.6245  -14.7131   20.4845 C   0  0  0  0  0  0
  -30.4463  -12.4450   19.4517 C   0  0  0  0  0  0
  -29.5077  -12.5209   18.2259 C   0  0  0  0  0  0
  -28.0329  -12.3470   18.6428 C   0  0  0  0  0  0
  -27.6458  -13.2182   19.8676 C   0  0  2  0  0  0
  -28.7078  -13.1019   20.9878 C   0  0  0  0  0  0
  -25.2268  -13.7760   20.5499 C   0  0  0  0  0  0
  -24.1668  -13.0093   20.9215 C   0  0  0  0  0  0
  -24.6395  -11.6661   20.8821 C   0  0  0  0  0  0
  -23.9073  -10.4098   21.0437 C   0  0  0  0  0  0
  -24.3603   -9.4036   21.9226 C   0  0  0  0  0  0
  -23.6239   -8.2110   22.0778 C   0  0  0  0  0  0
  -22.4227   -8.0199   21.3548 C   0  0  0  0  0  0
  -21.9878   -9.0176   20.4648 C   0  0  0  0  0  0
  -22.7246  -10.2018   20.3071 C   0  0  0  0  0  0
  -21.6810   -6.0682   22.5282 C   0  0  0  0  0  0
  -21.3983   -6.5597   23.8212 C   0  0  0  0  0  0
  -21.3658   -5.6765   24.9185 C   0  0  0  0  0  0
  -21.6048   -4.3029   24.7241 C   0  0  0  0  0  0
  -21.8819   -3.8111   23.4363 C   0  0  0  0  0  0
  -21.9179   -4.6917   22.3410 C   0  0  0  0  0  0
  -22.7708  -13.4965   21.1862 C   0  0  0  0  0  0
  -22.1653   -4.2103   21.0986 F   0  0  0  0  0  0
  -21.5647   -3.4522   25.7761 F   0  0  0  0  0  0
  -30.0075  -13.4821   20.4114 N   0  0  0  0  0  0
  -26.2942  -12.9190   20.3401 N   0  0  0  0  0  0
  -25.9375  -11.6337   20.5920 N   0  0  0  0  0  0
  -22.0337  -12.8064   22.0478 N   0  0  0  0  0  0
  -25.3293  -15.1301   20.3453 N   0  0  0  0  0  0
  -31.8029  -14.8340   20.1405 O   0  0  0  0  0  0
  -21.6573   -6.8820   21.4244 O   0  0  0  0  0  0
  -22.3432  -14.5290   20.6698 O   0  0  0  0  0  0
  -24.6261  -31.8600   23.2010 C   0  0  0  0  0  0
  -25.9107  -32.4777   23.8350 C   0  0  1  0  0  0
  -27.2516  -27.3379   20.1050 C   0  0  0  0  0  0
  -25.5920  -33.8574   24.2281 N   0  0  0  0  0  0
  -23.4204  -30.4819   21.5431 C   0  0  2  0  0  0
  -24.8706  -28.9352   20.1155 C   0  0  0  0  0  0
  -22.7476  -29.4626   22.4931 C   0  0  0  0  0  0
  -18.0290  -28.1384   22.8481 C   0  0  0  0  0  0
  -24.1491  -36.7299   23.2638 C   0  0  0  0  0  0
  -25.9600  -30.7986   21.3665 C   0  0  0  0  0  0
  -26.0390  -29.4253   20.7104 C   0  0  0  0  0  0
  -27.2286  -28.6402   20.6933 C   0  0  0  0  0  0
  -26.0452  -26.8858   19.5156 C   0  0  0  0  0  0
  -24.8744  -27.6678   19.5141 C   0  0  0  0  0  0
  -23.6358  -29.8116   20.1606 C   0  0  0  0  0  0
  -25.4110  -36.3077   24.0330 C   0  0  1  0  0  0
  -20.5889  -28.3692   23.1276 C   0  0  2  0  0  0
  -20.6773  -26.9411   22.5411 C   0  0  0  0  0  0
  -19.5752  -26.6382   21.5208 C   0  0  0  0  0  0
  -18.1932  -26.7928   22.1618 C   0  0  0  0  0  0
  -19.1542  -28.8853   23.2877 C   0  0  0  0  0  0
  -18.9466  -30.1451   23.8904 C   0  0  0  0  0  0
  -17.6467  -30.6582   24.0569 C   0  0  0  0  0  0
  -25.9047  -34.9448   23.5102 C   0  0  0  0  0  0
  -16.5358  -29.9089   23.6319 C   0  0  0  0  0  0
  -16.7280  -28.6502   23.0346 C   0  0  0  0  0  0
  -26.4494  -31.6583   25.0715 C   0  0  0  0  0  0
  -25.3742  -31.3746   26.1466 C   0  0  0  0  0  0
  -27.0323  -30.3003   24.6155 C   0  0  0  0  0  0
  -27.6063  -32.4319   25.7469 C   0  0  0  0  0  0
  -27.5577  -37.1799   24.8459 C   0  0  0  0  0  0
  -21.4189  -29.3048   22.3672 N   0  0  0  0  0  0
  -26.4287  -37.3771   23.9405 N   0  0  0  0  0  0
  -24.6878  -31.0626   22.0946 N   0  0  0  0  0  0
  -23.4199  -28.8165   23.3010 O   0  0  0  0  0  0
  -28.4141  -26.5441   20.1344 O   0  0  0  0  0  0
  -26.5620  -34.8917   22.4673 O   0  0  0  0  0  0
  -23.5426  -32.1386   23.7344 O   0  0  0  0  0  0
  -31.3276  -19.3568   20.3265 C   0  0  0  0  0  0
  -31.2118  -17.9326   20.3783 C   0  0  0  0  0  0
  -30.2833  -20.2363   20.7281 C   0  0  0  0  0  0
  -29.1006  -19.6079   21.1908 C   0  0  0  0  0  0
  -28.9230  -18.1825   21.0810 C   0  0  0  0  0  0
  -30.0033  -17.2811   20.7464 C   0  0  0  0  0  0
  -28.3039  -23.3879   17.9542 C   0  0  0  0  0  0
  -28.4442  -24.8833   18.2975 C   0  0  0  0  0  0
  -29.4019  -22.5270   18.6171 C   0  0  0  0  0  0
  -29.4917  -24.1809   20.4761 C   0  0  0  0  0  0
  -28.3664  -25.0973   19.8224 C   0  0  1  0  0  0
  -28.0121  -20.4868   21.8174 C   0  0  0  0  0  0
  -27.2026  -16.6418   22.2101 C   0  0  0  0  0  0
  -27.0588  -17.4043   19.6676 C   0  0  0  0  0  0
  -30.4803  -21.8044   20.7495 C   0  0  0  0  0  0
  -27.4799  -17.6892   21.1200 C   0  0  0  0  0  0
  -29.8206  -15.8043   20.7622 N   0  0  0  0  0  0
  -29.4386  -22.7016   20.0925 N   0  3  2  0  0  0
  -31.4823  -12.5845   19.1375 H   0  0  0  0  0  0
  -30.4062  -11.4581   19.9136 H   0  0  0  0  0  0
  -29.7806  -11.7606   17.4929 H   0  0  0  0  0  0
  -29.6343  -13.4846   17.7301 H   0  0  0  0  0  0
  -27.8811  -11.2932   18.8791 H   0  0  0  0  0  0
  -27.3761  -12.5676   17.8002 H   0  0  0  0  0  0
  -27.6425  -14.2494   19.5210 H   0  0  0  0  0  0
  -28.7488  -12.0786   21.3634 H   0  0  0  0  0  0
  -28.4629  -13.7134   21.8536 H   0  0  0  0  0  0
  -25.2738   -9.5491   22.4819 H   0  0  0  0  0  0
  -23.9902   -7.4486   22.7505 H   0  0  0  0  0  0
  -21.0802   -8.8724   19.8951 H   0  0  0  0  0  0
  -22.3732  -10.9585   19.6193 H   0  0  0  0  0  0
  -21.1950   -7.6103   23.9702 H   0  0  0  0  0  0
  -21.1495   -6.0501   25.9089 H   0  0  0  0  0  0
  -22.0601   -2.7573   23.2889 H   0  0  0  0  0  0
  -22.3893  -11.9727   22.4920 H   0  0  0  0  0  0
  -21.0989  -13.1191   22.2688 H   0  0  0  0  0  0
  -24.5197  -15.7335   20.4308 H   0  0  0  0  0  0
  -26.1561  -15.6216   20.0354 H   0  0  0  0  0  0
  -26.7186  -32.5463   23.1115 H   0  0  0  0  0  0
  -25.0060  -33.9717   25.0420 H   0  0  0  0  0  0
  -22.7135  -31.3012   21.3968 H   0  0  0  0  0  0
  -23.3735  -35.9650   23.3308 H   0  0  0  0  0  0
  -24.3588  -36.8909   22.2051 H   0  0  0  0  0  0
  -23.7267  -37.6514   23.6658 H   0  0  0  0  0  0
  -26.0859  -31.5621   20.5974 H   0  0  0  0  0  0
  -26.8420  -30.8520   21.9932 H   0  0  0  0  0  0
  -28.1281  -29.0211   21.1573 H   0  0  0  0  0  0
  -25.9668  -25.9133   19.0565 H   0  0  0  0  0  0
  -23.9745  -27.2785   19.0583 H   0  0  0  0  0  0
  -23.7522  -30.5854   19.4010 H   0  0  0  0  0  0
  -22.7579  -29.2371   19.8598 H   0  0  0  0  0  0
  -25.1289  -36.1928   25.0822 H   0  0  0  0  0  0
  -20.9986  -28.3276   24.1397 H   0  0  0  0  0  0
  -20.5647  -26.2311   23.3618 H   0  0  0  0  0  0
  -21.6649  -26.7419   22.1226 H   0  0  0  0  0  0
  -19.6909  -25.6292   21.1241 H   0  0  0  0  0  0
  -19.6683  -27.3187   20.6735 H   0  0  0  0  0  0
  -17.4198  -26.6676   21.4026 H   0  0  0  0  0  0
  -18.0326  -26.0069   22.9010 H   0  0  0  0  0  0
  -19.7944  -30.7261   24.2281 H   0  0  0  0  0  0
  -17.5023  -31.6258   24.5177 H   0  0  0  0  0  0
  -15.5359  -30.2998   23.7628 H   0  0  0  0  0  0
  -15.8681  -28.0821   22.7064 H   0  0  0  0  0  0
  -24.5867  -30.7147   25.7811 H   0  0  0  0  0  0
  -24.9004  -32.2937   26.4927 H   0  0  0  0  0  0
  -25.8073  -30.8889   27.0219 H   0  0  0  0  0  0
  -26.2882  -29.6755   24.1201 H   0  0  0  0  0  0
  -27.4051  -29.7257   25.4643 H   0  0  0  0  0  0
  -27.8740  -30.4287   23.9344 H   0  0  0  0  0  0
  -27.2674  -33.3611   26.2062 H   0  0  0  0  0  0
  -28.3851  -32.6898   25.0278 H   0  0  0  0  0  0
  -28.0761  -31.8446   26.5369 H   0  0  0  0  0  0
  -28.2602  -38.0088   24.7488 H   0  0  0  0  0  0
  -28.1066  -36.2621   24.6296 H   0  0  0  0  0  0
  -27.2305  -37.1463   25.8866 H   0  0  0  0  0  0
  -20.9365  -29.8797   21.6906 H   0  0  0  0  0  0
  -26.0168  -38.2845   24.1404 H   0  0  0  0  0  0
  -32.2692  -19.7784   20.0027 H   0  0  0  0  0  0
  -32.0718  -17.3447   20.0917 H   0  0  0  0  0  0
  -28.3479  -23.2579   16.8722 H   0  0  0  0  0  0
  -27.3189  -23.0315   18.2582 H   0  0  0  0  0  0
  -27.6756  -25.4498   17.7741 H   0  0  0  0  0  0
  -29.3953  -25.2617   17.9224 H   0  0  0  0  0  0
  -30.3752  -22.7863   18.1971 H   0  0  0  0  0  0
  -29.2306  -21.4762   18.3770 H   0  0  0  0  0  0
  -29.4268  -24.2670   21.5609 H   0  0  0  0  0  0
  -30.4705  -24.5730   20.1977 H   0  0  0  0  0  0
  -27.4189  -24.7051   20.1930 H   0  0  0  0  0  0
  -28.3916  -21.4176   22.2331 H   0  0  0  0  0  0
  -27.5568  -19.9860   22.6728 H   0  0  0  0  0  0
  -27.2283  -20.7220   21.0959 H   0  0  0  0  0  0
  -27.6523  -16.9421   23.1570 H   0  0  0  0  0  0
  -27.5708  -15.6542   21.9662 H   0  0  0  0  0  0
  -26.1319  -16.5485   22.3936 H   0  0  0  0  0  0
  -27.3759  -18.2226   19.0190 H   0  0  0  0  0  0
  -25.9774  -17.3702   19.5513 H   0  0  0  0  0  0
  -27.5089  -16.4993   19.2634 H   0  0  0  0  0  0
  -31.4507  -22.0383   20.3099 H   0  0  0  0  0  0
  -30.5706  -22.0952   21.7967 H   0  0  0  0  0  0
  -26.7899  -18.4797   21.3897 H   0  0  0  0  0  0
  -28.8846  -15.5233   21.0068 H   0  0  0  0  0  0
  -28.5546  -22.3576   20.4354 H   0  0  0  0  0  0
  1 25  1  0  0  0
  1 30  2  0  0  0
  1 87  1  0  0  0
  2  3  1  0  0  0
  2 25  1  0  0  0
  2 89  1  0  0  0
  2 90  1  0  0  0
  3  4  1  0  0  0
  3 91  1  0  0  0
  3 92  1  0  0  0
  4  5  1  0  0  0
  4 93  1  0  0  0
  4 94  1  0  0  0
  5  6  1  0  0  0
  5 26  1  0  0  0
  5 95  1  0  0  0
  6 25  1  0  0  0
  6 96  1  0  0  0
  6 97  1  0  0  0
  7  8  2  0  0  0
  7 26  1  0  0  0
  7 29  1  0  0  0
  8  9  1  0  0  0
  8 22  1  0  0  0
  9 10  1  0  0  0
  9 27  2  0  0  0
 10 11  2  0  0  0
 10 15  1  0  0  0
 11 12  1  0  0  0
 11 98  1  0  0  0
 12 13  2  0  0  0
 12 99  1  0  0  0
 13 14  1  0  0  0
 13 31  1  0  0  0
 14 15  2  0  0  0
 14100  1  0  0  0
 15101  1  0  0  0
 16 17  2  0  0  0
 16 21  1  0  0  0
 16 31  1  0  0  0
 17 18  1  0  0  0
 17102  1  0  0  0
 18 19  2  0  0  0
 18103  1  0  0  0
 19 20  1  0  0  0
 19 24  1  0  0  0
 20 21  2  0  0  0
 20104  1  0  0  0
 21 23  1  0  0  0
 22 28  1  0  0  0
 22 32  2  0  0  0
 26 27  1  0  0  0
 28105  1  0  0  0
 28106  1  0  0  0
 29107  1  0  0  0
 29108  1  0  0  0
 33 34  1  0  0  0
 33 66  1  0  0  0
 33 70  2  0  0  0
 34 36  1  0  0  0
 34 59  1  0  0  0
 34109  1  0  0  0
 35 44  2  0  0  0
 35 45  1  0  0  0
 35 68  1  0  0  0
 36 56  1  0  0  0
 36110  1  0  0  0
 37 39  1  0  0  0
 37 47  1  0  0  0
 37 66  1  0  0  0
 37111  1  0  0  0
 38 43  2  0  0  0
 38 46  1  0  0  0
 38 47  1  0  0  0
 39 64  1  0  0  0
 39 67  2  0  0  0
 40 52  1  0  0  0
 40 53  2  0  0  0
 40 58  1  0  0  0
 41112  1  0  0  0
 41113  1  0  0  0
 41114  1  0  0  0
 41 48  1  0  0  0
 42 43  1  0  0  0
 42 66  1  0  0  0
 42115  1  0  0  0
 42116  1  0  0  0
 43 44  1  0  0  0
 44117  1  0  0  0
 45 46  2  0  0  0
 45118  1  0  0  0
 46119  1  0  0  0
 47120  1  0  0  0
 47121  1  0  0  0
 48 56  1  0  0  0
 48 65  1  0  0  0
 48122  1  0  0  0
 49 50  1  0  0  0
 49 53  1  0  0  0
 49 64  1  0  0  0
 49123  1  0  0  0
 50 51  1  0  0  0
 50124  1  0  0  0
 50125  1  0  0  0
 51 52  1  0  0  0
 51126  1  0  0  0
 51127  1  0  0  0
 52128  1  0  0  0
 52129  1  0  0  0
 53 54  1  0  0  0
 54 55  2  0  0  0
 54130  1  0  0  0
 55 57  1  0  0  0
 55131  1  0  0  0
 56 69  2  0  0  0
 57 58  2  0  0  0
 57132  1  0  0  0
 58133  1  0  0  0
 59 60  1  0  0  0
 59 61  1  0  0  0
 59 62  1  0  0  0
 60134  1  0  0  0
 60135  1  0  0  0
 60136  1  0  0  0
 61137  1  0  0  0
 61138  1  0  0  0
 61139  1  0  0  0
 62140  1  0  0  0
 62141  1  0  0  0
 62142  1  0  0  0
 63 65  1  0  0  0
 63143  1  0  0  0
 63144  1  0  0  0
 63145  1  0  0  0
 64146  1  0  0  0
 65147  1  0  0  0
 68 81  1  0  0  0
 71 72  2  0  0  0
 71 73  1  0  0  0
 71148  1  0  0  0
 72 76  1  0  0  0
 72149  1  0  0  0
 73 74  2  0  0  0
 73 85  1  0  0  0
 74 75  1  0  0  0
 74 82  1  0  0  0
 75 76  2  0  0  0
 75 86  1  0  0  0
 76 87  1  0  0  0
 77 78  1  0  0  0
 77 79  1  0  0  0
 77150  1  0  0  0
 77151  1  0  0  0
 78 81  1  0  0  0
 78152  1  0  0  0
 78153  1  0  0  0
 79 88  1  0  0  0
 79154  1  0  0  0
 79155  1  0  0  0
 80 81  1  0  0  0
 80 88  1  0  0  0
 80156  1  0  0  0
 80157  1  0  0  0
 81158  1  0  0  0
 82159  1  0  0  0
 82160  1  0  0  0
 82161  1  0  0  0
 83162  1  0  0  0
 83163  1  0  0  0
 83164  1  0  0  0
 83 86  1  0  0  0
 84 86  1  0  0  0
 84165  1  0  0  0
 84166  1  0  0  0
 84167  1  0  0  0
 85168  1  0  0  0
 85169  1  0  0  0
 85 88  1  0  0  0
 86170  1  0  0  0
 87171  1  0  0  0
 88172  1  0  0  0
M  CHG  1  88   1
M  ISO  4   1 100  68 101  81 101  87 100
M  END
> <chiral flag>
0

> <version>
0

> <s_m_source_file>
/data/baiqing/PycharmProjects/Reinvent-master-3.2/result/LINK_invent/BTK/process_docking_weight1_custom_product_contain_oxygen_bond_distance_aromatic_linkinvent_7_9_3/rearranged_h_0036.sdf

> <i_m_source_file_index>
56

> <r_mmod_Potential_Energy-OPLS-2005>
72.5625762939453

> <r_mmod_Stretch_Energy-OPLS-2005>
96.6250839233398

> <r_mmod_Bend_Energy-OPLS-2005>
166.714172363281

> <r_mmod_Torsional_Energy-OPLS-2005>
249.75798034668

> <r_mmod_Improper_Torsional_Energy-OPLS-2005>
5.42833757400513

> <r_mmod_Van_der_Waal_Energy-OPLS-2005>
167.424896240234

> <r_mmod_Electrostatic_Energy-OPLS-2005>
-258.613952636719

> <r_mmod_Solvation_Energy-OPLS-2005>
-412.499206542969

> <b_mmod_Minimization_Converged-OPLS-2005>
0

> <r_mmod_RMS_Derivative-OPLS-2005>
1.49305367469788

$$$$
56
                    3D
 Structure written by MMmdl.
174183  0  0  1  0            999 V2000
  -30.6553  -14.6844   20.4904 C   0  0  0  0  0  0
  -30.4229  -12.4237   19.4660 C   0  0  0  0  0  0
  -29.5030  -12.5050   18.2302 C   0  0  0  0  0  0
  -28.0291  -12.3401   18.6457 C   0  0  0  0  0  0
  -27.6444  -13.2329   19.8564 C   0  0  2  0  0  0
  -28.6897  -13.1503   20.9905 C   0  0  0  0  0  0
  -25.2518  -13.8210   20.5713 C   0  0  0  0  0  0
  -24.1808  -13.0451   20.9219 C   0  0  0  0  0  0
  -24.6403  -11.6930   20.8760 C   0  0  0  0  0  0
  -23.9079  -10.4302   21.0415 C   0  0  0  0  0  0
  -24.3628   -9.4211   21.9188 C   0  0  0  0  0  0
  -23.6300   -8.2246   22.0756 C   0  0  0  0  0  0
  -22.4282   -8.0287   21.3546 C   0  0  0  0  0  0
  -21.9922   -9.0265   20.4650 C   0  0  0  0  0  0
  -22.7254  -10.2142   20.3061 C   0  0  0  0  0  0
  -21.6854   -6.0742   22.5282 C   0  0  0  0  0  0
  -21.4016   -6.5645   23.8216 C   0  0  0  0  0  0
  -21.3655   -5.6797   24.9177 C   0  0  0  0  0  0
  -21.6043   -4.3061   24.7228 C   0  0  0  0  0  0
  -21.8817   -3.8153   23.4349 C   0  0  0  0  0  0
  -21.9194   -4.6969   22.3404 C   0  0  0  0  0  0
  -22.7827  -13.5227   21.1874 C   0  0  0  0  0  0
  -22.1662   -4.2156   21.0980 F   0  0  0  0  0  0
  -21.5626   -3.4541   25.7737 F   0  0  0  0  0  0
  -29.9943  -13.4832   20.4069 N   0  0  0  0  0  0
  -26.2956  -12.9422   20.3325 N   0  0  0  0  0  0
  -25.9334  -11.6563   20.5778 N   0  0  0  0  0  0
  -22.0473  -12.8211   22.0425 N   0  0  0  0  0  0
  -25.4205  -15.1932   20.4117 N   0  0  0  0  0  0
  -31.8308  -14.7638   20.1254 O   0  0  0  0  0  0
  -21.6645   -6.8886   21.4244 O   0  0  0  0  0  0
  -22.3510  -14.5532   20.6720 O   0  0  0  0  0  0
  -24.6286  -31.8576   23.2013 C   0  0  0  0  0  0
  -25.9125  -32.4764   23.8349 C   0  0  1  0  0  0
  -27.2133  -27.2833   20.1213 C   0  0  0  0  0  0
  -25.5932  -33.8568   24.2268 N   0  0  0  0  0  0
  -23.4240  -30.4819   21.5449 C   0  0  2  0  0  0
  -24.8688  -28.9367   20.1077 C   0  0  0  0  0  0
  -22.7491  -29.4614   22.4928 C   0  0  0  0  0  0
  -18.0291  -28.1383   22.8488 C   0  0  0  0  0  0
  -24.1491  -36.7285   23.2637 C   0  0  0  0  0  0
  -25.9685  -30.7759   21.3795 C   0  0  0  0  0  0
  -26.0402  -29.4019   20.7191 C   0  0  0  0  0  0
  -27.2149  -28.5868   20.7175 C   0  0  0  0  0  0
  -26.0210  -26.8878   19.4716 C   0  0  0  0  0  0
  -24.8637  -27.6868   19.4734 C   0  0  0  0  0  0
  -23.6393  -29.8205   20.1591 C   0  0  0  0  0  0
  -25.4118  -36.3076   24.0326 C   0  0  1  0  0  0
  -20.5891  -28.3693   23.1275 C   0  0  2  0  0  0
  -20.6780  -26.9414   22.5410 C   0  0  0  0  0  0
  -19.5756  -26.6384   21.5214 C   0  0  0  0  0  0
  -18.1935  -26.7923   22.1626 C   0  0  0  0  0  0
  -19.1541  -28.8857   23.2874 C   0  0  0  0  0  0
  -18.9462  -30.1455   23.8896 C   0  0  0  0  0  0
  -17.6462  -30.6587   24.0561 C   0  0  0  0  0  0
  -25.9059  -34.9446   23.5097 C   0  0  0  0  0  0
  -16.5354  -29.9082   23.6332 C   0  0  0  0  0  0
  -16.7277  -28.6498   23.0360 C   0  0  0  0  0  0
  -26.4496  -31.6583   25.0732 C   0  0  0  0  0  0
  -25.3713  -31.3725   26.1447 C   0  0  0  0  0  0
  -27.0337  -30.3001   24.6208 C   0  0  0  0  0  0
  -27.6068  -32.4317   25.7490 C   0  0  0  0  0  0
  -27.5579  -37.1796   24.8462 C   0  0  0  0  0  0
  -21.4202  -29.3041   22.3667 N   0  0  0  0  0  0
  -26.4291  -37.3775   23.9410 N   0  0  0  0  0  0
  -24.6929  -31.0559   22.0983 N   0  0  0  0  0  0
  -23.4199  -28.8150   23.3015 O   0  0  0  0  0  0
  -28.3067  -26.3940   20.1925 O   0  0  0  0  0  0
  -26.5630  -34.8913   22.4666 O   0  0  0  0  0  0
  -23.5446  -32.1401   23.7321 O   0  0  0  0  0  0
  -28.2675  -18.2164   23.3976 C   0  0  0  0  0  0
  -28.3653  -18.2059   22.0531 C   0  0  0  0  0  0
  -29.4250  -21.1882   20.6504 C   0  0  0  0  0  0
  -28.9583  -22.3226   20.0166 C   0  0  0  0  0  0
  -29.9765  -19.7886   26.5246 C   0  0  0  0  0  0
  -30.9639  -18.6603   26.8706 C   0  0  0  0  0  0
  -28.8292  -19.2890   25.6275 C   0  0  0  0  0  0
  -31.4696  -17.9325   25.6114 C   0  0  0  0  0  0
  -30.7477  -16.4687   23.6178 C   0  0  0  0  0  0
  -31.4463  -17.0796   22.3656 C   0  0  0  0  0  0
  -29.3820  -18.6038   24.3645 C   0  0  1  0  0  0
  -29.6291  -18.5294   21.2733 C   0  0  1  0  0  0
  -30.2919  -17.4140   24.7618 C   0  0  2  0  0  0
  -30.5553  -17.2088   21.0808 C   0  0  2  0  0  0
  -29.4126  -19.6753   20.1695 C   0  0  0  0  0  0
  -29.1193  -23.8326   20.4676 C   0  0  0  0  0  0
  -28.0617  -24.9329   19.9765 C   0  0  0  0  0  0
  -29.9578  -15.8276   20.8329 N   0  0  0  0  0  0
  -31.4666  -12.5272   19.1639 H   0  0  0  0  0  0
  -30.3480  -11.4434   19.9394 H   0  0  0  0  0  0
  -29.7748  -11.7376   17.5045 H   0  0  0  0  0  0
  -29.6405  -13.4643   17.7287 H   0  0  0  0  0  0
  -27.8766  -11.2905   18.8989 H   0  0  0  0  0  0
  -27.3718  -12.5468   17.8004 H   0  0  0  0  0  0
  -27.6457  -14.2591   19.4878 H   0  0  0  0  0  0
  -28.7131  -12.1512   21.4279 H   0  0  0  0  0  0
  -28.4359  -13.8335   21.8025 H   0  0  0  0  0  0
  -25.2770   -9.5688   22.4772 H   0  0  0  0  0  0
  -24.0012   -7.4636   22.7472 H   0  0  0  0  0  0
  -21.0856   -8.8788   19.8954 H   0  0  0  0  0  0
  -22.3714  -10.9687   19.6176 H   0  0  0  0  0  0
  -21.2007   -7.6152   23.9723 H   0  0  0  0  0  0
  -21.1478   -6.0525   25.9079 H   0  0  0  0  0  0
  -22.0598   -2.7615   23.2846 H   0  0  0  0  0  0
  -22.4093  -11.9867   22.4804 H   0  0  0  0  0  0
  -21.1090  -13.1230   22.2632 H   0  0  0  0  0  0
  -24.6509  -15.8451   20.5180 H   0  0  0  0  0  0
  -26.2650  -15.6318   20.0681 H   0  0  0  0  0  0
  -26.7193  -32.5418   23.1095 H   0  0  0  0  0  0
  -25.0088  -33.9718   25.0418 H   0  0  0  0  0  0
  -22.7201  -31.3044   21.4028 H   0  0  0  0  0  0
  -23.3756  -35.9612   23.3298 H   0  0  0  0  0  0
  -24.3586  -36.8912   22.2052 H   0  0  0  0  0  0
  -23.7242  -37.6484   23.6665 H   0  0  0  0  0  0
  -26.1071  -31.5378   20.6110 H   0  0  0  0  0  0
  -26.8467  -30.8231   22.0118 H   0  0  0  0  0  0
  -28.1089  -28.9330   21.2178 H   0  0  0  0  0  0
  -25.9475  -25.9369   18.9659 H   0  0  0  0  0  0
  -23.9680  -27.3276   18.9849 H   0  0  0  0  0  0
  -23.7610  -30.5989   19.4052 H   0  0  0  0  0  0
  -22.7574  -29.2532   19.8550 H   0  0  0  0  0  0
  -25.1294  -36.1929   25.0817 H   0  0  0  0  0  0
  -20.9985  -28.3267   24.1395 H   0  0  0  0  0  0
  -20.5692  -26.2299   23.3609 H   0  0  0  0  0  0
  -21.6645  -26.7452   22.1191 H   0  0  0  0  0  0
  -19.6919  -25.6296   21.1242 H   0  0  0  0  0  0
  -19.6688  -27.3195   20.6741 H   0  0  0  0  0  0
  -17.4204  -26.6677   21.4027 H   0  0  0  0  0  0
  -18.0333  -26.0064   22.9021 H   0  0  0  0  0  0
  -19.7938  -30.7268   24.2270 H   0  0  0  0  0  0
  -17.5017  -31.6269   24.5156 H   0  0  0  0  0  0
  -15.5353  -30.2983   23.7656 H   0  0  0  0  0  0
  -15.8678  -28.0814   22.7083 H   0  0  0  0  0  0
  -24.5930  -30.7025   25.7777 H   0  0  0  0  0  0
  -24.8847  -32.2877   26.4825 H   0  0  0  0  0  0
  -25.8024  -30.8955   27.0258 H   0  0  0  0  0  0
  -26.2915  -29.6753   24.1226 H   0  0  0  0  0  0
  -27.4013  -29.7265   25.4727 H   0  0  0  0  0  0
  -27.8795  -30.4281   23.9450 H   0  0  0  0  0  0
  -27.2714  -33.3655   26.2018 H   0  0  0  0  0  0
  -28.3890  -32.6813   25.0308 H   0  0  0  0  0  0
  -28.0712  -31.8462   26.5438 H   0  0  0  0  0  0
  -28.2586  -38.0101   24.7526 H   0  0  0  0  0  0
  -28.1088  -36.2637   24.6271 H   0  0  0  0  0  0
  -27.2300  -37.1416   25.8864 H   0  0  0  0  0  0
  -20.9388  -29.8766   21.6875 H   0  0  0  0  0  0
  -26.0169  -38.2846   24.1422 H   0  0  0  0  0  0
  -27.3299  -17.9233   23.8493 H   0  0  0  0  0  0
  -27.5100  -17.8976   21.4681 H   0  0  0  0  0  0
  -29.9232  -21.3425   21.5973 H   0  0  0  0  0  0
  -28.4654  -22.1935   19.0630 H   0  0  0  0  0  0
  -30.5101  -20.5935   26.0168 H   0  0  0  0  0  0
  -29.5712  -20.2219   27.4399 H   0  0  0  0  0  0
  -30.4777  -17.9430   27.5334 H   0  0  0  0  0  0
  -31.8086  -19.0655   27.4294 H   0  0  0  0  0  0
  -28.1931  -20.1306   25.3498 H   0  0  0  0  0  0
  -28.1969  -18.5958   26.1846 H   0  0  0  0  0  0
  -32.1150  -17.1054   25.9097 H   0  0  0  0  0  0
  -32.0897  -18.6068   25.0190 H   0  0  0  0  0  0
  -31.4332  -15.7406   24.0536 H   0  0  0  0  0  0
  -29.8885  -15.8657   23.3278 H   0  0  0  0  0  0
  -32.2888  -16.4324   22.1212 H   0  0  0  0  0  0
  -31.9324  -18.0213   22.6222 H   0  0  0  0  0  0
  -30.0050  -19.3630   23.8999 H   0  0  0  0  0  0
  -30.2517  -19.1266   21.9238 H   0  0  0  0  0  0
  -29.6992  -16.7764   25.4211 H   0  0  0  0  0  0
  -31.2247  -17.4202   20.2449 H   0  0  0  0  0  0
  -30.2355  -19.5929   19.4587 H   0  0  0  0  0  0
  -28.5099  -19.4827   19.5882 H   0  0  0  0  0  0
  -30.0963  -24.1458   20.0992 H   0  0  0  0  0  0
  -29.1950  -23.8620   21.5548 H   0  0  0  0  0  0
  -27.1145  -24.6654   20.4472 H   0  0  0  0  0  0
  -27.9212  -24.7923   18.9044 H   0  0  0  0  0  0
  -28.9788  -15.7130   21.0460 H   0  0  0  0  0  0
  1 25  1  0  0  0
  1 30  2  0  0  0
  1 88  1  0  0  0
  2  3  1  0  0  0
  2 25  1  0  0  0
  2 89  1  0  0  0
  2 90  1  0  0  0
  3  4  1  0  0  0
  3 91  1  0  0  0
  3 92  1  0  0  0
  4  5  1  0  0  0
  4 93  1  0  0  0
  4 94  1  0  0  0
  5  6  1  0  0  0
  5 26  1  0  0  0
  5 95  1  0  0  0
  6 25  1  0  0  0
  6 96  1  0  0  0
  6 97  1  0  0  0
  7  8  2  0  0  0
  7 26  1  0  0  0
  7 29  1  0  0  0
  8  9  1  0  0  0
  8 22  1  0  0  0
  9 10  1  0  0  0
  9 27  2  0  0  0
 10 11  2  0  0  0
 10 15  1  0  0  0
 11 12  1  0  0  0
 11 98  1  0  0  0
 12 13  2  0  0  0
 12 99  1  0  0  0
 13 14  1  0  0  0
 13 31  1  0  0  0
 14 15  2  0  0  0
 14100  1  0  0  0
 15101  1  0  0  0
 16 17  2  0  0  0
 16 21  1  0  0  0
 16 31  1  0  0  0
 17 18  1  0  0  0
 17102  1  0  0  0
 18 19  2  0  0  0
 18103  1  0  0  0
 19 20  1  0  0  0
 19 24  1  0  0  0
 20 21  2  0  0  0
 20104  1  0  0  0
 21 23  1  0  0  0
 22 28  1  0  0  0
 22 32  2  0  0  0
 26 27  1  0  0  0
 28105  1  0  0  0
 28106  1  0  0  0
 29107  1  0  0  0
 29108  1  0  0  0
 33 34  1  0  0  0
 33 66  1  0  0  0
 33 70  2  0  0  0
 34 36  1  0  0  0
 34 59  1  0  0  0
 34109  1  0  0  0
 35 44  2  0  0  0
 35 45  1  0  0  0
 35 68  1  0  0  0
 36 56  1  0  0  0
 36110  1  0  0  0
 37 39  1  0  0  0
 37 47  1  0  0  0
 37 66  1  0  0  0
 37111  1  0  0  0
 38 43  2  0  0  0
 38 46  1  0  0  0
 38 47  1  0  0  0
 39 64  1  0  0  0
 39 67  2  0  0  0
 40 52  1  0  0  0
 40 53  2  0  0  0
 40 58  1  0  0  0
 41112  1  0  0  0
 41113  1  0  0  0
 41114  1  0  0  0
 41 48  1  0  0  0
 42 43  1  0  0  0
 42 66  1  0  0  0
 42115  1  0  0  0
 42116  1  0  0  0
 43 44  1  0  0  0
 44117  1  0  0  0
 45 46  2  0  0  0
 45118  1  0  0  0
 46119  1  0  0  0
 47120  1  0  0  0
 47121  1  0  0  0
 48 56  1  0  0  0
 48 65  1  0  0  0
 48122  1  0  0  0
 49 50  1  0  0  0
 49 53  1  0  0  0
 49 64  1  0  0  0
 49123  1  0  0  0
 50 51  1  0  0  0
 50124  1  0  0  0
 50125  1  0  0  0
 51 52  1  0  0  0
 51126  1  0  0  0
 51127  1  0  0  0
 52128  1  0  0  0
 52129  1  0  0  0
 53 54  1  0  0  0
 54 55  2  0  0  0
 54130  1  0  0  0
 55 57  1  0  0  0
 55131  1  0  0  0
 56 69  2  0  0  0
 57 58  2  0  0  0
 57132  1  0  0  0
 58133  1  0  0  0
 59 60  1  0  0  0
 59 61  1  0  0  0
 59 62  1  0  0  0
 60134  1  0  0  0
 60135  1  0  0  0
 60136  1  0  0  0
 61137  1  0  0  0
 61138  1  0  0  0
 61139  1  0  0  0
 62140  1  0  0  0
 62141  1  0  0  0
 62142  1  0  0  0
 63 65  1  0  0  0
 63143  1  0  0  0
 63144  1  0  0  0
 63145  1  0  0  0
 64146  1  0  0  0
 65147  1  0  0  0
 68 87  1  0  0  0
 71 72  2  0  0  0
 71 81  1  0  0  0
 71148  1  0  0  0
 72 82  1  0  0  0
 72149  1  0  0  0
 73 74  2  0  0  0
 73 85  1  0  0  0
 73150  1  0  0  0
 74 86  1  0  0  0
 74151  1  0  0  0
 75 76  1  0  0  0
 75 77  1  0  0  0
 75152  1  0  0  0
 75153  1  0  0  0
 76 78  1  0  0  0
 76154  1  0  0  0
 76155  1  0  0  0
 77156  1  0  0  0
 77157  1  0  0  0
 77 81  1  0  0  0
 78158  1  0  0  0
 78159  1  0  0  0
 78 83  1  0  0  0
 79 80  1  0  0  0
 79 83  1  0  0  0
 79160  1  0  0  0
 79161  1  0  0  0
 80 84  1  0  0  0
 80162  1  0  0  0
 80163  1  0  0  0
 81 83  1  0  0  0
 81164  1  0  0  0
 82 84  1  0  0  0
 82 85  1  0  0  0
 82165  1  0  0  0
 83166  1  0  0  0
 84 88  1  0  0  0
 84167  1  0  0  0
 85168  1  0  0  0
 85169  1  0  0  0
 86 87  1  0  0  0
 86170  1  0  0  0
 86171  1  0  0  0
 87172  1  0  0  0
 87173  1  0  0  0
 88174  1  0  0  0
M  ISO  4   1 100  68 101  87 101  88 100
M  END
> <chiral flag>
0

> <version>
0

> <s_m_source_file>
/data/baiqing/PycharmProjects/Reinvent-master-3.2/result/LINK_invent/BTK/process_docking_weight1_custom_product_contain_oxygen_bond_distance_aromatic_linkinvent_7_9_3/rearranged_h_0036.sdf

> <i_m_source_file_index>
57

> <r_mmod_Potential_Energy-OPLS-2005>
209.755752563477

> <r_mmod_Stretch_Energy-OPLS-2005>
110.34432220459

> <r_mmod_Bend_Energy-OPLS-2005>
189.346527099609

> <r_mmod_Torsional_Energy-OPLS-2005>
270.516662597656

> <r_mmod_Improper_Torsional_Energy-OPLS-2005>
4.15768909454346

> <r_mmod_Van_der_Waal_Energy-OPLS-2005>
141.211853027344

> <r_mmod_Electrostatic_Energy-OPLS-2005>
-385.557312011719

> <r_mmod_Solvation_Energy-OPLS-2005>
-188.322814941406

> <b_mmod_Minimization_Converged-OPLS-2005>
0

> <r_mmod_RMS_Derivative-OPLS-2005>
0.881663978099823

$$$$
57
                    3D
 Structure written by MMmdl.
159167  0  0  1  0            999 V2000
  -30.6878  -14.4881   20.4764 C   0  0  0  0  0  0
  -30.4191  -12.2888   19.4354 C   0  0  0  0  0  0
  -29.4974  -12.4631   18.2107 C   0  0  0  0  0  0
  -28.0169  -12.3321   18.6241 C   0  0  0  0  0  0
  -27.6496  -13.1995   19.8563 C   0  0  2  0  0  0
  -28.6940  -13.0333   20.9860 C   0  0  0  0  0  0
  -25.2515  -13.8098   20.5574 C   0  0  0  0  0  0
  -24.1826  -13.0400   20.9235 C   0  0  0  0  0  0
  -24.6377  -11.6863   20.8770 C   0  0  0  0  0  0
  -23.9041  -10.4271   21.0419 C   0  0  0  0  0  0
  -24.3620   -9.4206   21.9211 C   0  0  0  0  0  0
  -23.6298   -8.2246   22.0763 C   0  0  0  0  0  0
  -22.4298   -8.0273   21.3540 C   0  0  0  0  0  0
  -21.9892   -9.0243   20.4661 C   0  0  0  0  0  0
  -22.7207  -10.2125   20.3077 C   0  0  0  0  0  0
  -21.6856   -6.0733   22.5281 C   0  0  0  0  0  0
  -21.3997   -6.5643   23.8216 C   0  0  0  0  0  0
  -21.3658   -5.6802   24.9178 C   0  0  0  0  0  0
  -21.6067   -4.3059   24.7220 C   0  0  0  0  0  0
  -21.8833   -3.8142   23.4337 C   0  0  0  0  0  0
  -21.9194   -4.6966   22.3396 C   0  0  0  0  0  0
  -22.7851  -13.5186   21.1910 C   0  0  0  0  0  0
  -22.1653   -4.2152   21.0967 F   0  0  0  0  0  0
  -21.5654   -3.4533   25.7726 F   0  0  0  0  0  0
  -30.0193  -13.3074   20.4155 N   0  0  0  0  0  0
  -26.2946  -12.9271   20.3241 N   0  0  0  0  0  0
  -25.9295  -11.6452   20.5799 N   0  0  0  0  0  0
  -22.0481  -12.8209   22.0480 N   0  0  0  0  0  0
  -25.4190  -15.1791   20.3684 N   0  0  0  0  0  0
  -31.8934  -14.5723   20.2256 O   0  0  0  0  0  0
  -21.6666   -6.8871   21.4242 O   0  0  0  0  0  0
  -22.3547  -14.5489   20.6725 O   0  0  0  0  0  0
  -24.6143  -31.8725   23.2156 C   0  0  0  0  0  0
  -25.9048  -32.4849   23.8423 C   0  0  1  0  0  0
  -27.2000  -27.4260   20.0815 C   0  0  0  0  0  0
  -25.5925  -33.8646   24.2371 N   0  0  0  0  0  0
  -23.3973  -30.5043   21.5602 C   0  0  2  0  0  0
  -24.8301  -28.9767   20.1117 C   0  0  0  0  0  0
  -22.7394  -29.4723   22.5037 C   0  0  0  0  0  0
  -18.0282  -28.1397   22.8493 C   0  0  0  0  0  0
  -24.1492  -36.7306   23.2642 C   0  0  0  0  0  0
  -25.9284  -30.8312   21.3701 C   0  0  0  0  0  0
  -25.9955  -29.4684   20.7124 C   0  0  0  0  0  0
  -27.1828  -28.6987   20.6988 C   0  0  0  0  0  0
  -26.0142  -26.9639   19.4585 C   0  0  0  0  0  0
  -24.8336  -27.7221   19.4860 C   0  0  0  0  0  0
  -23.5974  -29.8493   20.1696 C   0  0  0  0  0  0
  -25.4117  -36.3133   24.0357 C   0  0  1  0  0  0
  -20.5867  -28.3693   23.1314 C   0  0  2  0  0  0
  -20.6778  -26.9435   22.5418 C   0  0  0  0  0  0
  -19.5762  -26.6404   21.5213 C   0  0  0  0  0  0
  -18.1929  -26.7948   22.1613 C   0  0  0  0  0  0
  -19.1530  -28.8863   23.2898 C   0  0  0  0  0  0
  -18.9455  -30.1461   23.8915 C   0  0  0  0  0  0
  -17.6458  -30.6599   24.0582 C   0  0  0  0  0  0
  -25.9048  -34.9494   23.5161 C   0  0  0  0  0  0
  -16.5353  -29.9104   23.6331 C   0  0  0  0  0  0
  -16.7268  -28.6524   23.0346 C   0  0  0  0  0  0
  -26.4486  -31.6610   25.0730 C   0  0  0  0  0  0
  -25.3776  -31.3663   26.1495 C   0  0  0  0  0  0
  -27.0307  -30.3067   24.6055 C   0  0  0  0  0  0
  -27.6097  -32.4319   25.7438 C   0  0  0  0  0  0
  -27.5597  -37.1806   24.8476 C   0  0  0  0  0  0
  -21.4136  -29.3062   22.3728 N   0  0  0  0  0  0
  -26.4308  -37.3810   23.9427 N   0  0  0  0  0  0
  -24.6663  -31.0829   22.1067 N   0  0  0  0  0  0
  -23.4171  -28.8271   23.3086 O   0  0  0  0  0  0
  -28.3532  -26.6641   20.1127 O   0  0  0  0  0  0
  -26.5595  -34.8933   22.4708 O   0  0  0  0  0  0
  -23.5337  -32.1505   23.7544 O   0  0  0  0  0  0
  -28.8903  -19.9958   19.9957 C   0  0  0  0  0  0
  -28.6132  -18.6270   20.1788 C   0  0  0  0  0  0
  -30.6466  -19.8544   21.6679 C   0  0  0  0  0  0
  -29.9145  -20.6248   20.7384 C   0  0  0  0  0  0
  -29.3771  -17.8429   21.0718 C   0  0  0  0  0  0
  -30.3940  -18.4747   21.8297 C   0  0  0  0  0  0
  -30.1962  -16.2220   18.8688 C   0  0  0  0  0  0
  -29.1337  -16.3265   21.1314 C   0  0  0  0  0  0
  -30.2747  -22.0962   20.5190 C   0  0  0  0  0  0
  -29.3535  -24.4275   20.4734 C   0  0  0  0  0  0
  -28.1767  -25.2493   19.9237 C   0  0  0  0  0  0
  -29.9073  -15.5456   20.1448 N   0  0  0  0  0  0
  -29.0915  -22.9664   20.3635 N   0  3  0  0  0  0
  -31.3678  -17.5736   22.9355 Cl  0  0  0  0  0  0
  -31.4649  -12.3809   19.1370 H   0  0  0  0  0  0
  -30.3151  -11.2905   19.8648 H   0  0  0  0  0  0
  -29.7467  -11.7213   17.4505 H   0  0  0  0  0  0
  -29.6619  -13.4339   17.7454 H   0  0  0  0  0  0
  -27.8320  -11.2818   18.8463 H   0  0  0  0  0  0
  -27.3668  -12.5745   17.7846 H   0  0  0  0  0  0
  -27.6720  -14.2327   19.5145 H   0  0  0  0  0  0
  -28.6713  -12.0227   21.3957 H   0  0  0  0  0  0
  -28.4737  -13.6995   21.8196 H   0  0  0  0  0  0
  -25.2788   -9.5669   22.4796 H   0  0  0  0  0  0
  -24.0003   -7.4624   22.7462 H   0  0  0  0  0  0
  -21.0826   -8.8732   19.8981 H   0  0  0  0  0  0
  -22.3643  -10.9663   19.6199 H   0  0  0  0  0  0
  -21.1969   -7.6160   23.9705 H   0  0  0  0  0  0
  -21.1492   -6.0531   25.9097 H   0  0  0  0  0  0
  -22.0627   -2.7602   23.2825 H   0  0  0  0  0  0
  -22.4036  -11.9848   22.4914 H   0  0  0  0  0  0
  -21.1109  -13.1288   22.2660 H   0  0  0  0  0  0
  -24.6251  -15.8076   20.4111 H   0  0  0  0  0  0
  -26.1929  -15.5642   19.8424 H   0  0  0  0  0  0
  -26.7105  -32.5545   23.1169 H   0  0  0  0  0  0
  -25.0108  -33.9814   25.0536 H   0  0  0  0  0  0
  -22.6868  -31.3243   21.4332 H   0  0  0  0  0  0
  -23.3773  -35.9619   23.3325 H   0  0  0  0  0  0
  -24.3591  -36.8887   22.2052 H   0  0  0  0  0  0
  -23.7214  -37.6511   23.6626 H   0  0  0  0  0  0
  -26.0437  -31.5962   20.6012 H   0  0  0  0  0  0
  -26.8163  -30.8774   21.9873 H   0  0  0  0  0  0
  -28.0763  -29.0683   21.1810 H   0  0  0  0  0  0
  -25.9597  -26.0181   18.9407 H   0  0  0  0  0  0
  -23.9371  -27.3400   19.0154 H   0  0  0  0  0  0
  -23.7073  -30.6324   19.4191 H   0  0  0  0  0  0
  -22.7144  -29.2822   19.8709 H   0  0  0  0  0  0
  -25.1283  -36.2019   25.0853 H   0  0  0  0  0  0
  -20.9943  -28.3265   24.1440 H   0  0  0  0  0  0
  -20.5692  -26.2316   23.3610 H   0  0  0  0  0  0
  -21.6651  -26.7501   22.1208 H   0  0  0  0  0  0
  -19.6928  -25.6312   21.1246 H   0  0  0  0  0  0
  -19.6694  -27.3214   20.6738 H   0  0  0  0  0  0
  -17.4207  -26.6710   21.3998 H   0  0  0  0  0  0
  -18.0319  -26.0077   22.8995 H   0  0  0  0  0  0
  -19.7933  -30.7272   24.2281 H   0  0  0  0  0  0
  -17.5023  -31.6273   24.5197 H   0  0  0  0  0  0
  -15.5357  -30.3017   23.7653 H   0  0  0  0  0  0
  -15.8665  -28.0854   22.7044 H   0  0  0  0  0  0
  -24.5915  -30.7064   25.7806 H   0  0  0  0  0  0
  -24.9002  -32.2792   26.5064 H   0  0  0  0  0  0
  -25.8141  -30.8719   27.0184 H   0  0  0  0  0  0
  -26.2797  -29.6800   24.1225 H   0  0  0  0  0  0
  -27.4246  -29.7331   25.4459 H   0  0  0  0  0  0
  -27.8572  -30.4437   23.9079 H   0  0  0  0  0  0
  -27.2757  -33.3606   26.2079 H   0  0  0  0  0  0
  -28.3817  -32.6911   25.0178 H   0  0  0  0  0  0
  -28.0869  -31.8413   26.5271 H   0  0  0  0  0  0
  -28.2639  -38.0081   24.7539 H   0  0  0  0  0  0
  -28.1074  -36.2627   24.6292 H   0  0  0  0  0  0
  -27.2326  -37.1441   25.8880 H   0  0  0  0  0  0
  -20.9302  -29.8755   21.6913 H   0  0  0  0  0  0
  -26.0218  -38.2902   24.1415 H   0  0  0  0  0  0
  -28.3160  -20.5431   19.2612 H   0  0  0  0  0  0
  -27.8383  -18.1642   19.5840 H   0  0  0  0  0  0
  -31.4387  -20.3136   22.2426 H   0  0  0  0  0  0
  -29.2936  -16.6597   18.4427 H   0  0  0  0  0  0
  -30.5953  -15.5384   18.1175 H   0  0  0  0  0  0
  -30.9346  -17.0122   19.0092 H   0  0  0  0  0  0
  -28.0733  -16.1472   20.9527 H   0  0  0  0  0  0
  -29.3148  -15.9646   22.1444 H   0  0  0  0  0  0
  -30.9066  -22.1836   19.6339 H   0  0  0  0  0  0
  -30.8669  -22.4476   21.3638 H   0  0  0  0  0  0
  -29.5234  -24.6788   21.5211 H   0  0  0  0  0  0
  -30.2587  -24.6949   19.9321 H   0  0  0  0  0  0
  -27.2719  -24.9053   20.4308 H   0  0  0  0  0  0
  -28.0503  -25.0421   18.8596 H   0  0  0  0  0  0
  -28.4084  -22.6873   21.0492 H   0  0  0  0  0  0
  -28.7079  -22.7710   19.4527 H   0  0  0  0  0  0
  1 25  1  0  0  0
  1 30  2  0  0  0
  1 82  1  0  0  0
  2  3  1  0  0  0
  2 25  1  0  0  0
  2 85  1  0  0  0
  2 86  1  0  0  0
  3  4  1  0  0  0
  3 87  1  0  0  0
  3 88  1  0  0  0
  4  5  1  0  0  0
  4 89  1  0  0  0
  4 90  1  0  0  0
  5  6  1  0  0  0
  5 26  1  0  0  0
  5 91  1  0  0  0
  6 25  1  0  0  0
  6 92  1  0  0  0
  6 93  1  0  0  0
  7  8  2  0  0  0
  7 26  1  0  0  0
  7 29  1  0  0  0
  8  9  1  0  0  0
  8 22  1  0  0  0
  9 10  1  0  0  0
  9 27  2  0  0  0
 10 11  2  0  0  0
 10 15  1  0  0  0
 11 12  1  0  0  0
 11 94  1  0  0  0
 12 13  2  0  0  0
 12 95  1  0  0  0
 13 14  1  0  0  0
 13 31  1  0  0  0
 14 15  2  0  0  0
 14 96  1  0  0  0
 15 97  1  0  0  0
 16 17  2  0  0  0
 16 21  1  0  0  0
 16 31  1  0  0  0
 17 18  1  0  0  0
 17 98  1  0  0  0
 18 19  2  0  0  0
 18 99  1  0  0  0
 19 20  1  0  0  0
 19 24  1  0  0  0
 20 21  2  0  0  0
 20100  1  0  0  0
 21 23  1  0  0  0
 22 28  1  0  0  0
 22 32  2  0  0  0
 26 27  1  0  0  0
 28101  1  0  0  0
 28102  1  0  0  0
 29103  1  0  0  0
 29104  1  0  0  0
 33 34  1  0  0  0
 33 66  1  0  0  0
 33 70  2  0  0  0
 34 36  1  0  0  0
 34 59  1  0  0  0
 34105  1  0  0  0
 35 44  2  0  0  0
 35 45  1  0  0  0
 35 68  1  0  0  0
 36 56  1  0  0  0
 36106  1  0  0  0
 37 39  1  0  0  0
 37 47  1  0  0  0
 37 66  1  0  0  0
 37107  1  0  0  0
 38 43  2  0  0  0
 38 46  1  0  0  0
 38 47  1  0  0  0
 39 64  1  0  0  0
 39 67  2  0  0  0
 40 52  1  0  0  0
 40 53  2  0  0  0
 40 58  1  0  0  0
 41108  1  0  0  0
 41109  1  0  0  0
 41110  1  0  0  0
 41 48  1  0  0  0
 42 43  1  0  0  0
 42 66  1  0  0  0
 42111  1  0  0  0
 42112  1  0  0  0
 43 44  1  0  0  0
 44113  1  0  0  0
 45 46  2  0  0  0
 45114  1  0  0  0
 46115  1  0  0  0
 47116  1  0  0  0
 47117  1  0  0  0
 48 56  1  0  0  0
 48 65  1  0  0  0
 48118  1  0  0  0
 49 50  1  0  0  0
 49 53  1  0  0  0
 49 64  1  0  0  0
 49119  1  0  0  0
 50 51  1  0  0  0
 50120  1  0  0  0
 50121  1  0  0  0
 51 52  1  0  0  0
 51122  1  0  0  0
 51123  1  0  0  0
 52124  1  0  0  0
 52125  1  0  0  0
 53 54  1  0  0  0
 54 55  2  0  0  0
 54126  1  0  0  0
 55 57  1  0  0  0
 55127  1  0  0  0
 56 69  2  0  0  0
 57 58  2  0  0  0
 57128  1  0  0  0
 58129  1  0  0  0
 59 60  1  0  0  0
 59 61  1  0  0  0
 59 62  1  0  0  0
 60130  1  0  0  0
 60131  1  0  0  0
 60132  1  0  0  0
 61133  1  0  0  0
 61134  1  0  0  0
 61135  1  0  0  0
 62136  1  0  0  0
 62137  1  0  0  0
 62138  1  0  0  0
 63 65  1  0  0  0
 63139  1  0  0  0
 63140  1  0  0  0
 63141  1  0  0  0
 64142  1  0  0  0
 65143  1  0  0  0
 68 81  1  0  0  0
 71 72  2  0  0  0
 71 74  1  0  0  0
 71144  1  0  0  0
 72 75  1  0  0  0
 72145  1  0  0  0
 73 74  2  0  0  0
 73 76  1  0  0  0
 73146  1  0  0  0
 74 79  1  0  0  0
 75 76  2  0  0  0
 75 78  1  0  0  0
 76 84  1  0  0  0
 77 82  1  0  0  0
 77147  1  0  0  0
 77148  1  0  0  0
 77149  1  0  0  0
 78 82  1  0  0  0
 78150  1  0  0  0
 78151  1  0  0  0
 79 83  1  0  0  0
 79152  1  0  0  0
 79153  1  0  0  0
 80 81  1  0  0  0
 80 83  1  0  0  0
 80154  1  0  0  0
 80155  1  0  0  0
 81156  1  0  0  0
 81157  1  0  0  0
 83158  1  0  0  0
 83159  1  0  0  0
M  CHG  1  83   1
M  ISO  4   1 100  68 101  81 101  82 100
M  END
> <chiral flag>
0

> <version>
0

> <s_m_source_file>
/data/baiqing/PycharmProjects/Reinvent-master-3.2/result/LINK_invent/BTK/process_docking_weight1_custom_product_contain_oxygen_bond_distance_aromatic_linkinvent_7_9_3/rearranged_h_0036.sdf

> <i_m_source_file_index>
58

> <r_mmod_Potential_Energy-OPLS-2005>
-58.3450469970703

> <r_mmod_Stretch_Energy-OPLS-2005>
36.5065612792969

> <r_mmod_Bend_Energy-OPLS-2005>
87.9786376953125

> <r_mmod_Torsional_Energy-OPLS-2005>
276.539733886719

> <r_mmod_Improper_Torsional_Energy-OPLS-2005>
27.3114242553711

> <r_mmod_Van_der_Waal_Energy-OPLS-2005>
158.289093017578

> <r_mmod_Electrostatic_Energy-OPLS-2005>
-212.603012084961

> <r_mmod_Solvation_Energy-OPLS-2005>
-457.723358154297

> <b_mmod_Minimization_Converged-OPLS-2005>
0

> <r_mmod_RMS_Derivative-OPLS-2005>
3.76853847503662

$$$$
58
                    3D
 Structure written by MMmdl.
160168  0  0  1  0            999 V2000
  -30.7005  -14.4743   20.5940 C   0  0  0  0  0  0
  -30.4248  -12.3192   19.4146 C   0  0  0  0  0  0
  -29.4955  -12.5162   18.2002 C   0  0  0  0  0  0
  -28.0156  -12.3749   18.6124 C   0  0  0  0  0  0
  -27.6608  -13.2101   19.8727 C   0  0  2  0  0  0
  -28.7018  -12.9843   20.9901 C   0  0  0  0  0  0
  -25.2583  -13.8168   20.5687 C   0  0  0  0  0  0
  -24.1831  -13.0447   20.9185 C   0  0  0  0  0  0
  -24.6388  -11.6915   20.8725 C   0  0  0  0  0  0
  -23.9060  -10.4301   21.0405 C   0  0  0  0  0  0
  -24.3616   -9.4212   21.9183 C   0  0  0  0  0  0
  -23.6298   -8.2238   22.0747 C   0  0  0  0  0  0
  -22.4275   -8.0276   21.3548 C   0  0  0  0  0  0
  -21.9912   -9.0255   20.4648 C   0  0  0  0  0  0
  -22.7235  -10.2137   20.3059 C   0  0  0  0  0  0
  -21.6846   -6.0738   22.5280 C   0  0  0  0  0  0
  -21.4014   -6.5639   23.8218 C   0  0  0  0  0  0
  -21.3659   -5.6783   24.9172 C   0  0  0  0  0  0
  -21.6043   -4.3045   24.7221 C   0  0  0  0  0  0
  -21.8815   -3.8147   23.4334 C   0  0  0  0  0  0
  -21.9189   -4.6969   22.3396 C   0  0  0  0  0  0
  -22.7850  -13.5253   21.1845 C   0  0  0  0  0  0
  -22.1657   -4.2158   21.0972 F   0  0  0  0  0  0
  -21.5637   -3.4527   25.7734 F   0  0  0  0  0  0
  -30.0285  -13.3021   20.4351 N   0  0  0  0  0  0
  -26.3016  -12.9343   20.3347 N   0  0  0  0  0  0
  -25.9317  -11.6500   20.5747 N   0  0  0  0  0  0
  -22.0462  -12.8258   22.0391 N   0  0  0  0  0  0
  -25.4332  -15.1883   20.4107 N   0  0  0  0  0  0
  -31.8225  -14.6689   20.1187 O   0  0  0  0  0  0
  -21.6631   -6.8879   21.4242 O   0  0  0  0  0  0
  -22.3537  -14.5552   20.6679 O   0  0  0  0  0  0
  -24.6160  -31.8660   23.2102 C   0  0  0  0  0  0
  -25.9042  -32.4810   23.8403 C   0  0  1  0  0  0
  -27.2246  -27.4112   20.0905 C   0  0  0  0  0  0
  -25.5901  -33.8613   24.2335 N   0  0  0  0  0  0
  -23.4045  -30.4919   21.5511 C   0  0  2  0  0  0
  -24.8478  -28.9596   20.1137 C   0  0  0  0  0  0
  -22.7422  -29.4631   22.4961 C   0  0  0  0  0  0
  -18.0268  -28.1369   22.8483 C   0  0  0  0  0  0
  -24.1497  -36.7312   23.2635 C   0  0  0  0  0  0
  -25.9374  -30.8249   21.3664 C   0  0  0  0  0  0
  -26.0120  -29.4597   20.7096 C   0  0  0  0  0  0
  -27.2038  -28.6949   20.6909 C   0  0  0  0  0  0
  -26.0375  -26.9338   19.4889 C   0  0  0  0  0  0
  -24.8567  -27.6972   19.5001 C   0  0  0  0  0  0
  -23.6137  -29.8305   20.1641 C   0  0  0  0  0  0
  -25.4112  -36.3101   24.0333 C   0  0  1  0  0  0
  -20.5860  -28.3657   23.1311 C   0  0  2  0  0  0
  -20.6761  -26.9389   22.5418 C   0  0  0  0  0  0
  -19.5743  -26.6374   21.5210 C   0  0  0  0  0  0
  -18.1915  -26.7916   22.1614 C   0  0  0  0  0  0
  -19.1516  -28.8827   23.2897 C   0  0  0  0  0  0
  -18.9440  -30.1430   23.8914 C   0  0  0  0  0  0
  -17.6444  -30.6579   24.0553 C   0  0  0  0  0  0
  -25.9033  -34.9463   23.5125 C   0  0  0  0  0  0
  -16.5336  -29.9080   23.6314 C   0  0  0  0  0  0
  -16.7256  -28.6493   23.0342 C   0  0  0  0  0  0
  -26.4466  -31.6586   25.0730 C   0  0  0  0  0  0
  -25.3735  -31.3686   26.1479 C   0  0  0  0  0  0
  -27.0295  -30.3034   24.6089 C   0  0  0  0  0  0
  -27.6043  -32.4301   25.7493 C   0  0  0  0  0  0
  -27.5578  -37.1812   24.8455 C   0  0  0  0  0  0
  -21.4146  -29.3030   22.3726 N   0  0  0  0  0  0
  -26.4295  -37.3784   23.9396 N   0  0  0  0  0  0
  -24.6713  -31.0750   22.1011 N   0  0  0  0  0  0
  -23.4197  -28.8149   23.2983 O   0  0  0  0  0  0
  -28.3874  -26.6583   20.1076 O   0  0  0  0  0  0
  -26.5587  -34.8910   22.4686 O   0  0  0  0  0  0
  -23.5345  -32.1412   23.7483 O   0  0  0  0  0  0
  -28.9232  -20.0873   21.0330 C   0  0  0  0  0  0
  -31.1350  -18.5884   20.1991 C   0  0  0  0  0  0
  -29.8435  -20.6850   20.1374 C   0  0  0  0  0  0
  -29.1094  -18.7708   21.5262 C   0  0  0  0  0  0
  -30.9527  -19.9016   19.7034 C   0  0  0  0  0  0
  -30.2462  -18.0163   21.1337 C   0  0  0  0  0  0
  -29.6261  -22.1118   19.6600 C   0  0  0  0  0  0
  -28.0959  -18.2080   22.5085 C   0  0  0  0  0  0
  -32.0064  -20.4494   18.7486 C   0  0  0  0  0  0
  -30.6246  -16.6784   21.7946 C   0  0  0  0  0  0
  -29.5452  -24.4982   20.4421 C   0  0  0  0  0  0
  -28.2506  -25.2238   20.0079 C   0  0  0  0  0  0
  -29.4137  -23.0378   20.6098 N   0  0  0  0  0  0
  -30.0363  -15.4458   21.2485 N   0  0  0  0  0  0
  -29.7229  -22.4071   18.4677 O   0  0  0  0  0  0
  -31.4691  -12.4255   19.1154 H   0  0  0  0  0  0
  -30.3340  -11.3068   19.8114 H   0  0  0  0  0  0
  -29.7392  -11.7938   17.4199 H   0  0  0  0  0  0
  -29.6633  -13.5030   17.7655 H   0  0  0  0  0  0
  -27.8238  -11.3187   18.8032 H   0  0  0  0  0  0
  -27.3670  -12.6570   17.7817 H   0  0  0  0  0  0
  -27.7073  -14.2601   19.5811 H   0  0  0  0  0  0
  -28.6833  -11.9456   21.3232 H   0  0  0  0  0  0
  -28.4599  -13.5713   21.8763 H   0  0  0  0  0  0
  -25.2759   -9.5694   22.4755 H   0  0  0  0  0  0
  -24.0017   -7.4623   22.7457 H   0  0  0  0  0  0
  -21.0851   -8.8776   19.8951 H   0  0  0  0  0  0
  -22.3698  -10.9678   19.6165 H   0  0  0  0  0  0
  -21.2006   -7.6146   23.9731 H   0  0  0  0  0  0
  -21.1485   -6.0505   25.9081 H   0  0  0  0  0  0
  -22.0597   -2.7614   23.2817 H   0  0  0  0  0  0
  -22.4065  -11.9943   22.4825 H   0  0  0  0  0  0
  -21.1081  -13.1312   22.2578 H   0  0  0  0  0  0
  -24.6713  -15.8483   20.5240 H   0  0  0  0  0  0
  -26.2899  -15.6239   20.0924 H   0  0  0  0  0  0
  -26.7103  -32.5508   23.1156 H   0  0  0  0  0  0
  -25.0079  -33.9789   25.0496 H   0  0  0  0  0  0
  -22.6924  -31.3087   21.4147 H   0  0  0  0  0  0
  -23.3750  -35.9653   23.3303 H   0  0  0  0  0  0
  -24.3595  -36.8925   22.2048 H   0  0  0  0  0  0
  -23.7266  -37.6523   23.6656 H   0  0  0  0  0  0
  -26.0514  -31.5897   20.5971 H   0  0  0  0  0  0
  -26.8262  -30.8780   21.9835 H   0  0  0  0  0  0
  -28.1037  -29.0748   21.1539 H   0  0  0  0  0  0
  -26.0020  -25.9710   19.0006 H   0  0  0  0  0  0
  -23.9605  -27.3100   19.0348 H   0  0  0  0  0  0
  -23.7284  -30.6092   19.4092 H   0  0  0  0  0  0
  -22.7362  -29.2556   19.8615 H   0  0  0  0  0  0
  -25.1293  -36.1966   25.0828 H   0  0  0  0  0  0
  -20.9949  -28.3228   24.1431 H   0  0  0  0  0  0
  -20.5671  -26.2254   23.3604 H   0  0  0  0  0  0
  -21.6630  -26.7431   22.1207 H   0  0  0  0  0  0
  -19.6905  -25.6287   21.1231 H   0  0  0  0  0  0
  -19.6694  -27.3193   20.6748 H   0  0  0  0  0  0
  -17.4192  -26.6661   21.4011 H   0  0  0  0  0  0
  -18.0311  -26.0060   22.9014 H   0  0  0  0  0  0
  -19.7915  -30.7233   24.2304 H   0  0  0  0  0  0
  -17.4997  -31.6263   24.5149 H   0  0  0  0  0  0
  -15.5336  -30.2990   23.7619 H   0  0  0  0  0  0
  -15.8653  -28.0819   22.7050 H   0  0  0  0  0  0
  -24.5913  -30.7024   25.7823 H   0  0  0  0  0  0
  -24.8911  -32.2835   26.4929 H   0  0  0  0  0  0
  -25.8090  -30.8860   27.0238 H   0  0  0  0  0  0
  -26.2837  -29.6809   24.1129 H   0  0  0  0  0  0
  -27.4068  -29.7244   25.4529 H   0  0  0  0  0  0
  -27.8674  -30.4367   23.9239 H   0  0  0  0  0  0
  -27.2669  -33.3597   26.2089 H   0  0  0  0  0  0
  -28.3844  -32.6865   25.0314 H   0  0  0  0  0  0
  -28.0720  -31.8410   26.5391 H   0  0  0  0  0  0
  -28.2586  -38.0115   24.7494 H   0  0  0  0  0  0
  -28.1083  -36.2641   24.6296 H   0  0  0  0  0  0
  -27.2289  -37.1477   25.8856 H   0  0  0  0  0  0
  -20.9295  -29.8783   21.6982 H   0  0  0  0  0  0
  -26.0178  -38.2856   24.1414 H   0  0  0  0  0  0
  -28.0624  -20.6576   21.3577 H   0  0  0  0  0  0
  -32.0044  -18.0196   19.8948 H   0  0  0  0  0  0
  -27.1482  -18.7443   22.4478 H   0  0  0  0  0  0
  -28.4668  -18.2904   23.5310 H   0  0  0  0  0  0
  -27.8856  -17.1585   22.2998 H   0  0  0  0  0  0
  -32.8438  -19.7600   18.6394 H   0  0  0  0  0  0
  -32.4115  -21.3947   19.1126 H   0  0  0  0  0  0
  -31.5848  -20.6111   17.7560 H   0  0  0  0  0  0
  -30.3530  -16.7276   22.8494 H   0  0  0  0  0  0
  -31.7132  -16.5970   21.8057 H   0  0  0  0  0  0
  -29.8727  -24.9037   21.4004 H   0  0  0  0  0  0
  -30.3459  -24.7225   19.7352 H   0  0  0  0  0  0
  -27.4299  -24.8856   20.6446 H   0  0  0  0  0  0
  -28.0093  -24.9432   18.9819 H   0  0  0  0  0  0
  -29.3443  -22.6925   21.5570 H   0  0  0  0  0  0
  -29.0965  -15.2246   21.5370 H   0  0  0  0  0  0
  1 25  1  0  0  0
  1 30  2  0  0  0
  1 84  1  0  0  0
  2  3  1  0  0  0
  2 25  1  0  0  0
  2 86  1  0  0  0
  2 87  1  0  0  0
  3  4  1  0  0  0
  3 88  1  0  0  0
  3 89  1  0  0  0
  4  5  1  0  0  0
  4 90  1  0  0  0
  4 91  1  0  0  0
  5  6  1  0  0  0
  5 26  1  0  0  0
  5 92  1  0  0  0
  6 25  1  0  0  0
  6 93  1  0  0  0
  6 94  1  0  0  0
  7  8  2  0  0  0
  7 26  1  0  0  0
  7 29  1  0  0  0
  8  9  1  0  0  0
  8 22  1  0  0  0
  9 10  1  0  0  0
  9 27  2  0  0  0
 10 11  2  0  0  0
 10 15  1  0  0  0
 11 12  1  0  0  0
 11 95  1  0  0  0
 12 13  2  0  0  0
 12 96  1  0  0  0
 13 14  1  0  0  0
 13 31  1  0  0  0
 14 15  2  0  0  0
 14 97  1  0  0  0
 15 98  1  0  0  0
 16 17  2  0  0  0
 16 21  1  0  0  0
 16 31  1  0  0  0
 17 18  1  0  0  0
 17 99  1  0  0  0
 18 19  2  0  0  0
 18100  1  0  0  0
 19 20  1  0  0  0
 19 24  1  0  0  0
 20 21  2  0  0  0
 20101  1  0  0  0
 21 23  1  0  0  0
 22 28  1  0  0  0
 22 32  2  0  0  0
 26 27  1  0  0  0
 28102  1  0  0  0
 28103  1  0  0  0
 29104  1  0  0  0
 29105  1  0  0  0
 33 34  1  0  0  0
 33 66  1  0  0  0
 33 70  2  0  0  0
 34 36  1  0  0  0
 34 59  1  0  0  0
 34106  1  0  0  0
 35 44  2  0  0  0
 35 45  1  0  0  0
 35 68  1  0  0  0
 36 56  1  0  0  0
 36107  1  0  0  0
 37 39  1  0  0  0
 37 47  1  0  0  0
 37 66  1  0  0  0
 37108  1  0  0  0
 38 43  2  0  0  0
 38 46  1  0  0  0
 38 47  1  0  0  0
 39 64  1  0  0  0
 39 67  2  0  0  0
 40 52  1  0  0  0
 40 53  2  0  0  0
 40 58  1  0  0  0
 41109  1  0  0  0
 41110  1  0  0  0
 41111  1  0  0  0
 41 48  1  0  0  0
 42 43  1  0  0  0
 42 66  1  0  0  0
 42112  1  0  0  0
 42113  1  0  0  0
 43 44  1  0  0  0
 44114  1  0  0  0
 45 46  2  0  0  0
 45115  1  0  0  0
 46116  1  0  0  0
 47117  1  0  0  0
 47118  1  0  0  0
 48 56  1  0  0  0
 48 65  1  0  0  0
 48119  1  0  0  0
 49 50  1  0  0  0
 49 53  1  0  0  0
 49 64  1  0  0  0
 49120  1  0  0  0
 50 51  1  0  0  0
 50121  1  0  0  0
 50122  1  0  0  0
 51 52  1  0  0  0
 51123  1  0  0  0
 51124  1  0  0  0
 52125  1  0  0  0
 52126  1  0  0  0
 53 54  1  0  0  0
 54 55  2  0  0  0
 54127  1  0  0  0
 55 57  1  0  0  0
 55128  1  0  0  0
 56 69  2  0  0  0
 57 58  2  0  0  0
 57129  1  0  0  0
 58130  1  0  0  0
 59 60  1  0  0  0
 59 61  1  0  0  0
 59 62  1  0  0  0
 60131  1  0  0  0
 60132  1  0  0  0
 60133  1  0  0  0
 61134  1  0  0  0
 61135  1  0  0  0
 61136  1  0  0  0
 62137  1  0  0  0
 62138  1  0  0  0
 62139  1  0  0  0
 63 65  1  0  0  0
 63140  1  0  0  0
 63141  1  0  0  0
 63142  1  0  0  0
 64143  1  0  0  0
 65144  1  0  0  0
 68 82  1  0  0  0
 71 73  2  0  0  0
 71 74  1  0  0  0
 71145  1  0  0  0
 72 75  2  0  0  0
 72 76  1  0  0  0
 72146  1  0  0  0
 73 75  1  0  0  0
 73 77  1  0  0  0
 74 76  2  0  0  0
 74 78  1  0  0  0
 75 79  1  0  0  0
 76 80  1  0  0  0
 77 83  1  0  0  0
 77 85  2  0  0  0
 78147  1  0  0  0
 78148  1  0  0  0
 78149  1  0  0  0
 79150  1  0  0  0
 79151  1  0  0  0
 79152  1  0  0  0
 80 84  1  0  0  0
 80153  1  0  0  0
 80154  1  0  0  0
 81 82  1  0  0  0
 81 83  1  0  0  0
 81155  1  0  0  0
 81156  1  0  0  0
 82157  1  0  0  0
 82158  1  0  0  0
 83159  1  0  0  0
 84160  1  0  0  0
M  ISO  4   1 100  68 101  82 101  84 100
M  END
> <chiral flag>
0

> <version>
0

> <s_m_source_file>
/data/baiqing/PycharmProjects/Reinvent-master-3.2/result/LINK_invent/BTK/process_docking_weight1_custom_product_contain_oxygen_bond_distance_aromatic_linkinvent_7_9_3/rearranged_h_0036.sdf

> <i_m_source_file_index>
59

> <r_mmod_Potential_Energy-OPLS-2005>
-166.109298706055

> <r_mmod_Stretch_Energy-OPLS-2005>
41.623779296875

> <r_mmod_Bend_Energy-OPLS-2005>
97.6038055419922

> <r_mmod_Torsional_Energy-OPLS-2005>
217.499435424805

> <r_mmod_Improper_Torsional_Energy-OPLS-2005>
3.86521124839783

> <r_mmod_Van_der_Waal_Energy-OPLS-2005>
154.820083618164

> <r_mmod_Electrostatic_Energy-OPLS-2005>
-463.071411132812

> <r_mmod_Solvation_Energy-OPLS-2005>
-232.866790771484

> <b_mmod_Minimization_Converged-OPLS-2005>
0

> <r_mmod_RMS_Derivative-OPLS-2005>
1.84055292606354

$$$$
59
                    3D
 Structure written by MMmdl.
162171  0  0  1  0            999 V2000
  -30.6417  -14.6581   20.4901 C   0  0  0  0  0  0
  -30.4265  -12.4076   19.4508 C   0  0  0  0  0  0
  -29.5004  -12.4987   18.2199 C   0  0  0  0  0  0
  -28.0255  -12.3360   18.6370 C   0  0  0  0  0  0
  -27.6438  -13.2239   19.8521 C   0  0  2  0  0  0
  -28.6895  -13.1196   20.9824 C   0  0  0  0  0  0
  -25.2521  -13.8185   20.5688 C   0  0  0  0  0  0
  -24.1804  -13.0439   20.9200 C   0  0  0  0  0  0
  -24.6386  -11.6914   20.8744 C   0  0  0  0  0  0
  -23.9062  -10.4293   21.0406 C   0  0  0  0  0  0
  -24.3616   -9.4208   21.9183 C   0  0  0  0  0  0
  -23.6293   -8.2242   22.0754 C   0  0  0  0  0  0
  -22.4274   -8.0280   21.3544 C   0  0  0  0  0  0
  -21.9910   -9.0253   20.4646 C   0  0  0  0  0  0
  -22.7237  -10.2132   20.3055 C   0  0  0  0  0  0
  -21.6853   -6.0734   22.5279 C   0  0  0  0  0  0
  -21.4014   -6.5639   23.8211 C   0  0  0  0  0  0
  -21.3659   -5.6792   24.9174 C   0  0  0  0  0  0
  -21.6044   -4.3055   24.7225 C   0  0  0  0  0  0
  -21.8820   -3.8146   23.4346 C   0  0  0  0  0  0
  -21.9193   -4.6962   22.3402 C   0  0  0  0  0  0
  -22.7827  -13.5225   21.1863 C   0  0  0  0  0  0
  -22.1662   -4.2148   21.0980 F   0  0  0  0  0  0
  -21.5629   -3.4538   25.7738 F   0  0  0  0  0  0
  -29.9949  -13.4535   20.3999 N   0  0  0  0  0  0
  -26.2943  -12.9380   20.3288 N   0  0  0  0  0  0
  -25.9313  -11.6528   20.5753 N   0  0  0  0  0  0
  -22.0477  -12.8212   22.0419 N   0  0  0  0  0  0
  -25.4215  -15.1907   20.4110 N   0  0  0  0  0  0
  -31.8286  -14.7588   20.1698 O   0  0  0  0  0  0
  -21.6640   -6.8876   21.4240 O   0  0  0  0  0  0
  -22.3508  -14.5530   20.6712 O   0  0  0  0  0  0
  -24.6262  -31.8578   23.1989 C   0  0  0  0  0  0
  -25.9107  -32.4765   23.8323 C   0  0  1  0  0  0
  -27.2305  -27.3142   20.1067 C   0  0  0  0  0  0
  -25.5924  -33.8565   24.2258 N   0  0  0  0  0  0
  -23.4190  -30.4794   21.5422 C   0  0  2  0  0  0
  -24.8625  -28.9254   20.1121 C   0  0  0  0  0  0
  -22.7467  -29.4616   22.4938 C   0  0  0  0  0  0
  -18.0285  -28.1383   22.8487 C   0  0  0  0  0  0
  -24.1488  -36.7284   23.2641 C   0  0  0  0  0  0
  -25.9583  -30.7883   21.3651 C   0  0  0  0  0  0
  -26.0308  -29.4142   20.7069 C   0  0  0  0  0  0
  -27.2136  -28.6203   20.6897 C   0  0  0  0  0  0
  -26.0242  -26.8539   19.5373 C   0  0  0  0  0  0
  -24.8602  -27.6501   19.5220 C   0  0  0  0  0  0
  -23.6312  -29.8075   20.1592 C   0  0  0  0  0  0
  -25.4115  -36.3075   24.0328 C   0  0  1  0  0  0
  -20.5883  -28.3683   23.1288 C   0  0  2  0  0  0
  -20.6771  -26.9407   22.5415 C   0  0  0  0  0  0
  -19.5751  -26.6383   21.5213 C   0  0  0  0  0  0
  -18.1928  -26.7929   22.1620 C   0  0  0  0  0  0
  -19.1537  -28.8850   23.2884 C   0  0  0  0  0  0
  -18.9461  -30.1453   23.8898 C   0  0  0  0  0  0
  -17.6462  -30.6586   24.0564 C   0  0  0  0  0  0
  -25.9052  -34.9445   23.5096 C   0  0  0  0  0  0
  -16.5352  -29.9086   23.6330 C   0  0  0  0  0  0
  -16.7273  -28.6504   23.0350 C   0  0  0  0  0  0
  -26.4492  -31.6582   25.0701 C   0  0  0  0  0  0
  -25.3727  -31.3726   26.1432 C   0  0  0  0  0  0
  -27.0333  -30.3008   24.6152 C   0  0  0  0  0  0
  -27.6050  -32.4318   25.7475 C   0  0  0  0  0  0
  -27.5577  -37.1799   24.8468 C   0  0  0  0  0  0
  -21.4181  -29.3036   22.3682 N   0  0  0  0  0  0
  -26.4291  -37.3771   23.9409 N   0  0  0  0  0  0
  -24.6870  -31.0589   22.0928 N   0  0  0  0  0  0
  -23.4193  -28.8165   23.3025 O   0  0  0  0  0  0
  -28.3980  -26.5375   20.1574 O   0  0  0  0  0  0
  -26.5624  -34.8919   22.4664 O   0  0  0  0  0  0
  -23.5428  -32.1373   23.7326 O   0  0  0  0  0  0
  -30.7034  -19.3461   19.8130 C   0  0  0  0  0  0
  -28.3086  -20.4792   20.6799 C   0  0  0  0  0  0
  -30.3794  -20.6941   19.4755 C   0  0  0  0  0  0
  -29.8637  -18.5185   20.6000 C   0  0  0  0  0  0
  -29.1599  -21.3084   19.8959 C   0  0  0  0  0  0
  -28.6456  -19.1266   21.0258 C   0  0  0  0  0  0
  -28.9704  -23.9440   17.3427 C   0  0  0  0  0  0
  -28.3777  -25.2035   17.9971 C   0  0  0  0  0  0
  -28.4475  -22.6602   18.0097 C   0  0  0  0  0  0
  -28.2881  -23.8075   20.2089 C   0  0  0  0  0  0
  -28.6408  -25.2171   19.5217 C   0  0  2  0  0  0
  -31.4017  -21.4781   18.6653 C   0  0  0  0  0  0
  -30.4279  -17.1412   21.1400 C   0  0  0  0  0  0
  -28.8048  -22.6295   19.4282 N   0  0  0  0  0  0
  -29.8961  -15.7763   20.7786 N   0  0  0  0  0  0
  -27.5528  -18.2311   22.0198 Cl  0  0  0  0  0  0
  -31.4682  -12.5247   19.1469 H   0  0  0  0  0  0
  -30.3588  -11.4225   19.9149 H   0  0  0  0  0  0
  -29.7684  -11.7353   17.4883 H   0  0  0  0  0  0
  -29.6386  -13.4607   17.7237 H   0  0  0  0  0  0
  -27.8698  -11.2855   18.8852 H   0  0  0  0  0  0
  -27.3681  -12.5477   17.7930 H   0  0  0  0  0  0
  -27.6501  -14.2524   19.4906 H   0  0  0  0  0  0
  -28.7085  -12.1127   21.4017 H   0  0  0  0  0  0
  -28.4378  -13.7874   21.8079 H   0  0  0  0  0  0
  -25.2762   -9.5685   22.4757 H   0  0  0  0  0  0
  -24.0003   -7.4633   22.7471 H   0  0  0  0  0  0
  -21.0842   -8.8769   19.8950 H   0  0  0  0  0  0
  -22.3694  -10.9670   19.6163 H   0  0  0  0  0  0
  -21.2005   -7.6147   23.9714 H   0  0  0  0  0  0
  -21.1481   -6.0523   25.9077 H   0  0  0  0  0  0
  -22.0599   -2.7608   23.2847 H   0  0  0  0  0  0
  -22.4100  -11.9875   22.4804 H   0  0  0  0  0  0
  -21.1092  -13.1230   22.2627 H   0  0  0  0  0  0
  -24.6576  -15.8449   20.5390 H   0  0  0  0  0  0
  -26.2734  -15.6376   20.0988 H   0  0  0  0  0  0
  -26.7172  -32.5425   23.1066 H   0  0  0  0  0  0
  -25.0081  -33.9705   25.0410 H   0  0  0  0  0  0
  -22.7132  -31.3000   21.3970 H   0  0  0  0  0  0
  -23.3751  -35.9616   23.3313 H   0  0  0  0  0  0
  -24.3574  -36.8892   22.2052 H   0  0  0  0  0  0
  -23.7240  -37.6488   23.6657 H   0  0  0  0  0  0
  -26.0879  -31.5519   20.5969 H   0  0  0  0  0  0
  -26.8393  -30.8372   21.9936 H   0  0  0  0  0  0
  -28.1160  -28.9980   21.1496 H   0  0  0  0  0  0
  -25.9411  -25.8558   19.1416 H   0  0  0  0  0  0
  -23.9543  -27.2575   19.0809 H   0  0  0  0  0  0
  -23.7502  -30.5805   19.3992 H   0  0  0  0  0  0
  -22.7503  -29.2364   19.8604 H   0  0  0  0  0  0
  -25.1299  -36.1923   25.0821 H   0  0  0  0  0  0
  -20.9977  -28.3255   24.1409 H   0  0  0  0  0  0
  -20.5663  -26.2294   23.3614 H   0  0  0  0  0  0
  -21.6641  -26.7431   22.1215 H   0  0  0  0  0  0
  -19.6914  -25.6295   21.1239 H   0  0  0  0  0  0
  -19.6693  -27.3195   20.6746 H   0  0  0  0  0  0
  -17.4202  -26.6678   21.4019 H   0  0  0  0  0  0
  -18.0325  -26.0068   22.9012 H   0  0  0  0  0  0
  -19.7938  -30.7268   24.2264 H   0  0  0  0  0  0
  -17.5019  -31.6267   24.5165 H   0  0  0  0  0  0
  -15.5353  -30.2989   23.7657 H   0  0  0  0  0  0
  -15.8671  -28.0827   22.7061 H   0  0  0  0  0  0
  -24.5917  -30.7052   25.7772 H   0  0  0  0  0  0
  -24.8900  -32.2891   26.4834 H   0  0  0  0  0  0
  -25.8057  -30.8934   27.0221 H   0  0  0  0  0  0
  -26.2902  -29.6758   24.1184 H   0  0  0  0  0  0
  -27.4045  -29.7265   25.4651 H   0  0  0  0  0  0
  -27.8764  -30.4299   23.9360 H   0  0  0  0  0  0
  -27.2664  -33.3625   26.2041 H   0  0  0  0  0  0
  -28.3870  -32.6863   25.0309 H   0  0  0  0  0  0
  -28.0707  -31.8448   26.5401 H   0  0  0  0  0  0
  -28.2605  -38.0086   24.7500 H   0  0  0  0  0  0
  -28.1060  -36.2616   24.6311 H   0  0  0  0  0  0
  -27.2294  -37.1470   25.8871 H   0  0  0  0  0  0
  -20.9359  -29.8754   21.6889 H   0  0  0  0  0  0
  -26.0171  -38.2847   24.1405 H   0  0  0  0  0  0
  -31.6569  -18.9498   19.4930 H   0  0  0  0  0  0
  -27.3628  -20.8757   21.0178 H   0  0  0  0  0  0
  -30.0595  -23.9739   17.3962 H   0  0  0  0  0  0
  -28.7194  -23.9329   16.2812 H   0  0  0  0  0  0
  -27.3184  -25.2240   17.7616 H   0  0  0  0  0  0
  -28.8120  -26.0922   17.5386 H   0  0  0  0  0  0
  -28.8340  -21.7877   17.4804 H   0  0  0  0  0  0
  -27.3613  -22.6080   17.9154 H   0  0  0  0  0  0
  -27.2072  -23.7130   20.3198 H   0  0  0  0  0  0
  -28.7069  -23.7768   21.2155 H   0  0  0  0  0  0
  -29.7305  -25.2130   19.5772 H   0  0  0  0  0  0
  -32.3971  -21.0428   18.7546 H   0  0  0  0  0  0
  -31.4681  -22.5100   19.0113 H   0  0  0  0  0  0
  -31.1332  -21.4844   17.6094 H   0  0  0  0  0  0
  -30.3590  -17.2009   22.2268 H   0  0  0  0  0  0
  -31.5022  -17.1482   20.9502 H   0  0  0  0  0  0
  -28.9127  -15.6241   20.9403 H   0  0  0  0  0  0
  1 25  1  0  0  0
  1 30  2  0  0  0
  1 85  1  0  0  0
  2  3  1  0  0  0
  2 25  1  0  0  0
  2 87  1  0  0  0
  2 88  1  0  0  0
  3  4  1  0  0  0
  3 89  1  0  0  0
  3 90  1  0  0  0
  4  5  1  0  0  0
  4 91  1  0  0  0
  4 92  1  0  0  0
  5  6  1  0  0  0
  5 26  1  0  0  0
  5 93  1  0  0  0
  6 25  1  0  0  0
  6 94  1  0  0  0
  6 95  1  0  0  0
  7  8  2  0  0  0
  7 26  1  0  0  0
  7 29  1  0  0  0
  8  9  1  0  0  0
  8 22  1  0  0  0
  9 10  1  0  0  0
  9 27  2  0  0  0
 10 11  2  0  0  0
 10 15  1  0  0  0
 11 12  1  0  0  0
 11 96  1  0  0  0
 12 13  2  0  0  0
 12 97  1  0  0  0
 13 14  1  0  0  0
 13 31  1  0  0  0
 14 15  2  0  0  0
 14 98  1  0  0  0
 15 99  1  0  0  0
 16 17  2  0  0  0
 16 21  1  0  0  0
 16 31  1  0  0  0
 17 18  1  0  0  0
 17100  1  0  0  0
 18 19  2  0  0  0
 18101  1  0  0  0
 19 20  1  0  0  0
 19 24  1  0  0  0
 20 21  2  0  0  0
 20102  1  0  0  0
 21 23  1  0  0  0
 22 28  1  0  0  0
 22 32  2  0  0  0
 26 27  1  0  0  0
 28103  1  0  0  0
 28104  1  0  0  0
 29105  1  0  0  0
 29106  1  0  0  0
 33 34  1  0  0  0
 33 66  1  0  0  0
 33 70  2  0  0  0
 34 36  1  0  0  0
 34 59  1  0  0  0
 34107  1  0  0  0
 35 44  2  0  0  0
 35 45  1  0  0  0
 35 68  1  0  0  0
 36 56  1  0  0  0
 36108  1  0  0  0
 37 39  1  0  0  0
 37 47  1  0  0  0
 37 66  1  0  0  0
 37109  1  0  0  0
 38 43  2  0  0  0
 38 46  1  0  0  0
 38 47  1  0  0  0
 39 64  1  0  0  0
 39 67  2  0  0  0
 40 52  1  0  0  0
 40 53  2  0  0  0
 40 58  1  0  0  0
 41110  1  0  0  0
 41111  1  0  0  0
 41112  1  0  0  0
 41 48  1  0  0  0
 42 43  1  0  0  0
 42 66  1  0  0  0
 42113  1  0  0  0
 42114  1  0  0  0
 43 44  1  0  0  0
 44115  1  0  0  0
 45 46  2  0  0  0
 45116  1  0  0  0
 46117  1  0  0  0
 47118  1  0  0  0
 47119  1  0  0  0
 48 56  1  0  0  0
 48 65  1  0  0  0
 48120  1  0  0  0
 49 50  1  0  0  0
 49 53  1  0  0  0
 49 64  1  0  0  0
 49121  1  0  0  0
 50 51  1  0  0  0
 50122  1  0  0  0
 50123  1  0  0  0
 51 52  1  0  0  0
 51124  1  0  0  0
 51125  1  0  0  0
 52126  1  0  0  0
 52127  1  0  0  0
 53 54  1  0  0  0
 54 55  2  0  0  0
 54128  1  0  0  0
 55 57  1  0  0  0
 55129  1  0  0  0
 56 69  2  0  0  0
 57 58  2  0  0  0
 57130  1  0  0  0
 58131  1  0  0  0
 59 60  1  0  0  0
 59 61  1  0  0  0
 59 62  1  0  0  0
 60132  1  0  0  0
 60133  1  0  0  0
 60134  1  0  0  0
 61135  1  0  0  0
 61136  1  0  0  0
 61137  1  0  0  0
 62138  1  0  0  0
 62139  1  0  0  0
 62140  1  0  0  0
 63 65  1  0  0  0
 63141  1  0  0  0
 63142  1  0  0  0
 63143  1  0  0  0
 64144  1  0  0  0
 65145  1  0  0  0
 68 81  1  0  0  0
 71 73  2  0  0  0
 71 74  1  0  0  0
 71146  1  0  0  0
 72 75  2  0  0  0
 72 76  1  0  0  0
 72147  1  0  0  0
 73 75  1  0  0  0
 73 82  1  0  0  0
 74 76  2  0  0  0
 74 83  1  0  0  0
 75 84  1  0  0  0
 76 86  1  0  0  0
 77 78  1  0  0  0
 77 79  1  0  0  0
 77148  1  0  0  0
 77149  1  0  0  0
 78 81  1  0  0  0
 78150  1  0  0  0
 78151  1  0  0  0
 79 84  1  0  0  0
 79152  1  0  0  0
 79153  1  0  0  0
 80 81  1  0  0  0
 80 84  1  0  0  0
 80154  1  0  0  0
 80155  1  0  0  0
 81156  1  0  0  0
 82157  1  0  0  0
 82158  1  0  0  0
 82159  1  0  0  0
 83 85  1  0  0  0
 83160  1  0  0  0
 83161  1  0  0  0
 85162  1  0  0  0
M  ISO  4   1 100  68 101  81 101  85 100
M  END
> <chiral flag>
0

> <version>
0

> <s_m_source_file>
/data/baiqing/PycharmProjects/Reinvent-master-3.2/result/LINK_invent/BTK/process_docking_weight1_custom_product_contain_oxygen_bond_distance_aromatic_linkinvent_7_9_3/rearranged_h_0036.sdf

> <i_m_source_file_index>
60

> <r_mmod_Potential_Energy-OPLS-2005>
117.122329711914

> <r_mmod_Stretch_Energy-OPLS-2005>
87.4594421386719

> <r_mmod_Bend_Energy-OPLS-2005>
198.554595947266

> <r_mmod_Torsional_Energy-OPLS-2005>
246.864364624023

> <r_mmod_Improper_Torsional_Energy-OPLS-2005>
7.05210256576538

> <r_mmod_Van_der_Waal_Energy-OPLS-2005>
142.356369018555

> <r_mmod_Electrostatic_Energy-OPLS-2005>
-410.614044189453

> <r_mmod_Solvation_Energy-OPLS-2005>
-206.111679077148

> <b_mmod_Minimization_Converged-OPLS-2005>
0

> <r_mmod_RMS_Derivative-OPLS-2005>
0.292243838310242

$$$$
60
                    3D
 Structure written by MMmdl.
170179  0  0  1  0            999 V2000
  -30.6830  -14.4636   20.6135 C   0  0  0  0  0  0
  -30.4376  -12.3166   19.4071 C   0  0  0  0  0  0
  -29.4961  -12.5180   18.2001 C   0  0  0  0  0  0
  -28.0173  -12.3698   18.6143 C   0  0  0  0  0  0
  -27.6667  -13.1967   19.8794 C   0  0  2  0  0  0
  -28.7085  -12.9400   20.9914 C   0  0  0  0  0  0
  -25.2617  -13.8131   20.5671 C   0  0  0  0  0  0
  -24.1853  -13.0427   20.9168 C   0  0  0  0  0  0
  -24.6393  -11.6890   20.8730 C   0  0  0  0  0  0
  -23.9052  -10.4285   21.0403 C   0  0  0  0  0  0
  -24.3607   -9.4203   21.9181 C   0  0  0  0  0  0
  -23.6286   -8.2239   22.0754 C   0  0  0  0  0  0
  -22.4268   -8.0277   21.3545 C   0  0  0  0  0  0
  -21.9900   -9.0248   20.4648 C   0  0  0  0  0  0
  -22.7225  -10.2129   20.3056 C   0  0  0  0  0  0
  -21.6850   -6.0734   22.5280 C   0  0  0  0  0  0
  -21.4010   -6.5640   23.8213 C   0  0  0  0  0  0
  -21.3660   -5.6793   24.9176 C   0  0  0  0  0  0
  -21.6046   -4.3056   24.7226 C   0  0  0  0  0  0
  -21.8819   -3.8148   23.4347 C   0  0  0  0  0  0
  -21.9190   -4.6964   22.3402 C   0  0  0  0  0  0
  -22.7880  -13.5241   21.1836 C   0  0  0  0  0  0
  -22.1660   -4.2149   21.0981 F   0  0  0  0  0  0
  -21.5630   -3.4541   25.7739 F   0  0  0  0  0  0
  -30.0420  -13.2728   20.4512 N   0  0  0  0  0  0
  -26.3048  -12.9282   20.3374 N   0  0  0  0  0  0
  -25.9317  -11.6453   20.5760 N   0  0  0  0  0  0
  -22.0515  -12.8238   22.0394 N   0  0  0  0  0  0
  -25.4355  -15.1844   20.4074 N   0  0  0  0  0  0
  -31.7881  -14.7133   20.1204 O   0  0  0  0  0  0
  -21.6635   -6.8873   21.4241 O   0  0  0  0  0  0
  -22.3572  -14.5554   20.6692 O   0  0  0  0  0  0
  -24.6139  -31.8695   23.2124 C   0  0  0  0  0  0
  -25.9034  -32.4837   23.8419 C   0  0  1  0  0  0
  -27.2443  -27.4450   20.1019 C   0  0  0  0  0  0
  -25.5893  -33.8635   24.2348 N   0  0  0  0  0  0
  -23.4037  -30.4925   21.5519 C   0  0  2  0  0  0
  -24.8560  -28.9609   20.1206 C   0  0  0  0  0  0
  -22.7414  -29.4664   22.4996 C   0  0  0  0  0  0
  -18.0272  -28.1376   22.8493 C   0  0  0  0  0  0
  -24.1486  -36.7323   23.2638 C   0  0  0  0  0  0
  -25.9323  -30.8378   21.3672 C   0  0  0  0  0  0
  -26.0152  -29.4702   20.7224 C   0  0  0  0  0  0
  -27.2156  -28.7194   20.7199 C   0  0  0  0  0  0
  -26.0711  -26.9552   19.4957 C   0  0  0  0  0  0
  -24.8771  -27.6984   19.5060 C   0  0  0  0  0  0
  -23.6157  -29.8250   20.1673 C   0  0  0  0  0  0
  -25.4104  -36.3122   24.0342 C   0  0  1  0  0  0
  -20.5863  -28.3663   23.1318 C   0  0  2  0  0  0
  -20.6762  -26.9399   22.5418 C   0  0  0  0  0  0
  -19.5743  -26.6386   21.5212 C   0  0  0  0  0  0
  -18.1921  -26.7923   22.1623 C   0  0  0  0  0  0
  -19.1521  -28.8836   23.2903 C   0  0  0  0  0  0
  -18.9449  -30.1442   23.8914 C   0  0  0  0  0  0
  -17.6451  -30.6583   24.0565 C   0  0  0  0  0  0
  -25.9028  -34.9484   23.5140 C   0  0  0  0  0  0
  -16.5343  -29.9085   23.6325 C   0  0  0  0  0  0
  -16.7261  -28.6501   23.0349 C   0  0  0  0  0  0
  -26.4469  -31.6602   25.0733 C   0  0  0  0  0  0
  -25.3743  -31.3700   26.1485 C   0  0  0  0  0  0
  -27.0295  -30.3047   24.6089 C   0  0  0  0  0  0
  -27.6055  -32.4314   25.7486 C   0  0  0  0  0  0
  -27.5582  -37.1814   24.8465 C   0  0  0  0  0  0
  -21.4142  -29.3035   22.3729 N   0  0  0  0  0  0
  -26.4296  -37.3800   23.9409 N   0  0  0  0  0  0
  -24.6679  -31.0804   22.1025 N   0  0  0  0  0  0
  -23.4184  -28.8204   23.3038 O   0  0  0  0  0  0
  -28.3381  -26.6116   20.0184 O   0  0  0  0  0  0
  -26.5588  -34.8928   22.4700 O   0  0  0  0  0  0
  -23.5330  -32.1440   23.7517 O   0  0  0  0  0  0
  -30.9932  -18.8515   22.2615 C   0  0  0  0  0  0
  -31.0651  -17.4531   22.0567 C   0  0  0  0  0  0
  -29.0688  -17.5688   20.6765 C   0  0  0  0  0  0
  -29.9441  -19.6219   21.6998 C   0  0  0  0  0  0
  -30.0778  -16.7961   21.2911 C   0  0  0  0  0  0
  -29.0047  -18.9673   20.8630 C   0  0  0  0  0  0
  -30.6723  -23.3834   22.3529 C   0  0  0  0  0  0
  -31.5289  -23.5486   23.3799 C   0  0  0  0  0  0
  -29.6510  -24.4296   21.8986 C   0  0  0  0  0  0
  -31.2813  -23.4940   19.5029 C   0  0  0  0  0  0
  -30.5143  -24.8382   19.5259 C   0  0  0  0  0  0
  -30.4927  -22.2860   20.0780 C   0  0  0  0  0  0
  -30.2746  -25.4583   20.9255 C   0  0  1  0  0  0
  -32.5607  -22.5503   23.8725 C   0  0  0  0  0  0
  -29.7397  -21.0850   22.1392 C   0  0  0  0  0  0
  -29.4740  -26.7942   20.8516 C   0  0  0  0  0  0
  -29.9583  -15.3776   21.2842 N   0  0  0  0  0  0
  -30.6440  -22.1132   21.5489 N   0  3  1  0  0  0
  -27.7137  -19.8360   20.1094 Cl  0  0  0  0  0  0
  -31.4779  -12.4444   19.1022 H   0  0  0  0  0  0
  -30.3622  -11.2965   19.7866 H   0  0  0  0  0  0
  -29.7367  -11.8032   17.4121 H   0  0  0  0  0  0
  -29.6563  -13.5088   17.7720 H   0  0  0  0  0  0
  -27.8290  -11.3118   18.8014 H   0  0  0  0  0  0
  -27.3642  -12.6516   17.7875 H   0  0  0  0  0  0
  -27.7213  -14.2491   19.5999 H   0  0  0  0  0  0
  -28.6898  -11.8896   21.2865 H   0  0  0  0  0  0
  -28.4578  -13.4886   21.9002 H   0  0  0  0  0  0
  -25.2752   -9.5681   22.4753 H   0  0  0  0  0  0
  -23.9997   -7.4631   22.7473 H   0  0  0  0  0  0
  -21.0831   -8.8762   19.8955 H   0  0  0  0  0  0
  -22.3678  -10.9667   19.6167 H   0  0  0  0  0  0
  -21.2001   -7.6147   23.9716 H   0  0  0  0  0  0
  -21.1485   -6.0524   25.9078 H   0  0  0  0  0  0
  -22.0599   -2.7611   23.2847 H   0  0  0  0  0  0
  -22.4121  -11.9890   22.4774 H   0  0  0  0  0  0
  -21.1140  -13.1279   22.2607 H   0  0  0  0  0  0
  -24.6692  -15.8400   20.5129 H   0  0  0  0  0  0
  -26.2847  -15.6195   20.0726 H   0  0  0  0  0  0
  -26.7112  -32.5569   23.1197 H   0  0  0  0  0  0
  -25.0052  -33.9804   25.0499 H   0  0  0  0  0  0
  -22.6920  -31.3086   21.4117 H   0  0  0  0  0  0
  -23.3743  -35.9662   23.3316 H   0  0  0  0  0  0
  -24.3581  -36.8917   22.2049 H   0  0  0  0  0  0
  -23.7243  -37.6537   23.6636 H   0  0  0  0  0  0
  -26.0405  -31.6002   20.5946 H   0  0  0  0  0  0
  -26.8211  -30.8978   21.9832 H   0  0  0  0  0  0
  -28.1046  -29.1247   21.1817 H   0  0  0  0  0  0
  -26.0838  -25.9856   19.0177 H   0  0  0  0  0  0
  -23.9886  -27.2975   19.0381 H   0  0  0  0  0  0
  -23.7238  -30.5996   19.4073 H   0  0  0  0  0  0
  -22.7415  -29.2427   19.8706 H   0  0  0  0  0  0
  -25.1280  -36.1996   25.0836 H   0  0  0  0  0  0
  -20.9956  -28.3225   24.1437 H   0  0  0  0  0  0
  -20.5663  -26.2271   23.3604 H   0  0  0  0  0  0
  -21.6634  -26.7443   22.1209 H   0  0  0  0  0  0
  -19.6905  -25.6301   21.1232 H   0  0  0  0  0  0
  -19.6685  -27.3205   20.6751 H   0  0  0  0  0  0
  -17.4193  -26.6676   21.4022 H   0  0  0  0  0  0
  -18.0321  -26.0059   22.9013 H   0  0  0  0  0  0
  -19.7925  -30.7253   24.2294 H   0  0  0  0  0  0
  -17.5007  -31.6266   24.5161 H   0  0  0  0  0  0
  -15.5344  -30.2993   23.7640 H   0  0  0  0  0  0
  -15.8661  -28.0827   22.7055 H   0  0  0  0  0  0
  -24.5913  -30.7051   25.7822 H   0  0  0  0  0  0
  -24.8938  -32.2853   26.4954 H   0  0  0  0  0  0
  -25.8102  -30.8854   27.0231 H   0  0  0  0  0  0
  -26.2833  -29.6817   24.1145 H   0  0  0  0  0  0
  -27.4074  -29.7271   25.4536 H   0  0  0  0  0  0
  -27.8666  -30.4372   23.9231 H   0  0  0  0  0  0
  -27.2682  -33.3600   26.2103 H   0  0  0  0  0  0
  -28.3840  -32.6894   25.0296 H   0  0  0  0  0  0
  -28.0750  -31.8414   26.5367 H   0  0  0  0  0  0
  -28.2611  -38.0102   24.7504 H   0  0  0  0  0  0
  -28.1067  -36.2634   24.6297 H   0  0  0  0  0  0
  -27.2303  -37.1476   25.8869 H   0  0  0  0  0  0
  -20.9302  -29.8761   21.6955 H   0  0  0  0  0  0
  -26.0192  -38.2883   24.1402 H   0  0  0  0  0  0
  -31.7163  -19.3142   22.9188 H   0  0  0  0  0  0
  -31.8352  -16.8809   22.5558 H   0  0  0  0  0  0
  -28.2989  -17.0868   20.0921 H   0  0  0  0  0  0
  -31.4981  -24.4813   23.9268 H   0  0  0  0  0  0
  -29.3036  -24.9444   22.7956 H   0  0  0  0  0  0
  -28.7595  -23.9705   21.4693 H   0  0  0  0  0  0
  -32.2575  -23.5932   19.9795 H   0  0  0  0  0  0
  -31.4974  -23.2718   18.4570 H   0  0  0  0  0  0
  -29.5613  -24.6951   19.0145 H   0  0  0  0  0  0
  -31.0618  -25.5616   18.9199 H   0  0  0  0  0  0
  -30.8489  -21.3714   19.6022 H   0  0  0  0  0  0
  -29.4388  -22.3687   19.8088 H   0  0  0  0  0  0
  -31.2493  -25.7278   21.3368 H   0  0  0  0  0  0
  -32.6049  -21.6413   23.2746 H   0  0  0  0  0  0
  -32.3396  -22.2673   24.9023 H   0  0  0  0  0  0
  -33.5513  -23.0065   23.8580 H   0  0  0  0  0  0
  -29.8807  -21.0953   23.2209 H   0  0  0  0  0  0
  -28.7054  -21.3977   22.0012 H   0  0  0  0  0  0
  -30.0945  -27.5822   20.4225 H   0  0  0  0  0  0
  -29.1876  -27.1180   21.8536 H   0  0  0  0  0  0
  -29.0636  -15.0188   21.5817 H   0  0  0  0  0  0
  -31.5635  -21.7114   21.6508 H   0  0  0  0  0  0
  1 25  1  0  0  0
  1 30  2  0  0  0
  1 87  1  0  0  0
  2  3  1  0  0  0
  2 25  1  0  0  0
  2 90  1  0  0  0
  2 91  1  0  0  0
  3  4  1  0  0  0
  3 92  1  0  0  0
  3 93  1  0  0  0
  4  5  1  0  0  0
  4 94  1  0  0  0
  4 95  1  0  0  0
  5  6  1  0  0  0
  5 26  1  0  0  0
  5 96  1  0  0  0
  6 25  1  0  0  0
  6 97  1  0  0  0
  6 98  1  0  0  0
  7  8  2  0  0  0
  7 26  1  0  0  0
  7 29  1  0  0  0
  8  9  1  0  0  0
  8 22  1  0  0  0
  9 10  1  0  0  0
  9 27  2  0  0  0
 10 11  2  0  0  0
 10 15  1  0  0  0
 11 12  1  0  0  0
 11 99  1  0  0  0
 12 13  2  0  0  0
 12100  1  0  0  0
 13 14  1  0  0  0
 13 31  1  0  0  0
 14 15  2  0  0  0
 14101  1  0  0  0
 15102  1  0  0  0
 16 17  2  0  0  0
 16 21  1  0  0  0
 16 31  1  0  0  0
 17 18  1  0  0  0
 17103  1  0  0  0
 18 19  2  0  0  0
 18104  1  0  0  0
 19 20  1  0  0  0
 19 24  1  0  0  0
 20 21  2  0  0  0
 20105  1  0  0  0
 21 23  1  0  0  0
 22 28  1  0  0  0
 22 32  2  0  0  0
 26 27  1  0  0  0
 28106  1  0  0  0
 28107  1  0  0  0
 29108  1  0  0  0
 29109  1  0  0  0
 33 34  1  0  0  0
 33 66  1  0  0  0
 33 70  2  0  0  0
 34 36  1  0  0  0
 34 59  1  0  0  0
 34110  1  0  0  0
 35 44  2  0  0  0
 35 45  1  0  0  0
 35 68  1  0  0  0
 36 56  1  0  0  0
 36111  1  0  0  0
 37 39  1  0  0  0
 37 47  1  0  0  0
 37 66  1  0  0  0
 37112  1  0  0  0
 38 43  2  0  0  0
 38 46  1  0  0  0
 38 47  1  0  0  0
 39 64  1  0  0  0
 39 67  2  0  0  0
 40 52  1  0  0  0
 40 53  2  0  0  0
 40 58  1  0  0  0
 41113  1  0  0  0
 41114  1  0  0  0
 41115  1  0  0  0
 41 48  1  0  0  0
 42 43  1  0  0  0
 42 66  1  0  0  0
 42116  1  0  0  0
 42117  1  0  0  0
 43 44  1  0  0  0
 44118  1  0  0  0
 45 46  2  0  0  0
 45119  1  0  0  0
 46120  1  0  0  0
 47121  1  0  0  0
 47122  1  0  0  0
 48 56  1  0  0  0
 48 65  1  0  0  0
 48123  1  0  0  0
 49 50  1  0  0  0
 49 53  1  0  0  0
 49 64  1  0  0  0
 49124  1  0  0  0
 50 51  1  0  0  0
 50125  1  0  0  0
 50126  1  0  0  0
 51 52  1  0  0  0
 51127  1  0  0  0
 51128  1  0  0  0
 52129  1  0  0  0
 52130  1  0  0  0
 53 54  1  0  0  0
 54 55  2  0  0  0
 54131  1  0  0  0
 55 57  1  0  0  0
 55132  1  0  0  0
 56 69  2  0  0  0
 57 58  2  0  0  0
 57133  1  0  0  0
 58134  1  0  0  0
 59 60  1  0  0  0
 59 61  1  0  0  0
 59 62  1  0  0  0
 60135  1  0  0  0
 60136  1  0  0  0
 60137  1  0  0  0
 61138  1  0  0  0
 61139  1  0  0  0
 61140  1  0  0  0
 62141  1  0  0  0
 62142  1  0  0  0
 62143  1  0  0  0
 63 65  1  0  0  0
 63144  1  0  0  0
 63145  1  0  0  0
 63146  1  0  0  0
 64147  1  0  0  0
 65148  1  0  0  0
 68 86  1  0  0  0
 71 72  2  0  0  0
 71 74  1  0  0  0
 71149  1  0  0  0
 72 75  1  0  0  0
 72150  1  0  0  0
 73 75  2  0  0  0
 73 76  1  0  0  0
 73151  1  0  0  0
 74 76  2  0  0  0
 74 85  1  0  0  0
 75 87  1  0  0  0
 76 89  1  0  0  0
 77 78  2  0  0  0
 77 79  1  0  0  0
 77 88  1  0  0  0
 78 84  1  0  0  0
 78152  1  0  0  0
 79 83  1  0  0  0
 79153  1  0  0  0
 79154  1  0  0  0
 80 81  1  0  0  0
 80 82  1  0  0  0
 80155  1  0  0  0
 80156  1  0  0  0
 81 83  1  0  0  0
 81157  1  0  0  0
 81158  1  0  0  0
 82 88  1  0  0  0
 82159  1  0  0  0
 82160  1  0  0  0
 83 86  1  0  0  0
 83161  1  0  0  0
 84162  1  0  0  0
 84163  1  0  0  0
 84164  1  0  0  0
 85165  1  0  0  0
 85166  1  0  0  0
 85 88  1  0  0  0
 86167  1  0  0  0
 86168  1  0  0  0
 87169  1  0  0  0
 88170  1  0  0  0
M  CHG  1  88   1
M  ISO  4   1 100  68 101  86 101  87 100
M  END
> <chiral flag>
0

> <version>
0

> <s_m_source_file>
/data/baiqing/PycharmProjects/Reinvent-master-3.2/result/LINK_invent/BTK/process_docking_weight1_custom_product_contain_oxygen_bond_distance_aromatic_linkinvent_7_9_3/rearranged_h_0036.sdf

> <i_m_source_file_index>
61

> <r_mmod_Potential_Energy-OPLS-2005>
-112.562202453613

> <r_mmod_Stretch_Energy-OPLS-2005>
40.5163841247559

> <r_mmod_Bend_Energy-OPLS-2005>
126.133163452148

> <r_mmod_Torsional_Energy-OPLS-2005>
253.825454711914

> <r_mmod_Improper_Torsional_Energy-OPLS-2005>
5.23978757858276

> <r_mmod_Van_der_Waal_Energy-OPLS-2005>
145.585464477539

> <r_mmod_Electrostatic_Energy-OPLS-2005>
-273.492340087891

> <r_mmod_Solvation_Energy-OPLS-2005>
-422.306701660156

> <b_mmod_Minimization_Converged-OPLS-2005>
0

> <r_mmod_RMS_Derivative-OPLS-2005>
0.401384681463242

$$$$
61
                    3D
 Structure written by MMmdl.
154162  0  0  1  0            999 V2000
  -30.5301  -14.9660   20.4739 C   0  0  0  0  0  0
  -30.4677  -12.6074   19.5083 C   0  0  0  0  0  0
  -29.5405  -12.5177   18.2704 C   0  0  0  0  0  0
  -28.0738  -12.2883   18.6905 C   0  0  0  0  0  0
  -27.6362  -13.2359   19.8364 C   0  0  2  0  0  0
  -28.6769  -13.2669   20.9764 C   0  0  0  0  0  0
  -25.2493  -13.8180   20.5652 C   0  0  0  0  0  0
  -24.1781  -13.0398   20.9221 C   0  0  0  0  0  0
  -24.6382  -11.6907   20.8739 C   0  0  0  0  0  0
  -23.9036  -10.4297   21.0404 C   0  0  0  0  0  0
  -24.3595   -9.4223   21.9184 C   0  0  0  0  0  0
  -23.6290   -8.2253   22.0756 C   0  0  0  0  0  0
  -22.4281   -8.0271   21.3544 C   0  0  0  0  0  0
  -21.9905   -9.0242   20.4647 C   0  0  0  0  0  0
  -22.7213  -10.2134   20.3049 C   0  0  0  0  0  0
  -21.6852   -6.0734   22.5280 C   0  0  0  0  0  0
  -21.4020   -6.5635   23.8208 C   0  0  0  0  0  0
  -21.3665   -5.6774   24.9170 C   0  0  0  0  0  0
  -21.6029   -4.3040   24.7211 C   0  0  0  0  0  0
  -21.8823   -3.8127   23.4346 C   0  0  0  0  0  0
  -21.9201   -4.6965   22.3397 C   0  0  0  0  0  0
  -22.7824  -13.5223   21.1841 C   0  0  0  0  0  0
  -22.1654   -4.2151   21.0985 F   0  0  0  0  0  0
  -21.5623   -3.4528   25.7740 F   0  0  0  0  0  0
  -29.9544  -13.6965   20.3886 N   0  0  0  0  0  0
  -26.2899  -12.9364   20.3182 N   0  0  0  0  0  0
  -25.9311  -11.6525   20.5714 N   0  0  0  0  0  0
  -22.0418  -12.8266   22.0414 N   0  0  0  0  0  0
  -25.4080  -15.1898   20.4048 N   0  0  0  0  0  0
  -31.7416  -15.0638   20.2486 O   0  0  0  0  0  0
  -21.6625   -6.8897   21.4252 O   0  0  0  0  0  0
  -22.3529  -14.5509   20.6680 O   0  0  0  0  0  0
  -24.6500  -31.8384   23.1874 C   0  0  0  0  0  0
  -25.9254  -32.4681   23.8293 C   0  0  1  0  0  0
  -27.2239  -27.1279   20.1693 C   0  0  0  0  0  0
  -25.6002  -33.8481   24.2224 N   0  0  0  0  0  0
  -23.4519  -30.4589   21.5338 C   0  0  2  0  0  0
  -24.9014  -28.8843   20.1080 C   0  0  0  0  0  0
  -22.7558  -29.4547   22.4862 C   0  0  0  0  0  0
  -18.0321  -28.1363   22.8543 C   0  0  0  0  0  0
  -24.1476  -36.7239   23.2636 C   0  0  0  0  0  0
  -26.0070  -30.7178   21.3842 C   0  0  0  0  0  0
  -26.0771  -29.3287   20.7249 C   0  0  0  0  0  0
  -27.2356  -28.4663   20.7350 C   0  0  0  0  0  0
  -26.0277  -26.7877   19.5036 C   0  0  0  0  0  0
  -24.8930  -27.6308   19.4761 C   0  0  0  0  0  0
  -23.6771  -29.7886   20.1527 C   0  0  0  0  0  0
  -25.4112  -36.3020   24.0334 C   0  0  1  0  0  0
  -20.5931  -28.3672   23.1221 C   0  0  2  0  0  0
  -20.6836  -26.9402   22.5287 C   0  0  0  0  0  0
  -19.5732  -26.6333   21.5201 C   0  0  0  0  0  0
  -18.1962  -26.7867   22.1753 C   0  0  0  0  0  0
  -19.1582  -28.8844   23.2908 C   0  0  0  0  0  0
  -18.9496  -30.1432   23.8952 C   0  0  0  0  0  0
  -17.6493  -30.6558   24.0609 C   0  0  0  0  0  0
  -25.9058  -34.9390   23.5076 C   0  0  0  0  0  0
  -16.5378  -29.9085   23.6374 C   0  0  0  0  0  0
  -16.7311  -28.6476   23.0414 C   0  0  0  0  0  0
  -26.4600  -31.6550   25.0727 C   0  0  0  0  0  0
  -25.3790  -31.3723   26.1416 C   0  0  0  0  0  0
  -27.0513  -30.2981   24.6284 C   0  0  0  0  0  0
  -27.6145  -32.4307   25.7499 C   0  0  0  0  0  0
  -27.5593  -37.1786   24.8494 C   0  0  0  0  0  0
  -21.4249  -29.3058   22.3626 N   0  0  0  0  0  0
  -26.4300  -37.3741   23.9430 N   0  0  0  0  0  0
  -24.7240  -31.0255   22.0902 N   0  0  0  0  0  0
  -23.4192  -28.8041   23.2996 O   0  0  0  0  0  0
  -28.3047  -26.1770   20.2880 O   0  0  0  0  0  0
  -26.5587  -34.8887   22.4623 O   0  0  0  0  0  0
  -23.5616  -32.1229   23.7094 O   0  0  0  0  0  0
  -30.4954  -18.4869   21.4828 C   0  0  0  0  0  0
  -28.7538  -18.4549   19.8939 C   0  0  0  0  0  0
  -29.2843  -20.7219   20.9529 C   0  0  0  0  0  0
  -30.3010  -19.9326   21.6479 C   0  0  0  0  0  0
  -29.7113  -17.6456   20.6144 C   0  0  0  0  0  0
  -28.5568  -19.8933   20.0273 C   0  0  0  0  0  0
  -28.8680  -22.1939   21.4579 C   0  0  0  0  0  0
  -28.4617  -23.5567   21.2393 C   0  0  0  0  0  0
  -31.2105  -20.6145   22.6840 C   0  0  0  0  0  0
  -28.0499  -24.3307   22.4961 C   0  0  0  0  0  0
  -28.2592  -24.6291   20.0253 C   0  0  0  0  0  0
  -29.6693  -16.1016   20.5444 N   0  0  0  0  0  0
  -27.2973  -20.6168   19.0859 Cl  0  0  0  0  0  0
  -31.4930  -12.8044   19.1838 H   0  0  0  0  0  0
  -30.5012  -11.6566   20.0444 H   0  0  0  0  0  0
  -29.8728  -11.7150   17.6109 H   0  0  0  0  0  0
  -29.6210  -13.4373   17.6885 H   0  0  0  0  0  0
  -27.9863  -11.2540   19.0222 H   0  0  0  0  0  0
  -27.4095  -12.3778   17.8318 H   0  0  0  0  0  0
  -27.5974  -14.2299   19.3905 H   0  0  0  0  0  0
  -28.7682  -12.2832   21.4405 H   0  0  0  0  0  0
  -28.3615  -13.9540   21.7637 H   0  0  0  0  0  0
  -25.2738   -9.5705   22.4754 H   0  0  0  0  0  0
  -23.9978   -7.4651   22.7492 H   0  0  0  0  0  0
  -21.0813   -8.8767   19.8978 H   0  0  0  0  0  0
  -22.3644  -10.9676   19.6151 H   0  0  0  0  0  0
  -21.2013   -7.6142   23.9737 H   0  0  0  0  0  0
  -21.1470   -6.0493   25.9085 H   0  0  0  0  0  0
  -22.0605   -2.7595   23.2831 H   0  0  0  0  0  0
  -22.3981  -11.9964   22.4911 H   0  0  0  0  0  0
  -21.1049  -13.1380   22.2533 H   0  0  0  0  0  0
  -24.6172  -15.8193   20.5105 H   0  0  0  0  0  0
  -26.2199  -15.6436   20.0060 H   0  0  0  0  0  0
  -26.7303  -32.5302   23.1009 H   0  0  0  0  0  0
  -25.0344  -33.9619   25.0502 H   0  0  0  0  0  0
  -22.7612  -31.2907   21.3811 H   0  0  0  0  0  0
  -23.3766  -35.9552   23.3293 H   0  0  0  0  0  0
  -24.3578  -36.8855   22.2058 H   0  0  0  0  0  0
  -23.7168  -37.6414   23.6646 H   0  0  0  0  0  0
  -26.1635  -31.4756   20.6176 H   0  0  0  0  0  0
  -26.8725  -30.7694   22.0336 H   0  0  0  0  0  0
  -28.1278  -28.7982   21.2453 H   0  0  0  0  0  0
  -25.9257  -25.8323   19.0160 H   0  0  0  0  0  0
  -23.9952  -27.2907   18.9786 H   0  0  0  0  0  0
  -23.8229  -30.5632   19.3994 H   0  0  0  0  0  0
  -22.7905  -29.2335   19.8371 H   0  0  0  0  0  0
  -25.1284  -36.1892   25.0832 H   0  0  0  0  0  0
  -21.0074  -28.3170   24.1322 H   0  0  0  0  0  0
  -21.6657  -26.7565   22.0875 H   0  0  0  0  0  0
  -20.5944  -26.2209   23.3441 H   0  0  0  0  0  0
  -19.6833  -25.6199   21.1327 H   0  0  0  0  0  0
  -19.6573  -27.3031   20.6626 H   0  0  0  0  0  0
  -17.4117  -26.6468   21.4291 H   0  0  0  0  0  0
  -18.0555  -26.0088   22.9281 H   0  0  0  0  0  0
  -19.7970  -30.7236   24.2371 H   0  0  0  0  0  0
  -17.5041  -31.6237   24.5229 H   0  0  0  0  0  0
  -15.5372  -30.2995   23.7659 H   0  0  0  0  0  0
  -15.8711  -28.0769   22.7205 H   0  0  0  0  0  0
  -24.5977  -30.7071   25.7697 H   0  0  0  0  0  0
  -24.8995  -32.2894   26.4833 H   0  0  0  0  0  0
  -25.8082  -30.8880   27.0179 H   0  0  0  0  0  0
  -26.3135  -29.6653   24.1326 H   0  0  0  0  0  0
  -27.4211  -29.7347   25.4852 H   0  0  0  0  0  0
  -27.8970  -30.4293   23.9534 H   0  0  0  0  0  0
  -27.2771  -33.3636   26.2028 H   0  0  0  0  0  0
  -28.3959  -32.6816   25.0308 H   0  0  0  0  0  0
  -28.0786  -31.8456   26.5450 H   0  0  0  0  0  0
  -28.2613  -38.0080   24.7525 H   0  0  0  0  0  0
  -28.1090  -36.2622   24.6325 H   0  0  0  0  0  0
  -27.2333  -37.1397   25.8902 H   0  0  0  0  0  0
  -20.9424  -29.8726   21.6792 H   0  0  0  0  0  0
  -26.0197  -38.2827   24.1413 H   0  0  0  0  0  0
  -31.2427  -18.0124   22.1092 H   0  0  0  0  0  0
  -28.0834  -17.9459   19.2146 H   0  0  0  0  0  0
  -28.8103  -22.0345   22.5234 H   0  0  0  0  0  0
  -32.2074  -20.1656   22.7222 H   0  0  0  0  0  0
  -30.7984  -20.5566   23.6955 H   0  0  0  0  0  0
  -31.3840  -21.6696   22.4635 H   0  0  0  0  0  0
  -27.9785  -23.7368   23.4070 H   0  0  0  0  0  0
  -27.0628  -24.7745   22.3628 H   0  0  0  0  0  0
  -28.7495  -25.1423   22.6878 H   0  0  0  0  0  0
  -27.3139  -24.3657   19.5570 H   0  0  0  0  0  0
  -29.0189  -24.3993   19.2777 H   0  0  0  0  0  0
  -28.7284  -15.7690   20.4151 H   0  0  0  0  0  0
  1 25  1  0  0  0
  1 30  2  0  0  0
  1 82  1  0  0  0
  2  3  1  0  0  0
  2 25  1  0  0  0
  2 84  1  0  0  0
  2 85  1  0  0  0
  3  4  1  0  0  0
  3 86  1  0  0  0
  3 87  1  0  0  0
  4  5  1  0  0  0
  4 88  1  0  0  0
  4 89  1  0  0  0
  5  6  1  0  0  0
  5 26  1  0  0  0
  5 90  1  0  0  0
  6 25  1  0  0  0
  6 91  1  0  0  0
  6 92  1  0  0  0
  7  8  2  0  0  0
  7 26  1  0  0  0
  7 29  1  0  0  0
  8  9  1  0  0  0
  8 22  1  0  0  0
  9 10  1  0  0  0
  9 27  2  0  0  0
 10 11  2  0  0  0
 10 15  1  0  0  0
 11 12  1  0  0  0
 11 93  1  0  0  0
 12 13  2  0  0  0
 12 94  1  0  0  0
 13 14  1  0  0  0
 13 31  1  0  0  0
 14 15  2  0  0  0
 14 95  1  0  0  0
 15 96  1  0  0  0
 16 17  2  0  0  0
 16 21  1  0  0  0
 16 31  1  0  0  0
 17 18  1  0  0  0
 17 97  1  0  0  0
 18 19  2  0  0  0
 18 98  1  0  0  0
 19 20  1  0  0  0
 19 24  1  0  0  0
 20 21  2  0  0  0
 20 99  1  0  0  0
 21 23  1  0  0  0
 22 28  1  0  0  0
 22 32  2  0  0  0
 26 27  1  0  0  0
 28100  1  0  0  0
 28101  1  0  0  0
 29102  1  0  0  0
 29103  1  0  0  0
 33 34  1  0  0  0
 33 66  1  0  0  0
 33 70  2  0  0  0
 34 36  1  0  0  0
 34 59  1  0  0  0
 34104  1  0  0  0
 35 44  2  0  0  0
 35 45  1  0  0  0
 35 68  1  0  0  0
 36 56  1  0  0  0
 36105  1  0  0  0
 37 39  1  0  0  0
 37 47  1  0  0  0
 37 66  1  0  0  0
 37106  1  0  0  0
 38 43  2  0  0  0
 38 46  1  0  0  0
 38 47  1  0  0  0
 39 64  1  0  0  0
 39 67  2  0  0  0
 40 52  1  0  0  0
 40 53  2  0  0  0
 40 58  1  0  0  0
 41107  1  0  0  0
 41108  1  0  0  0
 41109  1  0  0  0
 41 48  1  0  0  0
 42 43  1  0  0  0
 42 66  1  0  0  0
 42110  1  0  0  0
 42111  1  0  0  0
 43 44  1  0  0  0
 44112  1  0  0  0
 45 46  2  0  0  0
 45113  1  0  0  0
 46114  1  0  0  0
 47115  1  0  0  0
 47116  1  0  0  0
 48 56  1  0  0  0
 48 65  1  0  0  0
 48117  1  0  0  0
 49 50  1  0  0  0
 49 53  1  0  0  0
 49 64  1  0  0  0
 49118  1  0  0  0
 50 51  1  0  0  0
 50119  1  0  0  0
 50120  1  0  0  0
 51 52  1  0  0  0
 51121  1  0  0  0
 51122  1  0  0  0
 52123  1  0  0  0
 52124  1  0  0  0
 53 54  1  0  0  0
 54 55  2  0  0  0
 54125  1  0  0  0
 55 57  1  0  0  0
 55126  1  0  0  0
 56 69  2  0  0  0
 57 58  2  0  0  0
 57127  1  0  0  0
 58128  1  0  0  0
 59 60  1  0  0  0
 59 61  1  0  0  0
 59 62  1  0  0  0
 60129  1  0  0  0
 60130  1  0  0  0
 60131  1  0  0  0
 61132  1  0  0  0
 61133  1  0  0  0
 61134  1  0  0  0
 62135  1  0  0  0
 62136  1  0  0  0
 62137  1  0  0  0
 63 65  1  0  0  0
 63138  1  0  0  0
 63139  1  0  0  0
 63140  1  0  0  0
 64141  1  0  0  0
 65142  1  0  0  0
 68 81  1  0  0  0
 71 74  2  0  0  0
 71 75  1  0  0  0
 71143  1  0  0  0
 72 75  2  0  0  0
 72 76  1  0  0  0
 72144  1  0  0  0
 73 74  1  0  0  0
 73 76  2  0  0  0
 73 77  1  0  0  0
 74 79  1  0  0  0
 75 82  1  0  0  0
 76 83  1  0  0  0
 77 78  2  0  0  0
 77145  1  0  0  0
 78 80  1  0  0  0
 78 81  1  0  0  0
 79146  1  0  0  0
 79147  1  0  0  0
 79148  1  0  0  0
 80149  1  0  0  0
 80150  1  0  0  0
 80151  1  0  0  0
 81152  1  0  0  0
 81153  1  0  0  0
 82154  1  0  0  0
M  ISO  4   1 100  68 101  81 101  82 100
M  END
> <chiral flag>
0

> <version>
0

> <s_m_source_file>
/data/baiqing/PycharmProjects/Reinvent-master-3.2/result/LINK_invent/BTK/process_docking_weight1_custom_product_contain_oxygen_bond_distance_aromatic_linkinvent_7_9_3/rearranged_h_0036.sdf

> <i_m_source_file_index>
62

> <r_mmod_Potential_Energy-OPLS-2005>
668.002502441406

> <r_mmod_Stretch_Energy-OPLS-2005>
253.780715942383

> <r_mmod_Bend_Energy-OPLS-2005>
356.227203369141

> <r_mmod_Torsional_Energy-OPLS-2005>
255.68408203125

> <r_mmod_Improper_Torsional_Energy-OPLS-2005>
10.6568689346313

> <r_mmod_Van_der_Waal_Energy-OPLS-2005>
128.643447875977

> <r_mmod_Electrostatic_Energy-OPLS-2005>
-338.289855957031

> <r_mmod_Solvation_Energy-OPLS-2005>
-202.570877075195

> <b_mmod_Minimization_Converged-OPLS-2005>
0

> <r_mmod_RMS_Derivative-OPLS-2005>
6.9398078918457

$$$$
62
                    3D
 Structure written by MMmdl.
166175  0  0  1  0            999 V2000
  -30.6699  -14.5250   20.5542 C   0  0  0  0  0  0
  -30.4271  -12.3381   19.4286 C   0  0  0  0  0  0
  -29.4935  -12.5008   18.2109 C   0  0  0  0  0  0
  -28.0154  -12.3539   18.6252 C   0  0  0  0  0  0
  -27.6553  -13.2043   19.8727 C   0  0  2  0  0  0
  -28.6991  -13.0120   20.9959 C   0  0  0  0  0  0
  -25.2568  -13.8147   20.5694 C   0  0  0  0  0  0
  -24.1825  -13.0430   20.9205 C   0  0  0  0  0  0
  -24.6373  -11.6894   20.8754 C   0  0  0  0  0  0
  -23.9040  -10.4288   21.0411 C   0  0  0  0  0  0
  -24.3598   -9.4206   21.9190 C   0  0  0  0  0  0
  -23.6282   -8.2236   22.0749 C   0  0  0  0  0  0
  -22.4260   -8.0280   21.3552 C   0  0  0  0  0  0
  -21.9892   -9.0256   20.4652 C   0  0  0  0  0  0
  -22.7216  -10.2137   20.3064 C   0  0  0  0  0  0
  -21.6850   -6.0734   22.5288 C   0  0  0  0  0  0
  -21.4015   -6.5639   23.8221 C   0  0  0  0  0  0
  -21.3663   -5.6793   24.9183 C   0  0  0  0  0  0
  -21.6038   -4.3056   24.7231 C   0  0  0  0  0  0
  -21.8819   -3.8153   23.4355 C   0  0  0  0  0  0
  -21.9190   -4.6964   22.3408 C   0  0  0  0  0  0
  -22.7851  -13.5235   21.1856 C   0  0  0  0  0  0
  -22.1663   -4.2153   21.0984 F   0  0  0  0  0  0
  -21.5618   -3.4536   25.7741 F   0  0  0  0  0  0
  -30.0213  -13.3326   20.4356 N   0  0  0  0  0  0
  -26.2986  -12.9306   20.3354 N   0  0  0  0  0  0
  -25.9298  -11.6473   20.5790 N   0  0  0  0  0  0
  -22.0486  -12.8228   22.0410 N   0  0  0  0  0  0
  -25.4307  -15.1863   20.4091 N   0  0  0  0  0  0
  -31.8192  -14.6957   20.1384 O   0  0  0  0  0  0
  -21.6639   -6.8871   21.4247 O   0  0  0  0  0  0
  -22.3549  -14.5542   20.6701 O   0  0  0  0  0  0
  -24.6184  -31.8663   23.2092 C   0  0  0  0  0  0
  -25.9066  -32.4808   23.8392 C   0  0  1  0  0  0
  -27.2242  -27.3863   20.1159 C   0  0  0  0  0  0
  -25.5918  -33.8609   24.2319 N   0  0  0  0  0  0
  -23.4070  -30.4910   21.5502 C   0  0  2  0  0  0
  -24.8522  -28.9494   20.1202 C   0  0  0  0  0  0
  -22.7424  -29.4656   22.4976 C   0  0  0  0  0  0
  -18.0281  -28.1377   22.8492 C   0  0  0  0  0  0
  -24.1488  -36.7309   23.2637 C   0  0  0  0  0  0
  -25.9409  -30.8152   21.3724 C   0  0  0  0  0  0
  -26.0135  -29.4442   20.7256 C   0  0  0  0  0  0
  -27.2019  -28.6705   20.7209 C   0  0  0  0  0  0
  -26.0540  -26.9375   19.4681 C   0  0  0  0  0  0
  -24.8697  -27.6964   19.4866 C   0  0  0  0  0  0
  -23.6183  -29.8241   20.1653 C   0  0  0  0  0  0
  -25.4110  -36.3102   24.0336 C   0  0  1  0  0  0
  -20.5873  -28.3671   23.1308 C   0  0  2  0  0  0
  -20.6776  -26.9401   22.5417 C   0  0  0  0  0  0
  -19.5754  -26.6377   21.5220 C   0  0  0  0  0  0
  -18.1932  -26.7921   22.1630 C   0  0  0  0  0  0
  -19.1531  -28.8840   23.2898 C   0  0  0  0  0  0
  -18.9455  -30.1449   23.8904 C   0  0  0  0  0  0
  -17.6456  -30.6581   24.0563 C   0  0  0  0  0  0
  -25.9040  -34.9465   23.5120 C   0  0  0  0  0  0
  -16.5347  -29.9080   23.6326 C   0  0  0  0  0  0
  -16.7270  -28.6500   23.0341 C   0  0  0  0  0  0
  -26.4481  -31.6593   25.0732 C   0  0  0  0  0  0
  -25.3739  -31.3720   26.1478 C   0  0  0  0  0  0
  -27.0311  -30.3025   24.6136 C   0  0  0  0  0  0
  -27.6049  -32.4321   25.7497 C   0  0  0  0  0  0
  -27.5578  -37.1813   24.8463 C   0  0  0  0  0  0
  -21.4148  -29.3039   22.3710 N   0  0  0  0  0  0
  -26.4291  -37.3791   23.9407 N   0  0  0  0  0  0
  -24.6736  -31.0731   22.1013 N   0  0  0  0  0  0
  -23.4180  -28.8188   23.3025 O   0  0  0  0  0  0
  -28.3927  -26.6390   20.0747 O   0  0  0  0  0  0
  -26.5595  -34.8919   22.4679 O   0  0  0  0  0  0
  -23.5368  -32.1431   23.7465 O   0  0  0  0  0  0
  -28.4170  -20.2985   18.9330 C   0  0  0  0  0  0
  -29.0399  -20.5654   20.1661 C   0  0  0  0  0  0
  -29.6041  -18.1234   20.3535 C   0  0  0  0  0  0
  -28.3870  -19.0014   18.3995 C   0  0  0  0  0  0
  -29.6260  -19.4669   20.8735 C   0  0  0  0  0  0
  -28.9896  -17.9203   19.0815 C   0  0  0  0  0  0
  -27.0167  -24.8162   22.8290 C   0  0  0  0  0  0
  -27.1314  -23.2876   22.9799 C   0  0  0  0  0  0
  -28.2835  -25.4561   22.2409 C   0  0  0  0  0  0
  -26.8664  -22.4775   21.6971 C   0  0  0  0  0  0
  -27.7127  -24.1525   20.0050 C   0  0  0  0  0  0
  -28.4779  -25.3252   20.7131 C   0  0  1  0  0  0
  -30.3343  -16.9826   21.1380 C   0  0  0  0  0  0
  -29.1164  -22.0498   20.6237 C   0  0  0  0  0  0
  -29.9216  -15.5602   21.0048 N   0  0  0  0  0  0
  -27.7953  -22.7555   20.5692 N   0  3  1  0  0  0
  -27.6243  -18.7730   16.8636 Cl  0  0  0  0  0  0
  -30.4266  -19.7895   22.3749 Cl  0  0  0  0  0  0
  -28.9917  -16.3875   18.2732 Cl  0  0  0  0  0  0
  -31.4685  -12.4555   19.1228 H   0  0  0  0  0  0
  -30.3511  -11.3315   19.8417 H   0  0  0  0  0  0
  -29.7406  -11.7632   17.4455 H   0  0  0  0  0  0
  -29.6494  -13.4806   17.7567 H   0  0  0  0  0  0
  -27.8340  -11.2987   18.8322 H   0  0  0  0  0  0
  -27.3634  -12.6167   17.7915 H   0  0  0  0  0  0
  -27.6891  -14.2468   19.5615 H   0  0  0  0  0  0
  -28.6894  -11.9801   21.3502 H   0  0  0  0  0  0
  -28.4581  -13.6224   21.8678 H   0  0  0  0  0  0
  -25.2740   -9.5695   22.4773 H   0  0  0  0  0  0
  -24.0011   -7.4615   22.7444 H   0  0  0  0  0  0
  -21.0834   -8.8765   19.8946 H   0  0  0  0  0  0
  -22.3667  -10.9681   19.6182 H   0  0  0  0  0  0
  -21.2014   -7.6153   23.9729 H   0  0  0  0  0  0
  -21.1485   -6.0524   25.9083 H   0  0  0  0  0  0
  -22.0592   -2.7616   23.2853 H   0  0  0  0  0  0
  -22.4108  -11.9886   22.4787 H   0  0  0  0  0  0
  -21.1106  -13.1262   22.2618 H   0  0  0  0  0  0
  -24.6615  -15.8377   20.5194 H   0  0  0  0  0  0
  -26.2662  -15.6176   20.0364 H   0  0  0  0  0  0
  -26.7134  -32.5504   23.1149 H   0  0  0  0  0  0
  -25.0093  -33.9773   25.0481 H   0  0  0  0  0  0
  -22.6979  -31.3094   21.4103 H   0  0  0  0  0  0
  -23.3745  -35.9647   23.3310 H   0  0  0  0  0  0
  -24.3577  -36.8916   22.2049 H   0  0  0  0  0  0
  -23.7248  -37.6520   23.6646 H   0  0  0  0  0  0
  -26.0609  -31.5768   20.6004 H   0  0  0  0  0  0
  -26.8268  -30.8681   21.9932 H   0  0  0  0  0  0
  -28.1000  -29.0517   21.1866 H   0  0  0  0  0  0
  -26.0477  -26.0213   18.9007 H   0  0  0  0  0  0
  -23.9860  -27.3237   18.9869 H   0  0  0  0  0  0
  -23.7336  -30.6000   19.4075 H   0  0  0  0  0  0
  -22.7397  -29.2500   19.8650 H   0  0  0  0  0  0
  -25.1290  -36.1964   25.0831 H   0  0  0  0  0  0
  -20.9971  -28.3242   24.1426 H   0  0  0  0  0  0
  -20.5686  -26.2277   23.3608 H   0  0  0  0  0  0
  -21.6645  -26.7444   22.1204 H   0  0  0  0  0  0
  -19.6910  -25.6286   21.1254 H   0  0  0  0  0  0
  -19.6694  -27.3184   20.6750 H   0  0  0  0  0  0
  -17.4199  -26.6662   21.4035 H   0  0  0  0  0  0
  -18.0337  -26.0065   22.9032 H   0  0  0  0  0  0
  -19.7931  -30.7268   24.2264 H   0  0  0  0  0  0
  -17.5008  -31.6262   24.5163 H   0  0  0  0  0  0
  -15.5347  -30.2981   23.7644 H   0  0  0  0  0  0
  -15.8672  -28.0827   22.7038 H   0  0  0  0  0  0
  -24.5906  -30.7070   25.7823 H   0  0  0  0  0  0
  -24.8938  -32.2884   26.4922 H   0  0  0  0  0  0
  -25.8087  -30.8894   27.0239 H   0  0  0  0  0  0
  -26.2871  -29.6795   24.1157 H   0  0  0  0  0  0
  -27.4027  -29.7256   25.4615 H   0  0  0  0  0  0
  -27.8733  -30.4331   23.9334 H   0  0  0  0  0  0
  -27.2659  -33.3610   26.2098 H   0  0  0  0  0  0
  -28.3849  -32.6902   25.0322 H   0  0  0  0  0  0
  -28.0728  -31.8434   26.5398 H   0  0  0  0  0  0
  -28.2602  -38.0105   24.7503 H   0  0  0  0  0  0
  -28.1067  -36.2635   24.6297 H   0  0  0  0  0  0
  -27.2292  -37.1478   25.8864 H   0  0  0  0  0  0
  -20.9300  -29.8763   21.6939 H   0  0  0  0  0  0
  -26.0176  -38.2870   24.1402 H   0  0  0  0  0  0
  -27.9796  -21.0981   18.3533 H   0  0  0  0  0  0
  -26.8730  -25.2363   23.8257 H   0  0  0  0  0  0
  -26.1285  -25.1023   22.2636 H   0  0  0  0  0  0
  -26.3894  -22.9719   23.7146 H   0  0  0  0  0  0
  -28.0934  -23.0147   23.4141 H   0  0  0  0  0  0
  -29.1524  -25.0299   22.7436 H   0  0  0  0  0  0
  -28.3090  -26.5101   22.5167 H   0  0  0  0  0  0
  -25.8441  -22.6615   21.3625 H   0  0  0  0  0  0
  -26.9037  -21.4127   21.9320 H   0  0  0  0  0  0
  -28.0355  -24.1130   18.9642 H   0  0  0  0  0  0
  -26.6514  -24.3780   19.9768 H   0  0  0  0  0  0
  -29.5336  -25.0800   20.5865 H   0  0  0  0  0  0
  -30.2352  -17.1822   22.2043 H   0  0  0  0  0  0
  -31.3993  -17.0824   20.9266 H   0  0  0  0  0  0
  -29.8094  -22.5461   19.9436 H   0  0  0  0  0  0
  -29.5494  -22.1633   21.6164 H   0  0  0  0  0  0
  -28.9865  -15.3308   21.3024 H   0  0  0  0  0  0
  -27.3533  -22.2322   19.8280 H   0  0  0  0  0  0
  1 25  1  0  0  0
  1 30  2  0  0  0
  1 85  1  0  0  0
  2  3  1  0  0  0
  2 25  1  0  0  0
  2 90  1  0  0  0
  2 91  1  0  0  0
  3  4  1  0  0  0
  3 92  1  0  0  0
  3 93  1  0  0  0
  4  5  1  0  0  0
  4 94  1  0  0  0
  4 95  1  0  0  0
  5  6  1  0  0  0
  5 26  1  0  0  0
  5 96  1  0  0  0
  6 25  1  0  0  0
  6 97  1  0  0  0
  6 98  1  0  0  0
  7  8  2  0  0  0
  7 26  1  0  0  0
  7 29  1  0  0  0
  8  9  1  0  0  0
  8 22  1  0  0  0
  9 10  1  0  0  0
  9 27  2  0  0  0
 10 11  2  0  0  0
 10 15  1  0  0  0
 11 12  1  0  0  0
 11 99  1  0  0  0
 12 13  2  0  0  0
 12100  1  0  0  0
 13 14  1  0  0  0
 13 31  1  0  0  0
 14 15  2  0  0  0
 14101  1  0  0  0
 15102  1  0  0  0
 16 17  2  0  0  0
 16 21  1  0  0  0
 16 31  1  0  0  0
 17 18  1  0  0  0
 17103  1  0  0  0
 18 19  2  0  0  0
 18104  1  0  0  0
 19 20  1  0  0  0
 19 24  1  0  0  0
 20 21  2  0  0  0
 20105  1  0  0  0
 21 23  1  0  0  0
 22 28  1  0  0  0
 22 32  2  0  0  0
 26 27  1  0  0  0
 28106  1  0  0  0
 28107  1  0  0  0
 29108  1  0  0  0
 29109  1  0  0  0
 33 34  1  0  0  0
 33 66  1  0  0  0
 33 70  2  0  0  0
 34 36  1  0  0  0
 34 59  1  0  0  0
 34110  1  0  0  0
 35 44  2  0  0  0
 35 45  1  0  0  0
 35 68  1  0  0  0
 36 56  1  0  0  0
 36111  1  0  0  0
 37 39  1  0  0  0
 37 47  1  0  0  0
 37 66  1  0  0  0
 37112  1  0  0  0
 38 43  2  0  0  0
 38 46  1  0  0  0
 38 47  1  0  0  0
 39 64  1  0  0  0
 39 67  2  0  0  0
 40 52  1  0  0  0
 40 53  2  0  0  0
 40 58  1  0  0  0
 41113  1  0  0  0
 41114  1  0  0  0
 41115  1  0  0  0
 41 48  1  0  0  0
 42 43  1  0  0  0
 42 66  1  0  0  0
 42116  1  0  0  0
 42117  1  0  0  0
 43 44  1  0  0  0
 44118  1  0  0  0
 45 46  2  0  0  0
 45119  1  0  0  0
 46120  1  0  0  0
 47121  1  0  0  0
 47122  1  0  0  0
 48 56  1  0  0  0
 48 65  1  0  0  0
 48123  1  0  0  0
 49 50  1  0  0  0
 49 53  1  0  0  0
 49 64  1  0  0  0
 49124  1  0  0  0
 50 51  1  0  0  0
 50125  1  0  0  0
 50126  1  0  0  0
 51 52  1  0  0  0
 51127  1  0  0  0
 51128  1  0  0  0
 52129  1  0  0  0
 52130  1  0  0  0
 53 54  1  0  0  0
 54 55  2  0  0  0
 54131  1  0  0  0
 55 57  1  0  0  0
 55132  1  0  0  0
 56 69  2  0  0  0
 57 58  2  0  0  0
 57133  1  0  0  0
 58134  1  0  0  0
 59 60  1  0  0  0
 59 61  1  0  0  0
 59 62  1  0  0  0
 60135  1  0  0  0
 60136  1  0  0  0
 60137  1  0  0  0
 61138  1  0  0  0
 61139  1  0  0  0
 61140  1  0  0  0
 62141  1  0  0  0
 62142  1  0  0  0
 62143  1  0  0  0
 63 65  1  0  0  0
 63144  1  0  0  0
 63145  1  0  0  0
 63146  1  0  0  0
 64147  1  0  0  0
 65148  1  0  0  0
 68 82  1  0  0  0
 71 72  2  0  0  0
 71 74  1  0  0  0
 71149  1  0  0  0
 72 75  1  0  0  0
 72 84  1  0  0  0
 73 75  2  0  0  0
 73 76  1  0  0  0
 73 83  1  0  0  0
 74 76  2  0  0  0
 74 87  1  0  0  0
 75 88  1  0  0  0
 76 89  1  0  0  0
 77 78  1  0  0  0
 77 79  1  0  0  0
 77150  1  0  0  0
 77151  1  0  0  0
 78 80  1  0  0  0
 78152  1  0  0  0
 78153  1  0  0  0
 79 82  1  0  0  0
 79154  1  0  0  0
 79155  1  0  0  0
 80 86  1  0  0  0
 80156  1  0  0  0
 80157  1  0  0  0
 81 82  1  0  0  0
 81 86  1  0  0  0
 81158  1  0  0  0
 81159  1  0  0  0
 82160  1  0  0  0
 83 85  1  0  0  0
 83161  1  0  0  0
 83162  1  0  0  0
 84163  1  0  0  0
 84164  1  0  0  0
 84 86  1  0  0  0
 85165  1  0  0  0
 86166  1  0  0  0
M  CHG  1  86   1
M  ISO  4   1 100  68 101  82 101  85 100
M  END
> <chiral flag>
0

> <version>
0

> <s_m_source_file>
/data/baiqing/PycharmProjects/Reinvent-master-3.2/result/LINK_invent/BTK/process_docking_weight1_custom_product_contain_oxygen_bond_distance_aromatic_linkinvent_7_9_3/rearranged_h_0036.sdf

> <i_m_source_file_index>
63

> <r_mmod_Potential_Energy-OPLS-2005>
-56.6384887695312

> <r_mmod_Stretch_Energy-OPLS-2005>
57.9147911071777

> <r_mmod_Bend_Energy-OPLS-2005>
153.319763183594

> <r_mmod_Torsional_Energy-OPLS-2005>
258.767059326172

> <r_mmod_Improper_Torsional_Energy-OPLS-2005>
4.43651676177979

> <r_mmod_Van_der_Waal_Energy-OPLS-2005>
144.806625366211

> <r_mmod_Electrostatic_Energy-OPLS-2005>
-244.546768188477

> <r_mmod_Solvation_Energy-OPLS-2005>
-451.157684326172

> <b_mmod_Minimization_Converged-OPLS-2005>
0

> <r_mmod_RMS_Derivative-OPLS-2005>
1.36702442169189

$$$$
63
                    3D
 Structure written by MMmdl.
162170  0  0  1  0            999 V2000
  -30.7668  -14.4635   20.5997 C   0  0  0  0  0  0
  -30.4099  -12.3198   19.4384 C   0  0  0  0  0  0
  -29.4904  -12.5104   18.2154 C   0  0  0  0  0  0
  -28.0121  -12.3760   18.6202 C   0  0  0  0  0  0
  -27.6519  -13.2299   19.8648 C   0  0  2  0  0  0
  -28.6919  -13.0585   20.9971 C   0  0  0  0  0  0
  -25.2463  -13.8210   20.5656 C   0  0  0  0  0  0
  -24.1768  -13.0457   20.9179 C   0  0  0  0  0  0
  -24.6377  -11.6934   20.8739 C   0  0  0  0  0  0
  -23.9078  -10.4309   21.0413 C   0  0  0  0  0  0
  -24.3628   -9.4215   21.9191 C   0  0  0  0  0  0
  -23.6297   -8.2258   22.0741 C   0  0  0  0  0  0
  -22.4281   -8.0291   21.3549 C   0  0  0  0  0  0
  -21.9931   -9.0263   20.4652 C   0  0  0  0  0  0
  -22.7255  -10.2139   20.3064 C   0  0  0  0  0  0
  -21.6844   -6.0759   22.5294 C   0  0  0  0  0  0
  -21.4002   -6.5652   23.8229 C   0  0  0  0  0  0
  -21.3659   -5.6790   24.9184 C   0  0  0  0  0  0
  -21.6037   -4.3053   24.7217 C   0  0  0  0  0  0
  -21.8802   -3.8163   23.4330 C   0  0  0  0  0  0
  -21.9176   -4.6997   22.3395 C   0  0  0  0  0  0
  -22.7798  -13.5240   21.1829 C   0  0  0  0  0  0
  -22.1662   -4.2193   21.0970 F   0  0  0  0  0  0
  -21.5610   -3.4522   25.7717 F   0  0  0  0  0  0
  -30.0313  -13.3245   20.4502 N   0  0  0  0  0  0
  -26.2944  -12.9465   20.3294 N   0  0  0  0  0  0
  -25.9300  -11.6591   20.5729 N   0  0  0  0  0  0
  -22.0411  -12.8299   22.0401 N   0  0  0  0  0  0
  -25.4044  -15.1935   20.4024 N   0  0  0  0  0  0
  -31.8641  -14.5994   20.0580 O   0  0  0  0  0  0
  -21.6613   -6.8915   21.4270 O   0  0  0  0  0  0
  -22.3518  -14.5549   20.6636 O   0  0  0  0  0  0
  -24.6159  -31.8671   23.2072 C   0  0  0  0  0  0
  -25.9054  -32.4818   23.8319 C   0  0  1  0  0  0
  -27.2148  -27.4239   20.0947 C   0  0  0  0  0  0
  -25.5921  -33.8606   24.2271 N   0  0  0  0  0  0
  -23.3967  -30.4918   21.5527 C   0  0  2  0  0  0
  -24.8370  -28.9468   20.1241 C   0  0  0  0  0  0
  -22.7374  -29.4671   22.5044 C   0  0  0  0  0  0
  -18.0253  -28.1328   22.8472 C   0  0  0  0  0  0
  -24.1485  -36.7300   23.2628 C   0  0  0  0  0  0
  -25.9236  -30.8286   21.3554 C   0  0  0  0  0  0
  -25.9993  -29.4570   20.7158 C   0  0  0  0  0  0
  -27.1943  -28.7012   20.7014 C   0  0  0  0  0  0
  -26.0387  -26.9267   19.4986 C   0  0  0  0  0  0
  -24.8481  -27.6770   19.5218 C   0  0  0  0  0  0
  -23.6006  -29.8172   20.1699 C   0  0  0  0  0  0
  -25.4119  -36.3100   24.0317 C   0  0  1  0  0  0
  -20.5826  -28.3617   23.1341 C   0  0  2  0  0  0
  -20.6735  -26.9368   22.5399 C   0  0  0  0  0  0
  -19.5723  -26.6345   21.5196 C   0  0  0  0  0  0
  -18.1908  -26.7873   22.1613 C   0  0  0  0  0  0
  -19.1494  -28.8799   23.2889 C   0  0  0  0  0  0
  -18.9410  -30.1421   23.8893 C   0  0  0  0  0  0
  -17.6407  -30.6545   24.0552 C   0  0  0  0  0  0
  -25.9051  -34.9475   23.5097 C   0  0  0  0  0  0
  -16.5310  -29.9042   23.6297 C   0  0  0  0  0  0
  -16.7239  -28.6462   23.0331 C   0  0  0  0  0  0
  -26.4455  -31.6612   25.0652 C   0  0  0  0  0  0
  -25.3698  -31.3764   26.1383 C   0  0  0  0  0  0
  -27.0282  -30.3064   24.6022 C   0  0  0  0  0  0
  -27.6026  -32.4325   25.7420 C   0  0  0  0  0  0
  -27.5585  -37.1806   24.8468 C   0  0  0  0  0  0
  -21.4104  -29.3018   22.3792 N   0  0  0  0  0  0
  -26.4300  -37.3792   23.9398 N   0  0  0  0  0  0
  -24.6634  -31.0764   22.0970 N   0  0  0  0  0  0
  -23.4163  -28.8211   23.3076 O   0  0  0  0  0  0
  -28.3733  -26.6894   20.0069 O   0  0  0  0  0  0
  -26.5610  -34.8942   22.4653 O   0  0  0  0  0  0
  -23.5362  -32.1432   23.7518 O   0  0  0  0  0  0
  -31.0942  -19.2195   21.9609 C   0  0  0  0  0  0
  -28.4282  -19.7442   21.3839 C   0  0  0  0  0  0
  -30.6126  -20.5467   22.0612 C   0  0  0  0  0  0
  -28.9147  -18.4179   21.2537 C   0  0  0  0  0  0
  -30.2707  -18.1311   21.5771 C   0  0  0  0  0  0
  -29.2479  -20.8193   21.7984 C   0  0  0  0  0  0
  -31.5727  -21.6522   22.4746 C   0  0  0  0  0  0
  -27.9353  -17.3524   20.7993 C   0  0  0  0  0  0
  -30.9791  -16.7548   21.5084 C   0  0  0  0  0  0
  -28.6059  -22.2030   22.0333 C   0  0  0  0  0  0
  -27.9485  -24.3531   20.8687 C   0  0  0  0  0  0
  -28.6117  -25.7458   21.0583 C   0  0  0  0  0  0
  -30.2343  -15.4906   21.2942 N   0  0  0  0  0  0
  -28.9234  -23.2262   21.0043 N   0  3  0  0  0  0
  -31.4548  -12.4008   19.1299 H   0  0  0  0  0  0
  -30.3104  -11.3194   19.8581 H   0  0  0  0  0  0
  -29.7347  -11.7814   17.4424 H   0  0  0  0  0  0
  -29.6586  -13.4956   17.7781 H   0  0  0  0  0  0
  -27.8312  -11.3211   18.8180 H   0  0  0  0  0  0
  -27.3646  -12.6419   17.7838 H   0  0  0  0  0  0
  -27.6813  -14.2708   19.5374 H   0  0  0  0  0  0
  -28.6593  -12.0449   21.3973 H   0  0  0  0  0  0
  -28.4484  -13.7217   21.8284 H   0  0  0  0  0  0
  -25.2768   -9.5676   22.4785 H   0  0  0  0  0  0
  -24.0003   -7.4660   22.7470 H   0  0  0  0  0  0
  -21.0846   -8.8780   19.8973 H   0  0  0  0  0  0
  -22.3721  -10.9674   19.6163 H   0  0  0  0  0  0
  -21.2009   -7.6152   23.9761 H   0  0  0  0  0  0
  -21.1502   -6.0506   25.9085 H   0  0  0  0  0  0
  -22.0578   -2.7627   23.2808 H   0  0  0  0  0  0
  -22.3974  -11.9965   22.4850 H   0  0  0  0  0  0
  -21.1014  -13.1356   22.2529 H   0  0  0  0  0  0
  -24.6288  -15.8352   20.5210 H   0  0  0  0  0  0
  -26.2460  -15.6491   20.0773 H   0  0  0  0  0  0
  -26.7133  -32.5519   23.1074 H   0  0  0  0  0  0
  -25.0071  -33.9718   25.0427 H   0  0  0  0  0  0
  -22.6828  -31.3085   21.4170 H   0  0  0  0  0  0
  -23.3746  -35.9639   23.3312 H   0  0  0  0  0  0
  -24.3574  -36.8889   22.2038 H   0  0  0  0  0  0
  -23.7242  -37.6514   23.6629 H   0  0  0  0  0  0
  -26.0232  -31.5836   20.5764 H   0  0  0  0  0  0
  -26.8158  -30.8914   21.9633 H   0  0  0  0  0  0
  -28.0976  -29.0989   21.1420 H   0  0  0  0  0  0
  -26.0383  -25.9618   19.0088 H   0  0  0  0  0  0
  -23.9511  -27.2782   19.0714 H   0  0  0  0  0  0
  -23.7090  -30.5828   19.4005 H   0  0  0  0  0  0
  -22.7199  -29.2371   19.8863 H   0  0  0  0  0  0
  -25.1301  -36.1942   25.0814 H   0  0  0  0  0  0
  -20.9883  -28.3124   24.1464 H   0  0  0  0  0  0
  -20.5631  -26.2258   23.3597 H   0  0  0  0  0  0
  -21.6623  -26.7387   22.1210 H   0  0  0  0  0  0
  -19.6891  -25.6274   21.1174 H   0  0  0  0  0  0
  -19.6645  -27.3187   20.6747 H   0  0  0  0  0  0
  -17.4172  -26.6634   21.4021 H   0  0  0  0  0  0
  -18.0293  -25.9982   22.8974 H   0  0  0  0  0  0
  -19.7890  -30.7230   24.2285 H   0  0  0  0  0  0
  -17.4954  -31.6228   24.5154 H   0  0  0  0  0  0
  -15.5313  -30.2937   23.7626 H   0  0  0  0  0  0
  -15.8644  -28.0784   22.7027 H   0  0  0  0  0  0
  -24.5848  -30.7133   25.7714 H   0  0  0  0  0  0
  -24.8901  -32.2955   26.4776 H   0  0  0  0  0  0
  -25.8001  -30.8951   27.0176 H   0  0  0  0  0  0
  -26.2840  -29.6834   24.1041 H   0  0  0  0  0  0
  -27.4041  -29.7270   25.4467 H   0  0  0  0  0  0
  -27.8659  -30.4377   23.9163 H   0  0  0  0  0  0
  -27.2636  -33.3612   26.2021 H   0  0  0  0  0  0
  -28.3824  -32.6920   25.0245 H   0  0  0  0  0  0
  -28.0695  -31.8427   26.5320 H   0  0  0  0  0  0
  -28.2633  -38.0073   24.7509 H   0  0  0  0  0  0
  -28.1050  -36.2615   24.6315 H   0  0  0  0  0  0
  -27.2290  -37.1475   25.8866 H   0  0  0  0  0  0
  -20.9290  -29.8760   21.7011 H   0  0  0  0  0  0
  -26.0185  -38.2867   24.1424 H   0  0  0  0  0  0
  -32.1330  -19.0236   22.1891 H   0  0  0  0  0  0
  -27.3851  -19.9471   21.1859 H   0  0  0  0  0  0
  -32.5216  -21.2525   22.8333 H   0  0  0  0  0  0
  -31.1489  -22.2375   23.2884 H   0  0  0  0  0  0
  -31.7958  -22.3162   21.6392 H   0  0  0  0  0  0
  -28.3282  -16.7581   19.9731 H   0  0  0  0  0  0
  -26.9927  -17.7889   20.4637 H   0  0  0  0  0  0
  -27.7061  -16.6947   21.6345 H   0  0  0  0  0  0
  -31.5581  -16.6129   22.4228 H   0  0  0  0  0  0
  -31.7358  -16.8917   20.7304 H   0  0  0  0  0  0
  -28.8826  -22.5819   23.0191 H   0  0  0  0  0  0
  -27.5251  -22.0600   22.0608 H   0  0  0  0  0  0
  -27.4805  -24.2781   19.8847 H   0  0  0  0  0  0
  -27.1334  -24.2556   21.5895 H   0  0  0  0  0  0
  -29.6944  -25.6323   21.1163 H   0  0  0  0  0  0
  -28.3105  -26.1721   22.0159 H   0  0  0  0  0  0
  -29.3384  -15.3695   21.7408 H   0  0  0  0  0  0
  -29.0192  -22.7591   20.1162 H   0  0  0  0  0  0
  -29.8205  -23.6291   21.2249 H   0  0  0  0  0  0
  1 25  1  0  0  0
  1 30  2  0  0  0
  1 83  1  0  0  0
  2  3  1  0  0  0
  2 25  1  0  0  0
  2 85  1  0  0  0
  2 86  1  0  0  0
  3  4  1  0  0  0
  3 87  1  0  0  0
  3 88  1  0  0  0
  4  5  1  0  0  0
  4 89  1  0  0  0
  4 90  1  0  0  0
  5  6  1  0  0  0
  5 26  1  0  0  0
  5 91  1  0  0  0
  6 25  1  0  0  0
  6 92  1  0  0  0
  6 93  1  0  0  0
  7  8  2  0  0  0
  7 26  1  0  0  0
  7 29  1  0  0  0
  8  9  1  0  0  0
  8 22  1  0  0  0
  9 10  1  0  0  0
  9 27  2  0  0  0
 10 11  2  0  0  0
 10 15  1  0  0  0
 11 12  1  0  0  0
 11 94  1  0  0  0
 12 13  2  0  0  0
 12 95  1  0  0  0
 13 14  1  0  0  0
 13 31  1  0  0  0
 14 15  2  0  0  0
 14 96  1  0  0  0
 15 97  1  0  0  0
 16 17  2  0  0  0
 16 21  1  0  0  0
 16 31  1  0  0  0
 17 18  1  0  0  0
 17 98  1  0  0  0
 18 19  2  0  0  0
 18 99  1  0  0  0
 19 20  1  0  0  0
 19 24  1  0  0  0
 20 21  2  0  0  0
 20100  1  0  0  0
 21 23  1  0  0  0
 22 28  1  0  0  0
 22 32  2  0  0  0
 26 27  1  0  0  0
 28101  1  0  0  0
 28102  1  0  0  0
 29103  1  0  0  0
 29104  1  0  0  0
 33 34  1  0  0  0
 33 66  1  0  0  0
 33 70  2  0  0  0
 34 36  1  0  0  0
 34 59  1  0  0  0
 34105  1  0  0  0
 35 44  2  0  0  0
 35 45  1  0  0  0
 35 68  1  0  0  0
 36 56  1  0  0  0
 36106  1  0  0  0
 37 39  1  0  0  0
 37 47  1  0  0  0
 37 66  1  0  0  0
 37107  1  0  0  0
 38 43  2  0  0  0
 38 46  1  0  0  0
 38 47  1  0  0  0
 39 64  1  0  0  0
 39 67  2  0  0  0
 40 52  1  0  0  0
 40 53  2  0  0  0
 40 58  1  0  0  0
 41108  1  0  0  0
 41109  1  0  0  0
 41110  1  0  0  0
 41 48  1  0  0  0
 42 43  1  0  0  0
 42 66  1  0  0  0
 42111  1  0  0  0
 42112  1  0  0  0
 43 44  1  0  0  0
 44113  1  0  0  0
 45 46  2  0  0  0
 45114  1  0  0  0
 46115  1  0  0  0
 47116  1  0  0  0
 47117  1  0  0  0
 48 56  1  0  0  0
 48 65  1  0  0  0
 48118  1  0  0  0
 49 50  1  0  0  0
 49 53  1  0  0  0
 49 64  1  0  0  0
 49119  1  0  0  0
 50 51  1  0  0  0
 50120  1  0  0  0
 50121  1  0  0  0
 51 52  1  0  0  0
 51122  1  0  0  0
 51123  1  0  0  0
 52124  1  0  0  0
 52125  1  0  0  0
 53 54  1  0  0  0
 54 55  2  0  0  0
 54126  1  0  0  0
 55 57  1  0  0  0
 55127  1  0  0  0
 56 69  2  0  0  0
 57 58  2  0  0  0
 57128  1  0  0  0
 58129  1  0  0  0
 59 60  1  0  0  0
 59 61  1  0  0  0
 59 62  1  0  0  0
 60130  1  0  0  0
 60131  1  0  0  0
 60132  1  0  0  0
 61133  1  0  0  0
 61134  1  0  0  0
 61135  1  0  0  0
 62136  1  0  0  0
 62137  1  0  0  0
 62138  1  0  0  0
 63 65  1  0  0  0
 63139  1  0  0  0
 63140  1  0  0  0
 63141  1  0  0  0
 64142  1  0  0  0
 65143  1  0  0  0
 68 82  1  0  0  0
 71 73  2  0  0  0
 71 75  1  0  0  0
 71144  1  0  0  0
 72 74  1  0  0  0
 72 76  2  0  0  0
 72145  1  0  0  0
 73 76  1  0  0  0
 73 77  1  0  0  0
 74 75  2  0  0  0
 74 78  1  0  0  0
 75 79  1  0  0  0
 76 80  1  0  0  0
 77146  1  0  0  0
 77147  1  0  0  0
 77148  1  0  0  0
 78149  1  0  0  0
 78150  1  0  0  0
 78151  1  0  0  0
 79 83  1  0  0  0
 79152  1  0  0  0
 79153  1  0  0  0
 80 84  1  0  0  0
 80154  1  0  0  0
 80155  1  0  0  0
 81 82  1  0  0  0
 81 84  1  0  0  0
 81156  1  0  0  0
 81157  1  0  0  0
 82158  1  0  0  0
 82159  1  0  0  0
 83160  1  0  0  0
 84161  1  0  0  0
 84162  1  0  0  0
M  CHG  1  84   1
M  ISO  4   1 100  68 101  82 101  83 100
M  END
> <chiral flag>
0

> <version>
0

> <s_m_source_file>
/data/baiqing/PycharmProjects/Reinvent-master-3.2/result/LINK_invent/BTK/process_docking_weight1_custom_product_contain_oxygen_bond_distance_aromatic_linkinvent_7_9_3/rearranged_h_0036.sdf

> <i_m_source_file_index>
64

> <r_mmod_Potential_Energy-OPLS-2005>
-227.890182495117

> <r_mmod_Stretch_Energy-OPLS-2005>
41.6023178100586

> <r_mmod_Bend_Energy-OPLS-2005>
117.602561950684

> <r_mmod_Torsional_Energy-OPLS-2005>
230.181579589844

> <r_mmod_Improper_Torsional_Energy-OPLS-2005>
2.62200427055359

> <r_mmod_Van_der_Waal_Energy-OPLS-2005>
150.609268188477

> <r_mmod_Electrostatic_Energy-OPLS-2005>
-340.261383056641

> <r_mmod_Solvation_Energy-OPLS-2005>
-444.511108398438

> <b_mmod_Minimization_Converged-OPLS-2005>
0

> <r_mmod_RMS_Derivative-OPLS-2005>
5.67524147033691

$$$$
64
                    3D
 Structure written by MMmdl.
186196  0  0  1  0            999 V2000
  -30.6759  -14.4886   20.5622 C   0  0  0  0  0  0
  -30.4239  -12.3101   19.4303 C   0  0  0  0  0  0
  -29.4990  -12.5068   18.2116 C   0  0  0  0  0  0
  -28.0173  -12.3675   18.6174 C   0  0  0  0  0  0
  -27.6604  -13.2051   19.8752 C   0  0  2  0  0  0
  -28.6982  -12.9833   20.9980 C   0  0  0  0  0  0
  -25.2584  -13.8171   20.5686 C   0  0  0  0  0  0
  -24.1825  -13.0445   20.9152 C   0  0  0  0  0  0
  -24.6379  -11.6910   20.8739 C   0  0  0  0  0  0
  -23.9050  -10.4296   21.0416 C   0  0  0  0  0  0
  -24.3608   -9.4213   21.9192 C   0  0  0  0  0  0
  -23.6296   -8.2245   22.0758 C   0  0  0  0  0  0
  -22.4271   -8.0288   21.3557 C   0  0  0  0  0  0
  -21.9913   -9.0255   20.4639 C   0  0  0  0  0  0
  -22.7235  -10.2129   20.3060 C   0  0  0  0  0  0
  -21.6847   -6.0749   22.5291 C   0  0  0  0  0  0
  -21.4000   -6.5643   23.8227 C   0  0  0  0  0  0
  -21.3665   -5.6796   24.9185 C   0  0  0  0  0  0
  -21.6046   -4.3066   24.7235 C   0  0  0  0  0  0
  -21.8819   -3.8159   23.4353 C   0  0  0  0  0  0
  -21.9187   -4.6972   22.3408 C   0  0  0  0  0  0
  -22.7862  -13.5242   21.1850 C   0  0  0  0  0  0
  -22.1658   -4.2157   21.0986 F   0  0  0  0  0  0
  -21.5633   -3.4547   25.7751 F   0  0  0  0  0  0
  -30.0314  -13.2945   20.4519 N   0  0  0  0  0  0
  -26.3008  -12.9326   20.3338 N   0  0  0  0  0  0
  -25.9300  -11.6488   20.5758 N   0  0  0  0  0  0
  -22.0507  -12.8209   22.0394 N   0  0  0  0  0  0
  -25.4343  -15.1890   20.4139 N   0  0  0  0  0  0
  -31.8142  -14.6762   20.1211 O   0  0  0  0  0  0
  -21.6637   -6.8886   21.4253 O   0  0  0  0  0  0
  -22.3557  -14.5560   20.6729 O   0  0  0  0  0  0
  -24.6158  -31.8668   23.2049 C   0  0  0  0  0  0
  -25.9035  -32.4830   23.8375 C   0  0  1  0  0  0
  -27.2382  -27.3924   20.1161 C   0  0  0  0  0  0
  -25.5878  -33.8632   24.2291 N   0  0  0  0  0  0
  -23.4058  -30.4861   21.5464 C   0  0  2  0  0  0
  -24.8534  -28.9426   20.1187 C   0  0  0  0  0  0
  -22.7408  -29.4645   22.4968 C   0  0  0  0  0  0
  -18.0283  -28.1357   22.8491 C   0  0  0  0  0  0
  -24.1483  -36.7328   23.2632 C   0  0  0  0  0  0
  -25.9376  -30.8165   21.3661 C   0  0  0  0  0  0
  -26.0115  -29.4457   20.7216 C   0  0  0  0  0  0
  -27.1999  -28.6767   20.7163 C   0  0  0  0  0  0
  -26.0703  -26.9357   19.4648 C   0  0  0  0  0  0
  -24.8784  -27.6879   19.4874 C   0  0  0  0  0  0
  -23.6165  -29.8124   20.1638 C   0  0  0  0  0  0
  -25.4117  -36.3128   24.0321 C   0  0  1  0  0  0
  -20.5879  -28.3650   23.1311 C   0  0  2  0  0  0
  -20.6769  -26.9376   22.5422 C   0  0  0  0  0  0
  -19.5752  -26.6368   21.5211 C   0  0  0  0  0  0
  -18.1917  -26.7924   22.1599 C   0  0  0  0  0  0
  -19.1539  -28.8824   23.2906 C   0  0  0  0  0  0
  -18.9463  -30.1437   23.8887 C   0  0  0  0  0  0
  -17.6474  -30.6573   24.0567 C   0  0  0  0  0  0
  -25.9027  -34.9490   23.5113 C   0  0  0  0  0  0
  -16.5363  -29.9072   23.6324 C   0  0  0  0  0  0
  -16.7283  -28.6495   23.0339 C   0  0  0  0  0  0
  -26.4445  -31.6634   25.0722 C   0  0  0  0  0  0
  -25.3689  -31.3731   26.1451 C   0  0  0  0  0  0
  -27.0317  -30.3096   24.6145 C   0  0  0  0  0  0
  -27.6038  -32.4370   25.7462 C   0  0  0  0  0  0
  -27.5609  -37.1784   24.8432 C   0  0  0  0  0  0
  -21.4145  -29.3019   22.3700 N   0  0  0  0  0  0
  -26.4287  -37.3834   23.9435 N   0  0  0  0  0  0
  -24.6717  -31.0728   22.0968 N   0  0  0  0  0  0
  -23.4169  -28.8187   23.3022 O   0  0  0  0  0  0
  -28.4464  -26.7047   20.1210 O   0  0  0  0  0  0
  -26.5615  -34.8933   22.4688 O   0  0  0  0  0  0
  -23.5344  -32.1450   23.7414 O   0  0  0  0  0  0
  -30.2244  -18.8996   19.4362 C   0  0  0  0  0  0
  -30.0461  -17.5054   19.5934 C   0  0  0  0  0  0
  -30.4446  -19.7481   20.5421 C   0  0  0  0  0  0
  -30.2611  -17.7701   22.0110 C   0  0  0  0  0  0
  -30.1119  -16.9116   20.8840 C   0  0  0  0  0  0
  -30.4233  -19.1747   21.8371 C   0  0  0  0  0  0
  -31.7187  -24.2808   16.1375 C   0  0  0  0  0  0
  -31.5806  -23.2124   16.9441 C   0  0  0  0  0  0
  -30.6636  -25.3171   15.7874 C   0  0  0  0  0  0
  -30.3345  -22.7853   17.7004 C   0  0  0  0  0  0
  -30.9560  -26.6949   16.4135 C   0  0  0  0  0  0
  -30.3526  -26.9403   17.8119 C   0  0  0  0  0  0
  -27.6349  -22.9732   21.0275 C   0  0  0  0  0  0
  -30.7189  -25.8870   18.8822 C   0  0  0  0  0  0
  -27.4003  -24.3623   20.4101 C   0  0  0  0  0  0
  -28.4291  -21.9941   20.1451 C   0  0  0  0  0  0
  -29.6187  -24.8035   19.1320 C   0  0  1  0  0  0
  -30.2996  -23.3641   19.1499 C   0  0  1  0  0  0
  -28.6551  -25.2632   20.2787 C   0  0  1  0  0  0
  -29.7772  -16.6792   18.3451 C   0  0  0  0  0  0
  -30.2866  -17.2100   23.4300 C   0  0  0  0  0  0
  -30.8732  -21.2162   20.3054 C   0  0  0  0  0  0
  -29.9282  -15.4965   21.0619 N   0  0  0  0  0  0
  -29.8692  -22.3403   20.1669 N   0  3  2  0  0  0
  -30.6241  -20.1978   23.2221 Cl  0  0  0  0  0  0
  -31.4699  -12.4129   19.1332 H   0  0  0  0  0  0
  -30.3242  -11.2989   19.8259 H   0  0  0  0  0  0
  -29.7439  -11.7823   17.4322 H   0  0  0  0  0  0
  -29.6651  -13.4929   17.7760 H   0  0  0  0  0  0
  -27.8250  -11.3109   18.8109 H   0  0  0  0  0  0
  -27.3703  -12.6454   17.7837 H   0  0  0  0  0  0
  -27.7038  -14.2524   19.5807 H   0  0  0  0  0  0
  -28.6696  -11.9469   21.3374 H   0  0  0  0  0  0
  -28.4532  -13.5819   21.8774 H   0  0  0  0  0  0
  -25.2761   -9.5683   22.4747 H   0  0  0  0  0  0
  -24.0018   -7.4635   22.7473 H   0  0  0  0  0  0
  -21.0856   -8.8769   19.8936 H   0  0  0  0  0  0
  -22.3722  -10.9664   19.6154 H   0  0  0  0  0  0
  -21.1981   -7.6149   23.9728 H   0  0  0  0  0  0
  -21.1490   -6.0530   25.9086 H   0  0  0  0  0  0
  -22.0586   -2.7618   23.2867 H   0  0  0  0  0  0
  -22.4127  -11.9846   22.4732 H   0  0  0  0  0  0
  -21.1133  -13.1227   22.2615 H   0  0  0  0  0  0
  -24.6741  -15.8512   20.5262 H   0  0  0  0  0  0
  -26.3017  -15.6271   20.1290 H   0  0  0  0  0  0
  -26.7104  -32.5520   23.1131 H   0  0  0  0  0  0
  -25.0028  -33.9810   25.0441 H   0  0  0  0  0  0
  -22.6988  -31.3048   21.4016 H   0  0  0  0  0  0
  -23.3784  -35.9599   23.3217 H   0  0  0  0  0  0
  -24.3591  -36.9064   22.2062 H   0  0  0  0  0  0
  -23.7159  -37.6469   23.6721 H   0  0  0  0  0  0
  -26.0526  -31.5750   20.5921 H   0  0  0  0  0  0
  -26.8258  -30.8778   21.9824 H   0  0  0  0  0  0
  -28.0976  -29.0616   21.1803 H   0  0  0  0  0  0
  -26.0616  -26.0152   18.9082 H   0  0  0  0  0  0
  -23.9928  -27.3062   18.9985 H   0  0  0  0  0  0
  -23.7267  -30.5848   19.4018 H   0  0  0  0  0  0
  -22.7404  -29.2324   19.8653 H   0  0  0  0  0  0
  -25.1288  -36.1992   25.0804 H   0  0  0  0  0  0
  -20.9974  -28.3225   24.1434 H   0  0  0  0  0  0
  -20.5667  -26.2238   23.3599 H   0  0  0  0  0  0
  -21.6641  -26.7399   22.1217 H   0  0  0  0  0  0
  -19.6891  -25.6280   21.1227 H   0  0  0  0  0  0
  -19.6708  -27.3182   20.6745 H   0  0  0  0  0  0
  -17.4200  -26.6721   21.3975 H   0  0  0  0  0  0
  -18.0281  -26.0049   22.8967 H   0  0  0  0  0  0
  -19.7940  -30.7276   24.2211 H   0  0  0  0  0  0
  -17.5028  -31.6230   24.5190 H   0  0  0  0  0  0
  -15.5363  -30.2981   23.7647 H   0  0  0  0  0  0
  -15.8688  -28.0839   22.7024 H   0  0  0  0  0  0
  -24.5901  -30.7040   25.7783 H   0  0  0  0  0  0
  -24.8789  -32.2845   26.4873 H   0  0  0  0  0  0
  -25.8020  -30.8932   27.0234 H   0  0  0  0  0  0
  -26.2875  -29.6833   24.1212 H   0  0  0  0  0  0
  -27.4115  -29.7395   25.4636 H   0  0  0  0  0  0
  -27.8682  -30.4470   23.9295 H   0  0  0  0  0  0
  -27.2729  -33.3763   26.1931 H   0  0  0  0  0  0
  -28.3864  -32.6810   25.0254 H   0  0  0  0  0  0
  -28.0661  -31.8536   26.5446 H   0  0  0  0  0  0
  -28.2526  -38.0191   24.7708 H   0  0  0  0  0  0
  -28.1226  -36.2747   24.6002 H   0  0  0  0  0  0
  -27.2343  -37.1132   25.8826 H   0  0  0  0  0  0
  -20.9274  -29.8807   21.7009 H   0  0  0  0  0  0
  -26.0184  -38.2878   24.1583 H   0  0  0  0  0  0
  -30.2260  -19.3203   18.4410 H   0  0  0  0  0  0
  -32.6952  -24.4614   15.7071 H   0  0  0  0  0  0
  -32.4547  -22.6006   17.1218 H   0  0  0  0  0  0
  -29.6564  -24.9833   16.0323 H   0  0  0  0  0  0
  -30.6907  -25.4161   14.7012 H   0  0  0  0  0  0
  -30.3193  -21.6975   17.6847 H   0  0  0  0  0  0
  -29.4411  -23.0575   17.1402 H   0  0  0  0  0  0
  -30.5563  -27.4637   15.7495 H   0  0  0  0  0  0
  -32.0328  -26.8738   16.4384 H   0  0  0  0  0  0
  -29.2703  -27.0493   17.7312 H   0  0  0  0  0  0
  -30.7071  -27.9130   18.1569 H   0  0  0  0  0  0
  -26.6560  -22.5298   21.2176 H   0  0  0  0  0  0
  -28.0974  -23.0693   22.0119 H   0  0  0  0  0  0
  -30.9370  -26.3908   19.8245 H   0  0  0  0  0  0
  -31.6796  -25.4569   18.6032 H   0  0  0  0  0  0
  -26.6750  -24.8629   21.0520 H   0  0  0  0  0  0
  -26.9283  -24.2154   19.4400 H   0  0  0  0  0  0
  -28.0383  -21.9602   19.1275 H   0  0  0  0  0  0
  -28.2602  -21.0013   20.5602 H   0  0  0  0  0  0
  -28.9693  -24.8237   18.2574 H   0  0  0  0  0  0
  -31.3345  -23.5254   19.4588 H   0  0  0  0  0  0
  -29.2039  -25.1845   21.2176 H   0  0  0  0  0  0
  -29.6236  -17.3167   17.4755 H   0  0  0  0  0  0
  -28.8806  -16.0728   18.4685 H   0  0  0  0  0  0
  -30.6164  -16.0222   18.1194 H   0  0  0  0  0  0
  -30.2047  -16.1254   23.4835 H   0  0  0  0  0  0
  -29.4687  -17.6311   24.0160 H   0  0  0  0  0  0
  -31.2232  -17.4828   23.9177 H   0  0  0  0  0  0
  -31.5218  -21.1769   19.4311 H   0  0  0  0  0  0
  -31.5645  -21.5127   21.0937 H   0  0  0  0  0  0
  -29.0684  -15.2121   21.5076 H   0  0  0  0  0  0
  -29.9738  -22.8034   21.0561 H   0  0  0  0  0  0
  1 25  1  0  0  0
  1 30  2  0  0  0
  1 93  1  0  0  0
  2  3  1  0  0  0
  2 25  1  0  0  0
  2 96  1  0  0  0
  2 97  1  0  0  0
  3  4  1  0  0  0
  3 98  1  0  0  0
  3 99  1  0  0  0
  4  5  1  0  0  0
  4100  1  0  0  0
  4101  1  0  0  0
  5  6  1  0  0  0
  5 26  1  0  0  0
  5102  1  0  0  0
  6 25  1  0  0  0
  6103  1  0  0  0
  6104  1  0  0  0
  7  8  2  0  0  0
  7 26  1  0  0  0
  7 29  1  0  0  0
  8  9  1  0  0  0
  8 22  1  0  0  0
  9 10  1  0  0  0
  9 27  2  0  0  0
 10 11  2  0  0  0
 10 15  1  0  0  0
 11 12  1  0  0  0
 11105  1  0  0  0
 12 13  2  0  0  0
 12106  1  0  0  0
 13 14  1  0  0  0
 13 31  1  0  0  0
 14 15  2  0  0  0
 14107  1  0  0  0
 15108  1  0  0  0
 16 17  2  0  0  0
 16 21  1  0  0  0
 16 31  1  0  0  0
 17 18  1  0  0  0
 17109  1  0  0  0
 18 19  2  0  0  0
 18110  1  0  0  0
 19 20  1  0  0  0
 19 24  1  0  0  0
 20 21  2  0  0  0
 20111  1  0  0  0
 21 23  1  0  0  0
 22 28  1  0  0  0
 22 32  2  0  0  0
 26 27  1  0  0  0
 28112  1  0  0  0
 28113  1  0  0  0
 29114  1  0  0  0
 29115  1  0  0  0
 33 34  1  0  0  0
 33 66  1  0  0  0
 33 70  2  0  0  0
 34 36  1  0  0  0
 34 59  1  0  0  0
 34116  1  0  0  0
 35 44  2  0  0  0
 35 45  1  0  0  0
 35 68  1  0  0  0
 36 56  1  0  0  0
 36117  1  0  0  0
 37 39  1  0  0  0
 37 47  1  0  0  0
 37 66  1  0  0  0
 37118  1  0  0  0
 38 43  2  0  0  0
 38 46  1  0  0  0
 38 47  1  0  0  0
 39 64  1  0  0  0
 39 67  2  0  0  0
 40 52  1  0  0  0
 40 53  2  0  0  0
 40 58  1  0  0  0
 41119  1  0  0  0
 41120  1  0  0  0
 41121  1  0  0  0
 41 48  1  0  0  0
 42 43  1  0  0  0
 42 66  1  0  0  0
 42122  1  0  0  0
 42123  1  0  0  0
 43 44  1  0  0  0
 44124  1  0  0  0
 45 46  2  0  0  0
 45125  1  0  0  0
 46126  1  0  0  0
 47127  1  0  0  0
 47128  1  0  0  0
 48 56  1  0  0  0
 48 65  1  0  0  0
 48129  1  0  0  0
 49 50  1  0  0  0
 49 53  1  0  0  0
 49 64  1  0  0  0
 49130  1  0  0  0
 50 51  1  0  0  0
 50131  1  0  0  0
 50132  1  0  0  0
 51 52  1  0  0  0
 51133  1  0  0  0
 51134  1  0  0  0
 52135  1  0  0  0
 52136  1  0  0  0
 53 54  1  0  0  0
 54 55  2  0  0  0
 54137  1  0  0  0
 55 57  1  0  0  0
 55138  1  0  0  0
 56 69  2  0  0  0
 57 58  2  0  0  0
 57139  1  0  0  0
 58140  1  0  0  0
 59 60  1  0  0  0
 59 61  1  0  0  0
 59 62  1  0  0  0
 60141  1  0  0  0
 60142  1  0  0  0
 60143  1  0  0  0
 61144  1  0  0  0
 61145  1  0  0  0
 61146  1  0  0  0
 62147  1  0  0  0
 62148  1  0  0  0
 62149  1  0  0  0
 63 65  1  0  0  0
 63150  1  0  0  0
 63151  1  0  0  0
 63152  1  0  0  0
 64153  1  0  0  0
 65154  1  0  0  0
 68 89  1  0  0  0
 71 72  2  0  0  0
 71 73  1  0  0  0
 71155  1  0  0  0
 72 75  1  0  0  0
 72 90  1  0  0  0
 73 76  2  0  0  0
 73 92  1  0  0  0
 74 75  2  0  0  0
 74 76  1  0  0  0
 74 91  1  0  0  0
 75 93  1  0  0  0
 76 95  1  0  0  0
 77 78  2  0  0  0
 77 79  1  0  0  0
 77156  1  0  0  0
 78 80  1  0  0  0
 78157  1  0  0  0
 79 81  1  0  0  0
 79158  1  0  0  0
 79159  1  0  0  0
 80160  1  0  0  0
 80161  1  0  0  0
 80 88  1  0  0  0
 81 82  1  0  0  0
 81162  1  0  0  0
 81163  1  0  0  0
 82 84  1  0  0  0
 82164  1  0  0  0
 82165  1  0  0  0
 83 85  1  0  0  0
 83 86  1  0  0  0
 83166  1  0  0  0
 83167  1  0  0  0
 84168  1  0  0  0
 84169  1  0  0  0
 84 87  1  0  0  0
 85 89  1  0  0  0
 85170  1  0  0  0
 85171  1  0  0  0
 86 94  1  0  0  0
 86172  1  0  0  0
 86173  1  0  0  0
 87 88  1  0  0  0
 87 89  1  0  0  0
 87174  1  0  0  0
 88 94  1  0  0  0
 88175  1  0  0  0
 89176  1  0  0  0
 90177  1  0  0  0
 90178  1  0  0  0
 90179  1  0  0  0
 91180  1  0  0  0
 91181  1  0  0  0
 91182  1  0  0  0
 92183  1  0  0  0
 92184  1  0  0  0
 92 94  1  0  0  0
 93185  1  0  0  0
 94186  1  0  0  0
M  CHG  1  94   1
M  ISO  4   1 100  68 101  89 101  93 100
M  END
> <chiral flag>
0

> <version>
0

> <s_m_source_file>
/data/baiqing/PycharmProjects/Reinvent-master-3.2/result/LINK_invent/BTK/process_docking_weight1_custom_product_contain_oxygen_bond_distance_aromatic_linkinvent_7_9_3/rearranged_h_0036.sdf

> <i_m_source_file_index>
65

> <r_mmod_Potential_Energy-OPLS-2005>
75.7015838623047

> <r_mmod_Stretch_Energy-OPLS-2005>
59.9838829040527

> <r_mmod_Bend_Energy-OPLS-2005>
189.313049316406

> <r_mmod_Torsional_Energy-OPLS-2005>
351.535430908203

> <r_mmod_Improper_Torsional_Energy-OPLS-2005>
4.5573992729187

> <r_mmod_Van_der_Waal_Energy-OPLS-2005>
165.929870605469

> <r_mmod_Electrostatic_Energy-OPLS-2005>
-298.909759521484

> <r_mmod_Solvation_Energy-OPLS-2005>
-412.97119140625

> <b_mmod_Minimization_Converged-OPLS-2005>
0

> <r_mmod_RMS_Derivative-OPLS-2005>
3.19537210464478

$$$$
65
                    3D
 Structure written by MMmdl.
167176  0  0  1  0            999 V2000
  -30.6252  -14.6509   20.4841 C   0  0  0  0  0  0
  -30.4441  -12.4004   19.4402 C   0  0  0  0  0  0
  -29.5123  -12.5188   18.2138 C   0  0  0  0  0  0
  -28.0309  -12.3688   18.6181 C   0  0  0  0  0  0
  -27.6561  -13.2153   19.8648 C   0  0  2  0  0  0
  -28.7108  -13.0739   20.9873 C   0  0  0  0  0  0
  -25.2566  -13.8133   20.5666 C   0  0  0  0  0  0
  -24.1839  -13.0400   20.9158 C   0  0  0  0  0  0
  -24.6421  -11.6874   20.8698 C   0  0  0  0  0  0
  -23.9094  -10.4270   21.0357 C   0  0  0  0  0  0
  -24.3650   -9.4194   21.9139 C   0  0  0  0  0  0
  -23.6317   -8.2235   22.0733 C   0  0  0  0  0  0
  -22.4297   -8.0263   21.3539 C   0  0  0  0  0  0
  -21.9934   -9.0230   20.4631 C   0  0  0  0  0  0
  -22.7258  -10.2112   20.3021 C   0  0  0  0  0  0
  -21.6868   -6.0724   22.5258 C   0  0  0  0  0  0
  -21.4017   -6.5623   23.8187 C   0  0  0  0  0  0
  -21.3677   -5.6782   24.9152 C   0  0  0  0  0  0
  -21.6054   -4.3040   24.7207 C   0  0  0  0  0  0
  -21.8832   -3.8129   23.4328 C   0  0  0  0  0  0
  -21.9202   -4.6951   22.3382 C   0  0  0  0  0  0
  -22.7865  -13.5198   21.1828 C   0  0  0  0  0  0
  -22.1657   -4.2133   21.0964 F   0  0  0  0  0  0
  -21.5660   -3.4534   25.7721 F   0  0  0  0  0  0
  -30.0207  -13.4217   20.4143 N   0  0  0  0  0  0
  -26.3020  -12.9317   20.3324 N   0  0  0  0  0  0
  -25.9364  -11.6474   20.5756 N   0  0  0  0  0  0
  -22.0525  -12.8182   22.0394 N   0  0  0  0  0  0
  -25.4202  -15.1854   20.4084 N   0  0  0  0  0  0
  -31.8040  -14.8120   20.1520 O   0  0  0  0  0  0
  -21.6656   -6.8862   21.4225 O   0  0  0  0  0  0
  -22.3536  -14.5496   20.6670 O   0  0  0  0  0  0
  -24.6197  -31.8620   23.2100 C   0  0  0  0  0  0
  -25.9056  -32.4787   23.8432 C   0  0  1  0  0  0
  -27.2266  -27.3304   20.1287 C   0  0  0  0  0  0
  -25.5882  -33.8605   24.2305 N   0  0  0  0  0  0
  -23.4150  -30.4854   21.5497 C   0  0  2  0  0  0
  -24.8653  -28.9476   20.1079 C   0  0  0  0  0  0
  -22.7465  -29.4612   22.4964 C   0  0  0  0  0  0
  -18.0271  -28.1346   22.8475 C   0  0  0  0  0  0
  -24.1483  -36.7302   23.2656 C   0  0  0  0  0  0
  -25.9585  -30.7900   21.3906 C   0  0  0  0  0  0
  -26.0300  -29.4248   20.7205 C   0  0  0  0  0  0
  -27.2109  -28.6294   20.7200 C   0  0  0  0  0  0
  -26.0456  -26.9140   19.4699 C   0  0  0  0  0  0
  -24.8769  -27.6979   19.4692 C   0  0  0  0  0  0
  -23.6302  -29.8238   20.1620 C   0  0  0  0  0  0
  -25.4117  -36.3106   24.0329 C   0  0  1  0  0  0
  -20.5869  -28.3648   23.1280 C   0  0  2  0  0  0
  -20.6753  -26.9376   22.5397 C   0  0  0  0  0  0
  -19.5739  -26.6346   21.5189 C   0  0  0  0  0  0
  -18.1917  -26.7890   22.1598 C   0  0  0  0  0  0
  -19.1524  -28.8814   23.2869 C   0  0  0  0  0  0
  -18.9457  -30.1416   23.8883 C   0  0  0  0  0  0
  -17.6459  -30.6569   24.0531 C   0  0  0  0  0  0
  -25.9047  -34.9459   23.5129 C   0  0  0  0  0  0
  -16.5347  -29.9060   23.6316 C   0  0  0  0  0  0
  -16.7254  -28.6462   23.0369 C   0  0  0  0  0  0
  -26.4458  -31.6629   25.0813 C   0  0  0  0  0  0
  -25.3715  -31.3707   26.1554 C   0  0  0  0  0  0
  -27.0343  -30.3060   24.6320 C   0  0  0  0  0  0
  -27.6010  -32.4413   25.7550 C   0  0  0  0  0  0
  -27.5580  -37.1816   24.8453 C   0  0  0  0  0  0
  -21.4181  -29.3008   22.3689 N   0  0  0  0  0  0
  -26.4294  -37.3801   23.9399 N   0  0  0  0  0  0
  -24.6817  -31.0659   22.1029 N   0  0  0  0  0  0
  -23.4204  -28.8166   23.3038 O   0  0  0  0  0  0
  -28.3550  -26.4994   20.2260 O   0  0  0  0  0  0
  -26.5651  -34.8906   22.4712 O   0  0  0  0  0  0
  -23.5364  -32.1406   23.7431 O   0  0  0  0  0  0
  -30.7629  -19.3284   21.4140 C   0  0  0  0  0  0
  -30.7855  -17.9059   21.4166 C   0  0  0  0  0  0
  -29.8768  -20.1093   20.6188 C   0  0  0  0  0  0
  -28.9940  -19.3519   19.7720 C   0  0  0  0  0  0
  -29.0548  -17.9075   19.7386 C   0  0  0  0  0  0
  -29.9229  -17.1536   20.5872 C   0  0  0  0  0  0
  -29.4592  -23.2908   18.7221 C   0  0  0  0  0  0
  -30.2648  -22.8215   17.7442 C   0  0  0  0  0  0
  -28.7806  -24.6591   18.6264 C   0  0  0  0  0  0
  -29.0005  -24.0220   20.9070 C   0  0  0  0  0  0
  -28.2345  -25.0396   20.0013 C   0  0  1  0  0  0
  -27.9607  -20.0284   18.8731 C   0  0  0  0  0  0
  -28.1768  -17.1417   18.7482 C   0  0  0  0  0  0
  -31.1242  -21.5795   17.6698 C   0  0  0  0  0  0
  -30.0499  -21.6908   20.7575 C   0  0  0  0  0  0
  -29.7801  -15.7023   20.7201 N   0  0  0  0  0  0
  -29.1684  -22.7521   20.1079 N   0  3  2  0  0  0
  -31.4820  -12.5327   19.1322 H   0  0  0  0  0  0
  -30.3828  -11.4025   19.8773 H   0  0  0  0  0  0
  -29.7797  -11.7695   17.4685 H   0  0  0  0  0  0
  -29.6593  -13.4889   17.7366 H   0  0  0  0  0  0
  -27.8435  -11.3135   18.8129 H   0  0  0  0  0  0
  -27.3897  -12.6397   17.7764 H   0  0  0  0  0  0
  -27.6677  -14.2522   19.5386 H   0  0  0  0  0  0
  -28.7310  -12.0539   21.3754 H   0  0  0  0  0  0
  -28.4705  -13.7151   21.8352 H   0  0  0  0  0  0
  -25.2795   -9.5689   22.4714 H   0  0  0  0  0  0
  -24.0034   -7.4640   22.7467 H   0  0  0  0  0  0
  -21.0857   -8.8744   19.8940 H   0  0  0  0  0  0
  -22.3687  -10.9655   19.6146 H   0  0  0  0  0  0
  -21.1990   -7.6128   23.9689 H   0  0  0  0  0  0
  -21.1504   -6.0503   25.9066 H   0  0  0  0  0  0
  -22.0607   -2.7589   23.2823 H   0  0  0  0  0  0
  -22.4172  -11.9869   22.4794 H   0  0  0  0  0  0
  -21.1133  -13.1170   22.2589 H   0  0  0  0  0  0
  -24.6439  -15.8302   20.5126 H   0  0  0  0  0  0
  -26.2690  -15.6351   20.0980 H   0  0  0  0  0  0
  -26.7127  -32.5441   23.1194 H   0  0  0  0  0  0
  -24.9961  -33.9766   25.0396 H   0  0  0  0  0  0
  -22.7044  -31.3034   21.4119 H   0  0  0  0  0  0
  -23.3756  -35.9626   23.3314 H   0  0  0  0  0  0
  -24.3581  -36.8938   22.2075 H   0  0  0  0  0  0
  -23.7204  -37.6483   23.6696 H   0  0  0  0  0  0
  -26.1220  -31.5672   20.6438 H   0  0  0  0  0  0
  -26.8259  -30.8145   22.0387 H   0  0  0  0  0  0
  -28.1005  -28.9974   21.2117 H   0  0  0  0  0  0
  -25.9908  -25.9742   18.9437 H   0  0  0  0  0  0
  -23.9921  -27.3331   18.9663 H   0  0  0  0  0  0
  -23.7443  -30.6063   19.4100 H   0  0  0  0  0  0
  -22.7505  -29.2517   19.8586 H   0  0  0  0  0  0
  -25.1301  -36.1992   25.0825 H   0  0  0  0  0  0
  -20.9944  -28.3213   24.1407 H   0  0  0  0  0  0
  -20.5608  -26.2276   23.3599 H   0  0  0  0  0  0
  -21.6636  -26.7381   22.1218 H   0  0  0  0  0  0
  -19.6901  -25.6253   21.1227 H   0  0  0  0  0  0
  -19.6680  -27.3142   20.6710 H   0  0  0  0  0  0
  -17.4194  -26.6623   21.3999 H   0  0  0  0  0  0
  -18.0325  -26.0020   22.8981 H   0  0  0  0  0  0
  -19.7943  -30.7210   24.2267 H   0  0  0  0  0  0
  -17.5025  -31.6257   24.5127 H   0  0  0  0  0  0
  -15.5347  -30.2964   23.7645 H   0  0  0  0  0  0
  -15.8645  -28.0754   22.7136 H   0  0  0  0  0  0
  -24.5833  -30.7135   25.7858 H   0  0  0  0  0  0
  -24.8966  -32.2843   26.5159 H   0  0  0  0  0  0
  -25.8060  -30.8731   27.0237 H   0  0  0  0  0  0
  -26.2934  -29.6803   24.1327 H   0  0  0  0  0  0
  -27.3988  -29.7352   25.4879 H   0  0  0  0  0  0
  -27.8844  -30.4360   23.9613 H   0  0  0  0  0  0
  -27.2580  -33.3677   26.2189 H   0  0  0  0  0  0
  -28.3761  -32.7071   25.0340 H   0  0  0  0  0  0
  -28.0776  -31.8539   26.5414 H   0  0  0  0  0  0
  -28.2611  -38.0106   24.7529 H   0  0  0  0  0  0
  -28.1067  -36.2648   24.6256 H   0  0  0  0  0  0
  -27.2305  -37.1425   25.8856 H   0  0  0  0  0  0
  -20.9367  -29.8734   21.6895 H   0  0  0  0  0  0
  -26.0182  -38.2882   24.1399 H   0  0  0  0  0  0
  -31.4562  -19.8364   22.0723 H   0  0  0  0  0  0
  -31.4597  -17.4008   22.0934 H   0  0  0  0  0  0
  -30.3761  -23.4584   16.8756 H   0  0  0  0  0  0
  -27.9977  -24.6554   17.8690 H   0  0  0  0  0  0
  -29.5286  -25.3911   18.3192 H   0  0  0  0  0  0
  -28.4825  -23.8437   21.8512 H   0  0  0  0  0  0
  -29.9851  -24.4249   21.1480 H   0  0  0  0  0  0
  -27.1991  -24.7109   20.0727 H   0  0  0  0  0  0
  -27.7053  -21.0407   19.1520 H   0  0  0  0  0  0
  -27.0112  -19.4903   18.9132 H   0  0  0  0  0  0
  -28.3022  -20.0314   17.8368 H   0  0  0  0  0  0
  -28.1255  -17.6455   17.7829 H   0  0  0  0  0  0
  -27.1667  -17.0293   19.1358 H   0  0  0  0  0  0
  -28.5676  -16.1510   18.5234 H   0  0  0  0  0  0
  -30.8707  -20.8195   18.3939 H   0  0  0  0  0  0
  -32.1729  -21.8484   17.7944 H   0  0  0  0  0  0
  -31.0142  -21.1307   16.6826 H   0  0  0  0  0  0
  -31.0862  -21.9385   20.5324 H   0  0  0  0  0  0
  -29.9692  -21.8666   21.8312 H   0  0  0  0  0  0
  -28.8282  -15.3964   20.8401 H   0  0  0  0  0  0
  -28.2532  -22.3276   20.0904 H   0  0  0  0  0  0
  1 25  1  0  0  0
  1 30  2  0  0  0
  1 86  1  0  0  0
  2  3  1  0  0  0
  2 25  1  0  0  0
  2 88  1  0  0  0
  2 89  1  0  0  0
  3  4  1  0  0  0
  3 90  1  0  0  0
  3 91  1  0  0  0
  4  5  1  0  0  0
  4 92  1  0  0  0
  4 93  1  0  0  0
  5  6  1  0  0  0
  5 26  1  0  0  0
  5 94  1  0  0  0
  6 25  1  0  0  0
  6 95  1  0  0  0
  6 96  1  0  0  0
  7  8  2  0  0  0
  7 26  1  0  0  0
  7 29  1  0  0  0
  8  9  1  0  0  0
  8 22  1  0  0  0
  9 10  1  0  0  0
  9 27  2  0  0  0
 10 11  2  0  0  0
 10 15  1  0  0  0
 11 12  1  0  0  0
 11 97  1  0  0  0
 12 13  2  0  0  0
 12 98  1  0  0  0
 13 14  1  0  0  0
 13 31  1  0  0  0
 14 15  2  0  0  0
 14 99  1  0  0  0
 15100  1  0  0  0
 16 17  2  0  0  0
 16 21  1  0  0  0
 16 31  1  0  0  0
 17 18  1  0  0  0
 17101  1  0  0  0
 18 19  2  0  0  0
 18102  1  0  0  0
 19 20  1  0  0  0
 19 24  1  0  0  0
 20 21  2  0  0  0
 20103  1  0  0  0
 21 23  1  0  0  0
 22 28  1  0  0  0
 22 32  2  0  0  0
 26 27  1  0  0  0
 28104  1  0  0  0
 28105  1  0  0  0
 29106  1  0  0  0
 29107  1  0  0  0
 33 34  1  0  0  0
 33 66  1  0  0  0
 33 70  2  0  0  0
 34 36  1  0  0  0
 34 59  1  0  0  0
 34108  1  0  0  0
 35 44  2  0  0  0
 35 45  1  0  0  0
 35 68  1  0  0  0
 36 56  1  0  0  0
 36109  1  0  0  0
 37 39  1  0  0  0
 37 47  1  0  0  0
 37 66  1  0  0  0
 37110  1  0  0  0
 38 43  2  0  0  0
 38 46  1  0  0  0
 38 47  1  0  0  0
 39 64  1  0  0  0
 39 67  2  0  0  0
 40 52  1  0  0  0
 40 53  2  0  0  0
 40 58  1  0  0  0
 41111  1  0  0  0
 41112  1  0  0  0
 41113  1  0  0  0
 41 48  1  0  0  0
 42 43  1  0  0  0
 42 66  1  0  0  0
 42114  1  0  0  0
 42115  1  0  0  0
 43 44  1  0  0  0
 44116  1  0  0  0
 45 46  2  0  0  0
 45117  1  0  0  0
 46118  1  0  0  0
 47119  1  0  0  0
 47120  1  0  0  0
 48 56  1  0  0  0
 48 65  1  0  0  0
 48121  1  0  0  0
 49 50  1  0  0  0
 49 53  1  0  0  0
 49 64  1  0  0  0
 49122  1  0  0  0
 50 51  1  0  0  0
 50123  1  0  0  0
 50124  1  0  0  0
 51 52  1  0  0  0
 51125  1  0  0  0
 51126  1  0  0  0
 52127  1  0  0  0
 52128  1  0  0  0
 53 54  1  0  0  0
 54 55  2  0  0  0
 54129  1  0  0  0
 55 57  1  0  0  0
 55130  1  0  0  0
 56 69  2  0  0  0
 57 58  2  0  0  0
 57131  1  0  0  0
 58132  1  0  0  0
 59 60  1  0  0  0
 59 61  1  0  0  0
 59 62  1  0  0  0
 60133  1  0  0  0
 60134  1  0  0  0
 60135  1  0  0  0
 61136  1  0  0  0
 61137  1  0  0  0
 61138  1  0  0  0
 62139  1  0  0  0
 62140  1  0  0  0
 62141  1  0  0  0
 63 65  1  0  0  0
 63142  1  0  0  0
 63143  1  0  0  0
 63144  1  0  0  0
 64145  1  0  0  0
 65146  1  0  0  0
 68 81  1  0  0  0
 71 72  2  0  0  0
 71 73  1  0  0  0
 71147  1  0  0  0
 72 76  1  0  0  0
 72148  1  0  0  0
 73 74  2  0  0  0
 73 85  1  0  0  0
 74 75  1  0  0  0
 74 82  1  0  0  0
 75 76  2  0  0  0
 75 83  1  0  0  0
 76 86  1  0  0  0
 77 78  2  0  0  0
 77 79  1  0  0  0
 77 87  1  0  0  0
 78 84  1  0  0  0
 78149  1  0  0  0
 79 81  1  0  0  0
 79150  1  0  0  0
 79151  1  0  0  0
 80 81  1  0  0  0
 80 87  1  0  0  0
 80152  1  0  0  0
 80153  1  0  0  0
 81154  1  0  0  0
 82155  1  0  0  0
 82156  1  0  0  0
 82157  1  0  0  0
 83158  1  0  0  0
 83159  1  0  0  0
 83160  1  0  0  0
 84161  1  0  0  0
 84162  1  0  0  0
 84163  1  0  0  0
 85164  1  0  0  0
 85165  1  0  0  0
 85 87  1  0  0  0
 86166  1  0  0  0
 87167  1  0  0  0
M  CHG  1  87   1
M  ISO  4   1 100  68 101  81 101  86 100
M  END
> <chiral flag>
0

> <version>
0

> <s_m_source_file>
/data/baiqing/PycharmProjects/Reinvent-master-3.2/result/LINK_invent/BTK/process_docking_weight1_custom_product_contain_oxygen_bond_distance_aromatic_linkinvent_7_9_3/rearranged_h_0036.sdf

> <i_m_source_file_index>
66

> <r_mmod_Potential_Energy-OPLS-2005>
45.2350769042969

> <r_mmod_Stretch_Energy-OPLS-2005>
85.275032043457

> <r_mmod_Bend_Energy-OPLS-2005>
218.89128112793

> <r_mmod_Torsional_Energy-OPLS-2005>
264.162963867188

> <r_mmod_Improper_Torsional_Energy-OPLS-2005>
6.581467628479

> <r_mmod_Van_der_Waal_Energy-OPLS-2005>
145.344085693359

> <r_mmod_Electrostatic_Energy-OPLS-2005>
-295.739440917969

> <r_mmod_Solvation_Energy-OPLS-2005>
-429.639190673828

> <b_mmod_Minimization_Converged-OPLS-2005>
0

> <r_mmod_RMS_Derivative-OPLS-2005>
3.35966324806213

$$$$
66
                    3D
 Structure written by MMmdl.
170179  0  0  1  0            999 V2000
  -30.6409  -14.6247   20.4842 C   0  0  0  0  0  0
  -30.4304  -12.3794   19.4491 C   0  0  0  0  0  0
  -29.5044  -12.5055   18.2196 C   0  0  0  0  0  0
  -28.0249  -12.3549   18.6275 C   0  0  0  0  0  0
  -27.6509  -13.2216   19.8596 C   0  0  2  0  0  0
  -28.6973  -13.0772   20.9878 C   0  0  0  0  0  0
  -25.2550  -13.8187   20.5675 C   0  0  0  0  0  0
  -24.1828  -13.0440   20.9197 C   0  0  0  0  0  0
  -24.6400  -11.6915   20.8740 C   0  0  0  0  0  0
  -23.9070  -10.4293   21.0404 C   0  0  0  0  0  0
  -24.3624   -9.4207   21.9180 C   0  0  0  0  0  0
  -23.6297   -8.2244   22.0752 C   0  0  0  0  0  0
  -22.4276   -8.0284   21.3545 C   0  0  0  0  0  0
  -21.9909   -9.0256   20.4646 C   0  0  0  0  0  0
  -22.7240  -10.2133   20.3054 C   0  0  0  0  0  0
  -21.6856   -6.0735   22.5277 C   0  0  0  0  0  0
  -21.4019   -6.5635   23.8213 C   0  0  0  0  0  0
  -21.3662   -5.6786   24.9174 C   0  0  0  0  0  0
  -21.6048   -4.3049   24.7221 C   0  0  0  0  0  0
  -21.8823   -3.8142   23.4341 C   0  0  0  0  0  0
  -21.9193   -4.6962   22.3399 C   0  0  0  0  0  0
  -22.7852  -13.5228   21.1863 C   0  0  0  0  0  0
  -22.1665   -4.2150   21.0976 F   0  0  0  0  0  0
  -21.5628   -3.4532   25.7733 F   0  0  0  0  0  0
  -30.0132  -13.4087   20.4214 N   0  0  0  0  0  0
  -26.2979  -12.9372   20.3299 N   0  0  0  0  0  0
  -25.9327  -11.6521   20.5746 N   0  0  0  0  0  0
  -22.0501  -12.8213   22.0421 N   0  0  0  0  0  0
  -25.4252  -15.1909   20.4070 N   0  0  0  0  0  0
  -31.8206  -14.7277   20.1581 O   0  0  0  0  0  0
  -21.6643   -6.8879   21.4240 O   0  0  0  0  0  0
  -22.3531  -14.5529   20.6710 O   0  0  0  0  0  0
  -24.6230  -31.8609   23.2031 C   0  0  0  0  0  0
  -25.9082  -32.4785   23.8356 C   0  0  1  0  0  0
  -27.2240  -27.3415   20.1262 C   0  0  0  0  0  0
  -25.5898  -33.8586   24.2281 N   0  0  0  0  0  0
  -23.4156  -30.4830   21.5450 C   0  0  2  0  0  0
  -24.8624  -28.9364   20.1139 C   0  0  0  0  0  0
  -22.7459  -29.4629   22.4953 C   0  0  0  0  0  0
  -18.0283  -28.1390   22.8485 C   0  0  0  0  0  0
  -24.1484  -36.7304   23.2639 C   0  0  0  0  0  0
  -25.9523  -30.8024   21.3667 C   0  0  0  0  0  0
  -26.0290  -29.4283   20.7147 C   0  0  0  0  0  0
  -27.2152  -28.6429   20.7077 C   0  0  0  0  0  0
  -26.0403  -26.8916   19.5045 C   0  0  0  0  0  0
  -24.8685  -27.6726   19.4998 C   0  0  0  0  0  0
  -23.6295  -29.8147   20.1606 C   0  0  0  0  0  0
  -25.4107  -36.3092   24.0332 C   0  0  1  0  0  0
  -20.5881  -28.3686   23.1298 C   0  0  2  0  0  0
  -20.6770  -26.9411   22.5422 C   0  0  0  0  0  0
  -19.5746  -26.6387   21.5223 C   0  0  0  0  0  0
  -18.1925  -26.7927   22.1632 C   0  0  0  0  0  0
  -19.1534  -28.8856   23.2882 C   0  0  0  0  0  0
  -18.9463  -30.1466   23.8887 C   0  0  0  0  0  0
  -17.6461  -30.6588   24.0570 C   0  0  0  0  0  0
  -25.9043  -34.9460   23.5111 C   0  0  0  0  0  0
  -16.5354  -29.9092   23.6328 C   0  0  0  0  0  0
  -16.7270  -28.6520   23.0327 C   0  0  0  0  0  0
  -26.4469  -31.6587   25.0720 C   0  0  0  0  0  0
  -25.3720  -31.3728   26.1466 C   0  0  0  0  0  0
  -27.0295  -30.3008   24.6145 C   0  0  0  0  0  0
  -27.6020  -32.4319   25.7503 C   0  0  0  0  0  0
  -27.5574  -37.1812   24.8464 C   0  0  0  0  0  0
  -21.4175  -29.3043   22.3699 N   0  0  0  0  0  0
  -26.4282  -37.3792   23.9416 N   0  0  0  0  0  0
  -24.6828  -31.0647   22.0962 N   0  0  0  0  0  0
  -23.4202  -28.8166   23.3014 O   0  0  0  0  0  0
  -28.3549  -26.5241   20.1381 O   0  0  0  0  0  0
  -26.5622  -34.8928   22.4685 O   0  0  0  0  0  0
  -23.5403  -32.1386   23.7376 O   0  0  0  0  0  0
  -30.6169  -19.3089   19.5531 C   0  0  0  0  0  0
  -28.7744  -17.9016   21.0557 C   0  0  0  0  0  0
  -30.8178  -17.9176   19.7900 C   0  0  0  0  0  0
  -29.4894  -20.0400   20.0125 C   0  0  0  0  0  0
  -28.5697  -19.2991   20.8108 C   0  0  0  0  0  0
  -29.8683  -17.1456   20.5374 C   0  0  0  0  0  0
  -33.2143  -17.5296   19.7429 C   0  0  0  0  0  0
  -32.0187  -17.3827   19.1353 C   0  0  0  0  0  0
  -29.3097  -21.4617   19.5056 C   0  0  0  0  0  0
  -34.5454  -17.1155   19.1412 C   0  0  0  0  0  0
  -31.9163  -16.8095   17.7258 C   0  0  0  0  0  0
  -34.4527  -16.8704   17.6267 C   0  0  0  0  0  0
  -33.1911  -16.0741   17.2727 C   0  0  0  0  0  0
  -27.3180  -19.9539   21.3766 C   0  0  0  0  0  0
  -28.8627  -24.0069   19.6693 C   0  0  0  0  0  0
  -28.2027  -25.1220   20.5753 C   0  0  0  0  0  0
  -29.5501  -21.6468   18.2077 N   0  0  0  0  0  0
  -29.8435  -15.6947   20.7993 N   0  0  0  0  0  0
  -28.9373  -22.5803   20.2046 N   0  3  0  0  0  0
  -31.4741  -12.4891   19.1490 H   0  0  0  0  0  0
  -30.3509  -11.3845   19.8912 H   0  0  0  0  0  0
  -29.7629  -11.7532   17.4733 H   0  0  0  0  0  0
  -29.6594  -13.4743   17.7417 H   0  0  0  0  0  0
  -27.8499  -11.3014   18.8492 H   0  0  0  0  0  0
  -27.3760  -12.5995   17.7850 H   0  0  0  0  0  0
  -27.6668  -14.2582   19.5212 H   0  0  0  0  0  0
  -28.7049  -12.0562   21.3728 H   0  0  0  0  0  0
  -28.4504  -13.7144   21.8381 H   0  0  0  0  0  0
  -25.2780   -9.5680   22.4735 H   0  0  0  0  0  0
  -24.0013   -7.4632   22.7463 H   0  0  0  0  0  0
  -21.0842   -8.8769   19.8946 H   0  0  0  0  0  0
  -22.3706  -10.9667   19.6150 H   0  0  0  0  0  0
  -21.2018   -7.6143   23.9717 H   0  0  0  0  0  0
  -21.1483   -6.0516   25.9076 H   0  0  0  0  0  0
  -22.0603   -2.7604   23.2840 H   0  0  0  0  0  0
  -22.4122  -11.9871   22.4796 H   0  0  0  0  0  0
  -21.1120  -13.1232   22.2634 H   0  0  0  0  0  0
  -24.6489  -15.8379   20.4945 H   0  0  0  0  0  0
  -26.2549  -15.6222   20.0216 H   0  0  0  0  0  0
  -26.7151  -32.5470   23.1111 H   0  0  0  0  0  0
  -25.0023  -33.9728   25.0408 H   0  0  0  0  0  0
  -22.7090  -31.3030   21.4009 H   0  0  0  0  0  0
  -23.3740  -35.9641   23.3303 H   0  0  0  0  0  0
  -24.3582  -36.8922   22.2052 H   0  0  0  0  0  0
  -23.7236  -37.6507   23.6662 H   0  0  0  0  0  0
  -26.0735  -31.5644   20.5952 H   0  0  0  0  0  0
  -26.8363  -30.8580   21.9910 H   0  0  0  0  0  0
  -28.1149  -29.0175   21.1762 H   0  0  0  0  0  0
  -26.0152  -25.9241   19.0240 H   0  0  0  0  0  0
  -23.9744  -27.2915   19.0262 H   0  0  0  0  0  0
  -23.7473  -30.5885   19.4012 H   0  0  0  0  0  0
  -22.7501  -29.2426   19.8598 H   0  0  0  0  0  0
  -25.1288  -36.1939   25.0822 H   0  0  0  0  0  0
  -20.9971  -28.3256   24.1418 H   0  0  0  0  0  0
  -20.5675  -26.2297   23.3619 H   0  0  0  0  0  0
  -21.6638  -26.7442   22.1214 H   0  0  0  0  0  0
  -19.6905  -25.6300   21.1248 H   0  0  0  0  0  0
  -19.6673  -27.3203   20.6755 H   0  0  0  0  0  0
  -17.4192  -26.6667   21.4035 H   0  0  0  0  0  0
  -18.0321  -26.0076   22.9034 H   0  0  0  0  0  0
  -19.7944  -30.7292   24.2229 H   0  0  0  0  0  0
  -17.5020  -31.6262   24.5185 H   0  0  0  0  0  0
  -15.5356  -30.2993   23.7665 H   0  0  0  0  0  0
  -15.8670  -28.0863   22.7003 H   0  0  0  0  0  0
  -24.5884  -30.7073   25.7827 H   0  0  0  0  0  0
  -24.8925  -32.2897   26.4901 H   0  0  0  0  0  0
  -25.8067  -30.8917   27.0236 H   0  0  0  0  0  0
  -26.2861  -29.6788   24.1142 H   0  0  0  0  0  0
  -27.3963  -29.7229   25.4637 H   0  0  0  0  0  0
  -27.8746  -30.4291   23.9377 H   0  0  0  0  0  0
  -27.2604  -33.3603   26.2094 H   0  0  0  0  0  0
  -28.3834  -32.6903   25.0346 H   0  0  0  0  0  0
  -28.0679  -31.8437   26.5415 H   0  0  0  0  0  0
  -28.2594  -38.0107   24.7514 H   0  0  0  0  0  0
  -28.1066  -36.2639   24.6282 H   0  0  0  0  0  0
  -27.2305  -37.1461   25.8871 H   0  0  0  0  0  0
  -20.9350  -29.8775   21.6920 H   0  0  0  0  0  0
  -26.0158  -38.2864   24.1422 H   0  0  0  0  0  0
  -31.3510  -19.8252   18.9488 H   0  0  0  0  0  0
  -28.0333  -17.3806   21.6454 H   0  0  0  0  0  0
  -33.2596  -17.9631   20.7323 H   0  0  0  0  0  0
  -34.8784  -16.2114   19.6532 H   0  0  0  0  0  0
  -35.2898  -17.8863   19.3454 H   0  0  0  0  0  0
  -31.6883  -17.6277   17.0422 H   0  0  0  0  0  0
  -31.0725  -16.1208   17.6788 H   0  0  0  0  0  0
  -35.3445  -16.3469   17.2790 H   0  0  0  0  0  0
  -34.4328  -17.8270   17.1022 H   0  0  0  0  0  0
  -33.1498  -15.8856   16.1990 H   0  0  0  0  0  0
  -33.2376  -15.0962   17.7543 H   0  0  0  0  0  0
  -26.6494  -19.2194   21.8278 H   0  0  0  0  0  0
  -27.5794  -20.6756   22.1507 H   0  0  0  0  0  0
  -26.7546  -20.4680   20.5975 H   0  0  0  0  0  0
  -29.8828  -24.3180   19.4404 H   0  0  0  0  0  0
  -28.3315  -23.9996   18.7162 H   0  0  0  0  0  0
  -28.6554  -25.0613   21.5646 H   0  0  0  0  0  0
  -27.1561  -24.8654   20.7379 H   0  0  0  0  0  0
  -29.7701  -20.8460   17.6353 H   0  0  0  0  0  0
  -29.4587  -22.5392   17.7553 H   0  0  0  0  0  0
  -28.9656  -15.3799   21.1791 H   0  0  0  0  0  0
  -28.8320  -22.4662   21.2051 H   0  0  0  0  0  0
  1 25  1  0  0  0
  1 30  2  0  0  0
  1 88  1  0  0  0
  2  3  1  0  0  0
  2 25  1  0  0  0
  2 90  1  0  0  0
  2 91  1  0  0  0
  3  4  1  0  0  0
  3 92  1  0  0  0
  3 93  1  0  0  0
  4  5  1  0  0  0
  4 94  1  0  0  0
  4 95  1  0  0  0
  5  6  1  0  0  0
  5 26  1  0  0  0
  5 96  1  0  0  0
  6 25  1  0  0  0
  6 97  1  0  0  0
  6 98  1  0  0  0
  7  8  2  0  0  0
  7 26  1  0  0  0
  7 29  1  0  0  0
  8  9  1  0  0  0
  8 22  1  0  0  0
  9 10  1  0  0  0
  9 27  2  0  0  0
 10 11  2  0  0  0
 10 15  1  0  0  0
 11 12  1  0  0  0
 11 99  1  0  0  0
 12 13  2  0  0  0
 12100  1  0  0  0
 13 14  1  0  0  0
 13 31  1  0  0  0
 14 15  2  0  0  0
 14101  1  0  0  0
 15102  1  0  0  0
 16 17  2  0  0  0
 16 21  1  0  0  0
 16 31  1  0  0  0
 17 18  1  0  0  0
 17103  1  0  0  0
 18 19  2  0  0  0
 18104  1  0  0  0
 19 20  1  0  0  0
 19 24  1  0  0  0
 20 21  2  0  0  0
 20105  1  0  0  0
 21 23  1  0  0  0
 22 28  1  0  0  0
 22 32  2  0  0  0
 26 27  1  0  0  0
 28106  1  0  0  0
 28107  1  0  0  0
 29108  1  0  0  0
 29109  1  0  0  0
 33 34  1  0  0  0
 33 66  1  0  0  0
 33 70  2  0  0  0
 34 36  1  0  0  0
 34 59  1  0  0  0
 34110  1  0  0  0
 35 44  2  0  0  0
 35 45  1  0  0  0
 35 68  1  0  0  0
 36 56  1  0  0  0
 36111  1  0  0  0
 37 39  1  0  0  0
 37 47  1  0  0  0
 37 66  1  0  0  0
 37112  1  0  0  0
 38 43  2  0  0  0
 38 46  1  0  0  0
 38 47  1  0  0  0
 39 64  1  0  0  0
 39 67  2  0  0  0
 40 52  1  0  0  0
 40 53  2  0  0  0
 40 58  1  0  0  0
 41113  1  0  0  0
 41114  1  0  0  0
 41115  1  0  0  0
 41 48  1  0  0  0
 42 43  1  0  0  0
 42 66  1  0  0  0
 42116  1  0  0  0
 42117  1  0  0  0
 43 44  1  0  0  0
 44118  1  0  0  0
 45 46  2  0  0  0
 45119  1  0  0  0
 46120  1  0  0  0
 47121  1  0  0  0
 47122  1  0  0  0
 48 56  1  0  0  0
 48 65  1  0  0  0
 48123  1  0  0  0
 49 50  1  0  0  0
 49 53  1  0  0  0
 49 64  1  0  0  0
 49124  1  0  0  0
 50 51  1  0  0  0
 50125  1  0  0  0
 50126  1  0  0  0
 51 52  1  0  0  0
 51127  1  0  0  0
 51128  1  0  0  0
 52129  1  0  0  0
 52130  1  0  0  0
 53 54  1  0  0  0
 54 55  2  0  0  0
 54131  1  0  0  0
 55 57  1  0  0  0
 55132  1  0  0  0
 56 69  2  0  0  0
 57 58  2  0  0  0
 57133  1  0  0  0
 58134  1  0  0  0
 59 60  1  0  0  0
 59 61  1  0  0  0
 59 62  1  0  0  0
 60135  1  0  0  0
 60136  1  0  0  0
 60137  1  0  0  0
 61138  1  0  0  0
 61139  1  0  0  0
 61140  1  0  0  0
 62141  1  0  0  0
 62142  1  0  0  0
 62143  1  0  0  0
 63 65  1  0  0  0
 63144  1  0  0  0
 63145  1  0  0  0
 63146  1  0  0  0
 64147  1  0  0  0
 65148  1  0  0  0
 68 86  1  0  0  0
 71 73  2  0  0  0
 71 74  1  0  0  0
 71149  1  0  0  0
 72 75  1  0  0  0
 72 76  2  0  0  0
 72150  1  0  0  0
 73 76  1  0  0  0
 73 78  1  0  0  0
 74 75  2  0  0  0
 74 79  1  0  0  0
 75 84  1  0  0  0
 76 88  1  0  0  0
 77 78  2  0  0  0
 77 80  1  0  0  0
 77151  1  0  0  0
 78 81  1  0  0  0
 79 87  1  0  0  0
 79 89  2  0  0  0
 80 82  1  0  0  0
 80152  1  0  0  0
 80153  1  0  0  0
 81 83  1  0  0  0
 81154  1  0  0  0
 81155  1  0  0  0
 82 83  1  0  0  0
 82156  1  0  0  0
 82157  1  0  0  0
 83158  1  0  0  0
 83159  1  0  0  0
 84160  1  0  0  0
 84161  1  0  0  0
 84162  1  0  0  0
 85 86  1  0  0  0
 85 89  1  0  0  0
 85163  1  0  0  0
 85164  1  0  0  0
 86165  1  0  0  0
 86166  1  0  0  0
 87167  1  0  0  0
 87168  1  0  0  0
 88169  1  0  0  0
 89170  1  0  0  0
M  CHG  1  89   1
M  ISO  4   1 100  68 101  86 101  88 100
M  END
> <chiral flag>
0

> <version>
0

> <s_m_source_file>
/data/baiqing/PycharmProjects/Reinvent-master-3.2/result/LINK_invent/BTK/process_docking_weight1_custom_product_contain_oxygen_bond_distance_aromatic_linkinvent_7_9_3/rearranged_h_0036.sdf

> <i_m_source_file_index>
67

> <r_mmod_Potential_Energy-OPLS-2005>
-85.7013320922852

> <r_mmod_Stretch_Energy-OPLS-2005>
78.3734512329102

> <r_mmod_Bend_Energy-OPLS-2005>
164.19563293457

> <r_mmod_Torsional_Energy-OPLS-2005>
262.548248291016

> <r_mmod_Improper_Torsional_Energy-OPLS-2005>
4.6909966468811

> <r_mmod_Van_der_Waal_Energy-OPLS-2005>
148.703475952148

> <r_mmod_Electrostatic_Energy-OPLS-2005>
-373.392547607422

> <r_mmod_Solvation_Energy-OPLS-2005>
-411.736175537109

> <b_mmod_Minimization_Converged-OPLS-2005>
0

> <r_mmod_RMS_Derivative-OPLS-2005>
1.24357295036316

$$$$
67
                    3D
 Structure written by MMmdl.
159167  0  0  1  0            999 V2000
  -30.7310  -14.3346   20.6528 C   0  0  0  0  0  0
  -30.4373  -12.2722   19.3549 C   0  0  0  0  0  0
  -29.4792  -12.4990   18.1703 C   0  0  0  0  0  0
  -28.0002  -12.3812   18.5939 C   0  0  0  0  0  0
  -27.6728  -13.1892   19.8779 C   0  0  2  0  0  0
  -28.7165  -12.8624   20.9686 C   0  0  0  0  0  0
  -25.2712  -13.8173   20.5644 C   0  0  0  0  0  0
  -24.1885  -13.0508   20.9143 C   0  0  0  0  0  0
  -24.6423  -11.6961   20.8730 C   0  0  0  0  0  0
  -23.9053  -10.4362   21.0464 C   0  0  0  0  0  0
  -24.3590   -9.4268   21.9234 C   0  0  0  0  0  0
  -23.6293   -8.2273   22.0764 C   0  0  0  0  0  0
  -22.4276   -8.0301   21.3533 C   0  0  0  0  0  0
  -21.9916   -9.0302   20.4640 C   0  0  0  0  0  0
  -22.7238  -10.2212   20.3088 C   0  0  0  0  0  0
  -21.6885   -6.0754   22.5280 C   0  0  0  0  0  0
  -21.4037   -6.5634   23.8218 C   0  0  0  0  0  0
  -21.3635   -5.6786   24.9190 C   0  0  0  0  0  0
  -21.6057   -4.3046   24.7259 C   0  0  0  0  0  0
  -21.8813   -3.8124   23.4371 C   0  0  0  0  0  0
  -21.9212   -4.6969   22.3423 C   0  0  0  0  0  0
  -22.7918  -13.5385   21.1784 C   0  0  0  0  0  0
  -22.1675   -4.2123   21.1020 F   0  0  0  0  0  0
  -21.5591   -3.4527   25.7775 F   0  0  0  0  0  0
  -30.0523  -13.1809   20.4385 N   0  0  0  0  0  0
  -26.3111  -12.9280   20.3370 N   0  0  0  0  0  0
  -25.9347  -11.6477   20.5731 N   0  0  0  0  0  0
  -22.0473  -12.8361   22.0290 N   0  0  0  0  0  0
  -25.4560  -15.1840   20.3948 N   0  0  0  0  0  0
  -31.8153  -14.6045   20.1298 O   0  0  0  0  0  0
  -21.6617   -6.8902   21.4240 O   0  0  0  0  0  0
  -22.3665  -14.5754   20.6709 O   0  0  0  0  0  0
  -24.6142  -31.8680   23.2128 C   0  0  0  0  0  0
  -25.9059  -32.4804   23.8415 C   0  0  1  0  0  0
  -27.2293  -27.4735   20.0850 C   0  0  0  0  0  0
  -25.5943  -33.8604   24.2394 N   0  0  0  0  0  0
  -23.3985  -30.4948   21.5444 C   0  0  2  0  0  0
  -24.8431  -28.9686   20.1164 C   0  0  0  0  0  0
  -22.7351  -29.4626   22.4842 C   0  0  0  0  0  0
  -18.0224  -28.1301   22.8767 C   0  0  0  0  0  0
  -24.1490  -36.7322   23.2638 C   0  0  0  0  0  0
  -25.9235  -30.8534   21.3484 C   0  0  0  0  0  0
  -26.0015  -29.4878   20.7056 C   0  0  0  0  0  0
  -27.2028  -28.7513   20.6773 C   0  0  0  0  0  0
  -26.0535  -26.9476   19.5119 C   0  0  0  0  0  0
  -24.8593  -27.6930   19.5226 C   0  0  0  0  0  0
  -23.6107  -29.8394   20.1561 C   0  0  0  0  0  0
  -25.4087  -36.3079   24.0361 C   0  0  1  0  0  0
  -20.5840  -28.3663   23.1365 C   0  0  2  0  0  0
  -20.6598  -26.9180   22.6026 C   0  0  0  0  0  0
  -19.5499  -26.5866   21.5918 C   0  0  0  0  0  0
  -18.1788  -26.7567   22.2550 C   0  0  0  0  0  0
  -19.1494  -28.8884   23.2904 C   0  0  0  0  0  0
  -18.9433  -30.1540   23.8821 C   0  0  0  0  0  0
  -17.6466  -30.6716   24.0425 C   0  0  0  0  0  0
  -25.9011  -34.9431   23.5134 C   0  0  0  0  0  0
  -16.5321  -29.9161   23.6313 C   0  0  0  0  0  0
  -16.7208  -28.6461   23.0594 C   0  0  0  0  0  0
  -26.4512  -31.6561   25.0737 C   0  0  0  0  0  0
  -25.3815  -31.3663   26.1517 C   0  0  0  0  0  0
  -27.0363  -30.3029   24.6064 C   0  0  0  0  0  0
  -27.6107  -32.4274   25.7546 C   0  0  0  0  0  0
  -27.5549  -37.1841   24.8469 C   0  0  0  0  0  0
  -21.4116  -29.2707   22.3397 N   0  0  0  0  0  0
  -26.4253  -37.3772   23.9421 N   0  0  0  0  0  0
  -24.6641  -31.0832   22.0975 N   0  0  0  0  0  0
  -23.4062  -28.8350   23.3080 O   0  0  0  0  0  0
  -28.4132  -26.7897   20.0037 O   0  0  0  0  0  0
  -26.5518  -34.8897   22.4667 O   0  0  0  0  0  0
  -23.5361  -32.1382   23.7609 O   0  0  0  0  0  0
  -28.0790  -17.1907   22.4312 C   0  0  0  0  0  0
  -26.9698  -18.0486   22.5712 C   0  0  0  0  0  0
  -27.9639  -19.6014   20.9588 C   0  0  0  0  0  0
  -29.1355  -17.5255   21.5467 C   0  0  0  0  0  0
  -26.9086  -19.2611   21.8463 C   0  0  0  0  0  0
  -29.0670  -18.7261   20.7949 C   0  0  0  0  0  0
  -27.9830  -20.8810   20.2397 C   0  0  0  0  0  0
  -30.3702  -16.6314   21.4573 C   0  0  0  0  0  0
  -27.9993  -24.3403   20.0852 C   0  0  0  0  0  0
  -29.0341  -23.1946   20.1572 C   0  0  0  0  0  0
  -28.4893  -25.6168   20.8050 C   0  0  0  0  0  0
  -27.5478  -20.9684   18.9808 N   0  0  0  0  0  0
  -30.0615  -15.2142   21.3970 N   0  0  0  0  0  0
  -28.5487  -21.9580   20.8111 N   0  3  0  0  0  0
  -25.5409  -20.2993   22.0815 Cl  0  0  0  0  0  0
  -30.3502  -19.1570   19.6950 Cl  0  0  0  0  0  0
  -31.4643  -12.4252   19.0277 H   0  0  0  0  0  0
  -30.3979  -11.2358   19.6931 H   0  0  0  0  0  0
  -29.6952  -11.7751   17.3812 H   0  0  0  0  0  0
  -29.6580  -13.4804   17.7301 H   0  0  0  0  0  0
  -27.7754  -11.3231   18.7498 H   0  0  0  0  0  0
  -27.3545  -12.6977   17.7748 H   0  0  0  0  0  0
  -27.7522  -14.2485   19.6284 H   0  0  0  0  0  0
  -28.6776  -11.7949   21.2130 H   0  0  0  0  0  0
  -28.4841  -13.3583   21.9133 H   0  0  0  0  0  0
  -25.2714   -9.5723   22.4861 H   0  0  0  0  0  0
  -24.0001   -7.4676   22.7483 H   0  0  0  0  0  0
  -21.0845   -8.8820   19.8947 H   0  0  0  0  0  0
  -22.3688  -10.9774   19.6185 H   0  0  0  0  0  0
  -21.2001   -7.6116   23.9752 H   0  0  0  0  0  0
  -21.1475   -6.0485   25.9100 H   0  0  0  0  0  0
  -22.0614   -2.7571   23.2909 H   0  0  0  0  0  0
  -22.3960  -12.0006   22.4720 H   0  0  0  0  0  0
  -21.1137  -13.1490   22.2368 H   0  0  0  0  0  0
  -24.7231  -15.8690   20.5332 H   0  0  0  0  0  0
  -26.3080  -15.5907   20.0247 H   0  0  0  0  0  0
  -26.7168  -32.5534   23.1214 H   0  0  0  0  0  0
  -25.0272  -33.9757   25.0667 H   0  0  0  0  0  0
  -22.6809  -31.3110   21.4117 H   0  0  0  0  0  0
  -23.3697  -35.9708   23.3331 H   0  0  0  0  0  0
  -24.3577  -36.8897   22.2039 H   0  0  0  0  0  0
  -23.7310  -37.6591   23.6609 H   0  0  0  0  0  0
  -26.0199  -31.6197   20.5773 H   0  0  0  0  0  0
  -26.8188  -30.9225   21.9545 H   0  0  0  0  0  0
  -28.1111  -29.1663   21.0966 H   0  0  0  0  0  0
  -26.0624  -25.9740   19.0374 H   0  0  0  0  0  0
  -23.9675  -27.2868   19.0680 H   0  0  0  0  0  0
  -23.7463  -30.6298   19.4159 H   0  0  0  0  0  0
  -22.7348  -29.2810   19.8291 H   0  0  0  0  0  0
  -25.1261  -36.1958   25.0860 H   0  0  0  0  0  0
  -21.0072  -28.3523   24.1431 H   0  0  0  0  0  0
  -20.5155  -26.2552   23.4578 H   0  0  0  0  0  0
  -21.6545  -26.6693   22.2341 H   0  0  0  0  0  0
  -19.6135  -27.2476   20.7303 H   0  0  0  0  0  0
  -19.6552  -25.5609   21.2273 H   0  0  0  0  0  0
  -17.3744  -26.5701   21.5457 H   0  0  0  0  0  0
  -18.0506  -26.0230   23.0520 H   0  0  0  0  0  0
  -19.7898  -30.7346   24.2197 H   0  0  0  0  0  0
  -17.4966  -31.6446   24.4886 H   0  0  0  0  0  0
  -15.5309  -30.3071   23.7585 H   0  0  0  0  0  0
  -15.8574  -28.0619   22.7678 H   0  0  0  0  0  0
  -24.5989  -30.6991   25.7894 H   0  0  0  0  0  0
  -24.8985  -32.2804   26.4989 H   0  0  0  0  0  0
  -25.8178  -30.8856   27.0275 H   0  0  0  0  0  0
  -26.2893  -29.6822   24.1105 H   0  0  0  0  0  0
  -27.4186  -29.7246   25.4485 H   0  0  0  0  0  0
  -27.8698  -30.4431   23.9181 H   0  0  0  0  0  0
  -27.2736  -33.3565   26.2175 H   0  0  0  0  0  0
  -28.3920  -32.6852   25.0380 H   0  0  0  0  0  0
  -28.0774  -31.8354   26.5438 H   0  0  0  0  0  0
  -28.2601  -38.0104   24.7434 H   0  0  0  0  0  0
  -28.1011  -36.2627   24.6376 H   0  0  0  0  0  0
  -27.2259  -37.1600   25.8875 H   0  0  0  0  0  0
  -20.9340  -29.7732   21.6080 H   0  0  0  0  0  0
  -26.0143  -38.2870   24.1368 H   0  0  0  0  0  0
  -28.1025  -16.2928   23.0424 H   0  0  0  0  0  0
  -26.1795  -17.7830   23.2587 H   0  0  0  0  0  0
  -31.0374  -16.8492   22.2922 H   0  0  0  0  0  0
  -30.9322  -16.8678   20.5551 H   0  0  0  0  0  0
  -27.0418  -24.0356   20.5118 H   0  0  0  0  0  0
  -27.8051  -24.5561   19.0295 H   0  0  0  0  0  0
  -29.9068  -23.4841   20.7408 H   0  0  0  0  0  0
  -29.4419  -22.9969   19.1610 H   0  0  0  0  0  0
  -29.5430  -25.5313   21.0607 H   0  0  0  0  0  0
  -27.9704  -25.7586   21.7554 H   0  0  0  0  0  0
  -27.2662  -20.1438   18.4728 H   0  0  0  0  0  0
  -27.4106  -21.8576   18.5325 H   0  0  0  0  0  0
  -29.1723  -14.9020   21.7586 H   0  0  0  0  0  0
  -28.8299  -21.8479   21.7787 H   0  0  0  0  0  0
  1 25  1  0  0  0
  1 30  2  0  0  0
  1 83  1  0  0  0
  2  3  1  0  0  0
  2 25  1  0  0  0
  2 87  1  0  0  0
  2 88  1  0  0  0
  3  4  1  0  0  0
  3 89  1  0  0  0
  3 90  1  0  0  0
  4  5  1  0  0  0
  4 91  1  0  0  0
  4 92  1  0  0  0
  5  6  1  0  0  0
  5 26  1  0  0  0
  5 93  1  0  0  0
  6 25  1  0  0  0
  6 94  1  0  0  0
  6 95  1  0  0  0
  7  8  2  0  0  0
  7 26  1  0  0  0
  7 29  1  0  0  0
  8  9  1  0  0  0
  8 22  1  0  0  0
  9 10  1  0  0  0
  9 27  2  0  0  0
 10 11  2  0  0  0
 10 15  1  0  0  0
 11 12  1  0  0  0
 11 96  1  0  0  0
 12 13  2  0  0  0
 12 97  1  0  0  0
 13 14  1  0  0  0
 13 31  1  0  0  0
 14 15  2  0  0  0
 14 98  1  0  0  0
 15 99  1  0  0  0
 16 17  2  0  0  0
 16 21  1  0  0  0
 16 31  1  0  0  0
 17 18  1  0  0  0
 17100  1  0  0  0
 18 19  2  0  0  0
 18101  1  0  0  0
 19 20  1  0  0  0
 19 24  1  0  0  0
 20 21  2  0  0  0
 20102  1  0  0  0
 21 23  1  0  0  0
 22 28  1  0  0  0
 22 32  2  0  0  0
 26 27  1  0  0  0
 28103  1  0  0  0
 28104  1  0  0  0
 29105  1  0  0  0
 29106  1  0  0  0
 33 34  1  0  0  0
 33 66  1  0  0  0
 33 70  2  0  0  0
 34 36  1  0  0  0
 34 59  1  0  0  0
 34107  1  0  0  0
 35 44  2  0  0  0
 35 45  1  0  0  0
 35 68  1  0  0  0
 36 56  1  0  0  0
 36108  1  0  0  0
 37 39  1  0  0  0
 37 47  1  0  0  0
 37 66  1  0  0  0
 37109  1  0  0  0
 38 43  2  0  0  0
 38 46  1  0  0  0
 38 47  1  0  0  0
 39 64  1  0  0  0
 39 67  2  0  0  0
 40 52  1  0  0  0
 40 53  2  0  0  0
 40 58  1  0  0  0
 41110  1  0  0  0
 41111  1  0  0  0
 41112  1  0  0  0
 41 48  1  0  0  0
 42 43  1  0  0  0
 42 66  1  0  0  0
 42113  1  0  0  0
 42114  1  0  0  0
 43 44  1  0  0  0
 44115  1  0  0  0
 45 46  2  0  0  0
 45116  1  0  0  0
 46117  1  0  0  0
 47118  1  0  0  0
 47119  1  0  0  0
 48 56  1  0  0  0
 48 65  1  0  0  0
 48120  1  0  0  0
 49 50  1  0  0  0
 49 53  1  0  0  0
 49 64  1  0  0  0
 49121  1  0  0  0
 50 51  1  0  0  0
 50122  1  0  0  0
 50123  1  0  0  0
 51 52  1  0  0  0
 51124  1  0  0  0
 51125  1  0  0  0
 52126  1  0  0  0
 52127  1  0  0  0
 53 54  1  0  0  0
 54 55  2  0  0  0
 54128  1  0  0  0
 55 57  1  0  0  0
 55129  1  0  0  0
 56 69  2  0  0  0
 57 58  2  0  0  0
 57130  1  0  0  0
 58131  1  0  0  0
 59 60  1  0  0  0
 59 61  1  0  0  0
 59 62  1  0  0  0
 60132  1  0  0  0
 60133  1  0  0  0
 60134  1  0  0  0
 61135  1  0  0  0
 61136  1  0  0  0
 61137  1  0  0  0
 62138  1  0  0  0
 62139  1  0  0  0
 62140  1  0  0  0
 63 65  1  0  0  0
 63141  1  0  0  0
 63142  1  0  0  0
 63143  1  0  0  0
 64144  1  0  0  0
 65145  1  0  0  0
 68 81  1  0  0  0
 71 72  2  0  0  0
 71 74  1  0  0  0
 71146  1  0  0  0
 72 75  1  0  0  0
 72147  1  0  0  0
 73 75  2  0  0  0
 73 76  1  0  0  0
 73 77  1  0  0  0
 74 76  2  0  0  0
 74 78  1  0  0  0
 75 85  1  0  0  0
 76 86  1  0  0  0
 77 82  1  0  0  0
 77 84  2  0  0  0
 78 83  1  0  0  0
 78148  1  0  0  0
 78149  1  0  0  0
 79 80  1  0  0  0
 79 81  1  0  0  0
 79150  1  0  0  0
 79151  1  0  0  0
 80 84  1  0  0  0
 80152  1  0  0  0
 80153  1  0  0  0
 81154  1  0  0  0
 81155  1  0  0  0
 82156  1  0  0  0
 82157  1  0  0  0
 83158  1  0  0  0
 84159  1  0  0  0
M  CHG  1  84   1
M  ISO  4   1 100  68 101  81 101  83 100
M  END
> <chiral flag>
0

> <version>
0

> <s_m_source_file>
/data/baiqing/PycharmProjects/Reinvent-master-3.2/result/LINK_invent/BTK/process_docking_weight1_custom_product_contain_oxygen_bond_distance_aromatic_linkinvent_7_9_3/rearranged_h_0036.sdf

> <i_m_source_file_index>
68

> <r_mmod_Potential_Energy-OPLS-2005>
-161.043487548828

> <r_mmod_Stretch_Energy-OPLS-2005>
35.5034790039062

> <r_mmod_Bend_Energy-OPLS-2005>
93.0409545898438

> <r_mmod_Torsional_Energy-OPLS-2005>
268.113922119141

> <r_mmod_Improper_Torsional_Energy-OPLS-2005>
4.81661415100098

> <r_mmod_Van_der_Waal_Energy-OPLS-2005>
163.279067993164

> <r_mmod_Electrostatic_Energy-OPLS-2005>
-303.285369873047

> <r_mmod_Solvation_Energy-OPLS-2005>
-434.751678466797

> <b_mmod_Minimization_Converged-OPLS-2005>
0

> <r_mmod_RMS_Derivative-OPLS-2005>
9.96240329742432

$$$$
68
                    3D
 Structure written by MMmdl.
175184  0  0  1  0            999 V2000
  -30.6156  -14.7294   20.3194 C   0  0  0  0  0  0
  -30.4604  -12.3952   19.4688 C   0  0  0  0  0  0
  -29.5199  -12.2962   18.2447 C   0  0  0  0  0  0
  -28.0174  -12.3100   18.6346 C   0  0  0  0  0  0
  -27.6429  -13.2053   19.8570 C   0  0  2  0  0  0
  -28.7142  -13.1532   20.9613 C   0  0  0  0  0  0
  -25.2593  -13.8125   20.5834 C   0  0  0  0  0  0
  -24.1834  -13.0423   20.9271 C   0  0  0  0  0  0
  -24.6378  -11.6883   20.8813 C   0  0  0  0  0  0
  -23.9044  -10.4282   21.0422 C   0  0  0  0  0  0
  -24.3606   -9.4195   21.9191 C   0  0  0  0  0  0
  -23.6288   -8.2234   22.0749 C   0  0  0  0  0  0
  -22.4266   -8.0283   21.3544 C   0  0  0  0  0  0
  -21.9906   -9.0247   20.4629 C   0  0  0  0  0  0
  -22.7235  -10.2131   20.3043 C   0  0  0  0  0  0
  -21.6863   -6.0741   22.5276 C   0  0  0  0  0  0
  -21.4034   -6.5643   23.8211 C   0  0  0  0  0  0
  -21.3674   -5.6789   24.9167 C   0  0  0  0  0  0
  -21.6040   -4.3053   24.7200 C   0  0  0  0  0  0
  -21.8817   -3.8151   23.4320 C   0  0  0  0  0  0
  -21.9187   -4.6974   22.3385 C   0  0  0  0  0  0
  -22.7847  -13.5226   21.1833 C   0  0  0  0  0  0
  -22.1663   -4.2170   21.0960 F   0  0  0  0  0  0
  -21.5614   -3.4535   25.7705 F   0  0  0  0  0  0
  -29.9944  -13.5001   20.3291 N   0  0  0  0  0  0
  -26.3001  -12.9267   20.3485 N   0  0  0  0  0  0
  -25.9328  -11.6449   20.5934 N   0  0  0  0  0  0
  -22.0447  -12.8257   22.0363 N   0  0  0  0  0  0
  -25.4294  -15.1859   20.4257 N   0  0  0  0  0  0
  -31.8461  -14.7951   20.2569 O   0  0  0  0  0  0
  -21.6638   -6.8884   21.4240 O   0  0  0  0  0  0
  -22.3573  -14.5531   20.6625 O   0  0  0  0  0  0
  -24.6221  -31.8627   23.2056 C   0  0  0  0  0  0
  -25.9109  -32.4776   23.8353 C   0  0  1  0  0  0
  -27.2235  -27.3573   20.1199 C   0  0  0  0  0  0
  -25.5961  -33.8579   24.2286 N   0  0  0  0  0  0
  -23.4112  -30.4868   21.5480 C   0  0  2  0  0  0
  -24.8569  -28.9385   20.1191 C   0  0  0  0  0  0
  -22.7425  -29.4661   22.4976 C   0  0  0  0  0  0
  -18.0291  -28.1407   22.8491 C   0  0  0  0  0  0
  -24.1500  -36.7268   23.2629 C   0  0  0  0  0  0
  -25.9493  -30.8060   21.3705 C   0  0  0  0  0  0
  -26.0247  -29.4355   20.7129 C   0  0  0  0  0  0
  -27.2146  -28.6579   20.6989 C   0  0  0  0  0  0
  -26.0373  -26.8967   19.5103 C   0  0  0  0  0  0
  -24.8617  -27.6717   19.5125 C   0  0  0  0  0  0
  -23.6234  -29.8164   20.1654 C   0  0  0  0  0  0
  -25.4130  -36.3063   24.0313 C   0  0  1  0  0  0
  -20.5875  -28.3697   23.1305 C   0  0  2  0  0  0
  -20.6775  -26.9426   22.5420 C   0  0  0  0  0  0
  -19.5752  -26.6404   21.5213 C   0  0  0  0  0  0
  -18.1931  -26.7953   22.1621 C   0  0  0  0  0  0
  -19.1540  -28.8860   23.2898 C   0  0  0  0  0  0
  -18.9465  -30.1461   23.8915 C   0  0  0  0  0  0
  -17.6465  -30.6605   24.0575 C   0  0  0  0  0  0
  -25.9073  -34.9441   23.5090 C   0  0  0  0  0  0
  -16.5356  -29.9117   23.6327 C   0  0  0  0  0  0
  -16.7273  -28.6540   23.0333 C   0  0  0  0  0  0
  -26.4519  -31.6564   25.0708 C   0  0  0  0  0  0
  -25.3742  -31.3732   26.1428 C   0  0  0  0  0  0
  -27.0350  -30.2990   24.6142 C   0  0  0  0  0  0
  -27.6076  -32.4282   25.7469 C   0  0  0  0  0  0
  -27.5587  -37.1787   24.8458 C   0  0  0  0  0  0
  -21.4147  -29.3064   22.3698 N   0  0  0  0  0  0
  -26.4298  -37.3751   23.9397 N   0  0  0  0  0  0
  -24.6794  -31.0679   22.0974 N   0  0  0  0  0  0
  -23.4170  -28.8216   23.3051 O   0  0  0  0  0  0
  -28.3547  -26.5439   20.1176 O   0  0  0  0  0  0
  -26.5616  -34.8902   22.4647 O   0  0  0  0  0  0
  -23.5399  -32.1427   23.7415 O   0  0  0  0  0  0
  -30.1738  -18.2285   19.2507 C   0  0  0  0  0  0
  -29.7958  -19.5940   19.3500 C   0  0  0  0  0  0
  -28.9747  -19.1467   21.5796 C   0  0  0  0  0  0
  -29.1276  -20.0848   20.5013 C   0  0  0  0  0  0
  -29.3185  -17.7442   21.4424 C   0  0  0  0  0  0
  -29.8499  -17.2282   20.2175 C   0  0  0  0  0  0
  -29.0468  -25.2115   21.9984 C   0  0  0  0  0  0
  -30.4052  -24.5205   21.8345 C   0  0  0  0  0  0
  -28.6805  -24.0095   19.7419 C   0  0  0  0  0  0
  -28.2339  -25.1954   20.6945 C   0  0  2  0  0  0
  -30.2243  -23.0195   21.5184 C   0  0  2  0  0  0
  -30.0754  -20.4978   18.1531 C   0  0  0  0  0  0
  -28.3547  -19.6556   22.8802 C   0  0  0  0  0  0
  -29.0453  -16.7880   22.6015 C   0  0  0  0  0  0
  -31.5894  -22.3466   21.3088 C   0  0  0  0  0  0
  -29.6264  -15.6404   18.3513 C   0  0  0  0  0  0
  -28.4612  -21.5277   20.4987 C   0  0  0  0  0  0
  -29.8741  -15.7954   19.8051 N   0  0  0  0  0  0
  -29.3285  -22.7629   20.3518 N   0  3  1  0  0  0
  -31.4878  -12.5457   19.1314 H   0  0  0  0  0  0
  -30.4698  -11.4594   20.0296 H   0  0  0  0  0  0
  -29.7266  -11.3609   17.7227 H   0  0  0  0  0  0
  -29.7642  -13.0505   17.5019 H   0  0  0  0  0  0
  -27.7484  -11.2758   18.8498 H   0  0  0  0  0  0
  -27.4159  -12.5945   17.7716 H   0  0  0  0  0  0
  -27.6021  -14.2307   19.5131 H   0  0  0  0  0  0
  -28.7648  -12.1567   21.4041 H   0  0  0  0  0  0
  -28.4741  -13.8453   21.7682 H   0  0  0  0  0  0
  -25.2749   -9.5700   22.4768 H   0  0  0  0  0  0
  -24.0009   -7.4629   22.7477 H   0  0  0  0  0  0
  -21.0841   -8.8755   19.8924 H   0  0  0  0  0  0
  -22.3701  -10.9663   19.6147 H   0  0  0  0  0  0
  -21.2066   -7.6158   23.9734 H   0  0  0  0  0  0
  -21.1501   -6.0509   25.9074 H   0  0  0  0  0  0
  -22.0584   -2.7613   23.2796 H   0  0  0  0  0  0
  -22.4048  -11.9957   22.4832 H   0  0  0  0  0  0
  -21.1028  -13.1259   22.2428 H   0  0  0  0  0  0
  -24.6641  -15.8391   20.5445 H   0  0  0  0  0  0
  -26.2873  -15.6311   20.1254 H   0  0  0  0  0  0
  -26.7148  -32.5476   23.1085 H   0  0  0  0  0  0
  -25.0128  -33.9728   25.0448 H   0  0  0  0  0  0
  -22.7034  -31.3061   21.4034 H   0  0  0  0  0  0
  -23.3773  -35.9597   23.3297 H   0  0  0  0  0  0
  -24.3584  -36.8880   22.2040 H   0  0  0  0  0  0
  -23.7262  -37.6464   23.6660 H   0  0  0  0  0  0
  -26.0807  -31.5765   20.6090 H   0  0  0  0  0  0
  -26.8288  -30.8487   22.0036 H   0  0  0  0  0  0
  -28.1157  -29.0391   21.1578 H   0  0  0  0  0  0
  -26.0158  -25.9243   19.0385 H   0  0  0  0  0  0
  -23.9639  -27.2808   19.0541 H   0  0  0  0  0  0
  -23.7397  -30.5903   19.4051 H   0  0  0  0  0  0
  -22.7443  -29.2435   19.8662 H   0  0  0  0  0  0
  -25.1321  -36.1899   25.0804 H   0  0  0  0  0  0
  -20.9962  -28.3269   24.1425 H   0  0  0  0  0  0
  -20.5659  -26.2308   23.3622 H   0  0  0  0  0  0
  -21.6647  -26.7464   22.1212 H   0  0  0  0  0  0
  -19.6907  -25.6313   21.1248 H   0  0  0  0  0  0
  -19.6694  -27.3212   20.6743 H   0  0  0  0  0  0
  -17.4193  -26.6699   21.4028 H   0  0  0  0  0  0
  -18.0333  -26.0108   22.9032 H   0  0  0  0  0  0
  -19.7944  -30.7278   24.2282 H   0  0  0  0  0  0
  -17.5034  -31.6274   24.5190 H   0  0  0  0  0  0
  -15.5363  -30.3027   23.7653 H   0  0  0  0  0  0
  -15.8672  -28.0875   22.7020 H   0  0  0  0  0  0
  -24.5896  -30.7137   25.7711 H   0  0  0  0  0  0
  -24.8999  -32.2927   26.4859 H   0  0  0  0  0  0
  -25.8035  -30.8852   27.0183 H   0  0  0  0  0  0
  -26.2932  -29.6774   24.1098 H   0  0  0  0  0  0
  -27.3985  -29.7208   25.4649 H   0  0  0  0  0  0
  -27.8838  -30.4244   23.9395 H   0  0  0  0  0  0
  -27.2705  -33.3580   26.2054 H   0  0  0  0  0  0
  -28.3893  -32.6855   25.0312 H   0  0  0  0  0  0
  -28.0734  -31.8397   26.5385 H   0  0  0  0  0  0
  -28.2593  -38.0085   24.7498 H   0  0  0  0  0  0
  -28.1091  -36.2615   24.6304 H   0  0  0  0  0  0
  -27.2303  -37.1454   25.8855 H   0  0  0  0  0  0
  -20.9306  -29.8772   21.6901 H   0  0  0  0  0  0
  -26.0176  -38.2831   24.1366 H   0  0  0  0  0  0
  -30.6508  -17.9312   18.3272 H   0  0  0  0  0  0
  -29.1723  -26.2339   22.3566 H   0  0  0  0  0  0
  -28.4802  -24.6941   22.7734 H   0  0  0  0  0  0
  -30.9736  -24.6256   22.7596 H   0  0  0  0  0  0
  -30.9905  -25.0198   21.0587 H   0  0  0  0  0  0
  -29.4335  -24.4210   19.0694 H   0  0  0  0  0  0
  -27.8550  -23.7384   19.0828 H   0  0  0  0  0  0
  -27.1972  -25.0136   20.9837 H   0  0  0  0  0  0
  -29.7645  -22.5751   22.4005 H   0  0  0  0  0  0
  -30.3101  -19.9163   17.2610 H   0  0  0  0  0  0
  -30.9302  -21.1448   18.3524 H   0  0  0  0  0  0
  -29.2186  -21.1197   17.8941 H   0  0  0  0  0  0
  -27.2715  -19.7214   22.7778 H   0  0  0  0  0  0
  -28.7406  -20.6408   23.1361 H   0  0  0  0  0  0
  -28.5686  -19.0441   23.7506 H   0  0  0  0  0  0
  -29.4893  -17.1546   23.5283 H   0  0  0  0  0  0
  -29.4823  -15.8058   22.4624 H   0  0  0  0  0  0
  -27.9721  -16.6572   22.7494 H   0  0  0  0  0  0
  -32.0793  -22.7042   20.4019 H   0  0  0  0  0  0
  -31.4978  -21.2635   21.2388 H   0  0  0  0  0  0
  -32.2588  -22.5566   22.1434 H   0  0  0  0  0  0
  -30.5586  -15.4910   17.8024 H   0  0  0  0  0  0
  -29.1039  -16.4767   17.8900 H   0  0  0  0  0  0
  -28.9630  -14.8279   18.1116 H   0  0  0  0  0  0
  -27.8145  -21.6727   21.3636 H   0  0  0  0  0  0
  -27.7601  -21.5181   19.6627 H   0  0  0  0  0  0
  -29.9605  -22.4789   19.6191 H   0  0  0  0  0  0
  1 25  1  0  0  0
  1 30  2  0  0  0
  1 88  1  0  0  0
  2  3  1  0  0  0
  2 25  1  0  0  0
  2 90  1  0  0  0
  2 91  1  0  0  0
  3  4  1  0  0  0
  3 92  1  0  0  0
  3 93  1  0  0  0
  4  5  1  0  0  0
  4 94  1  0  0  0
  4 95  1  0  0  0
  5  6  1  0  0  0
  5 26  1  0  0  0
  5 96  1  0  0  0
  6 25  1  0  0  0
  6 97  1  0  0  0
  6 98  1  0  0  0
  7  8  2  0  0  0
  7 26  1  0  0  0
  7 29  1  0  0  0
  8  9  1  0  0  0
  8 22  1  0  0  0
  9 10  1  0  0  0
  9 27  2  0  0  0
 10 11  2  0  0  0
 10 15  1  0  0  0
 11 12  1  0  0  0
 11 99  1  0  0  0
 12 13  2  0  0  0
 12100  1  0  0  0
 13 14  1  0  0  0
 13 31  1  0  0  0
 14 15  2  0  0  0
 14101  1  0  0  0
 15102  1  0  0  0
 16 17  2  0  0  0
 16 21  1  0  0  0
 16 31  1  0  0  0
 17 18  1  0  0  0
 17103  1  0  0  0
 18 19  2  0  0  0
 18104  1  0  0  0
 19 20  1  0  0  0
 19 24  1  0  0  0
 20 21  2  0  0  0
 20105  1  0  0  0
 21 23  1  0  0  0
 22 28  1  0  0  0
 22 32  2  0  0  0
 26 27  1  0  0  0
 28106  1  0  0  0
 28107  1  0  0  0
 29108  1  0  0  0
 29109  1  0  0  0
 33 34  1  0  0  0
 33 66  1  0  0  0
 33 70  2  0  0  0
 34 36  1  0  0  0
 34 59  1  0  0  0
 34110  1  0  0  0
 35 44  2  0  0  0
 35 45  1  0  0  0
 35 68  1  0  0  0
 36 56  1  0  0  0
 36111  1  0  0  0
 37 39  1  0  0  0
 37 47  1  0  0  0
 37 66  1  0  0  0
 37112  1  0  0  0
 38 43  2  0  0  0
 38 46  1  0  0  0
 38 47  1  0  0  0
 39 64  1  0  0  0
 39 67  2  0  0  0
 40 52  1  0  0  0
 40 53  2  0  0  0
 40 58  1  0  0  0
 41113  1  0  0  0
 41114  1  0  0  0
 41115  1  0  0  0
 41 48  1  0  0  0
 42 43  1  0  0  0
 42 66  1  0  0  0
 42116  1  0  0  0
 42117  1  0  0  0
 43 44  1  0  0  0
 44118  1  0  0  0
 45 46  2  0  0  0
 45119  1  0  0  0
 46120  1  0  0  0
 47121  1  0  0  0
 47122  1  0  0  0
 48 56  1  0  0  0
 48 65  1  0  0  0
 48123  1  0  0  0
 49 50  1  0  0  0
 49 53  1  0  0  0
 49 64  1  0  0  0
 49124  1  0  0  0
 50 51  1  0  0  0
 50125  1  0  0  0
 50126  1  0  0  0
 51 52  1  0  0  0
 51127  1  0  0  0
 51128  1  0  0  0
 52129  1  0  0  0
 52130  1  0  0  0
 53 54  1  0  0  0
 54 55  2  0  0  0
 54131  1  0  0  0
 55 57  1  0  0  0
 55132  1  0  0  0
 56 69  2  0  0  0
 57 58  2  0  0  0
 57133  1  0  0  0
 58134  1  0  0  0
 59 60  1  0  0  0
 59 61  1  0  0  0
 59 62  1  0  0  0
 60135  1  0  0  0
 60136  1  0  0  0
 60137  1  0  0  0
 61138  1  0  0  0
 61139  1  0  0  0
 61140  1  0  0  0
 62141  1  0  0  0
 62142  1  0  0  0
 62143  1  0  0  0
 63 65  1  0  0  0
 63144  1  0  0  0
 63145  1  0  0  0
 63146  1  0  0  0
 64147  1  0  0  0
 65148  1  0  0  0
 68 80  1  0  0  0
 71 72  2  0  0  0
 71 76  1  0  0  0
 71149  1  0  0  0
 72 74  1  0  0  0
 72 82  1  0  0  0
 73 74  2  0  0  0
 73 75  1  0  0  0
 73 83  1  0  0  0
 74 87  1  0  0  0
 75 76  2  0  0  0
 75 84  1  0  0  0
 76 88  1  0  0  0
 77 78  1  0  0  0
 77 80  1  0  0  0
 77150  1  0  0  0
 77151  1  0  0  0
 78 81  1  0  0  0
 78152  1  0  0  0
 78153  1  0  0  0
 79 80  1  0  0  0
 79 89  1  0  0  0
 79154  1  0  0  0
 79155  1  0  0  0
 80156  1  0  0  0
 81 85  1  0  0  0
 81 89  1  0  0  0
 81157  1  0  0  0
 82158  1  0  0  0
 82159  1  0  0  0
 82160  1  0  0  0
 83161  1  0  0  0
 83162  1  0  0  0
 83163  1  0  0  0
 84164  1  0  0  0
 84165  1  0  0  0
 84166  1  0  0  0
 85167  1  0  0  0
 85168  1  0  0  0
 85169  1  0  0  0
 86 88  1  0  0  0
 86170  1  0  0  0
 86171  1  0  0  0
 86172  1  0  0  0
 87173  1  0  0  0
 87174  1  0  0  0
 87 89  1  0  0  0
 89175  1  0  0  0
M  CHG  1  89   1
M  ISO  4   1 100  68 101  80 101  88 100
M  END
> <chiral flag>
0

> <version>
0

> <s_m_source_file>
/data/baiqing/PycharmProjects/Reinvent-master-3.2/result/LINK_invent/BTK/process_docking_weight1_custom_product_contain_oxygen_bond_distance_aromatic_linkinvent_7_9_3/rearranged_h_0036.sdf

> <i_m_source_file_index>
69

> <r_mmod_Potential_Energy-OPLS-2005>
349.332092285156

> <r_mmod_Stretch_Energy-OPLS-2005>
97.8744049072266

> <r_mmod_Bend_Energy-OPLS-2005>
167.463073730469

> <r_mmod_Torsional_Energy-OPLS-2005>
408.265869140625

> <r_mmod_Improper_Torsional_Energy-OPLS-2005>
23.7044143676758

> <r_mmod_Van_der_Waal_Energy-OPLS-2005>
172.81282043457

> <r_mmod_Electrostatic_Energy-OPLS-2005>
-202.076782226562

> <r_mmod_Solvation_Energy-OPLS-2005>
-393.826690673828

> <b_mmod_Minimization_Converged-OPLS-2005>
0

> <r_mmod_RMS_Derivative-OPLS-2005>
3.17450404167175

$$$$
69
                    3D
 Structure written by MMmdl.
166175  0  0  1  0            999 V2000
  -30.6362  -14.6142   20.5281 C   0  0  0  0  0  0
  -30.4389  -12.3792   19.4536 C   0  0  0  0  0  0
  -29.5100  -12.5126   18.2263 C   0  0  0  0  0  0
  -28.0307  -12.3567   18.6343 C   0  0  0  0  0  0
  -27.6583  -13.2156   19.8723 C   0  0  2  0  0  0
  -28.7021  -13.0481   20.9996 C   0  0  0  0  0  0
  -25.2572  -13.8170   20.5675 C   0  0  0  0  0  0
  -24.1835  -13.0438   20.9177 C   0  0  0  0  0  0
  -24.6402  -11.6906   20.8733 C   0  0  0  0  0  0
  -23.9060  -10.4292   21.0401 C   0  0  0  0  0  0
  -24.3606   -9.4211   21.9184 C   0  0  0  0  0  0
  -23.6278   -8.2244   22.0750 C   0  0  0  0  0  0
  -22.4265   -8.0280   21.3535 C   0  0  0  0  0  0
  -21.9898   -9.0257   20.4637 C   0  0  0  0  0  0
  -22.7222  -10.2138   20.3052 C   0  0  0  0  0  0
  -21.6860   -6.0731   22.5273 C   0  0  0  0  0  0
  -21.4025   -6.5640   23.8206 C   0  0  0  0  0  0
  -21.3652   -5.6785   24.9167 C   0  0  0  0  0  0
  -21.6040   -4.3050   24.7218 C   0  0  0  0  0  0
  -21.8819   -3.8142   23.4337 C   0  0  0  0  0  0
  -21.9194   -4.6957   22.3393 C   0  0  0  0  0  0
  -22.7857  -13.5235   21.1833 C   0  0  0  0  0  0
  -22.1660   -4.2143   21.0969 F   0  0  0  0  0  0
  -21.5617   -3.4536   25.7728 F   0  0  0  0  0  0
  -30.0230  -13.3909   20.4448 N   0  0  0  0  0  0
  -26.3012  -12.9355   20.3360 N   0  0  0  0  0  0
  -25.9336  -11.6506   20.5779 N   0  0  0  0  0  0
  -22.0489  -12.8243   22.0398 N   0  0  0  0  0  0
  -25.4296  -15.1885   20.4077 N   0  0  0  0  0  0
  -31.7771  -14.7945   20.0953 O   0  0  0  0  0  0
  -21.6631   -6.8874   21.4234 O   0  0  0  0  0  0
  -22.3538  -14.5527   20.6662 O   0  0  0  0  0  0
  -24.6261  -31.8610   23.2040 C   0  0  0  0  0  0
  -25.9110  -32.4777   23.8363 C   0  0  1  0  0  0
  -27.2225  -27.3209   20.1077 C   0  0  0  0  0  0
  -25.5931  -33.8579   24.2284 N   0  0  0  0  0  0
  -23.4187  -30.4863   21.5470 C   0  0  2  0  0  0
  -24.8631  -28.9460   20.1106 C   0  0  0  0  0  0
  -22.7473  -29.4631   22.4934 C   0  0  0  0  0  0
  -18.0292  -28.1387   22.8484 C   0  0  0  0  0  0
  -24.1488  -36.7286   23.2640 C   0  0  0  0  0  0
  -25.9611  -30.7914   21.3763 C   0  0  0  0  0  0
  -26.0337  -29.4211   20.7147 C   0  0  0  0  0  0
  -27.2150  -28.6211   20.7043 C   0  0  0  0  0  0
  -26.0201  -26.8997   19.4894 C   0  0  0  0  0  0
  -24.8585  -27.6899   19.4907 C   0  0  0  0  0  0
  -23.6317  -29.8258   20.1613 C   0  0  0  0  0  0
  -25.4112  -36.3075   24.0328 C   0  0  1  0  0  0
  -20.5890  -28.3693   23.1274 C   0  0  2  0  0  0
  -20.6779  -26.9413   22.5408 C   0  0  0  0  0  0
  -19.5754  -26.6382   21.5210 C   0  0  0  0  0  0
  -18.1933  -26.7929   22.1621 C   0  0  0  0  0  0
  -19.1543  -28.8856   23.2875 C   0  0  0  0  0  0
  -18.9469  -30.1452   23.8895 C   0  0  0  0  0  0
  -17.6470  -30.6583   24.0566 C   0  0  0  0  0  0
  -25.9050  -34.9447   23.5098 C   0  0  0  0  0  0
  -16.5358  -29.9088   23.6329 C   0  0  0  0  0  0
  -16.7279  -28.6507   23.0348 C   0  0  0  0  0  0
  -26.4492  -31.6587   25.0732 C   0  0  0  0  0  0
  -25.3726  -31.3749   26.1464 C   0  0  0  0  0  0
  -27.0335  -30.3008   24.6190 C   0  0  0  0  0  0
  -27.6051  -32.4333   25.7488 C   0  0  0  0  0  0
  -27.5569  -37.1800   24.8462 C   0  0  0  0  0  0
  -21.4189  -29.3045   22.3668 N   0  0  0  0  0  0
  -26.4290  -37.3765   23.9397 N   0  0  0  0  0  0
  -24.6874  -31.0626   22.0987 N   0  0  0  0  0  0
  -23.4197  -28.8163   23.3011 O   0  0  0  0  0  0
  -28.3531  -26.4844   20.1559 O   0  0  0  0  0  0
  -26.5617  -34.8914   22.4666 O   0  0  0  0  0  0
  -23.5427  -32.1410   23.7368 O   0  0  0  0  0  0
  -30.8583  -17.8404   20.1719 C   0  0  0  0  0  0
  -30.8361  -19.2703   20.1413 C   0  0  0  0  0  0
  -29.8556  -20.0323   20.8581 C   0  0  0  0  0  0
  -28.8847  -19.2703   21.5801 C   0  0  0  0  0  0
  -29.9160  -17.0884   20.9160 C   0  0  0  0  0  0
  -28.9264  -17.8375   21.6071 C   0  0  0  0  0  0
  -28.0672  -23.2745   18.0692 C   0  0  0  0  0  0
  -28.3348  -24.7602   18.3766 C   0  0  0  0  0  0
  -29.0608  -22.3467   18.7985 C   0  0  0  0  0  0
  -29.2058  -24.0339   20.6238 C   0  0  0  0  0  0
  -28.2105  -25.0307   19.8897 C   0  0  1  0  0  0
  -31.9360  -19.9628   19.3523 C   0  0  0  0  0  0
  -27.8079  -19.9807   22.3958 C   0  0  0  0  0  0
  -29.9619  -21.6092   21.0140 C   0  0  0  0  0  0
  -29.8589  -15.6296   21.0058 N   0  0  0  0  0  0
  -29.0329  -22.5548   20.2695 N   0  3  2  0  0  0
  -27.7605  -16.9551   22.5415 Cl  0  0  0  0  0  0
  -31.4817  -12.4998   19.1542 H   0  0  0  0  0  0
  -30.3669  -11.3788   19.8833 H   0  0  0  0  0  0
  -29.7689  -11.7668   17.4733 H   0  0  0  0  0  0
  -29.6603  -13.4865   17.7577 H   0  0  0  0  0  0
  -27.8571  -11.3019   18.8513 H   0  0  0  0  0  0
  -27.3806  -12.6039   17.7947 H   0  0  0  0  0  0
  -27.6842  -14.2564   19.5479 H   0  0  0  0  0  0
  -28.7072  -12.0187   21.3620 H   0  0  0  0  0  0
  -28.4444  -13.6607   21.8651 H   0  0  0  0  0  0
  -25.2752   -9.5685   22.4763 H   0  0  0  0  0  0
  -23.9983   -7.4641   22.7482 H   0  0  0  0  0  0
  -21.0823   -8.8777   19.8946 H   0  0  0  0  0  0
  -22.3680  -10.9679   19.6164 H   0  0  0  0  0  0
  -21.2036   -7.6148   23.9716 H   0  0  0  0  0  0
  -21.1467   -6.0513   25.9070 H   0  0  0  0  0  0
  -22.0603   -2.7602   23.2842 H   0  0  0  0  0  0
  -22.4087  -11.9905   22.4795 H   0  0  0  0  0  0
  -21.1109  -13.1293   22.2583 H   0  0  0  0  0  0
  -24.6737  -15.8501   20.5415 H   0  0  0  0  0  0
  -26.2981  -15.6298   20.1349 H   0  0  0  0  0  0
  -26.7173  -32.5445   23.1109 H   0  0  0  0  0  0
  -25.0075  -33.9728   25.0424 H   0  0  0  0  0  0
  -22.7117  -31.3067   21.4074 H   0  0  0  0  0  0
  -23.3730  -35.9641   23.3340 H   0  0  0  0  0  0
  -24.3563  -36.8866   22.2044 H   0  0  0  0  0  0
  -23.7278  -37.6516   23.6639 H   0  0  0  0  0  0
  -26.0972  -31.5577   20.6117 H   0  0  0  0  0  0
  -26.8396  -30.8341   22.0086 H   0  0  0  0  0  0
  -28.1118  -28.9822   21.1880 H   0  0  0  0  0  0
  -25.9289  -25.9427   19.0012 H   0  0  0  0  0  0
  -23.9612  -27.3189   19.0145 H   0  0  0  0  0  0
  -23.7471  -30.6044   19.4065 H   0  0  0  0  0  0
  -22.7513  -29.2559   19.8587 H   0  0  0  0  0  0
  -25.1301  -36.1923   25.0823 H   0  0  0  0  0  0
  -20.9984  -28.3280   24.1394 H   0  0  0  0  0  0
  -20.5670  -26.2312   23.3615 H   0  0  0  0  0  0
  -21.6650  -26.7438   22.1208 H   0  0  0  0  0  0
  -19.6914  -25.6291   21.1238 H   0  0  0  0  0  0
  -19.6687  -27.3192   20.6740 H   0  0  0  0  0  0
  -17.4204  -26.6682   21.4021 H   0  0  0  0  0  0
  -18.0326  -26.0068   22.9013 H   0  0  0  0  0  0
  -19.7942  -30.7272   24.2262 H   0  0  0  0  0  0
  -17.5023  -31.6260   24.5176 H   0  0  0  0  0  0
  -15.5359  -30.2993   23.7645 H   0  0  0  0  0  0
  -15.8680  -28.0824   22.7066 H   0  0  0  0  0  0
  -24.5886  -30.7105   25.7809 H   0  0  0  0  0  0
  -24.8937  -32.2932   26.4878 H   0  0  0  0  0  0
  -25.8050  -30.8937   27.0245 H   0  0  0  0  0  0
  -26.2913  -29.6755   24.1210 H   0  0  0  0  0  0
  -27.4026  -29.7268   25.4700 H   0  0  0  0  0  0
  -27.8787  -30.4295   23.9422 H   0  0  0  0  0  0
  -27.2655  -33.3630   26.2066 H   0  0  0  0  0  0
  -28.3847  -32.6903   25.0302 H   0  0  0  0  0  0
  -28.0731  -31.8464   26.5400 H   0  0  0  0  0  0
  -28.2615  -38.0069   24.7464 H   0  0  0  0  0  0
  -28.1037  -36.2598   24.6341 H   0  0  0  0  0  0
  -27.2281  -37.1513   25.8866 H   0  0  0  0  0  0
  -20.9361  -29.8782   21.6891 H   0  0  0  0  0  0
  -26.0166  -38.2841   24.1385 H   0  0  0  0  0  0
  -31.6320  -17.3189   19.6259 H   0  0  0  0  0  0
  -28.1333  -23.1045   16.9940 H   0  0  0  0  0  0
  -27.0446  -23.0160   18.3512 H   0  0  0  0  0  0
  -27.6516  -25.3802   17.7996 H   0  0  0  0  0  0
  -29.3349  -25.0336   18.0375 H   0  0  0  0  0  0
  -30.0688  -22.5265   18.4229 H   0  0  0  0  0  0
  -28.8203  -21.3074   18.5699 H   0  0  0  0  0  0
  -29.0903  -24.1528   21.7016 H   0  0  0  0  0  0
  -30.2310  -24.3288   20.3944 H   0  0  0  0  0  0
  -27.2218  -24.7214   20.2309 H   0  0  0  0  0  0
  -32.4966  -19.2540   18.7426 H   0  0  0  0  0  0
  -32.6471  -20.4467   20.0226 H   0  0  0  0  0  0
  -31.5262  -20.7111   18.6762 H   0  0  0  0  0  0
  -27.5896  -20.9806   22.0296 H   0  0  0  0  0  0
  -28.1208  -20.0592   23.4378 H   0  0  0  0  0  0
  -26.8598  -19.4436   22.3647 H   0  0  0  0  0  0
  -30.9815  -21.9210   20.7952 H   0  0  0  0  0  0
  -29.8550  -21.8230   22.0782 H   0  0  0  0  0  0
  -29.0074  -15.2989   21.4342 H   0  0  0  0  0  0
  -28.1020  -22.2991   20.5632 H   0  0  0  0  0  0
  1 25  1  0  0  0
  1 30  2  0  0  0
  1 85  1  0  0  0
  2  3  1  0  0  0
  2 25  1  0  0  0
  2 88  1  0  0  0
  2 89  1  0  0  0
  3  4  1  0  0  0
  3 90  1  0  0  0
  3 91  1  0  0  0
  4  5  1  0  0  0
  4 92  1  0  0  0
  4 93  1  0  0  0
  5  6  1  0  0  0
  5 26  1  0  0  0
  5 94  1  0  0  0
  6 25  1  0  0  0
  6 95  1  0  0  0
  6 96  1  0  0  0
  7  8  2  0  0  0
  7 26  1  0  0  0
  7 29  1  0  0  0
  8  9  1  0  0  0
  8 22  1  0  0  0
  9 10  1  0  0  0
  9 27  2  0  0  0
 10 11  2  0  0  0
 10 15  1  0  0  0
 11 12  1  0  0  0
 11 97  1  0  0  0
 12 13  2  0  0  0
 12 98  1  0  0  0
 13 14  1  0  0  0
 13 31  1  0  0  0
 14 15  2  0  0  0
 14 99  1  0  0  0
 15100  1  0  0  0
 16 17  2  0  0  0
 16 21  1  0  0  0
 16 31  1  0  0  0
 17 18  1  0  0  0
 17101  1  0  0  0
 18 19  2  0  0  0
 18102  1  0  0  0
 19 20  1  0  0  0
 19 24  1  0  0  0
 20 21  2  0  0  0
 20103  1  0  0  0
 21 23  1  0  0  0
 22 28  1  0  0  0
 22 32  2  0  0  0
 26 27  1  0  0  0
 28104  1  0  0  0
 28105  1  0  0  0
 29106  1  0  0  0
 29107  1  0  0  0
 33 34  1  0  0  0
 33 66  1  0  0  0
 33 70  2  0  0  0
 34 36  1  0  0  0
 34 59  1  0  0  0
 34108  1  0  0  0
 35 44  2  0  0  0
 35 45  1  0  0  0
 35 68  1  0  0  0
 36 56  1  0  0  0
 36109  1  0  0  0
 37 39  1  0  0  0
 37 47  1  0  0  0
 37 66  1  0  0  0
 37110  1  0  0  0
 38 43  2  0  0  0
 38 46  1  0  0  0
 38 47  1  0  0  0
 39 64  1  0  0  0
 39 67  2  0  0  0
 40 52  1  0  0  0
 40 53  2  0  0  0
 40 58  1  0  0  0
 41111  1  0  0  0
 41112  1  0  0  0
 41113  1  0  0  0
 41 48  1  0  0  0
 42 43  1  0  0  0
 42 66  1  0  0  0
 42114  1  0  0  0
 42115  1  0  0  0
 43 44  1  0  0  0
 44116  1  0  0  0
 45 46  2  0  0  0
 45117  1  0  0  0
 46118  1  0  0  0
 47119  1  0  0  0
 47120  1  0  0  0
 48 56  1  0  0  0
 48 65  1  0  0  0
 48121  1  0  0  0
 49 50  1  0  0  0
 49 53  1  0  0  0
 49 64  1  0  0  0
 49122  1  0  0  0
 50 51  1  0  0  0
 50123  1  0  0  0
 50124  1  0  0  0
 51 52  1  0  0  0
 51125  1  0  0  0
 51126  1  0  0  0
 52127  1  0  0  0
 52128  1  0  0  0
 53 54  1  0  0  0
 54 55  2  0  0  0
 54129  1  0  0  0
 55 57  1  0  0  0
 55130  1  0  0  0
 56 69  2  0  0  0
 57 58  2  0  0  0
 57131  1  0  0  0
 58132  1  0  0  0
 59 60  1  0  0  0
 59 61  1  0  0  0
 59 62  1  0  0  0
 60133  1  0  0  0
 60134  1  0  0  0
 60135  1  0  0  0
 61136  1  0  0  0
 61137  1  0  0  0
 61138  1  0  0  0
 62139  1  0  0  0
 62140  1  0  0  0
 62141  1  0  0  0
 63 65  1  0  0  0
 63142  1  0  0  0
 63143  1  0  0  0
 63144  1  0  0  0
 64145  1  0  0  0
 65146  1  0  0  0
 68 81  1  0  0  0
 71 72  2  0  0  0
 71 75  1  0  0  0
 71147  1  0  0  0
 72 73  1  0  0  0
 72 82  1  0  0  0
 73 74  2  0  0  0
 73 84  1  0  0  0
 74 76  1  0  0  0
 74 83  1  0  0  0
 75 76  2  0  0  0
 75 85  1  0  0  0
 76 87  1  0  0  0
 77 78  1  0  0  0
 77 79  1  0  0  0
 77148  1  0  0  0
 77149  1  0  0  0
 78 81  1  0  0  0
 78150  1  0  0  0
 78151  1  0  0  0
 79 86  1  0  0  0
 79152  1  0  0  0
 79153  1  0  0  0
 80 81  1  0  0  0
 80 86  1  0  0  0
 80154  1  0  0  0
 80155  1  0  0  0
 81156  1  0  0  0
 82157  1  0  0  0
 82158  1  0  0  0
 82159  1  0  0  0
 83160  1  0  0  0
 83161  1  0  0  0
 83162  1  0  0  0
 84163  1  0  0  0
 84164  1  0  0  0
 84 86  1  0  0  0
 85165  1  0  0  0
 86166  1  0  0  0
M  CHG  1  86   1
M  ISO  4   1 100  68 101  81 101  85 100
M  END
> <chiral flag>
0

> <version>
0

> <s_m_source_file>
/data/baiqing/PycharmProjects/Reinvent-master-3.2/result/LINK_invent/BTK/process_docking_weight1_custom_product_contain_oxygen_bond_distance_aromatic_linkinvent_7_9_3/rearranged_h_0036.sdf

> <i_m_source_file_index>
70

> <r_mmod_Potential_Energy-OPLS-2005>
-35.4543800354004

> <r_mmod_Stretch_Energy-OPLS-2005>
84.706916809082

> <r_mmod_Bend_Energy-OPLS-2005>
145.129974365234

> <r_mmod_Torsional_Energy-OPLS-2005>
226.227264404297

> <r_mmod_Improper_Torsional_Energy-OPLS-2005>
3.92255997657776

> <r_mmod_Van_der_Waal_Energy-OPLS-2005>
153.243743896484

> <r_mmod_Electrostatic_Energy-OPLS-2005>
-265.676635742188

> <r_mmod_Solvation_Energy-OPLS-2005>
-425.447265625

> <b_mmod_Minimization_Converged-OPLS-2005>
0

> <r_mmod_RMS_Derivative-OPLS-2005>
1.60316634178162

$$$$
70
                    3D
 Structure written by MMmdl.
172181  0  0  1  0            999 V2000
  -30.6718  -14.5975   20.4918 C   0  0  0  0  0  0
  -30.4358  -12.3583   19.4482 C   0  0  0  0  0  0
  -29.5034  -12.4853   18.2232 C   0  0  0  0  0  0
  -28.0262  -12.3377   18.6404 C   0  0  0  0  0  0
  -27.6583  -13.2167   19.8647 C   0  0  2  0  0  0
  -28.7081  -13.0712   20.9919 C   0  0  0  0  0  0
  -25.2555  -13.8194   20.5684 C   0  0  0  0  0  0
  -24.1812  -13.0446   20.9195 C   0  0  0  0  0  0
  -24.6386  -11.6926   20.8738 C   0  0  0  0  0  0
  -23.9046  -10.4293   21.0406 C   0  0  0  0  0  0
  -24.3598   -9.4213   21.9193 C   0  0  0  0  0  0
  -23.6266   -8.2248   22.0768 C   0  0  0  0  0  0
  -22.4258   -8.0270   21.3551 C   0  0  0  0  0  0
  -21.9891   -9.0245   20.4658 C   0  0  0  0  0  0
  -22.7217  -10.2125   20.3056 C   0  0  0  0  0  0
  -21.6845   -6.0712   22.5272 C   0  0  0  0  0  0
  -21.4017   -6.5626   23.8205 C   0  0  0  0  0  0
  -21.3654   -5.6778   24.9171 C   0  0  0  0  0  0
  -21.6044   -4.3039   24.7233 C   0  0  0  0  0  0
  -21.8819   -3.8129   23.4355 C   0  0  0  0  0  0
  -21.9199   -4.6940   22.3404 C   0  0  0  0  0  0
  -22.7833  -13.5244   21.1857 C   0  0  0  0  0  0
  -22.1659   -4.2129   21.0978 F   0  0  0  0  0  0
  -21.5633   -3.4525   25.7749 F   0  0  0  0  0  0
  -30.0303  -13.3879   20.4246 N   0  0  0  0  0  0
  -26.3015  -12.9379   20.3373 N   0  0  0  0  0  0
  -25.9335  -11.6530   20.5799 N   0  0  0  0  0  0
  -22.0463  -12.8236   22.0412 N   0  0  0  0  0  0
  -25.4209  -15.1899   20.4076 N   0  0  0  0  0  0
  -31.8218  -14.7328   20.0717 O   0  0  0  0  0  0
  -21.6628   -6.8856   21.4235 O   0  0  0  0  0  0
  -22.3531  -14.5555   20.6702 O   0  0  0  0  0  0
  -24.6243  -31.8556   23.2035 C   0  0  0  0  0  0
  -25.9077  -32.4728   23.8386 C   0  0  1  0  0  0
  -27.2184  -27.3070   20.1432 C   0  0  0  0  0  0
  -25.5905  -33.8542   24.2280 N   0  0  0  0  0  0
  -23.4201  -30.4801   21.5423 C   0  0  2  0  0  0
  -24.8712  -28.9445   20.0985 C   0  0  0  0  0  0
  -22.7452  -29.4575   22.4896 C   0  0  0  0  0  0
  -18.0272  -28.1360   22.8445 C   0  0  0  0  0  0
  -24.1473  -36.7285   23.2650 C   0  0  0  0  0  0
  -25.9609  -30.7867   21.3751 C   0  0  0  0  0  0
  -26.0372  -29.4151   20.7159 C   0  0  0  0  0  0
  -27.2120  -28.6097   20.7329 C   0  0  0  0  0  0
  -26.0464  -26.9087   19.4595 C   0  0  0  0  0  0
  -24.8810  -27.6957   19.4577 C   0  0  0  0  0  0
  -23.6353  -29.8214   20.1555 C   0  0  0  0  0  0
  -25.4088  -36.3066   24.0351 C   0  0  1  0  0  0
  -20.5869  -28.3649   23.1257 C   0  0  2  0  0  0
  -20.6776  -26.9365   22.5403 C   0  0  0  0  0  0
  -19.5780  -26.6357   21.5178 C   0  0  0  0  0  0
  -18.1932  -26.7889   22.1572 C   0  0  0  0  0  0
  -19.1527  -28.8823   23.2825 C   0  0  0  0  0  0
  -18.9487  -30.1420   23.8850 C   0  0  0  0  0  0
  -17.6497  -30.6568   24.0545 C   0  0  0  0  0  0
  -25.9042  -34.9429   23.5126 C   0  0  0  0  0  0
  -16.5373  -29.9072   23.6333 C   0  0  0  0  0  0
  -16.7259  -28.6487   23.0335 C   0  0  0  0  0  0
  -26.4485  -31.6542   25.0761 C   0  0  0  0  0  0
  -25.3753  -31.3666   26.1527 C   0  0  0  0  0  0
  -27.0367  -30.2997   24.6180 C   0  0  0  0  0  0
  -27.6013  -32.4330   25.7523 C   0  0  0  0  0  0
  -27.5557  -37.1780   24.8465 C   0  0  0  0  0  0
  -21.4165  -29.3014   22.3636 N   0  0  0  0  0  0
  -26.4268  -37.3757   23.9431 N   0  0  0  0  0  0
  -24.6873  -31.0578   22.0977 N   0  0  0  0  0  0
  -23.4151  -28.8071   23.2957 O   0  0  0  0  0  0
  -28.2889  -26.4066   20.2829 O   0  0  0  0  0  0
  -26.5592  -34.8893   22.4687 O   0  0  0  0  0  0
  -23.5422  -32.1381   23.7357 O   0  0  0  0  0  0
  -28.7844  -19.1514   20.0052 C   0  0  0  0  0  0
  -28.8496  -17.7488   20.1980 C   0  0  0  0  0  0
  -29.8679  -20.0076   20.3094 C   0  0  0  0  0  0
  -31.0476  -19.3712   20.8307 C   0  0  0  0  0  0
  -31.1259  -17.9371   20.9990 C   0  0  0  0  0  0
  -30.0110  -17.0960   20.6778 C   0  0  0  0  0  0
  -26.9533  -22.7375   23.2470 C   0  0  0  0  0  0
  -26.3922  -23.4334   21.9916 C   0  0  0  0  0  0
  -28.4843  -22.8121   23.4237 C   0  0  0  0  0  0
  -26.9906  -24.8362   21.7365 C   0  0  0  0  0  0
  -29.3084  -22.0692   22.3605 C   0  0  0  0  0  0
  -29.2680  -24.0032   20.6998 C   0  0  0  0  0  0
  -27.9850  -24.9576   20.5339 C   0  0  2  0  0  0
  -32.2625  -20.2106   21.2245 C   0  0  0  0  0  0
  -32.4175  -17.2962   21.5161 C   0  0  0  0  0  0
  -29.7435  -21.5536   19.9736 C   0  0  0  0  0  0
  -29.9096  -15.6545   20.9029 N   0  0  0  0  0  0
  -29.0601  -22.4974   20.9502 N   0  3  1  0  0  0
  -31.4773  -12.4602   19.1361 H   0  0  0  0  0  0
  -30.3555  -11.3641   19.8916 H   0  0  0  0  0  0
  -29.7543  -11.7267   17.4794 H   0  0  0  0  0  0
  -29.6550  -13.4528   17.7413 H   0  0  0  0  0  0
  -27.8557  -11.2878   18.8791 H   0  0  0  0  0  0
  -27.3701  -12.5686   17.8006 H   0  0  0  0  0  0
  -27.6789  -14.2517   19.5221 H   0  0  0  0  0  0
  -28.7092  -12.0537   21.3870 H   0  0  0  0  0  0
  -28.4679  -13.7166   21.8381 H   0  0  0  0  0  0
  -25.2736   -9.5700   22.4777 H   0  0  0  0  0  0
  -23.9967   -7.4656   22.7509 H   0  0  0  0  0  0
  -21.0811   -8.8759   19.8977 H   0  0  0  0  0  0
  -22.3662  -10.9659   19.6162 H   0  0  0  0  0  0
  -21.1997   -7.6133   23.9707 H   0  0  0  0  0  0
  -21.1474   -6.0507   25.9072 H   0  0  0  0  0  0
  -22.0605   -2.7591   23.2861 H   0  0  0  0  0  0
  -22.4016  -11.9850   22.4756 H   0  0  0  0  0  0
  -21.1126  -13.1329   22.2685 H   0  0  0  0  0  0
  -24.6449  -15.8360   20.5029 H   0  0  0  0  0  0
  -26.2640  -15.6361   20.0731 H   0  0  0  0  0  0
  -26.7125  -32.5402   23.1115 H   0  0  0  0  0  0
  -25.0067  -33.9689   25.0450 H   0  0  0  0  0  0
  -22.7167  -31.3024   21.3978 H   0  0  0  0  0  0
  -23.3728  -35.9624   23.3313 H   0  0  0  0  0  0
  -24.3571  -36.8929   22.2069 H   0  0  0  0  0  0
  -23.7245  -37.6501   23.6677 H   0  0  0  0  0  0
  -26.0930  -31.5464   20.6033 H   0  0  0  0  0  0
  -26.8418  -30.8360   22.0025 H   0  0  0  0  0  0
  -28.0903  -28.9517   21.2600 H   0  0  0  0  0  0
  -25.9995  -25.9551   18.9603 H   0  0  0  0  0  0
  -23.9934  -27.3291   18.9600 H   0  0  0  0  0  0
  -23.7415  -30.6058   19.4060 H   0  0  0  0  0  0
  -22.7575  -29.2502   19.8514 H   0  0  0  0  0  0
  -25.1249  -36.1920   25.0845 H   0  0  0  0  0  0
  -20.9973  -28.3269   24.1370 H   0  0  0  0  0  0
  -20.5695  -26.2241   23.3602 H   0  0  0  0  0  0
  -21.6631  -26.7392   22.1177 H   0  0  0  0  0  0
  -19.6968  -25.6269   21.1210 H   0  0  0  0  0  0
  -19.6766  -27.3166   20.6715 H   0  0  0  0  0  0
  -17.4200  -26.6609   21.3970 H   0  0  0  0  0  0
  -18.0330  -26.0029   22.8984 H   0  0  0  0  0  0
  -19.7987  -30.7211   24.2214 H   0  0  0  0  0  0
  -17.5074  -31.6254   24.5139 H   0  0  0  0  0  0
  -15.5376  -30.2976   23.7728 H   0  0  0  0  0  0
  -15.8630  -28.0835   22.7072 H   0  0  0  0  0  0
  -24.5945  -30.6953   25.7925 H   0  0  0  0  0  0
  -24.8910  -32.2822   26.4956 H   0  0  0  0  0  0
  -25.8155  -30.8907   27.0303 H   0  0  0  0  0  0
  -26.2965  -29.6704   24.1228 H   0  0  0  0  0  0
  -27.4142  -29.7262   25.4651 H   0  0  0  0  0  0
  -27.8777  -30.4313   23.9358 H   0  0  0  0  0  0
  -27.2603  -33.3650   26.2024 H   0  0  0  0  0  0
  -28.3863  -32.6872   25.0394 H   0  0  0  0  0  0
  -28.0629  -31.8529   26.5516 H   0  0  0  0  0  0
  -28.2526  -38.0103   24.7497 H   0  0  0  0  0  0
  -28.1085  -36.2631   24.6293 H   0  0  0  0  0  0
  -27.2269  -37.1448   25.8860 H   0  0  0  0  0  0
  -20.9332  -29.8760   21.6884 H   0  0  0  0  0  0
  -26.0144  -38.2829   24.1470 H   0  0  0  0  0  0
  -27.8751  -19.5691   19.5963 H   0  0  0  0  0  0
  -27.9779  -17.1597   19.9432 H   0  0  0  0  0  0
  -26.6253  -21.6981   23.2746 H   0  0  0  0  0  0
  -26.4894  -23.2016   24.1180 H   0  0  0  0  0  0
  -25.3152  -23.5393   22.1402 H   0  0  0  0  0  0
  -26.4601  -22.8004   21.1065 H   0  0  0  0  0  0
  -28.7146  -22.3528   24.3874 H   0  0  0  0  0  0
  -28.8348  -23.8380   23.5251 H   0  0  0  0  0  0
  -27.4285  -25.2512   22.6442 H   0  0  0  0  0  0
  -26.1260  -25.4728   21.5736 H   0  0  0  0  0  0
  -29.0806  -21.0108   22.4852 H   0  0  0  0  0  0
  -30.3709  -22.1723   22.5830 H   0  0  0  0  0  0
  -29.9109  -24.4071   21.4814 H   0  0  0  0  0  0
  -29.8493  -24.1123   19.7858 H   0  0  0  0  0  0
  -27.4777  -24.5782   19.6476 H   0  0  0  0  0  0
  -32.1625  -21.2799   21.0723 H   0  0  0  0  0  0
  -33.1414  -19.8897   20.6627 H   0  0  0  0  0  0
  -32.4708  -20.0924   22.2888 H   0  0  0  0  0  0
  -33.0456  -17.9628   22.1009 H   0  0  0  0  0  0
  -33.0164  -16.9631   20.6683 H   0  0  0  0  0  0
  -32.2213  -16.4327   22.1537 H   0  0  0  0  0  0
  -29.2015  -21.6463   19.0306 H   0  0  0  0  0  0
  -30.7284  -21.9413   19.7286 H   0  0  0  0  0  0
  -28.9846  -15.3462   21.1637 H   0  0  0  0  0  0
  -28.0751  -22.3272   20.8150 H   0  0  0  0  0  0
  1 25  1  0  0  0
  1 30  2  0  0  0
  1 87  1  0  0  0
  2  3  1  0  0  0
  2 25  1  0  0  0
  2 89  1  0  0  0
  2 90  1  0  0  0
  3  4  1  0  0  0
  3 91  1  0  0  0
  3 92  1  0  0  0
  4  5  1  0  0  0
  4 93  1  0  0  0
  4 94  1  0  0  0
  5  6  1  0  0  0
  5 26  1  0  0  0
  5 95  1  0  0  0
  6 25  1  0  0  0
  6 96  1  0  0  0
  6 97  1  0  0  0
  7  8  2  0  0  0
  7 26  1  0  0  0
  7 29  1  0  0  0
  8  9  1  0  0  0
  8 22  1  0  0  0
  9 10  1  0  0  0
  9 27  2  0  0  0
 10 11  2  0  0  0
 10 15  1  0  0  0
 11 12  1  0  0  0
 11 98  1  0  0  0
 12 13  2  0  0  0
 12 99  1  0  0  0
 13 14  1  0  0  0
 13 31  1  0  0  0
 14 15  2  0  0  0
 14100  1  0  0  0
 15101  1  0  0  0
 16 17  2  0  0  0
 16 21  1  0  0  0
 16 31  1  0  0  0
 17 18  1  0  0  0
 17102  1  0  0  0
 18 19  2  0  0  0
 18103  1  0  0  0
 19 20  1  0  0  0
 19 24  1  0  0  0
 20 21  2  0  0  0
 20104  1  0  0  0
 21 23  1  0  0  0
 22 28  1  0  0  0
 22 32  2  0  0  0
 26 27  1  0  0  0
 28105  1  0  0  0
 28106  1  0  0  0
 29107  1  0  0  0
 29108  1  0  0  0
 33 34  1  0  0  0
 33 66  1  0  0  0
 33 70  2  0  0  0
 34 36  1  0  0  0
 34 59  1  0  0  0
 34109  1  0  0  0
 35 44  2  0  0  0
 35 45  1  0  0  0
 35 68  1  0  0  0
 36 56  1  0  0  0
 36110  1  0  0  0
 37 39  1  0  0  0
 37 47  1  0  0  0
 37 66  1  0  0  0
 37111  1  0  0  0
 38 43  2  0  0  0
 38 46  1  0  0  0
 38 47  1  0  0  0
 39 64  1  0  0  0
 39 67  2  0  0  0
 40 52  1  0  0  0
 40 53  2  0  0  0
 40 58  1  0  0  0
 41112  1  0  0  0
 41113  1  0  0  0
 41114  1  0  0  0
 41 48  1  0  0  0
 42 43  1  0  0  0
 42 66  1  0  0  0
 42115  1  0  0  0
 42116  1  0  0  0
 43 44  1  0  0  0
 44117  1  0  0  0
 45 46  2  0  0  0
 45118  1  0  0  0
 46119  1  0  0  0
 47120  1  0  0  0
 47121  1  0  0  0
 48 56  1  0  0  0
 48 65  1  0  0  0
 48122  1  0  0  0
 49 50  1  0  0  0
 49 53  1  0  0  0
 49 64  1  0  0  0
 49123  1  0  0  0
 50 51  1  0  0  0
 50124  1  0  0  0
 50125  1  0  0  0
 51 52  1  0  0  0
 51126  1  0  0  0
 51127  1  0  0  0
 52128  1  0  0  0
 52129  1  0  0  0
 53 54  1  0  0  0
 54 55  2  0  0  0
 54130  1  0  0  0
 55 57  1  0  0  0
 55131  1  0  0  0
 56 69  2  0  0  0
 57 58  2  0  0  0
 57132  1  0  0  0
 58133  1  0  0  0
 59 60  1  0  0  0
 59 61  1  0  0  0
 59 62  1  0  0  0
 60134  1  0  0  0
 60135  1  0  0  0
 60136  1  0  0  0
 61137  1  0  0  0
 61138  1  0  0  0
 61139  1  0  0  0
 62140  1  0  0  0
 62141  1  0  0  0
 62142  1  0  0  0
 63 65  1  0  0  0
 63143  1  0  0  0
 63144  1  0  0  0
 63145  1  0  0  0
 64146  1  0  0  0
 65147  1  0  0  0
 68 83  1  0  0  0
 71 72  2  0  0  0
 71 73  1  0  0  0
 71148  1  0  0  0
 72 76  1  0  0  0
 72149  1  0  0  0
 73 74  2  0  0  0
 73 86  1  0  0  0
 74 75  1  0  0  0
 74 84  1  0  0  0
 75 76  2  0  0  0
 75 85  1  0  0  0
 76 87  1  0  0  0
 77 78  1  0  0  0
 77 79  1  0  0  0
 77150  1  0  0  0
 77151  1  0  0  0
 78 80  1  0  0  0
 78152  1  0  0  0
 78153  1  0  0  0
 79 81  1  0  0  0
 79154  1  0  0  0
 79155  1  0  0  0
 80 83  1  0  0  0
 80156  1  0  0  0
 80157  1  0  0  0
 81 88  1  0  0  0
 81158  1  0  0  0
 81159  1  0  0  0
 82 83  1  0  0  0
 82 88  1  0  0  0
 82160  1  0  0  0
 82161  1  0  0  0
 83162  1  0  0  0
 84163  1  0  0  0
 84164  1  0  0  0
 84165  1  0  0  0
 85166  1  0  0  0
 85167  1  0  0  0
 85168  1  0  0  0
 86169  1  0  0  0
 86170  1  0  0  0
 86 88  1  0  0  0
 87171  1  0  0  0
 88172  1  0  0  0
M  CHG  1  88   1
M  ISO  4   1 100  68 101  83 101  87 100
M  END
> <chiral flag>
0

> <version>
0

> <s_m_source_file>
/data/baiqing/PycharmProjects/Reinvent-master-3.2/result/LINK_invent/BTK/process_docking_weight1_custom_product_contain_oxygen_bond_distance_aromatic_linkinvent_7_9_3/rearranged_h_0036.sdf

> <i_m_source_file_index>
71

> <r_mmod_Potential_Energy-OPLS-2005>
66.2063980102539

> <r_mmod_Stretch_Energy-OPLS-2005>
97.5144195556641

> <r_mmod_Bend_Energy-OPLS-2005>
156.977844238281

> <r_mmod_Torsional_Energy-OPLS-2005>
276.016693115234

> <r_mmod_Improper_Torsional_Energy-OPLS-2005>
5.25623273849487

> <r_mmod_Van_der_Waal_Energy-OPLS-2005>
163.033187866211

> <r_mmod_Electrostatic_Energy-OPLS-2005>
-275.359161376953

> <r_mmod_Solvation_Energy-OPLS-2005>
-410.287719726562

> <b_mmod_Minimization_Converged-OPLS-2005>
0

> <r_mmod_RMS_Derivative-OPLS-2005>
4.46719980239868

$$$$
71
                    3D
 Structure written by MMmdl.
179188  0  0  1  0            999 V2000
  -30.6969  -14.6143   20.5717 C   0  0  0  0  0  0
  -30.4229  -12.3949   19.4513 C   0  0  0  0  0  0
  -29.5042  -12.5351   18.2208 C   0  0  0  0  0  0
  -28.0278  -12.3788   18.6307 C   0  0  0  0  0  0
  -27.6575  -13.2307   19.8757 C   0  0  2  0  0  0
  -28.7078  -13.0680   21.0036 C   0  0  0  0  0  0
  -25.2390  -13.8085   20.5496 C   0  0  0  0  0  0
  -24.1752  -13.0330   20.9134 C   0  0  0  0  0  0
  -24.6404  -11.6833   20.8704 C   0  0  0  0  0  0
  -23.9080  -10.4217   21.0382 C   0  0  0  0  0  0
  -24.3622   -9.4139   21.9174 C   0  0  0  0  0  0
  -23.6267   -8.2197   22.0782 C   0  0  0  0  0  0
  -22.4249   -8.0230   21.3569 C   0  0  0  0  0  0
  -21.9869   -9.0198   20.4671 C   0  0  0  0  0  0
  -22.7231  -10.2059   20.3042 C   0  0  0  0  0  0
  -21.6848   -6.0667   22.5275 C   0  0  0  0  0  0
  -21.4018   -6.5591   23.8201 C   0  0  0  0  0  0
  -21.3665   -5.6758   24.9171 C   0  0  0  0  0  0
  -21.6036   -4.3021   24.7227 C   0  0  0  0  0  0
  -21.8827   -3.8098   23.4357 C   0  0  0  0  0  0
  -21.9204   -4.6900   22.3402 C   0  0  0  0  0  0
  -22.7771  -13.5140   21.1759 C   0  0  0  0  0  0
  -22.1693   -4.2089   21.0984 F   0  0  0  0  0  0
  -21.5614   -3.4519   25.7753 F   0  0  0  0  0  0
  -30.0226  -13.4190   20.4481 N   0  0  0  0  0  0
  -26.2991  -12.9397   20.3341 N   0  0  0  0  0  0
  -25.9376  -11.6526   20.5795 N   0  0  0  0  0  0
  -22.0449  -12.8230   22.0408 N   0  0  0  0  0  0
  -25.3641  -15.1764   20.3535 N   0  0  0  0  0  0
  -31.7837  -14.7649   20.0009 O   0  0  0  0  0  0
  -21.6633   -6.8809   21.4244 O   0  0  0  0  0  0
  -22.3454  -14.5420   20.6559 O   0  0  0  0  0  0
  -24.6242  -31.8616   23.1995 C   0  0  0  0  0  0
  -25.9099  -32.4786   23.8341 C   0  0  1  0  0  0
  -27.2277  -27.3105   20.1395 C   0  0  0  0  0  0
  -25.5902  -33.8578   24.2260 N   0  0  0  0  0  0
  -23.4188  -30.4820   21.5398 C   0  0  2  0  0  0
  -24.8697  -28.9270   20.1185 C   0  0  0  0  0  0
  -22.7462  -29.4646   22.4894 C   0  0  0  0  0  0
  -18.0302  -28.1387   22.8504 C   0  0  0  0  0  0
  -24.1478  -36.7295   23.2642 C   0  0  0  0  0  0
  -25.9570  -30.7904   21.3702 C   0  0  0  0  0  0
  -26.0352  -29.4121   20.7228 C   0  0  0  0  0  0
  -27.2217  -28.6159   20.7206 C   0  0  0  0  0  0
  -26.0429  -26.8762   19.5148 C   0  0  0  0  0  0
  -24.8747  -27.6634   19.5025 C   0  0  0  0  0  0
  -23.6387  -29.8116   20.1573 C   0  0  0  0  0  0
  -25.4101  -36.3074   24.0339 C   0  0  1  0  0  0
  -20.5895  -28.3715   23.1277 C   0  0  2  0  0  0
  -20.6771  -26.9440   22.5395 C   0  0  0  0  0  0
  -19.5743  -26.6396   21.5198 C   0  0  0  0  0  0
  -18.1940  -26.7939   22.1624 C   0  0  0  0  0  0
  -19.1548  -28.8870   23.2893 C   0  0  0  0  0  0
  -18.9473  -30.1466   23.8902 C   0  0  0  0  0  0
  -17.6469  -30.6589   24.0590 C   0  0  0  0  0  0
  -25.9035  -34.9453   23.5107 C   0  0  0  0  0  0
  -16.5363  -29.9096   23.6350 C   0  0  0  0  0  0
  -16.7294  -28.6517   23.0377 C   0  0  0  0  0  0
  -26.4480  -31.6592   25.0713 C   0  0  0  0  0  0
  -25.3731  -31.3745   26.1462 C   0  0  0  0  0  0
  -27.0340  -30.3025   24.6150 C   0  0  0  0  0  0
  -27.6018  -32.4333   25.7489 C   0  0  0  0  0  0
  -27.5571  -37.1804   24.8467 C   0  0  0  0  0  0
  -21.4173  -29.3066   22.3668 N   0  0  0  0  0  0
  -26.4267  -37.3776   23.9424 N   0  0  0  0  0  0
  -24.6854  -31.0623   22.0939 N   0  0  0  0  0  0
  -23.4206  -28.8202   23.2990 O   0  0  0  0  0  0
  -28.3505  -26.4656   20.1328 O   0  0  0  0  0  0
  -26.5615  -34.8939   22.4661 O   0  0  0  0  0  0
  -23.5417  -32.1405   23.7329 O   0  0  0  0  0  0
  -30.8105  -17.8678   20.4799 C   0  0  0  0  0  0
  -30.5304  -19.2412   20.2043 C   0  0  0  0  0  0
  -28.2626  -18.9108   20.9704 C   0  0  0  0  0  0
  -29.2401  -19.8173   20.4361 C   0  0  0  0  0  0
  -28.5763  -17.5348   21.2851 C   0  0  0  0  0  0
  -29.8553  -16.9626   21.0106 C   0  0  0  0  0  0
  -30.4753  -17.2478   24.4785 C   0  0  0  0  0  0
  -30.2741  -16.0607   23.8881 C   0  0  0  0  0  0
  -28.5296  -25.2540   22.1937 C   0  0  0  0  0  0
  -29.0846  -23.9792   22.8502 C   0  0  0  0  0  0
  -29.0961  -23.9067   20.0644 C   0  0  0  0  0  0
  -28.2207  -25.0936   20.6978 C   0  0  2  0  0  0
  -28.6057  -22.6593   22.1974 C   0  0  2  0  0  0
  -31.6781  -20.0576   19.6281 C   0  0  0  0  0  0
  -26.8334  -19.3999   21.2210 C   0  0  0  0  0  0
  -27.5605  -16.6681   22.0186 C   0  0  0  0  0  0
  -29.0314  -21.5074   23.1316 C   0  0  0  0  0  0
  -28.8805  -21.3112   19.9789 C   0  0  0  0  0  0
  -31.0452  -15.5856   22.6750 C   0  0  0  0  0  0
  -30.2431  -15.5942   21.4324 N   0  0  0  0  0  0
  -29.1822  -22.5616   20.8157 N   0  3  1  0  0  0
  -31.4684  -12.4843   19.1519 H   0  0  0  0  0  0
  -30.3329  -11.3927   19.8751 H   0  0  0  0  0  0
  -29.7612  -11.7921   17.4638 H   0  0  0  0  0  0
  -29.6589  -13.5100   17.7547 H   0  0  0  0  0  0
  -27.8581  -11.3215   18.8374 H   0  0  0  0  0  0
  -27.3795  -12.6366   17.7937 H   0  0  0  0  0  0
  -27.6794  -14.2737   19.5565 H   0  0  0  0  0  0
  -28.7220  -12.0352   21.3608 H   0  0  0  0  0  0
  -28.4694  -13.6683   21.8782 H   0  0  0  0  0  0
  -25.2773   -9.5583   22.4745 H   0  0  0  0  0  0
  -23.9946   -7.4578   22.7513 H   0  0  0  0  0  0
  -21.0779   -8.8684   19.8995 H   0  0  0  0  0  0
  -22.3676  -10.9566   19.6124 H   0  0  0  0  0  0
  -21.2044   -7.6107   23.9683 H   0  0  0  0  0  0
  -21.1477   -6.0501   25.9068 H   0  0  0  0  0  0
  -22.0608   -2.7563   23.2874 H   0  0  0  0  0  0
  -22.4136  -12.0007   22.4943 H   0  0  0  0  0  0
  -21.1024  -13.1211   22.2475 H   0  0  0  0  0  0
  -24.5608  -15.7839   20.4609 H   0  0  0  0  0  0
  -26.1877  -15.6595   20.0231 H   0  0  0  0  0  0
  -26.7171  -32.5493   23.1103 H   0  0  0  0  0  0
  -25.0029  -33.9673   25.0400 H   0  0  0  0  0  0
  -22.7112  -31.3011   21.3923 H   0  0  0  0  0  0
  -23.3719  -35.9644   23.3296 H   0  0  0  0  0  0
  -24.3563  -36.8928   22.2051 H   0  0  0  0  0  0
  -23.7242  -37.6500   23.6675 H   0  0  0  0  0  0
  -26.0765  -31.5458   20.5929 H   0  0  0  0  0  0
  -26.8365  -30.8516   21.9978 H   0  0  0  0  0  0
  -28.1166  -28.9829   21.1986 H   0  0  0  0  0  0
  -26.0092  -25.9118   19.0285 H   0  0  0  0  0  0
  -23.9878  -27.2805   19.0197 H   0  0  0  0  0  0
  -23.7636  -30.5820   19.3934 H   0  0  0  0  0  0
  -22.7601  -29.2427   19.8528 H   0  0  0  0  0  0
  -25.1272  -36.1920   25.0830 H   0  0  0  0  0  0
  -21.0016  -28.3283   24.1389 H   0  0  0  0  0  0
  -20.5654  -26.2326   23.3592 H   0  0  0  0  0  0
  -21.6659  -26.7453   22.1218 H   0  0  0  0  0  0
  -19.6902  -25.6310   21.1247 H   0  0  0  0  0  0
  -19.6671  -27.3187   20.6718 H   0  0  0  0  0  0
  -17.4205  -26.6718   21.4030 H   0  0  0  0  0  0
  -18.0352  -26.0038   22.8976 H   0  0  0  0  0  0
  -19.7944  -30.7298   24.2249 H   0  0  0  0  0  0
  -17.5034  -31.6274   24.5187 H   0  0  0  0  0  0
  -15.5373  -30.3018   23.7650 H   0  0  0  0  0  0
  -15.8686  -28.0840   22.7089 H   0  0  0  0  0  0
  -24.5867  -30.7131   25.7822 H   0  0  0  0  0  0
  -24.8972  -32.2928   26.4914 H   0  0  0  0  0  0
  -25.8078  -30.8913   27.0221 H   0  0  0  0  0  0
  -26.2928  -29.6763   24.1178 H   0  0  0  0  0  0
  -27.4052  -29.7290   25.4650 H   0  0  0  0  0  0
  -27.8782  -30.4304   23.9366 H   0  0  0  0  0  0
  -27.2591  -33.3618   26.2052 H   0  0  0  0  0  0
  -28.3836  -32.6918   25.0339 H   0  0  0  0  0  0
  -28.0673  -31.8479   26.5420 H   0  0  0  0  0  0
  -28.2584  -38.0104   24.7504 H   0  0  0  0  0  0
  -28.1060  -36.2636   24.6283 H   0  0  0  0  0  0
  -27.2299  -37.1454   25.8871 H   0  0  0  0  0  0
  -20.9318  -29.8805   21.6898 H   0  0  0  0  0  0
  -26.0150  -38.2846   24.1432 H   0  0  0  0  0  0
  -31.8160  -17.5075   20.3090 H   0  0  0  0  0  0
  -29.9108  -17.5506   25.3475 H   0  0  0  0  0  0
  -31.2101  -17.9423   24.0925 H   0  0  0  0  0  0
  -29.5292  -15.3837   24.2809 H   0  0  0  0  0  0
  -29.2617  -26.0523   22.3277 H   0  0  0  0  0  0
  -27.6309  -25.5832   22.7180 H   0  0  0  0  0  0
  -28.8503  -24.0142   23.9156 H   0  0  0  0  0  0
  -30.1718  -24.0082   22.7861 H   0  0  0  0  0  0
  -30.1205  -24.2710   19.9892 H   0  0  0  0  0  0
  -28.7787  -23.7380   19.0364 H   0  0  0  0  0  0
  -27.1826  -24.7663   20.6269 H   0  0  0  0  0  0
  -27.5171  -22.6762   22.1327 H   0  0  0  0  0  0
  -32.6379  -19.6160   19.8980 H   0  0  0  0  0  0
  -31.6863  -21.0803   20.0010 H   0  0  0  0  0  0
  -31.6387  -20.0724   18.5380 H   0  0  0  0  0  0
  -26.7152  -20.4793   21.2061 H   0  0  0  0  0  0
  -26.4888  -19.1024   22.2099 H   0  0  0  0  0  0
  -26.1533  -18.9774   20.4792 H   0  0  0  0  0  0
  -27.6187  -15.6401   21.6793 H   0  0  0  0  0  0
  -26.5271  -16.9733   21.8803 H   0  0  0  0  0  0
  -27.7636  -16.6880   23.0888 H   0  0  0  0  0  0
  -30.0868  -21.2569   23.0171 H   0  0  0  0  0  0
  -28.4509  -20.6021   22.9744 H   0  0  0  0  0  0
  -28.8726  -21.7697   24.1790 H   0  0  0  0  0  0
  -27.8453  -21.3630   19.6518 H   0  0  0  0  0  0
  -29.4165  -21.4538   19.0403 H   0  0  0  0  0  0
  -31.4337  -14.5912   22.9148 H   0  0  0  0  0  0
  -31.9252  -16.2183   22.5403 H   0  0  0  0  0  0
  -30.1720  -22.4619   20.9849 H   0  0  0  0  0  0
  1 25  1  0  0  0
  1 30  2  0  0  0
  1 90  1  0  0  0
  2  3  1  0  0  0
  2 25  1  0  0  0
  2 92  1  0  0  0
  2 93  1  0  0  0
  3  4  1  0  0  0
  3 94  1  0  0  0
  3 95  1  0  0  0
  4  5  1  0  0  0
  4 96  1  0  0  0
  4 97  1  0  0  0
  5  6  1  0  0  0
  5 26  1  0  0  0
  5 98  1  0  0  0
  6 25  1  0  0  0
  6 99  1  0  0  0
  6100  1  0  0  0
  7  8  2  0  0  0
  7 26  1  0  0  0
  7 29  1  0  0  0
  8  9  1  0  0  0
  8 22  1  0  0  0
  9 10  1  0  0  0
  9 27  2  0  0  0
 10 11  2  0  0  0
 10 15  1  0  0  0
 11 12  1  0  0  0
 11101  1  0  0  0
 12 13  2  0  0  0
 12102  1  0  0  0
 13 14  1  0  0  0
 13 31  1  0  0  0
 14 15  2  0  0  0
 14103  1  0  0  0
 15104  1  0  0  0
 16 17  2  0  0  0
 16 21  1  0  0  0
 16 31  1  0  0  0
 17 18  1  0  0  0
 17105  1  0  0  0
 18 19  2  0  0  0
 18106  1  0  0  0
 19 20  1  0  0  0
 19 24  1  0  0  0
 20 21  2  0  0  0
 20107  1  0  0  0
 21 23  1  0  0  0
 22 28  1  0  0  0
 22 32  2  0  0  0
 26 27  1  0  0  0
 28108  1  0  0  0
 28109  1  0  0  0
 29110  1  0  0  0
 29111  1  0  0  0
 33 34  1  0  0  0
 33 66  1  0  0  0
 33 70  2  0  0  0
 34 36  1  0  0  0
 34 59  1  0  0  0
 34112  1  0  0  0
 35 44  2  0  0  0
 35 45  1  0  0  0
 35 68  1  0  0  0
 36 56  1  0  0  0
 36113  1  0  0  0
 37 39  1  0  0  0
 37 47  1  0  0  0
 37 66  1  0  0  0
 37114  1  0  0  0
 38 43  2  0  0  0
 38 46  1  0  0  0
 38 47  1  0  0  0
 39 64  1  0  0  0
 39 67  2  0  0  0
 40 52  1  0  0  0
 40 53  2  0  0  0
 40 58  1  0  0  0
 41115  1  0  0  0
 41116  1  0  0  0
 41117  1  0  0  0
 41 48  1  0  0  0
 42 43  1  0  0  0
 42 66  1  0  0  0
 42118  1  0  0  0
 42119  1  0  0  0
 43 44  1  0  0  0
 44120  1  0  0  0
 45 46  2  0  0  0
 45121  1  0  0  0
 46122  1  0  0  0
 47123  1  0  0  0
 47124  1  0  0  0
 48 56  1  0  0  0
 48 65  1  0  0  0
 48125  1  0  0  0
 49 50  1  0  0  0
 49 53  1  0  0  0
 49 64  1  0  0  0
 49126  1  0  0  0
 50 51  1  0  0  0
 50127  1  0  0  0
 50128  1  0  0  0
 51 52  1  0  0  0
 51129  1  0  0  0
 51130  1  0  0  0
 52131  1  0  0  0
 52132  1  0  0  0
 53 54  1  0  0  0
 54 55  2  0  0  0
 54133  1  0  0  0
 55 57  1  0  0  0
 55134  1  0  0  0
 56 69  2  0  0  0
 57 58  2  0  0  0
 57135  1  0  0  0
 58136  1  0  0  0
 59 60  1  0  0  0
 59 61  1  0  0  0
 59 62  1  0  0  0
 60137  1  0  0  0
 60138  1  0  0  0
 60139  1  0  0  0
 61140  1  0  0  0
 61141  1  0  0  0
 61142  1  0  0  0
 62143  1  0  0  0
 62144  1  0  0  0
 62145  1  0  0  0
 63 65  1  0  0  0
 63146  1  0  0  0
 63147  1  0  0  0
 63148  1  0  0  0
 64149  1  0  0  0
 65150  1  0  0  0
 68 82  1  0  0  0
 71 72  2  0  0  0
 71 76  1  0  0  0
 71151  1  0  0  0
 72 74  1  0  0  0
 72 84  1  0  0  0
 73 74  2  0  0  0
 73 75  1  0  0  0
 73 85  1  0  0  0
 74 88  1  0  0  0
 75 76  2  0  0  0
 75 86  1  0  0  0
 76 90  1  0  0  0
 77 78  2  0  0  0
 77152  1  0  0  0
 77153  1  0  0  0
 78 89  1  0  0  0
 78154  1  0  0  0
 79 80  1  0  0  0
 79 82  1  0  0  0
 79155  1  0  0  0
 79156  1  0  0  0
 80 83  1  0  0  0
 80157  1  0  0  0
 80158  1  0  0  0
 81 82  1  0  0  0
 81 91  1  0  0  0
 81159  1  0  0  0
 81160  1  0  0  0
 82161  1  0  0  0
 83 87  1  0  0  0
 83 91  1  0  0  0
 83162  1  0  0  0
 84163  1  0  0  0
 84164  1  0  0  0
 84165  1  0  0  0
 85166  1  0  0  0
 85167  1  0  0  0
 85168  1  0  0  0
 86169  1  0  0  0
 86170  1  0  0  0
 86171  1  0  0  0
 87172  1  0  0  0
 87173  1  0  0  0
 87174  1  0  0  0
 88175  1  0  0  0
 88176  1  0  0  0
 88 91  1  0  0  0
 89 90  1  0  0  0
 89177  1  0  0  0
 89178  1  0  0  0
 91179  1  0  0  0
M  CHG  1  91   1
M  ISO  4   1 100  68 101  82 101  90 100
M  END
> <chiral flag>
0

> <version>
0

> <s_m_source_file>
/data/baiqing/PycharmProjects/Reinvent-master-3.2/result/LINK_invent/BTK/process_docking_weight1_custom_product_contain_oxygen_bond_distance_aromatic_linkinvent_7_9_3/rearranged_h_0036.sdf

> <i_m_source_file_index>
72

> <r_mmod_Potential_Energy-OPLS-2005>
290.366394042969

> <r_mmod_Stretch_Energy-OPLS-2005>
111.397834777832

> <r_mmod_Bend_Energy-OPLS-2005>
185.213531494141

> <r_mmod_Torsional_Energy-OPLS-2005>
367.393280029297

> <r_mmod_Improper_Torsional_Energy-OPLS-2005>
8.43735885620117

> <r_mmod_Van_der_Waal_Energy-OPLS-2005>
153.140686035156

> <r_mmod_Electrostatic_Energy-OPLS-2005>
-193.220001220703

> <r_mmod_Solvation_Energy-OPLS-2005>
-385.481597900391

> <b_mmod_Minimization_Converged-OPLS-2005>
0

> <r_mmod_RMS_Derivative-OPLS-2005>
5.11002445220947

$$$$
72
                    3D
 Structure written by MMmdl.
162170  0  0  1  0            999 V2000
  -30.7439  -14.5439   20.5459 C   0  0  0  0  0  0
  -30.4162  -12.3493   19.4578 C   0  0  0  0  0  0
  -29.4969  -12.4865   18.2277 C   0  0  0  0  0  0
  -28.0215  -12.3324   18.6411 C   0  0  0  0  0  0
  -27.6464  -13.2222   19.8538 C   0  0  2  0  0  0
  -28.6918  -13.1086   20.9892 C   0  0  0  0  0  0
  -25.2484  -13.8163   20.5690 C   0  0  0  0  0  0
  -24.1769  -13.0430   20.9239 C   0  0  0  0  0  0
  -24.6341  -11.6915   20.8769 C   0  0  0  0  0  0
  -23.9019  -10.4283   21.0413 C   0  0  0  0  0  0
  -24.3568   -9.4206   21.9194 C   0  0  0  0  0  0
  -23.6274   -8.2225   22.0731 C   0  0  0  0  0  0
  -22.4257   -8.0250   21.3522 C   0  0  0  0  0  0
  -21.9879   -9.0225   20.4627 C   0  0  0  0  0  0
  -22.7191  -10.2123   20.3062 C   0  0  0  0  0  0
  -21.6846   -6.0710   22.5297 C   0  0  0  0  0  0
  -21.3989   -6.5615   23.8234 C   0  0  0  0  0  0
  -21.3660   -5.6769   24.9202 C   0  0  0  0  0  0
  -21.6052   -4.3037   24.7263 C   0  0  0  0  0  0
  -21.8806   -3.8122   23.4378 C   0  0  0  0  0  0
  -21.9185   -4.6931   22.3434 C   0  0  0  0  0  0
  -22.7794  -13.5240   21.1881 C   0  0  0  0  0  0
  -22.1664   -4.2113   21.1014 F   0  0  0  0  0  0
  -21.5646   -3.4522   25.7773 F   0  0  0  0  0  0
  -30.0229  -13.3897   20.4258 N   0  0  0  0  0  0
  -26.2934  -12.9381   20.3315 N   0  0  0  0  0  0
  -25.9271  -11.6529   20.5764 N   0  0  0  0  0  0
  -22.0430  -12.8264   22.0439 N   0  0  0  0  0  0
  -25.4089  -15.1872   20.4053 N   0  0  0  0  0  0
  -31.8890  -14.6367   20.1005 O   0  0  0  0  0  0
  -21.6629   -6.8853   21.4258 O   0  0  0  0  0  0
  -22.3495  -14.5535   20.6685 O   0  0  0  0  0  0
  -24.6165  -31.8648   23.2073 C   0  0  0  0  0  0
  -25.9070  -32.4805   23.8352 C   0  0  1  0  0  0
  -27.2417  -27.4190   20.1078 C   0  0  0  0  0  0
  -25.5938  -33.8608   24.2295 N   0  0  0  0  0  0
  -23.4063  -30.4853   21.5480 C   0  0  2  0  0  0
  -24.8570  -28.9438   20.1179 C   0  0  0  0  0  0
  -22.7409  -29.4650   22.4999 C   0  0  0  0  0  0
  -18.0292  -28.1352   22.8459 C   0  0  0  0  0  0
  -24.1496  -36.7299   23.2628 C   0  0  0  0  0  0
  -25.9357  -30.8271   21.3615 C   0  0  0  0  0  0
  -26.0166  -29.4587   20.7116 C   0  0  0  0  0  0
  -27.2150  -28.7054   20.6995 C   0  0  0  0  0  0
  -26.0685  -26.9194   19.5077 C   0  0  0  0  0  0
  -24.8780  -27.6726   19.5142 C   0  0  0  0  0  0
  -23.6157  -29.8099   20.1666 C   0  0  0  0  0  0
  -25.4122  -36.3097   24.0319 C   0  0  1  0  0  0
  -20.5874  -28.3666   23.1321 C   0  0  2  0  0  0
  -20.6818  -26.9411   22.5417 C   0  0  0  0  0  0
  -19.5833  -26.6417   21.5166 C   0  0  0  0  0  0
  -18.1998  -26.7902   22.1562 C   0  0  0  0  0  0
  -19.1529  -28.8823   23.2879 C   0  0  0  0  0  0
  -18.9436  -30.1413   23.8908 C   0  0  0  0  0  0
  -17.6443  -30.6546   24.0547 C   0  0  0  0  0  0
  -25.9051  -34.9469   23.5101 C   0  0  0  0  0  0
  -16.5333  -29.9048   23.6299 C   0  0  0  0  0  0
  -16.7277  -28.6460   23.0323 C   0  0  0  0  0  0
  -26.4502  -31.6605   25.0692 C   0  0  0  0  0  0
  -25.3765  -31.3763   26.1441 C   0  0  0  0  0  0
  -27.0336  -30.3037   24.6114 C   0  0  0  0  0  0
  -27.6074  -32.4322   25.7463 C   0  0  0  0  0  0
  -27.5591  -37.1802   24.8462 C   0  0  0  0  0  0
  -21.4131  -29.3047   22.3735 N   0  0  0  0  0  0
  -26.4309  -37.3782   23.9398 N   0  0  0  0  0  0
  -24.6708  -31.0731   22.0973 N   0  0  0  0  0  0
  -23.4174  -28.8189   23.3038 O   0  0  0  0  0  0
  -28.3866  -26.6465   20.0940 O   0  0  0  0  0  0
  -26.5590  -34.8923   22.4655 O   0  0  0  0  0  0
  -23.5368  -32.1405   23.7480 O   0  0  0  0  0  0
  -27.9949  -19.6838   20.5311 C   0  0  0  0  0  0
  -30.4934  -19.4456   21.7222 C   0  0  0  0  0  0
  -28.5009  -20.8011   21.2404 C   0  0  0  0  0  0
  -28.7043  -18.4602   20.4254 C   0  0  0  0  0  0
  -29.8057  -20.6902   21.7957 C   0  0  0  0  0  0
  -29.9468  -18.2984   21.0902 C   0  0  0  0  0  0
  -27.5367  -21.8896   21.5662 C   0  0  0  0  0  0
  -28.0996  -17.3496   19.5915 C   0  0  0  0  0  0
  -30.4793  -21.8515   22.5166 C   0  0  0  0  0  0
  -30.7823  -16.9880   21.0935 C   0  0  0  0  0  0
  -28.4412  -24.1115   20.4826 C   0  0  0  0  0  0
  -28.4115  -25.5698   21.0549 C   0  0  0  0  0  0
  -26.4736  -21.4972   22.2629 N   0  0  0  0  0  0
  -30.1286  -15.6467   21.0389 N   0  0  0  0  0  0
  -27.5676  -23.2158   21.2826 N   0  3  0  0  0  0
  -31.4625  -12.4229   19.1564 H   0  0  0  0  0  0
  -30.3178  -11.3647   19.9171 H   0  0  0  0  0  0
  -29.7565  -11.7348   17.4824 H   0  0  0  0  0  0
  -29.6469  -13.4585   17.7564 H   0  0  0  0  0  0
  -27.8623  -11.2827   18.8938 H   0  0  0  0  0  0
  -27.3645  -12.5415   17.7965 H   0  0  0  0  0  0
  -27.6534  -14.2490   19.4909 H   0  0  0  0  0  0
  -28.6800  -12.1054   21.4164 H   0  0  0  0  0  0
  -28.4445  -13.7892   21.8048 H   0  0  0  0  0  0
  -25.2667   -9.5707   22.4818 H   0  0  0  0  0  0
  -24.0001   -7.4613   22.7418 H   0  0  0  0  0  0
  -21.0828   -8.8732   19.8922 H   0  0  0  0  0  0
  -22.3624  -10.9683   19.6202 H   0  0  0  0  0  0
  -21.1947   -7.6106   23.9740 H   0  0  0  0  0  0
  -21.1515   -6.0497   25.9112 H   0  0  0  0  0  0
  -22.0574   -2.7578   23.2924 H   0  0  0  0  0  0
  -22.4017  -11.9935   22.4858 H   0  0  0  0  0  0
  -21.1017  -13.1292   22.2577 H   0  0  0  0  0  0
  -24.6300  -15.8301   20.4943 H   0  0  0  0  0  0
  -26.2407  -15.6248   20.0339 H   0  0  0  0  0  0
  -26.7140  -32.5517   23.1105 H   0  0  0  0  0  0
  -25.0155  -33.9762   25.0487 H   0  0  0  0  0  0
  -22.6952  -31.3013   21.4043 H   0  0  0  0  0  0
  -23.3744  -35.9648   23.3301 H   0  0  0  0  0  0
  -24.3590  -36.8902   22.2043 H   0  0  0  0  0  0
  -23.7261  -37.6509   23.6637 H   0  0  0  0  0  0
  -26.0504  -31.5961   20.5956 H   0  0  0  0  0  0
  -26.8213  -30.8794   21.9848 H   0  0  0  0  0  0
  -28.1123  -29.1022   21.1529 H   0  0  0  0  0  0
  -26.0774  -25.9460   19.0388 H   0  0  0  0  0  0
  -23.9875  -27.2698   19.0521 H   0  0  0  0  0  0
  -23.7230  -30.5776   19.4008 H   0  0  0  0  0  0
  -22.7404  -29.2275   19.8728 H   0  0  0  0  0  0
  -25.1301  -36.1958   25.0808 H   0  0  0  0  0  0
  -20.9963  -28.3262   24.1441 H   0  0  0  0  0  0
  -20.5718  -26.2264   23.3595 H   0  0  0  0  0  0
  -21.6712  -26.7499   22.1244 H   0  0  0  0  0  0
  -19.7020  -25.6371   21.1112 H   0  0  0  0  0  0
  -19.6764  -27.3279   20.6736 H   0  0  0  0  0  0
  -17.4291  -26.6646   21.3945 H   0  0  0  0  0  0
  -18.0450  -26.0012   22.8941 H   0  0  0  0  0  0
  -19.7902  -30.7215   24.2313 H   0  0  0  0  0  0
  -17.5001  -31.6230   24.5133 H   0  0  0  0  0  0
  -15.5347  -30.2948   23.7611 H   0  0  0  0  0  0
  -15.8672  -28.0779   22.7026 H   0  0  0  0  0  0
  -24.5906  -30.7144   25.7789 H   0  0  0  0  0  0
  -24.8999  -32.2953   26.4868 H   0  0  0  0  0  0
  -25.8106  -30.8941   27.0203 H   0  0  0  0  0  0
  -26.2896  -29.6766   24.1193 H   0  0  0  0  0  0
  -27.4099  -29.7323   25.4605 H   0  0  0  0  0  0
  -27.8723  -30.4303   23.9264 H   0  0  0  0  0  0
  -27.2677  -33.3583   26.2099 H   0  0  0  0  0  0
  -28.3862  -32.6943   25.0291 H   0  0  0  0  0  0
  -28.0762  -31.8411   26.5335 H   0  0  0  0  0  0
  -28.2618  -38.0088   24.7497 H   0  0  0  0  0  0
  -28.1068  -36.2621   24.6298 H   0  0  0  0  0  0
  -27.2297  -37.1463   25.8859 H   0  0  0  0  0  0
  -20.9302  -29.8788   21.6969 H   0  0  0  0  0  0
  -26.0188  -38.2854   24.1392 H   0  0  0  0  0  0
  -27.0132  -19.7572   20.0837 H   0  0  0  0  0  0
  -31.4674  -19.3630   22.1858 H   0  0  0  0  0  0
  -27.2799  -17.7149   18.9737 H   0  0  0  0  0  0
  -27.7200  -16.5673   20.2436 H   0  0  0  0  0  0
  -28.8462  -16.9184   18.9238 H   0  0  0  0  0  0
  -31.2904  -21.5070   23.1617 H   0  0  0  0  0  0
  -29.7855  -22.4131   23.1416 H   0  0  0  0  0  0
  -30.9141  -22.5370   21.7904 H   0  0  0  0  0  0
  -31.4114  -16.9926   21.9865 H   0  0  0  0  0  0
  -31.4666  -17.0910   20.2500 H   0  0  0  0  0  0
  -29.4615  -23.7342   20.4376 H   0  0  0  0  0  0
  -28.0674  -24.1223   19.4589 H   0  0  0  0  0  0
  -29.3114  -25.7131   21.6522 H   0  0  0  0  0  0
  -27.5906  -25.6833   21.7666 H   0  0  0  0  0  0
  -26.4284  -20.5258   22.5357 H   0  0  0  0  0  0
  -25.7380  -22.1047   22.5819 H   0  0  0  0  0  0
  -29.1891  -15.5583   21.3930 H   0  0  0  0  0  0
  -26.7739  -23.7345   21.6285 H   0  0  0  0  0  0
  1 25  1  0  0  0
  1 30  2  0  0  0
  1 84  1  0  0  0
  2  3  1  0  0  0
  2 25  1  0  0  0
  2 86  1  0  0  0
  2 87  1  0  0  0
  3  4  1  0  0  0
  3 88  1  0  0  0
  3 89  1  0  0  0
  4  5  1  0  0  0
  4 90  1  0  0  0
  4 91  1  0  0  0
  5  6  1  0  0  0
  5 26  1  0  0  0
  5 92  1  0  0  0
  6 25  1  0  0  0
  6 93  1  0  0  0
  6 94  1  0  0  0
  7  8  2  0  0  0
  7 26  1  0  0  0
  7 29  1  0  0  0
  8  9  1  0  0  0
  8 22  1  0  0  0
  9 10  1  0  0  0
  9 27  2  0  0  0
 10 11  2  0  0  0
 10 15  1  0  0  0
 11 12  1  0  0  0
 11 95  1  0  0  0
 12 13  2  0  0  0
 12 96  1  0  0  0
 13 14  1  0  0  0
 13 31  1  0  0  0
 14 15  2  0  0  0
 14 97  1  0  0  0
 15 98  1  0  0  0
 16 17  2  0  0  0
 16 21  1  0  0  0
 16 31  1  0  0  0
 17 18  1  0  0  0
 17 99  1  0  0  0
 18 19  2  0  0  0
 18100  1  0  0  0
 19 20  1  0  0  0
 19 24  1  0  0  0
 20 21  2  0  0  0
 20101  1  0  0  0
 21 23  1  0  0  0
 22 28  1  0  0  0
 22 32  2  0  0  0
 26 27  1  0  0  0
 28102  1  0  0  0
 28103  1  0  0  0
 29104  1  0  0  0
 29105  1  0  0  0
 33 34  1  0  0  0
 33 66  1  0  0  0
 33 70  2  0  0  0
 34 36  1  0  0  0
 34 59  1  0  0  0
 34106  1  0  0  0
 35 44  2  0  0  0
 35 45  1  0  0  0
 35 68  1  0  0  0
 36 56  1  0  0  0
 36107  1  0  0  0
 37 39  1  0  0  0
 37 47  1  0  0  0
 37 66  1  0  0  0
 37108  1  0  0  0
 38 43  2  0  0  0
 38 46  1  0  0  0
 38 47  1  0  0  0
 39 64  1  0  0  0
 39 67  2  0  0  0
 40 52  1  0  0  0
 40 53  2  0  0  0
 40 58  1  0  0  0
 41109  1  0  0  0
 41110  1  0  0  0
 41111  1  0  0  0
 41 48  1  0  0  0
 42 43  1  0  0  0
 42 66  1  0  0  0
 42112  1  0  0  0
 42113  1  0  0  0
 43 44  1  0  0  0
 44114  1  0  0  0
 45 46  2  0  0  0
 45115  1  0  0  0
 46116  1  0  0  0
 47117  1  0  0  0
 47118  1  0  0  0
 48 56  1  0  0  0
 48 65  1  0  0  0
 48119  1  0  0  0
 49 50  1  0  0  0
 49 53  1  0  0  0
 49 64  1  0  0  0
 49120  1  0  0  0
 50 51  1  0  0  0
 50121  1  0  0  0
 50122  1  0  0  0
 51 52  1  0  0  0
 51123  1  0  0  0
 51124  1  0  0  0
 52125  1  0  0  0
 52126  1  0  0  0
 53 54  1  0  0  0
 54 55  2  0  0  0
 54127  1  0  0  0
 55 57  1  0  0  0
 55128  1  0  0  0
 56 69  2  0  0  0
 57 58  2  0  0  0
 57129  1  0  0  0
 58130  1  0  0  0
 59 60  1  0  0  0
 59 61  1  0  0  0
 59 62  1  0  0  0
 60131  1  0  0  0
 60132  1  0  0  0
 60133  1  0  0  0
 61134  1  0  0  0
 61135  1  0  0  0
 61136  1  0  0  0
 62137  1  0  0  0
 62138  1  0  0  0
 62139  1  0  0  0
 63 65  1  0  0  0
 63140  1  0  0  0
 63141  1  0  0  0
 63142  1  0  0  0
 64143  1  0  0  0
 65144  1  0  0  0
 68 82  1  0  0  0
 71 73  2  0  0  0
 71 74  1  0  0  0
 71145  1  0  0  0
 72 75  2  0  0  0
 72 76  1  0  0  0
 72146  1  0  0  0
 73 75  1  0  0  0
 73 77  1  0  0  0
 74 76  2  0  0  0
 74 78  1  0  0  0
 75 79  1  0  0  0
 76 80  1  0  0  0
 77 83  1  0  0  0
 77 85  2  0  0  0
 78147  1  0  0  0
 78148  1  0  0  0
 78149  1  0  0  0
 79150  1  0  0  0
 79151  1  0  0  0
 79152  1  0  0  0
 80 84  1  0  0  0
 80153  1  0  0  0
 80154  1  0  0  0
 81 82  1  0  0  0
 81 85  1  0  0  0
 81155  1  0  0  0
 81156  1  0  0  0
 82157  1  0  0  0
 82158  1  0  0  0
 83159  1  0  0  0
 83160  1  0  0  0
 84161  1  0  0  0
 85162  1  0  0  0
M  CHG  1  85   1
M  ISO  4   1 100  68 101  82 101  84 100
M  END
> <chiral flag>
0

> <version>
0

> <s_m_source_file>
/data/baiqing/PycharmProjects/Reinvent-master-3.2/result/LINK_invent/BTK/process_docking_weight1_custom_product_contain_oxygen_bond_distance_aromatic_linkinvent_7_9_3/rearranged_h_0036.sdf

> <i_m_source_file_index>
73

> <r_mmod_Potential_Energy-OPLS-2005>
-200.299453735352

> <r_mmod_Stretch_Energy-OPLS-2005>
48.6886672973633

> <r_mmod_Bend_Energy-OPLS-2005>
139.363922119141

> <r_mmod_Torsional_Energy-OPLS-2005>
243.094085693359

> <r_mmod_Improper_Torsional_Energy-OPLS-2005>
4.97010850906372

> <r_mmod_Van_der_Waal_Energy-OPLS-2005>
144.503890991211

> <r_mmod_Electrostatic_Energy-OPLS-2005>
-401.126098632812

> <r_mmod_Solvation_Energy-OPLS-2005>
-403.865264892578

> <b_mmod_Minimization_Converged-OPLS-2005>
0

> <r_mmod_RMS_Derivative-OPLS-2005>
3.51647615432739

$$$$
73
                    3D
 Structure written by MMmdl.
169178  0  0  1  0            999 V2000
  -30.5768  -14.7586   20.4071 C   0  0  0  0  0  0
  -30.4480  -12.4305   19.5063 C   0  0  0  0  0  0
  -29.5349  -12.4004   18.2598 C   0  0  0  0  0  0
  -28.0402  -12.3264   18.6461 C   0  0  0  0  0  0
  -27.6452  -13.2274   19.8528 C   0  0  2  0  0  0
  -28.6872  -13.1567   20.9872 C   0  0  0  0  0  0
  -25.2510  -13.8227   20.5715 C   0  0  0  0  0  0
  -24.1791  -13.0461   20.9181 C   0  0  0  0  0  0
  -24.6371  -11.6943   20.8719 C   0  0  0  0  0  0
  -23.9047  -10.4318   21.0390 C   0  0  0  0  0  0
  -24.3592   -9.4252   21.9190 C   0  0  0  0  0  0
  -23.6288   -8.2275   22.0759 C   0  0  0  0  0  0
  -22.4265   -8.0307   21.3568 C   0  0  0  0  0  0
  -21.9899   -9.0266   20.4661 C   0  0  0  0  0  0
  -22.7196  -10.2160   20.3069 C   0  0  0  0  0  0
  -21.6852   -6.0739   22.5274 C   0  0  0  0  0  0
  -21.3997   -6.5639   23.8211 C   0  0  0  0  0  0
  -21.3668   -5.6789   24.9173 C   0  0  0  0  0  0
  -21.6068   -4.3058   24.7232 C   0  0  0  0  0  0
  -21.8797   -3.8157   23.4350 C   0  0  0  0  0  0
  -21.9178   -4.6971   22.3395 C   0  0  0  0  0  0
  -22.7801  -13.5231   21.1868 C   0  0  0  0  0  0
  -22.1611   -4.2150   21.0978 F   0  0  0  0  0  0
  -21.5681   -3.4545   25.7759 F   0  0  0  0  0  0
  -29.9853  -13.5138   20.4034 N   0  0  0  0  0  0
  -26.2949  -12.9410   20.3307 N   0  0  0  0  0  0
  -25.9309  -11.6557   20.5762 N   0  0  0  0  0  0
  -22.0462  -12.8202   22.0434 N   0  0  0  0  0  0
  -25.4229  -15.1962   20.4166 N   0  0  0  0  0  0
  -31.7619  -14.8745   20.0795 O   0  0  0  0  0  0
  -21.6660   -6.8884   21.4237 O   0  0  0  0  0  0
  -22.3474  -14.5530   20.6738 O   0  0  0  0  0  0
  -24.6329  -31.8538   23.1969 C   0  0  0  0  0  0
  -25.9159  -32.4757   23.8311 C   0  0  1  0  0  0
  -27.2235  -27.2658   20.1071 C   0  0  0  0  0  0
  -25.5959  -33.8563   24.2235 N   0  0  0  0  0  0
  -23.4282  -30.4772   21.5412 C   0  0  2  0  0  0
  -24.8722  -28.9231   20.1086 C   0  0  0  0  0  0
  -22.7515  -29.4587   22.4919 C   0  0  0  0  0  0
  -18.0307  -28.1403   22.8482 C   0  0  0  0  0  0
  -24.1498  -36.7295   23.2642 C   0  0  0  0  0  0
  -25.9735  -30.7687   21.3726 C   0  0  0  0  0  0
  -26.0435  -29.3909   20.7139 C   0  0  0  0  0  0
  -27.2169  -28.5727   20.7035 C   0  0  0  0  0  0
  -26.0189  -26.8575   19.4875 C   0  0  0  0  0  0
  -24.8650  -27.6652   19.4875 C   0  0  0  0  0  0
  -23.6440  -29.8126   20.1567 C   0  0  0  0  0  0
  -25.4122  -36.3061   24.0318 C   0  0  1  0  0  0
  -20.5912  -28.3708   23.1284 C   0  0  2  0  0  0
  -20.6814  -26.9434   22.5408 C   0  0  0  0  0  0
  -19.5772  -26.6385   21.5229 C   0  0  0  0  0  0
  -18.1947  -26.7943   22.1624 C   0  0  0  0  0  0
  -19.1564  -28.8873   23.2877 C   0  0  0  0  0  0
  -18.9478  -30.1486   23.8878 C   0  0  0  0  0  0
  -17.6471  -30.6598   24.0562 C   0  0  0  0  0  0
  -25.9059  -34.9440   23.5068 C   0  0  0  0  0  0
  -16.5366  -29.9087   23.6344 C   0  0  0  0  0  0
  -16.7291  -28.6523   23.0339 C   0  0  0  0  0  0
  -26.4525  -31.6612   25.0724 C   0  0  0  0  0  0
  -25.3713  -31.3743   26.1419 C   0  0  0  0  0  0
  -27.0405  -30.3048   24.6218 C   0  0  0  0  0  0
  -27.6071  -32.4369   25.7492 C   0  0  0  0  0  0
  -27.5579  -37.1800   24.8461 C   0  0  0  0  0  0
  -21.4222  -29.3051   22.3671 N   0  0  0  0  0  0
  -26.4288  -37.3760   23.9408 N   0  0  0  0  0  0
  -24.6977  -31.0496   22.0949 N   0  0  0  0  0  0
  -23.4228  -28.8125   23.3006 O   0  0  0  0  0  0
  -28.3561  -26.4210   20.1808 O   0  0  0  0  0  0
  -26.5615  -34.8919   22.4629 O   0  0  0  0  0  0
  -23.5481  -32.1373   23.7279 O   0  0  0  0  0  0
  -29.4417  -18.4514   20.5378 C   0  0  0  0  0  0
  -28.9158  -19.6516   19.9010 C   0  0  0  0  0  0
  -28.3540  -19.4599   18.6076 C   0  0  0  0  0  0
  -28.6087  -18.2596   17.8832 C   0  0  0  0  0  0
  -29.2615  -17.1488   18.4964 C   0  0  0  0  0  0
  -29.5718  -17.1576   19.8880 C   0  0  0  0  0  0
  -29.9520  -23.7102   18.0158 C   0  0  0  0  0  0
  -29.7121  -25.0609   18.7261 C   0  0  0  0  0  0
  -30.0904  -22.5349   19.0077 C   0  0  0  0  0  0
  -28.5555  -23.7288   20.5508 C   0  0  0  0  0  0
  -28.4460  -25.0354   19.6025 C   0  0  1  0  0  0
  -27.3970  -20.4948   18.0111 C   0  0  0  0  0  0
  -28.1092  -18.1084   16.4392 C   0  0  0  0  0  0
  -29.5368  -15.9091   17.6557 C   0  0  0  0  0  0
  -28.8295  -21.0748   20.6392 C   0  0  0  0  0  0
  -29.7732  -15.8720   20.6293 N   0  0  0  0  0  0
  -28.8669  -22.3945   19.8375 N   0  3  2  0  0  0
  -31.4908  -12.5581   19.2084 H   0  0  0  0  0  0
  -30.4051  -11.4736   20.0277 H   0  0  0  0  0  0
  -29.7904  -11.5266   17.6584 H   0  0  0  0  0  0
  -29.7425  -13.2507   17.6153 H   0  0  0  0  0  0
  -27.8354  -11.2844   18.8927 H   0  0  0  0  0  0
  -27.4187  -12.5582   17.7810 H   0  0  0  0  0  0
  -27.6364  -14.2535   19.4898 H   0  0  0  0  0  0
  -28.7231  -12.1558   21.4197 H   0  0  0  0  0  0
  -28.4264  -13.8328   21.8033 H   0  0  0  0  0  0
  -25.2743   -9.5736   22.4744 H   0  0  0  0  0  0
  -24.0034   -7.4636   22.7424 H   0  0  0  0  0  0
  -21.0860   -8.8714   19.8944 H   0  0  0  0  0  0
  -22.3621  -10.9666   19.6157 H   0  0  0  0  0  0
  -21.1937   -7.6135   23.9708 H   0  0  0  0  0  0
  -21.1531   -6.0532   25.9074 H   0  0  0  0  0  0
  -22.0581   -2.7626   23.2846 H   0  0  0  0  0  0
  -22.4081  -11.9833   22.4770 H   0  0  0  0  0  0
  -21.1103  -13.1265   22.2744 H   0  0  0  0  0  0
  -24.6537  -15.8514   20.5058 H   0  0  0  0  0  0
  -26.2792  -15.6400   20.1082 H   0  0  0  0  0  0
  -26.7231  -32.5398   23.1053 H   0  0  0  0  0  0
  -25.0153  -33.9701   25.0415 H   0  0  0  0  0  0
  -22.7248  -31.2998   21.3964 H   0  0  0  0  0  0
  -23.3757  -35.9624   23.3256 H   0  0  0  0  0  0
  -24.3596  -36.8975   22.2066 H   0  0  0  0  0  0
  -23.7263  -37.6487   23.6702 H   0  0  0  0  0  0
  -26.1085  -31.5279   20.6010 H   0  0  0  0  0  0
  -26.8533  -30.8174   22.0026 H   0  0  0  0  0  0
  -28.1174  -28.9296   21.1832 H   0  0  0  0  0  0
  -25.9105  -25.8983   19.0119 H   0  0  0  0  0  0
  -23.9637  -27.2994   19.0156 H   0  0  0  0  0  0
  -23.7710  -30.5918   19.4034 H   0  0  0  0  0  0
  -22.7608  -29.2508   19.8489 H   0  0  0  0  0  0
  -25.1308  -36.1879   25.0805 H   0  0  0  0  0  0
  -21.0005  -28.3273   24.1400 H   0  0  0  0  0  0
  -20.5798  -26.2291   23.3601 H   0  0  0  0  0  0
  -21.6667  -26.7504   22.1135 H   0  0  0  0  0  0
  -19.6935  -25.6282   21.1287 H   0  0  0  0  0  0
  -19.6724  -27.3180   20.6747 H   0  0  0  0  0  0
  -17.4229  -26.6737   21.4008 H   0  0  0  0  0  0
  -18.0309  -26.0087   22.9020 H   0  0  0  0  0  0
  -19.7947  -30.7347   24.2214 H   0  0  0  0  0  0
  -17.5008  -31.6276   24.5169 H   0  0  0  0  0  0
  -15.5368  -30.2981   23.7681 H   0  0  0  0  0  0
  -15.8695  -28.0864   22.7015 H   0  0  0  0  0  0
  -24.5879  -30.7142   25.7688 H   0  0  0  0  0  0
  -24.8928  -32.2915   26.4866 H   0  0  0  0  0  0
  -25.7988  -30.8865   27.0192 H   0  0  0  0  0  0
  -26.3008  -29.6772   24.1257 H   0  0  0  0  0  0
  -27.4131  -29.7348   25.4744 H   0  0  0  0  0  0
  -27.8838  -30.4370   23.9435 H   0  0  0  0  0  0
  -27.2689  -33.3688   26.2043 H   0  0  0  0  0  0
  -28.3883  -32.6936   25.0313 H   0  0  0  0  0  0
  -28.0750  -31.8528   26.5437 H   0  0  0  0  0  0
  -28.2554  -38.0134   24.7532 H   0  0  0  0  0  0
  -28.1123  -36.2670   24.6248 H   0  0  0  0  0  0
  -27.2304  -37.1387   25.8864 H   0  0  0  0  0  0
  -20.9410  -29.8773   21.6880 H   0  0  0  0  0  0
  -26.0159  -38.2825   24.1418 H   0  0  0  0  0  0
  -29.7068  -18.5218   21.5833 H   0  0  0  0  0  0
  -30.8565  -23.7768   17.4095 H   0  0  0  0  0  0
  -29.1361  -23.5093   17.3192 H   0  0  0  0  0  0
  -29.6252  -25.8540   17.9819 H   0  0  0  0  0  0
  -30.5764  -25.3091   19.3420 H   0  0  0  0  0  0
  -30.9579  -22.6809   19.6529 H   0  0  0  0  0  0
  -30.2756  -21.6161   18.4491 H   0  0  0  0  0  0
  -27.6298  -23.6226   21.1167 H   0  0  0  0  0  0
  -29.3392  -23.9027   21.2897 H   0  0  0  0  0  0
  -27.6283  -24.8496   18.9123 H   0  0  0  0  0  0
  -26.9255  -21.1221   18.7642 H   0  0  0  0  0  0
  -26.5482  -19.9970   17.5414 H   0  0  0  0  0  0
  -27.8827  -21.1190   17.2601 H   0  0  0  0  0  0
  -27.6100  -18.9751   16.0182 H   0  0  0  0  0  0
  -27.4055  -17.2752   16.3804 H   0  0  0  0  0  0
  -28.9345  -17.9172   15.7544 H   0  0  0  0  0  0
  -29.6010  -16.0888   16.5878 H   0  0  0  0  0  0
  -28.7558  -15.1723   17.8179 H   0  0  0  0  0  0
  -30.5097  -15.4869   17.8904 H   0  0  0  0  0  0
  -29.6296  -21.1176   21.3800 H   0  0  0  0  0  0
  -27.9029  -21.0686   21.2139 H   0  0  0  0  0  0
  -28.9559  -15.6178   21.1612 H   0  0  0  0  0  0
  -28.1140  -22.2702   19.1771 H   0  0  0  0  0  0
  1 25  1  0  0  0
  1 30  2  0  0  0
  1 86  1  0  0  0
  2  3  1  0  0  0
  2 25  1  0  0  0
  2 88  1  0  0  0
  2 89  1  0  0  0
  3  4  1  0  0  0
  3 90  1  0  0  0
  3 91  1  0  0  0
  4  5  1  0  0  0
  4 92  1  0  0  0
  4 93  1  0  0  0
  5  6  1  0  0  0
  5 26  1  0  0  0
  5 94  1  0  0  0
  6 25  1  0  0  0
  6 95  1  0  0  0
  6 96  1  0  0  0
  7  8  2  0  0  0
  7 26  1  0  0  0
  7 29  1  0  0  0
  8  9  1  0  0  0
  8 22  1  0  0  0
  9 10  1  0  0  0
  9 27  2  0  0  0
 10 11  2  0  0  0
 10 15  1  0  0  0
 11 12  1  0  0  0
 11 97  1  0  0  0
 12 13  2  0  0  0
 12 98  1  0  0  0
 13 14  1  0  0  0
 13 31  1  0  0  0
 14 15  2  0  0  0
 14 99  1  0  0  0
 15100  1  0  0  0
 16 17  2  0  0  0
 16 21  1  0  0  0
 16 31  1  0  0  0
 17 18  1  0  0  0
 17101  1  0  0  0
 18 19  2  0  0  0
 18102  1  0  0  0
 19 20  1  0  0  0
 19 24  1  0  0  0
 20 21  2  0  0  0
 20103  1  0  0  0
 21 23  1  0  0  0
 22 28  1  0  0  0
 22 32  2  0  0  0
 26 27  1  0  0  0
 28104  1  0  0  0
 28105  1  0  0  0
 29106  1  0  0  0
 29107  1  0  0  0
 33 34  1  0  0  0
 33 66  1  0  0  0
 33 70  2  0  0  0
 34 36  1  0  0  0
 34 59  1  0  0  0
 34108  1  0  0  0
 35 44  2  0  0  0
 35 45  1  0  0  0
 35 68  1  0  0  0
 36 56  1  0  0  0
 36109  1  0  0  0
 37 39  1  0  0  0
 37 47  1  0  0  0
 37 66  1  0  0  0
 37110  1  0  0  0
 38 43  2  0  0  0
 38 46  1  0  0  0
 38 47  1  0  0  0
 39 64  1  0  0  0
 39 67  2  0  0  0
 40 52  1  0  0  0
 40 53  2  0  0  0
 40 58  1  0  0  0
 41111  1  0  0  0
 41112  1  0  0  0
 41113  1  0  0  0
 41 48  1  0  0  0
 42 43  1  0  0  0
 42 66  1  0  0  0
 42114  1  0  0  0
 42115  1  0  0  0
 43 44  1  0  0  0
 44116  1  0  0  0
 45 46  2  0  0  0
 45117  1  0  0  0
 46118  1  0  0  0
 47119  1  0  0  0
 47120  1  0  0  0
 48 56  1  0  0  0
 48 65  1  0  0  0
 48121  1  0  0  0
 49 50  1  0  0  0
 49 53  1  0  0  0
 49 64  1  0  0  0
 49122  1  0  0  0
 50 51  1  0  0  0
 50123  1  0  0  0
 50124  1  0  0  0
 51 52  1  0  0  0
 51125  1  0  0  0
 51126  1  0  0  0
 52127  1  0  0  0
 52128  1  0  0  0
 53 54  1  0  0  0
 54 55  2  0  0  0
 54129  1  0  0  0
 55 57  1  0  0  0
 55130  1  0  0  0
 56 69  2  0  0  0
 57 58  2  0  0  0
 57131  1  0  0  0
 58132  1  0  0  0
 59 60  1  0  0  0
 59 61  1  0  0  0
 59 62  1  0  0  0
 60133  1  0  0  0
 60134  1  0  0  0
 60135  1  0  0  0
 61136  1  0  0  0
 61137  1  0  0  0
 61138  1  0  0  0
 62139  1  0  0  0
 62140  1  0  0  0
 62141  1  0  0  0
 63 65  1  0  0  0
 63142  1  0  0  0
 63143  1  0  0  0
 63144  1  0  0  0
 64145  1  0  0  0
 65146  1  0  0  0
 68 81  1  0  0  0
 71 72  2  0  0  0
 71 76  1  0  0  0
 71147  1  0  0  0
 72 73  1  0  0  0
 72 85  1  0  0  0
 73 74  2  0  0  0
 73 82  1  0  0  0
 74 75  1  0  0  0
 74 83  1  0  0  0
 75 76  2  0  0  0
 75 84  1  0  0  0
 76 86  1  0  0  0
 77 78  1  0  0  0
 77 79  1  0  0  0
 77148  1  0  0  0
 77149  1  0  0  0
 78 81  1  0  0  0
 78150  1  0  0  0
 78151  1  0  0  0
 79 87  1  0  0  0
 79152  1  0  0  0
 79153  1  0  0  0
 80 81  1  0  0  0
 80 87  1  0  0  0
 80154  1  0  0  0
 80155  1  0  0  0
 81156  1  0  0  0
 82157  1  0  0  0
 82158  1  0  0  0
 82159  1  0  0  0
 83160  1  0  0  0
 83161  1  0  0  0
 83162  1  0  0  0
 84163  1  0  0  0
 84164  1  0  0  0
 84165  1  0  0  0
 85166  1  0  0  0
 85167  1  0  0  0
 85 87  1  0  0  0
 86168  1  0  0  0
 87169  1  0  0  0
M  CHG  1  87   1
M  ISO  4   1 100  68 101  81 101  86 100
M  END
> <chiral flag>
0

> <version>
0

> <s_m_source_file>
/data/baiqing/PycharmProjects/Reinvent-master-3.2/result/LINK_invent/BTK/process_docking_weight1_custom_product_contain_oxygen_bond_distance_aromatic_linkinvent_7_9_3/rearranged_h_0036.sdf

> <i_m_source_file_index>
74

> <r_mmod_Potential_Energy-OPLS-2005>
147.442901611328

> <r_mmod_Stretch_Energy-OPLS-2005>
132.423263549805

> <r_mmod_Bend_Energy-OPLS-2005>
180.709442138672

> <r_mmod_Torsional_Energy-OPLS-2005>
299.032257080078

> <r_mmod_Improper_Torsional_Energy-OPLS-2005>
7.19068241119385

> <r_mmod_Van_der_Waal_Energy-OPLS-2005>
159.718399047852

> <r_mmod_Electrostatic_Energy-OPLS-2005>
-295.956634521484

> <r_mmod_Solvation_Energy-OPLS-2005>
-423.575866699219

> <b_mmod_Minimization_Converged-OPLS-2005>
0

> <r_mmod_RMS_Derivative-OPLS-2005>
3.30085945129395

$$$$
74
                    3D
 Structure written by MMmdl.
162170  0  0  1  0            999 V2000
  -30.6630  -14.5496   20.5460 C   0  0  0  0  0  0
  -30.4304  -12.3544   19.4270 C   0  0  0  0  0  0
  -29.4947  -12.4992   18.2073 C   0  0  0  0  0  0
  -28.0179  -12.3495   18.6226 C   0  0  0  0  0  0
  -27.6527  -13.2062   19.8637 C   0  0  2  0  0  0
  -28.6968  -13.0292   20.9887 C   0  0  0  0  0  0
  -25.2552  -13.8131   20.5751 C   0  0  0  0  0  0
  -24.1814  -13.0407   20.9222 C   0  0  0  0  0  0
  -24.6360  -11.6884   20.8775 C   0  0  0  0  0  0
  -23.9024  -10.4264   21.0438 C   0  0  0  0  0  0
  -24.3575   -9.4181   21.9228 C   0  0  0  0  0  0
  -23.6266   -8.2203   22.0774 C   0  0  0  0  0  0
  -22.4252   -8.0247   21.3548 C   0  0  0  0  0  0
  -21.9887   -9.0212   20.4653 C   0  0  0  0  0  0
  -22.7200  -10.2105   20.3084 C   0  0  0  0  0  0
  -21.6842   -6.0717   22.5277 C   0  0  0  0  0  0
  -21.4006   -6.5627   23.8201 C   0  0  0  0  0  0
  -21.3679   -5.6797   24.9170 C   0  0  0  0  0  0
  -21.6050   -4.3055   24.7242 C   0  0  0  0  0  0
  -21.8824   -3.8138   23.4370 C   0  0  0  0  0  0
  -21.9193   -4.6945   22.3414 C   0  0  0  0  0  0
  -22.7836  -13.5209   21.1890 C   0  0  0  0  0  0
  -22.1667   -4.2115   21.1004 F   0  0  0  0  0  0
  -21.5630   -3.4565   25.7771 F   0  0  0  0  0  0
  -30.0184  -13.3522   20.4268 N   0  0  0  0  0  0
  -26.2968  -12.9311   20.3310 N   0  0  0  0  0  0
  -25.9283  -11.6476   20.5764 N   0  0  0  0  0  0
  -22.0456  -12.8183   22.0412 N   0  0  0  0  0  0
  -25.4302  -15.1869   20.4344 N   0  0  0  0  0  0
  -31.8194  -14.7185   20.1488 O   0  0  0  0  0  0
  -21.6602   -6.8860   21.4240 O   0  0  0  0  0  0
  -22.3531  -14.5540   20.6770 O   0  0  0  0  0  0
  -24.6158  -31.8662   23.2065 C   0  0  0  0  0  0
  -25.9063  -32.4800   23.8380 C   0  0  1  0  0  0
  -27.2300  -27.3989   20.1202 C   0  0  0  0  0  0
  -25.5933  -33.8600   24.2330 N   0  0  0  0  0  0
  -23.4045  -30.4875   21.5440 C   0  0  2  0  0  0
  -24.8542  -28.9493   20.1182 C   0  0  0  0  0  0
  -22.7377  -29.4650   22.4926 C   0  0  0  0  0  0
  -18.0218  -28.1338   22.8617 C   0  0  0  0  0  0
  -24.1500  -36.7304   23.2639 C   0  0  0  0  0  0
  -25.9372  -30.8224   21.3678 C   0  0  0  0  0  0
  -26.0146  -29.4538   20.7173 C   0  0  0  0  0  0
  -27.2070  -28.6890   20.7096 C   0  0  0  0  0  0
  -26.0529  -26.9212   19.5077 C   0  0  0  0  0  0
  -24.8697  -27.6844   19.5072 C   0  0  0  0  0  0
  -23.6203  -29.8230   20.1588 C   0  0  0  0  0  0
  -25.4119  -36.3087   24.0329 C   0  0  1  0  0  0
  -20.5841  -28.3648   23.1313 C   0  0  2  0  0  0
  -20.6667  -26.9339   22.5511 C   0  0  0  0  0  0
  -19.5604  -26.6273   21.5375 C   0  0  0  0  0  0
  -18.1833  -26.7814   22.1899 C   0  0  0  0  0  0
  -19.1499  -28.8844   23.2914 C   0  0  0  0  0  0
  -18.9425  -30.1452   23.8932 C   0  0  0  0  0  0
  -17.6423  -30.6584   24.0594 C   0  0  0  0  0  0
  -25.9040  -34.9451   23.5109 C   0  0  0  0  0  0
  -16.5295  -29.9105   23.6358 C   0  0  0  0  0  0
  -16.7212  -28.6483   23.0462 C   0  0  0  0  0  0
  -26.4492  -31.6591   25.0716 C   0  0  0  0  0  0
  -25.3755  -31.3704   26.1463 C   0  0  0  0  0  0
  -27.0354  -30.3031   24.6136 C   0  0  0  0  0  0
  -27.6058  -32.4322   25.7491 C   0  0  0  0  0  0
  -27.5577  -37.1807   24.8461 C   0  0  0  0  0  0
  -21.4118  -29.2920   22.3581 N   0  0  0  0  0  0
  -26.4298  -37.3772   23.9392 N   0  0  0  0  0  0
  -24.6694  -31.0772   22.0954 N   0  0  0  0  0  0
  -23.4106  -28.8294   23.3083 O   0  0  0  0  0  0
  -28.3956  -26.6537   20.0988 O   0  0  0  0  0  0
  -26.5588  -34.8898   22.4664 O   0  0  0  0  0  0
  -23.5346  -32.1415   23.7462 O   0  0  0  0  0  0
  -28.2160  -17.6216   19.6501 C   0  0  0  0  0  0
  -29.2205  -18.0603   20.5317 C   0  0  0  0  0  0
  -29.2373  -19.4468   20.9076 C   0  0  0  0  0  0
  -28.2541  -20.3722   20.4030 C   0  0  0  0  0  0
  -27.2603  -19.8753   19.5066 C   0  0  0  0  0  0
  -27.2447  -18.5014   19.1532 C   0  0  0  0  0  0
  -30.3031  -19.9050   21.8984 C   0  0  0  0  0  0
  -26.1751  -20.7923   18.9420 C   0  0  0  0  0  0
  -30.2625  -17.0256   21.0461 C   0  0  0  0  0  0
  -28.1657  -21.8678   20.8544 C   0  0  0  0  0  0
  -27.9677  -24.1684   19.7011 C   0  0  0  0  0  0
  -28.3826  -25.3183   20.6717 C   0  0  0  0  0  0
  -29.8955  -15.5877   20.9575 N   0  0  0  0  0  0
  -28.6853  -22.8517   19.8551 N   0  3  0  0  0  0
  -26.0227  -17.8378   18.1240 Cl  0  0  0  0  0  0
  -31.4692  -12.4873   19.1200 H   0  0  0  0  0  0
  -30.3687  -11.3528   19.8543 H   0  0  0  0  0  0
  -29.7453  -11.7527   17.4512 H   0  0  0  0  0  0
  -29.6438  -13.4721   17.7355 H   0  0  0  0  0  0
  -27.8403  -11.2932   18.8331 H   0  0  0  0  0  0
  -27.3687  -12.6068   17.7846 H   0  0  0  0  0  0
  -27.6836  -14.2458   19.5417 H   0  0  0  0  0  0
  -28.6892  -12.0043   21.3638 H   0  0  0  0  0  0
  -28.4491  -13.6582   21.8436 H   0  0  0  0  0  0
  -25.2709   -9.5669   22.4807 H   0  0  0  0  0  0
  -23.9997   -7.4576   22.7470 H   0  0  0  0  0  0
  -21.0832   -8.8680   19.8941 H   0  0  0  0  0  0
  -22.3630  -10.9623   19.6187 H   0  0  0  0  0  0
  -21.1971   -7.6133   23.9688 H   0  0  0  0  0  0
  -21.1519   -6.0540   25.9060 H   0  0  0  0  0  0
  -22.0595   -2.7593   23.2883 H   0  0  0  0  0  0
  -22.4022  -11.9816   22.4785 H   0  0  0  0  0  0
  -21.1075  -13.1249   22.2595 H   0  0  0  0  0  0
  -24.6781  -15.8481   20.5904 H   0  0  0  0  0  0
  -26.2766  -15.6285   20.1072 H   0  0  0  0  0  0
  -26.7132  -32.5498   23.1142 H   0  0  0  0  0  0
  -25.0129  -33.9777   25.0507 H   0  0  0  0  0  0
  -22.6917  -31.3036   21.4023 H   0  0  0  0  0  0
  -23.3743  -35.9659   23.3314 H   0  0  0  0  0  0
  -24.3582  -36.8907   22.2047 H   0  0  0  0  0  0
  -23.7280  -37.6516   23.6656 H   0  0  0  0  0  0
  -26.0610  -31.5889   20.6022 H   0  0  0  0  0  0
  -26.8194  -30.8699   21.9934 H   0  0  0  0  0  0
  -28.1049  -29.0752   21.1713 H   0  0  0  0  0  0
  -26.0377  -25.9632   19.0124 H   0  0  0  0  0  0
  -23.9806  -27.2960   19.0303 H   0  0  0  0  0  0
  -23.7451  -30.6013   19.4055 H   0  0  0  0  0  0
  -22.7440  -29.2541   19.8442 H   0  0  0  0  0  0
  -25.1304  -36.1931   25.0819 H   0  0  0  0  0  0
  -20.9980  -28.3273   24.1424 H   0  0  0  0  0  0
  -20.5497  -26.2306   23.3774 H   0  0  0  0  0  0
  -21.6520  -26.7267   22.1323 H   0  0  0  0  0  0
  -19.6748  -25.6176   21.1413 H   0  0  0  0  0  0
  -19.6426  -27.3067   20.6885 H   0  0  0  0  0  0
  -17.3978  -26.6388   21.4464 H   0  0  0  0  0  0
  -18.0323  -26.0045   22.9416 H   0  0  0  0  0  0
  -19.7863  -30.7291   24.2361 H   0  0  0  0  0  0
  -17.4957  -31.6263   24.5214 H   0  0  0  0  0  0
  -15.5301  -30.3050   23.7661 H   0  0  0  0  0  0
  -15.8606  -28.0749   22.7281 H   0  0  0  0  0  0
  -24.5908  -30.7091   25.7775 H   0  0  0  0  0  0
  -24.8989  -32.2871   26.4938 H   0  0  0  0  0  0
  -25.8099  -30.8818   27.0200 H   0  0  0  0  0  0
  -26.2917  -29.6744   24.1229 H   0  0  0  0  0  0
  -27.4147  -29.7311   25.4619 H   0  0  0  0  0  0
  -27.8739  -30.4332   23.9294 H   0  0  0  0  0  0
  -27.2670  -33.3604   26.2118 H   0  0  0  0  0  0
  -28.3864  -32.6925   25.0325 H   0  0  0  0  0  0
  -28.0759  -31.8429   26.5379 H   0  0  0  0  0  0
  -28.2595  -38.0100   24.7486 H   0  0  0  0  0  0
  -28.1073  -36.2622   24.6332 H   0  0  0  0  0  0
  -27.2282  -37.1509   25.8862 H   0  0  0  0  0  0
  -20.9330  -29.8236   21.6454 H   0  0  0  0  0  0
  -26.0173  -38.2843   24.1395 H   0  0  0  0  0  0
  -28.1735  -16.5873   19.3426 H   0  0  0  0  0  0
  -31.2505  -19.4056   21.7034 H   0  0  0  0  0  0
  -29.9987  -19.6576   22.9164 H   0  0  0  0  0  0
  -30.5243  -20.9680   21.8455 H   0  0  0  0  0  0
  -26.5510  -21.7737   18.6639 H   0  0  0  0  0  0
  -25.3803  -20.9324   19.6731 H   0  0  0  0  0  0
  -25.7269  -20.3949   18.0330 H   0  0  0  0  0  0
  -30.4784  -17.2238   22.0952 H   0  0  0  0  0  0
  -31.1894  -17.2085   20.5002 H   0  0  0  0  0  0
  -28.6586  -22.0464   21.8099 H   0  0  0  0  0  0
  -27.1190  -22.0878   21.0708 H   0  0  0  0  0  0
  -28.1760  -24.5110   18.6864 H   0  0  0  0  0  0
  -26.8893  -24.0195   19.7396 H   0  0  0  0  0  0
  -29.4024  -25.1373   21.0163 H   0  0  0  0  0  0
  -27.7671  -25.2925   21.5725 H   0  0  0  0  0  0
  -28.9454  -15.3633   21.2071 H   0  0  0  0  0  0
  -28.5993  -22.3865   18.9668 H   0  0  0  0  0  0
  -29.6737  -22.9873   19.9899 H   0  0  0  0  0  0
  1 25  1  0  0  0
  1 30  2  0  0  0
  1 83  1  0  0  0
  2  3  1  0  0  0
  2 25  1  0  0  0
  2 86  1  0  0  0
  2 87  1  0  0  0
  3  4  1  0  0  0
  3 88  1  0  0  0
  3 89  1  0  0  0
  4  5  1  0  0  0
  4 90  1  0  0  0
  4 91  1  0  0  0
  5  6  1  0  0  0
  5 26  1  0  0  0
  5 92  1  0  0  0
  6 25  1  0  0  0
  6 93  1  0  0  0
  6 94  1  0  0  0
  7  8  2  0  0  0
  7 26  1  0  0  0
  7 29  1  0  0  0
  8  9  1  0  0  0
  8 22  1  0  0  0
  9 10  1  0  0  0
  9 27  2  0  0  0
 10 11  2  0  0  0
 10 15  1  0  0  0
 11 12  1  0  0  0
 11 95  1  0  0  0
 12 13  2  0  0  0
 12 96  1  0  0  0
 13 14  1  0  0  0
 13 31  1  0  0  0
 14 15  2  0  0  0
 14 97  1  0  0  0
 15 98  1  0  0  0
 16 17  2  0  0  0
 16 21  1  0  0  0
 16 31  1  0  0  0
 17 18  1  0  0  0
 17 99  1  0  0  0
 18 19  2  0  0  0
 18100  1  0  0  0
 19 20  1  0  0  0
 19 24  1  0  0  0
 20 21  2  0  0  0
 20101  1  0  0  0
 21 23  1  0  0  0
 22 28  1  0  0  0
 22 32  2  0  0  0
 26 27  1  0  0  0
 28102  1  0  0  0
 28103  1  0  0  0
 29104  1  0  0  0
 29105  1  0  0  0
 33 34  1  0  0  0
 33 66  1  0  0  0
 33 70  2  0  0  0
 34 36  1  0  0  0
 34 59  1  0  0  0
 34106  1  0  0  0
 35 44  2  0  0  0
 35 45  1  0  0  0
 35 68  1  0  0  0
 36 56  1  0  0  0
 36107  1  0  0  0
 37 39  1  0  0  0
 37 47  1  0  0  0
 37 66  1  0  0  0
 37108  1  0  0  0
 38 43  2  0  0  0
 38 46  1  0  0  0
 38 47  1  0  0  0
 39 64  1  0  0  0
 39 67  2  0  0  0
 40 52  1  0  0  0
 40 53  2  0  0  0
 40 58  1  0  0  0
 41109  1  0  0  0
 41110  1  0  0  0
 41111  1  0  0  0
 41 48  1  0  0  0
 42 43  1  0  0  0
 42 66  1  0  0  0
 42112  1  0  0  0
 42113  1  0  0  0
 43 44  1  0  0  0
 44114  1  0  0  0
 45 46  2  0  0  0
 45115  1  0  0  0
 46116  1  0  0  0
 47117  1  0  0  0
 47118  1  0  0  0
 48 56  1  0  0  0
 48 65  1  0  0  0
 48119  1  0  0  0
 49 50  1  0  0  0
 49 53  1  0  0  0
 49 64  1  0  0  0
 49120  1  0  0  0
 50 51  1  0  0  0
 50121  1  0  0  0
 50122  1  0  0  0
 51 52  1  0  0  0
 51123  1  0  0  0
 51124  1  0  0  0
 52125  1  0  0  0
 52126  1  0  0  0
 53 54  1  0  0  0
 54 55  2  0  0  0
 54127  1  0  0  0
 55 57  1  0  0  0
 55128  1  0  0  0
 56 69  2  0  0  0
 57 58  2  0  0  0
 57129  1  0  0  0
 58130  1  0  0  0
 59 60  1  0  0  0
 59 61  1  0  0  0
 59 62  1  0  0  0
 60131  1  0  0  0
 60132  1  0  0  0
 60133  1  0  0  0
 61134  1  0  0  0
 61135  1  0  0  0
 61136  1  0  0  0
 62137  1  0  0  0
 62138  1  0  0  0
 62139  1  0  0  0
 63 65  1  0  0  0
 63140  1  0  0  0
 63141  1  0  0  0
 63142  1  0  0  0
 64143  1  0  0  0
 65144  1  0  0  0
 68 82  1  0  0  0
 71 72  2  0  0  0
 71 76  1  0  0  0
 71145  1  0  0  0
 72 73  1  0  0  0
 72 79  1  0  0  0
 73 74  2  0  0  0
 73 77  1  0  0  0
 74 75  1  0  0  0
 74 80  1  0  0  0
 75 76  2  0  0  0
 75 78  1  0  0  0
 76 85  1  0  0  0
 77146  1  0  0  0
 77147  1  0  0  0
 77148  1  0  0  0
 78149  1  0  0  0
 78150  1  0  0  0
 78151  1  0  0  0
 79 83  1  0  0  0
 79152  1  0  0  0
 79153  1  0  0  0
 80 84  1  0  0  0
 80154  1  0  0  0
 80155  1  0  0  0
 81 82  1  0  0  0
 81 84  1  0  0  0
 81156  1  0  0  0
 81157  1  0  0  0
 82158  1  0  0  0
 82159  1  0  0  0
 83160  1  0  0  0
 84161  1  0  0  0
 84162  1  0  0  0
M  CHG  1  84   1
M  ISO  4   1 100  68 101  82 101  83 100
M  END
> <chiral flag>
0

> <version>
0

> <s_m_source_file>
/data/baiqing/PycharmProjects/Reinvent-master-3.2/result/LINK_invent/BTK/process_docking_weight1_custom_product_contain_oxygen_bond_distance_aromatic_linkinvent_7_9_3/rearranged_h_0036.sdf

> <i_m_source_file_index>
75

> <r_mmod_Potential_Energy-OPLS-2005>
-226.281768798828

> <r_mmod_Stretch_Energy-OPLS-2005>
56.8651924133301

> <r_mmod_Bend_Energy-OPLS-2005>
113.625297546387

> <r_mmod_Torsional_Energy-OPLS-2005>
215.359420776367

> <r_mmod_Improper_Torsional_Energy-OPLS-2005>
4.06214237213135

> <r_mmod_Van_der_Waal_Energy-OPLS-2005>
148.207412719727

> <r_mmod_Electrostatic_Energy-OPLS-2005>
-328.889190673828

> <r_mmod_Solvation_Energy-OPLS-2005>
-457.558654785156

> <b_mmod_Minimization_Converged-OPLS-2005>
0

> <r_mmod_RMS_Derivative-OPLS-2005>
4.06088304519653

$$$$
75
                    3D
 Structure written by MMmdl.
170179  0  0  1  0            999 V2000
  -30.6015  -14.6422   20.4587 C   0  0  0  0  0  0
  -30.4373  -12.3821   19.4492 C   0  0  0  0  0  0
  -29.5076  -12.5009   18.2198 C   0  0  0  0  0  0
  -28.0268  -12.3562   18.6271 C   0  0  0  0  0  0
  -27.6527  -13.2187   19.8628 C   0  0  2  0  0  0
  -28.6994  -13.0650   20.9900 C   0  0  0  0  0  0
  -25.2561  -13.8177   20.5688 C   0  0  0  0  0  0
  -24.1830  -13.0446   20.9193 C   0  0  0  0  0  0
  -24.6402  -11.6912   20.8749 C   0  0  0  0  0  0
  -23.9073  -10.4296   21.0412 C   0  0  0  0  0  0
  -24.3617   -9.4206   21.9190 C   0  0  0  0  0  0
  -23.6291   -8.2245   22.0758 C   0  0  0  0  0  0
  -22.4283   -8.0280   21.3546 C   0  0  0  0  0  0
  -21.9922   -9.0251   20.4654 C   0  0  0  0  0  0
  -22.7248  -10.2132   20.3056 C   0  0  0  0  0  0
  -21.6850   -6.0738   22.5276 C   0  0  0  0  0  0
  -21.4013   -6.5637   23.8213 C   0  0  0  0  0  0
  -21.3665   -5.6784   24.9174 C   0  0  0  0  0  0
  -21.6049   -4.3049   24.7222 C   0  0  0  0  0  0
  -21.8815   -3.8146   23.4344 C   0  0  0  0  0  0
  -21.9189   -4.6965   22.3402 C   0  0  0  0  0  0
  -22.7850  -13.5249   21.1835 C   0  0  0  0  0  0
  -22.1651   -4.2154   21.0979 F   0  0  0  0  0  0
  -21.5640   -3.4531   25.7731 F   0  0  0  0  0  0
  -30.0139  -13.4037   20.4256 N   0  0  0  0  0  0
  -26.2993  -12.9361   20.3331 N   0  0  0  0  0  0
  -25.9335  -11.6517   20.5772 N   0  0  0  0  0  0
  -22.0461  -12.8259   22.0389 N   0  0  0  0  0  0
  -25.4255  -15.1904   20.4106 N   0  0  0  0  0  0
  -31.7730  -14.8060   20.1068 O   0  0  0  0  0  0
  -21.6636   -6.8882   21.4244 O   0  0  0  0  0  0
  -22.3544  -14.5544   20.6651 O   0  0  0  0  0  0
  -24.6230  -31.8608   23.2022 C   0  0  0  0  0  0
  -25.9084  -32.4789   23.8353 C   0  0  1  0  0  0
  -27.2324  -27.3446   20.1043 C   0  0  0  0  0  0
  -25.5899  -33.8587   24.2281 N   0  0  0  0  0  0
  -23.4166  -30.4812   21.5464 C   0  0  2  0  0  0
  -24.8618  -28.9265   20.1251 C   0  0  0  0  0  0
  -22.7448  -29.4632   22.4973 C   0  0  0  0  0  0
  -18.0285  -28.1381   22.8498 C   0  0  0  0  0  0
  -24.1488  -36.7303   23.2636 C   0  0  0  0  0  0
  -25.9530  -30.8000   21.3650 C   0  0  0  0  0  0
  -26.0307  -29.4248   20.7141 C   0  0  0  0  0  0
  -27.2229  -28.6474   20.6858 C   0  0  0  0  0  0
  -26.0360  -26.8727   19.5276 C   0  0  0  0  0  0
  -24.8628  -27.6537   19.5289 C   0  0  0  0  0  0
  -23.6305  -29.8073   20.1656 C   0  0  0  0  0  0
  -25.4110  -36.3089   24.0325 C   0  0  1  0  0  0
  -20.5879  -28.3675   23.1299 C   0  0  2  0  0  0
  -20.6764  -26.9405   22.5413 C   0  0  0  0  0  0
  -19.5741  -26.6387   21.5215 C   0  0  0  0  0  0
  -18.1924  -26.7926   22.1631 C   0  0  0  0  0  0
  -19.1537  -28.8843   23.2895 C   0  0  0  0  0  0
  -18.9455  -30.1442   23.8916 C   0  0  0  0  0  0
  -17.6454  -30.6581   24.0562 C   0  0  0  0  0  0
  -25.9044  -34.9456   23.5111 C   0  0  0  0  0  0
  -16.5346  -29.9083   23.6320 C   0  0  0  0  0  0
  -16.7271  -28.6499   23.0348 C   0  0  0  0  0  0
  -26.4470  -31.6571   25.0703 C   0  0  0  0  0  0
  -25.3701  -31.3692   26.1421 C   0  0  0  0  0  0
  -27.0289  -30.2994   24.6122 C   0  0  0  0  0  0
  -27.6033  -32.4283   25.7501 C   0  0  0  0  0  0
  -27.5588  -37.1803   24.8455 C   0  0  0  0  0  0
  -21.4170  -29.3039   22.3702 N   0  0  0  0  0  0
  -26.4289  -37.3785   23.9415 N   0  0  0  0  0  0
  -24.6837  -31.0627   22.0966 N   0  0  0  0  0  0
  -23.4172  -28.8168   23.3046 O   0  0  0  0  0  0
  -28.3927  -26.5753   20.0142 O   0  0  0  0  0  0
  -26.5625  -34.8928   22.4690 O   0  0  0  0  0  0
  -23.5393  -32.1408   23.7351 O   0  0  0  0  0  0
  -28.9068  -19.3942   20.9927 C   0  0  0  0  0  0
  -29.2901  -19.9614   19.7532 C   0  0  0  0  0  0
  -29.1275  -18.0224   21.3134 C   0  0  0  0  0  0
  -29.9463  -19.0701   18.8378 C   0  0  0  0  0  0
  -30.0836  -17.6614   19.1192 C   0  0  0  0  0  0
  -29.7248  -17.1127   20.3915 C   0  0  0  0  0  0
  -28.4176  -24.0112   19.5848 C   0  0  0  0  0  0
  -28.0808  -24.1353   18.2854 C   0  0  0  0  0  0
  -30.1349  -23.8698   21.9659 C   0  0  0  0  0  0
  -29.7765  -25.2326   21.3582 C   0  0  0  0  0  0
  -30.1928  -22.7771   20.8843 C   0  0  0  0  0  0
  -28.4474  -25.2195   20.5842 C   0  0  1  0  0  0
  -28.6286  -17.5131   22.6563 C   0  0  0  0  0  0
  -30.4534  -19.6198   17.4996 C   0  0  0  0  0  0
  -30.4984  -16.7117   17.9976 C   0  0  0  0  0  0
  -28.8122  -21.4139   19.3135 C   0  0  0  0  0  0
  -29.7530  -15.6826   20.7413 N   0  0  0  0  0  0
  -28.8844  -22.6494   20.2016 N   0  3  2  0  0  0
  -31.4783  -12.5055   19.1476 H   0  0  0  0  0  0
  -30.3688  -11.3856   19.8881 H   0  0  0  0  0  0
  -29.7686  -11.7469   17.4758 H   0  0  0  0  0  0
  -29.6598  -13.4652   17.7336 H   0  0  0  0  0  0
  -27.8481  -11.3029   18.8430 H   0  0  0  0  0  0
  -27.3780  -12.6069   17.7862 H   0  0  0  0  0  0
  -27.6714  -14.2568   19.5310 H   0  0  0  0  0  0
  -28.7076  -12.0422   21.3697 H   0  0  0  0  0  0
  -28.4533  -13.6973   21.8438 H   0  0  0  0  0  0
  -25.2750   -9.5690   22.4777 H   0  0  0  0  0  0
  -23.9992   -7.4644   22.7486 H   0  0  0  0  0  0
  -21.0846   -8.8765   19.8966 H   0  0  0  0  0  0
  -22.3692  -10.9666   19.6168 H   0  0  0  0  0  0
  -21.2000   -7.6138   23.9727 H   0  0  0  0  0  0
  -21.1498   -6.0506   25.9076 H   0  0  0  0  0  0
  -22.0599   -2.7611   23.2833 H   0  0  0  0  0  0
  -22.4014  -11.9912   22.4809 H   0  0  0  0  0  0
  -21.1086  -13.1327   22.2556 H   0  0  0  0  0  0
  -24.6550  -15.8399   20.5196 H   0  0  0  0  0  0
  -26.2692  -15.6334   20.0695 H   0  0  0  0  0  0
  -26.7149  -32.5471   23.1102 H   0  0  0  0  0  0
  -24.9982  -33.9747   25.0375 H   0  0  0  0  0  0
  -22.7092  -31.2992   21.3983 H   0  0  0  0  0  0
  -23.3762  -35.9627   23.3273 H   0  0  0  0  0  0
  -24.3587  -36.8961   22.2061 H   0  0  0  0  0  0
  -23.7225  -37.6489   23.6673 H   0  0  0  0  0  0
  -26.0702  -31.5629   20.5940 H   0  0  0  0  0  0
  -26.8366  -30.8570   21.9887 H   0  0  0  0  0  0
  -28.1327  -29.0403   21.1161 H   0  0  0  0  0  0
  -26.0046  -25.9000   19.0590 H   0  0  0  0  0  0
  -23.9618  -27.2647   19.0742 H   0  0  0  0  0  0
  -23.7522  -30.5786   19.4037 H   0  0  0  0  0  0
  -22.7511  -29.2341   19.8664 H   0  0  0  0  0  0
  -25.1294  -36.1948   25.0817 H   0  0  0  0  0  0
  -20.9973  -28.3240   24.1418 H   0  0  0  0  0  0
  -20.5660  -26.2289   23.3607 H   0  0  0  0  0  0
  -21.6626  -26.7437   22.1198 H   0  0  0  0  0  0
  -19.6887  -25.6300   21.1241 H   0  0  0  0  0  0
  -19.6673  -27.3197   20.6744 H   0  0  0  0  0  0
  -17.4190  -26.6695   21.4029 H   0  0  0  0  0  0
  -18.0312  -26.0059   22.9018 H   0  0  0  0  0  0
  -19.7925  -30.7257   24.2297 H   0  0  0  0  0  0
  -17.5002  -31.6271   24.5144 H   0  0  0  0  0  0
  -15.5339  -30.2983   23.7624 H   0  0  0  0  0  0
  -15.8677  -28.0813   22.7050 H   0  0  0  0  0  0
  -24.5869  -30.7065   25.7717 H   0  0  0  0  0  0
  -24.8895  -32.2850   26.4870 H   0  0  0  0  0  0
  -25.8009  -30.8827   27.0180 H   0  0  0  0  0  0
  -26.2841  -29.6782   24.1129 H   0  0  0  0  0  0
  -27.3959  -29.7213   25.4612 H   0  0  0  0  0  0
  -27.8728  -30.4273   23.9343 H   0  0  0  0  0  0
  -27.2636  -33.3558   26.2130 H   0  0  0  0  0  0
  -28.3841  -32.6888   25.0340 H   0  0  0  0  0  0
  -28.0701  -31.8367   26.5388 H   0  0  0  0  0  0
  -28.2563  -38.0139   24.7547 H   0  0  0  0  0  0
  -28.1130  -36.2675   24.6223 H   0  0  0  0  0  0
  -27.2316  -37.1374   25.8856 H   0  0  0  0  0  0
  -20.9329  -29.8771   21.6938 H   0  0  0  0  0  0
  -26.0177  -38.2863   24.1432 H   0  0  0  0  0  0
  -28.3860  -20.0156   21.7078 H   0  0  0  0  0  0
  -27.8010  -25.0978   17.8854 H   0  0  0  0  0  0
  -28.0722  -23.3137   17.5862 H   0  0  0  0  0  0
  -29.4112  -23.6024   22.7367 H   0  0  0  0  0  0
  -31.1006  -23.9403   22.4674 H   0  0  0  0  0  0
  -30.5781  -25.5353   20.6815 H   0  0  0  0  0  0
  -29.7387  -25.9932   22.1388 H   0  0  0  0  0  0
  -30.4784  -21.8335   21.3504 H   0  0  0  0  0  0
  -30.9637  -23.0074   20.1472 H   0  0  0  0  0  0
  -27.6234  -25.0891   21.2873 H   0  0  0  0  0  0
  -28.3322  -18.3273   23.3181 H   0  0  0  0  0  0
  -29.4030  -16.9412   23.1680 H   0  0  0  0  0  0
  -27.7586  -16.8710   22.5125 H   0  0  0  0  0  0
  -30.9388  -20.5880   17.6176 H   0  0  0  0  0  0
  -29.6392  -19.7200   16.7796 H   0  0  0  0  0  0
  -31.2295  -19.0021   17.0507 H   0  0  0  0  0  0
  -30.2620  -17.0890   17.0042 H   0  0  0  0  0  0
  -29.9444  -15.7778   18.0606 H   0  0  0  0  0  0
  -31.5650  -16.4963   18.0458 H   0  0  0  0  0  0
  -27.7700  -21.2959   19.0146 H   0  0  0  0  0  0
  -29.3282  -21.6948   18.4026 H   0  0  0  0  0  0
  -28.9194  -15.3636   21.2077 H   0  0  0  0  0  0
  -28.2363  -22.4347   20.9439 H   0  0  0  0  0  0
  1 25  1  0  0  0
  1 30  2  0  0  0
  1 87  1  0  0  0
  2  3  1  0  0  0
  2 25  1  0  0  0
  2 89  1  0  0  0
  2 90  1  0  0  0
  3  4  1  0  0  0
  3 91  1  0  0  0
  3 92  1  0  0  0
  4  5  1  0  0  0
  4 93  1  0  0  0
  4 94  1  0  0  0
  5  6  1  0  0  0
  5 26  1  0  0  0
  5 95  1  0  0  0
  6 25  1  0  0  0
  6 96  1  0  0  0
  6 97  1  0  0  0
  7  8  2  0  0  0
  7 26  1  0  0  0
  7 29  1  0  0  0
  8  9  1  0  0  0
  8 22  1  0  0  0
  9 10  1  0  0  0
  9 27  2  0  0  0
 10 11  2  0  0  0
 10 15  1  0  0  0
 11 12  1  0  0  0
 11 98  1  0  0  0
 12 13  2  0  0  0
 12 99  1  0  0  0
 13 14  1  0  0  0
 13 31  1  0  0  0
 14 15  2  0  0  0
 14100  1  0  0  0
 15101  1  0  0  0
 16 17  2  0  0  0
 16 21  1  0  0  0
 16 31  1  0  0  0
 17 18  1  0  0  0
 17102  1  0  0  0
 18 19  2  0  0  0
 18103  1  0  0  0
 19 20  1  0  0  0
 19 24  1  0  0  0
 20 21  2  0  0  0
 20104  1  0  0  0
 21 23  1  0  0  0
 22 28  1  0  0  0
 22 32  2  0  0  0
 26 27  1  0  0  0
 28105  1  0  0  0
 28106  1  0  0  0
 29107  1  0  0  0
 29108  1  0  0  0
 33 34  1  0  0  0
 33 66  1  0  0  0
 33 70  2  0  0  0
 34 36  1  0  0  0
 34 59  1  0  0  0
 34109  1  0  0  0
 35 44  2  0  0  0
 35 45  1  0  0  0
 35 68  1  0  0  0
 36 56  1  0  0  0
 36110  1  0  0  0
 37 39  1  0  0  0
 37 47  1  0  0  0
 37 66  1  0  0  0
 37111  1  0  0  0
 38 43  2  0  0  0
 38 46  1  0  0  0
 38 47  1  0  0  0
 39 64  1  0  0  0
 39 67  2  0  0  0
 40 52  1  0  0  0
 40 53  2  0  0  0
 40 58  1  0  0  0
 41112  1  0  0  0
 41113  1  0  0  0
 41114  1  0  0  0
 41 48  1  0  0  0
 42 43  1  0  0  0
 42 66  1  0  0  0
 42115  1  0  0  0
 42116  1  0  0  0
 43 44  1  0  0  0
 44117  1  0  0  0
 45 46  2  0  0  0
 45118  1  0  0  0
 46119  1  0  0  0
 47120  1  0  0  0
 47121  1  0  0  0
 48 56  1  0  0  0
 48 65  1  0  0  0
 48122  1  0  0  0
 49 50  1  0  0  0
 49 53  1  0  0  0
 49 64  1  0  0  0
 49123  1  0  0  0
 50 51  1  0  0  0
 50124  1  0  0  0
 50125  1  0  0  0
 51 52  1  0  0  0
 51126  1  0  0  0
 51127  1  0  0  0
 52128  1  0  0  0
 52129  1  0  0  0
 53 54  1  0  0  0
 54 55  2  0  0  0
 54130  1  0  0  0
 55 57  1  0  0  0
 55131  1  0  0  0
 56 69  2  0  0  0
 57 58  2  0  0  0
 57132  1  0  0  0
 58133  1  0  0  0
 59 60  1  0  0  0
 59 61  1  0  0  0
 59 62  1  0  0  0
 60134  1  0  0  0
 60135  1  0  0  0
 60136  1  0  0  0
 61137  1  0  0  0
 61138  1  0  0  0
 61139  1  0  0  0
 62140  1  0  0  0
 62141  1  0  0  0
 62142  1  0  0  0
 63 65  1  0  0  0
 63143  1  0  0  0
 63144  1  0  0  0
 63145  1  0  0  0
 64146  1  0  0  0
 65147  1  0  0  0
 68 82  1  0  0  0
 71 72  2  0  0  0
 71 73  1  0  0  0
 71148  1  0  0  0
 72 74  1  0  0  0
 72 86  1  0  0  0
 73 76  2  0  0  0
 73 83  1  0  0  0
 74 75  2  0  0  0
 74 84  1  0  0  0
 75 76  1  0  0  0
 75 85  1  0  0  0
 76 87  1  0  0  0
 77 78  2  0  0  0
 77 82  1  0  0  0
 77 88  1  0  0  0
 78149  1  0  0  0
 78150  1  0  0  0
 79 80  1  0  0  0
 79 81  1  0  0  0
 79151  1  0  0  0
 79152  1  0  0  0
 80 82  1  0  0  0
 80153  1  0  0  0
 80154  1  0  0  0
 81 88  1  0  0  0
 81155  1  0  0  0
 81156  1  0  0  0
 82157  1  0  0  0
 83158  1  0  0  0
 83159  1  0  0  0
 83160  1  0  0  0
 84161  1  0  0  0
 84162  1  0  0  0
 84163  1  0  0  0
 85164  1  0  0  0
 85165  1  0  0  0
 85166  1  0  0  0
 86167  1  0  0  0
 86168  1  0  0  0
 86 88  1  0  0  0
 87169  1  0  0  0
 88170  1  0  0  0
M  CHG  1  88   1
M  ISO  4   1 100  68 101  82 101  87 100
M  END
> <chiral flag>
0

> <version>
0

> <s_m_source_file>
/data/baiqing/PycharmProjects/Reinvent-master-3.2/result/LINK_invent/BTK/process_docking_weight1_custom_product_contain_oxygen_bond_distance_aromatic_linkinvent_7_9_3/rearranged_h_0036.sdf

> <i_m_source_file_index>
76

> <r_mmod_Potential_Energy-OPLS-2005>
-34.2494049072266

> <r_mmod_Stretch_Energy-OPLS-2005>
90.930549621582

> <r_mmod_Bend_Energy-OPLS-2005>
158.939453125

> <r_mmod_Torsional_Energy-OPLS-2005>
265.78076171875

> <r_mmod_Improper_Torsional_Energy-OPLS-2005>
6.78822374343872

> <r_mmod_Van_der_Waal_Energy-OPLS-2005>
154.330718994141

> <r_mmod_Electrostatic_Energy-OPLS-2005>
-323.436004638672

> <r_mmod_Solvation_Energy-OPLS-2005>
-428.535369873047

> <b_mmod_Minimization_Converged-OPLS-2005>
0

> <r_mmod_RMS_Derivative-OPLS-2005>
2.25939965248108

$$$$
76
                    3D
 Structure written by MMmdl.
174183  0  0  1  0            999 V2000
  -30.5693  -14.7828   20.4016 C   0  0  0  0  0  0
  -30.4451  -12.4404   19.5159 C   0  0  0  0  0  0
  -29.5328  -12.4013   18.2693 C   0  0  0  0  0  0
  -28.0390  -12.3179   18.6544 C   0  0  0  0  0  0
  -27.6427  -13.2228   19.8544 C   0  0  2  0  0  0
  -28.6839  -13.1712   20.9919 C   0  0  0  0  0  0
  -25.2529  -13.8202   20.5702 C   0  0  0  0  0  0
  -24.1805  -13.0456   20.9184 C   0  0  0  0  0  0
  -24.6383  -11.6929   20.8737 C   0  0  0  0  0  0
  -23.9063  -10.4305   21.0394 C   0  0  0  0  0  0
  -24.3617   -9.4220   21.9173 C   0  0  0  0  0  0
  -23.6296   -8.2254   22.0758 C   0  0  0  0  0  0
  -22.4273   -8.0293   21.3552 C   0  0  0  0  0  0
  -21.9903   -9.0261   20.4650 C   0  0  0  0  0  0
  -22.7229  -10.2142   20.3050 C   0  0  0  0  0  0
  -21.6866   -6.0737   22.5278 C   0  0  0  0  0  0
  -21.4018   -6.5643   23.8209 C   0  0  0  0  0  0
  -21.3656   -5.6798   24.9171 C   0  0  0  0  0  0
  -21.6043   -4.3062   24.7226 C   0  0  0  0  0  0
  -21.8817   -3.8152   23.4348 C   0  0  0  0  0  0
  -21.9192   -4.6964   22.3399 C   0  0  0  0  0  0
  -22.7820  -13.5230   21.1845 C   0  0  0  0  0  0
  -22.1662   -4.2144   21.0977 F   0  0  0  0  0  0
  -21.5625   -3.4548   25.7740 F   0  0  0  0  0  0
  -29.9844  -13.5309   20.4107 N   0  0  0  0  0  0
  -26.2940  -12.9377   20.3303 N   0  0  0  0  0  0
  -25.9307  -11.6536   20.5789 N   0  0  0  0  0  0
  -22.0494  -12.8199   22.0411 N   0  0  0  0  0  0
  -25.4242  -15.1932   20.4156 N   0  0  0  0  0  0
  -31.7400  -14.9046   20.0305 O   0  0  0  0  0  0
  -21.6657   -6.8877   21.4240 O   0  0  0  0  0  0
  -22.3484  -14.5522   20.6688 O   0  0  0  0  0  0
  -24.6294  -31.8547   23.1972 C   0  0  0  0  0  0
  -25.9118  -32.4751   23.8324 C   0  0  1  0  0  0
  -27.2285  -27.2659   20.1353 C   0  0  0  0  0  0
  -25.5923  -33.8556   24.2245 N   0  0  0  0  0  0
  -23.4273  -30.4737   21.5392 C   0  0  2  0  0  0
  -24.8764  -28.9206   20.1054 C   0  0  0  0  0  0
  -22.7510  -29.4573   22.4907 C   0  0  0  0  0  0
  -18.0298  -28.1378   22.8486 C   0  0  0  0  0  0
  -24.1493  -36.7284   23.2641 C   0  0  0  0  0  0
  -25.9702  -30.7675   21.3771 C   0  0  0  0  0  0
  -26.0415  -29.3901   20.7209 C   0  0  0  0  0  0
  -27.2129  -28.5716   20.7299 C   0  0  0  0  0  0
  -26.0413  -26.8615   19.4815 C   0  0  0  0  0  0
  -24.8816  -27.6650   19.4756 C   0  0  0  0  0  0
  -23.6454  -29.8051   20.1545 C   0  0  0  0  0  0
  -25.4121  -36.3064   24.0322 C   0  0  1  0  0  0
  -20.5903  -28.3683   23.1279 C   0  0  2  0  0  0
  -20.6778  -26.9400   22.5412 C   0  0  0  0  0  0
  -19.5753  -26.6372   21.5215 C   0  0  0  0  0  0
  -18.1932  -26.7920   22.1622 C   0  0  0  0  0  0
  -19.1552  -28.8849   23.2877 C   0  0  0  0  0  0
  -18.9471  -30.1450   23.8895 C   0  0  0  0  0  0
  -17.6469  -30.6578   24.0553 C   0  0  0  0  0  0
  -25.9059  -34.9437   23.5088 C   0  0  0  0  0  0
  -16.5359  -29.9072   23.6328 C   0  0  0  0  0  0
  -16.7283  -28.6490   23.0350 C   0  0  0  0  0  0
  -26.4491  -31.6596   25.0724 C   0  0  0  0  0  0
  -25.3708  -31.3749   26.1444 C   0  0  0  0  0  0
  -27.0341  -30.3020   24.6212 C   0  0  0  0  0  0
  -27.6058  -32.4341   25.7487 C   0  0  0  0  0  0
  -27.5581  -37.1797   24.8465 C   0  0  0  0  0  0
  -21.4219  -29.3032   22.3668 N   0  0  0  0  0  0
  -26.4292  -37.3765   23.9406 N   0  0  0  0  0  0
  -24.6942  -31.0509   22.0940 N   0  0  0  0  0  0
  -23.4212  -28.8125   23.3011 O   0  0  0  0  0  0
  -28.3464  -26.4114   20.2758 O   0  0  0  0  0  0
  -26.5630  -34.8906   22.4662 O   0  0  0  0  0  0
  -23.5447  -32.1374   23.7271 O   0  0  0  0  0  0
  -29.5157  -18.5121   20.6115 C   0  0  0  0  0  0
  -28.8547  -19.6913   20.0458 C   0  0  0  0  0  0
  -28.0112  -19.4236   18.9280 C   0  0  0  0  0  0
  -28.1279  -18.2029   18.2146 C   0  0  0  0  0  0
  -29.4887  -17.1780   20.0125 C   0  0  0  0  0  0
  -28.8898  -17.1217   18.7249 C   0  0  0  0  0  0
  -29.1493  -23.9120   20.5673 C   0  0  0  0  0  0
  -30.6507  -23.8111   23.9715 C   0  0  0  0  0  0
  -29.5909  -24.2372   21.8044 C   0  0  0  0  0  0
  -30.3685  -23.4186   22.7194 C   0  0  0  0  0  0
  -29.7193  -24.5658   17.3469 C   0  0  0  0  0  0
  -30.3662  -23.2508   17.7721 C   0  0  0  0  0  0
  -29.4742  -25.5199   18.5124 C   0  0  0  0  0  0
  -29.3701  -22.3375   18.4959 C   0  0  0  0  0  0
  -28.5170  -25.0614   19.6387 C   0  0  2  0  0  0
  -26.9063  -20.3941   18.5016 C   0  0  0  0  0  0
  -27.3643  -18.0041   16.9015 C   0  0  0  0  0  0
  -28.8638  -21.1713   20.7005 C   0  0  0  0  0  0
  -29.7942  -15.8947   20.7299 N   0  0  0  0  0  0
  -29.4043  -22.4444   19.9763 N   0  3  2  0  0  0
  -28.9840  -15.6982   17.7551 Cl  0  0  0  0  0  0
  -31.4851  -12.5682   19.2139 H   0  0  0  0  0  0
  -30.4082  -11.4853   20.0422 H   0  0  0  0  0  0
  -29.7924  -11.5365   17.6571 H   0  0  0  0  0  0
  -29.7346  -13.2595   17.6354 H   0  0  0  0  0  0
  -27.8362  -11.2767   18.9066 H   0  0  0  0  0  0
  -27.4135  -12.5413   17.7895 H   0  0  0  0  0  0
  -27.6231  -14.2419   19.4799 H   0  0  0  0  0  0
  -28.7226  -12.1764   21.4385 H   0  0  0  0  0  0
  -28.4091  -13.8539   21.7967 H   0  0  0  0  0  0
  -25.2770   -9.5701   22.4739 H   0  0  0  0  0  0
  -24.0014   -7.4645   22.7475 H   0  0  0  0  0  0
  -21.0835   -8.8770   19.8952 H   0  0  0  0  0  0
  -22.3686  -10.9674   19.6156 H   0  0  0  0  0  0
  -21.2019   -7.6152   23.9705 H   0  0  0  0  0  0
  -21.1475   -6.0537   25.9070 H   0  0  0  0  0  0
  -22.0592   -2.7613   23.2861 H   0  0  0  0  0  0
  -22.4160  -11.9846   22.4736 H   0  0  0  0  0  0
  -21.1114  -13.1186   22.2671 H   0  0  0  0  0  0
  -24.6584  -15.8476   20.5310 H   0  0  0  0  0  0
  -26.2727  -15.6341   20.0874 H   0  0  0  0  0  0
  -26.7191  -32.5395   23.1073 H   0  0  0  0  0  0
  -25.0069  -33.9713   25.0389 H   0  0  0  0  0  0
  -22.7219  -31.2943   21.3922 H   0  0  0  0  0  0
  -23.3757  -35.9613   23.3282 H   0  0  0  0  0  0
  -24.3583  -36.8933   22.2059 H   0  0  0  0  0  0
  -23.7248  -37.6478   23.6687 H   0  0  0  0  0  0
  -26.1080  -31.5268   20.6061 H   0  0  0  0  0  0
  -26.8483  -30.8184   22.0089 H   0  0  0  0  0  0
  -28.1010  -28.9198   21.2381 H   0  0  0  0  0  0
  -25.9580  -25.9020   18.9976 H   0  0  0  0  0  0
  -23.9880  -27.2996   18.9876 H   0  0  0  0  0  0
  -23.7656  -30.5807   19.3972 H   0  0  0  0  0  0
  -22.7648  -29.2355   19.8517 H   0  0  0  0  0  0
  -25.1310  -36.1904   25.0814 H   0  0  0  0  0  0
  -20.9994  -28.3250   24.1401 H   0  0  0  0  0  0
  -20.5681  -26.2290   23.3617 H   0  0  0  0  0  0
  -21.6642  -26.7415   22.1202 H   0  0  0  0  0  0
  -19.6909  -25.6283   21.1247 H   0  0  0  0  0  0
  -19.6691  -27.3179   20.6743 H   0  0  0  0  0  0
  -17.4206  -26.6683   21.4010 H   0  0  0  0  0  0
  -18.0314  -26.0058   22.9015 H   0  0  0  0  0  0
  -19.7941  -30.7268   24.2260 H   0  0  0  0  0  0
  -17.5017  -31.6261   24.5149 H   0  0  0  0  0  0
  -15.5358  -30.2967   23.7655 H   0  0  0  0  0  0
  -15.8685  -28.0807   22.7063 H   0  0  0  0  0  0
  -24.5874  -30.7115   25.7760 H   0  0  0  0  0  0
  -24.8899  -32.2913   26.4873 H   0  0  0  0  0  0
  -25.8002  -30.8912   27.0225 H   0  0  0  0  0  0
  -26.2919  -29.6770   24.1232 H   0  0  0  0  0  0
  -27.4026  -29.7286   25.4730 H   0  0  0  0  0  0
  -27.8791  -30.4309   23.9448 H   0  0  0  0  0  0
  -27.2693  -33.3675   26.2016 H   0  0  0  0  0  0
  -28.3877  -32.6856   25.0307 H   0  0  0  0  0  0
  -28.0712  -31.8494   26.5434 H   0  0  0  0  0  0
  -28.2589  -38.0100   24.7511 H   0  0  0  0  0  0
  -28.1081  -36.2632   24.6287 H   0  0  0  0  0  0
  -27.2294  -37.1440   25.8865 H   0  0  0  0  0  0
  -20.9405  -29.8766   21.6883 H   0  0  0  0  0  0
  -26.0164  -38.2835   24.1411 H   0  0  0  0  0  0
  -30.0085  -18.6212   21.5670 H   0  0  0  0  0  0
  -31.2453  -23.1911   24.6288 H   0  0  0  0  0  0
  -30.2982  -24.7537   24.3666 H   0  0  0  0  0  0
  -29.4199  -25.2570   22.1203 H   0  0  0  0  0  0
  -30.7780  -22.4707   22.4105 H   0  0  0  0  0  0
  -28.7895  -24.3847   16.8055 H   0  0  0  0  0  0
  -30.3807  -25.0648   16.6372 H   0  0  0  0  0  0
  -31.2740  -23.4174   18.3550 H   0  0  0  0  0  0
  -30.6905  -22.7404   16.8632 H   0  0  0  0  0  0
  -29.0722  -26.4326   18.0684 H   0  0  0  0  0  0
  -30.4287  -25.8115   18.9523 H   0  0  0  0  0  0
  -29.6372  -21.3262   18.1964 H   0  0  0  0  0  0
  -28.3628  -22.5314   18.1339 H   0  0  0  0  0  0
  -27.5920  -24.6735   19.2217 H   0  0  0  0  0  0
  -26.7145  -21.2024   19.2020 H   0  0  0  0  0  0
  -25.9607  -19.8562   18.4179 H   0  0  0  0  0  0
  -27.1123  -20.8322   17.5259 H   0  0  0  0  0  0
  -27.0218  -18.9265   16.4393 H   0  0  0  0  0  0
  -26.4913  -17.3742   17.0698 H   0  0  0  0  0  0
  -27.9888  -17.5276   16.1469 H   0  0  0  0  0  0
  -29.4127  -21.0629   21.6314 H   0  0  0  0  0  0
  -27.8513  -21.3932   21.0352 H   0  0  0  0  0  0
  -29.0113  -15.6036   21.2952 H   0  0  0  0  0  0
  -30.3905  -22.2962   20.1244 H   0  0  0  0  0  0
  1 25  1  0  0  0
  1 30  2  0  0  0
  1 89  1  0  0  0
  2  3  1  0  0  0
  2 25  1  0  0  0
  2 92  1  0  0  0
  2 93  1  0  0  0
  3  4  1  0  0  0
  3 94  1  0  0  0
  3 95  1  0  0  0
  4  5  1  0  0  0
  4 96  1  0  0  0
  4 97  1  0  0  0
  5  6  1  0  0  0
  5 26  1  0  0  0
  5 98  1  0  0  0
  6 25  1  0  0  0
  6 99  1  0  0  0
  6100  1  0  0  0
  7  8  2  0  0  0
  7 26  1  0  0  0
  7 29  1  0  0  0
  8  9  1  0  0  0
  8 22  1  0  0  0
  9 10  1  0  0  0
  9 27  2  0  0  0
 10 11  2  0  0  0
 10 15  1  0  0  0
 11 12  1  0  0  0
 11101  1  0  0  0
 12 13  2  0  0  0
 12102  1  0  0  0
 13 14  1  0  0  0
 13 31  1  0  0  0
 14 15  2  0  0  0
 14103  1  0  0  0
 15104  1  0  0  0
 16 17  2  0  0  0
 16 21  1  0  0  0
 16 31  1  0  0  0
 17 18  1  0  0  0
 17105  1  0  0  0
 18 19  2  0  0  0
 18106  1  0  0  0
 19 20  1  0  0  0
 19 24  1  0  0  0
 20 21  2  0  0  0
 20107  1  0  0  0
 21 23  1  0  0  0
 22 28  1  0  0  0
 22 32  2  0  0  0
 26 27  1  0  0  0
 28108  1  0  0  0
 28109  1  0  0  0
 29110  1  0  0  0
 29111  1  0  0  0
 33 34  1  0  0  0
 33 66  1  0  0  0
 33 70  2  0  0  0
 34 36  1  0  0  0
 34 59  1  0  0  0
 34112  1  0  0  0
 35 44  2  0  0  0
 35 45  1  0  0  0
 35 68  1  0  0  0
 36 56  1  0  0  0
 36113  1  0  0  0
 37 39  1  0  0  0
 37 47  1  0  0  0
 37 66  1  0  0  0
 37114  1  0  0  0
 38 43  2  0  0  0
 38 46  1  0  0  0
 38 47  1  0  0  0
 39 64  1  0  0  0
 39 67  2  0  0  0
 40 52  1  0  0  0
 40 53  2  0  0  0
 40 58  1  0  0  0
 41115  1  0  0  0
 41116  1  0  0  0
 41117  1  0  0  0
 41 48  1  0  0  0
 42 43  1  0  0  0
 42 66  1  0  0  0
 42118  1  0  0  0
 42119  1  0  0  0
 43 44  1  0  0  0
 44120  1  0  0  0
 45 46  2  0  0  0
 45121  1  0  0  0
 46122  1  0  0  0
 47123  1  0  0  0
 47124  1  0  0  0
 48 56  1  0  0  0
 48 65  1  0  0  0
 48125  1  0  0  0
 49 50  1  0  0  0
 49 53  1  0  0  0
 49 64  1  0  0  0
 49126  1  0  0  0
 50 51  1  0  0  0
 50127  1  0  0  0
 50128  1  0  0  0
 51 52  1  0  0  0
 51129  1  0  0  0
 51130  1  0  0  0
 52131  1  0  0  0
 52132  1  0  0  0
 53 54  1  0  0  0
 54 55  2  0  0  0
 54133  1  0  0  0
 55 57  1  0  0  0
 55134  1  0  0  0
 56 69  2  0  0  0
 57 58  2  0  0  0
 57135  1  0  0  0
 58136  1  0  0  0
 59 60  1  0  0  0
 59 61  1  0  0  0
 59 62  1  0  0  0
 60137  1  0  0  0
 60138  1  0  0  0
 60139  1  0  0  0
 61140  1  0  0  0
 61141  1  0  0  0
 61142  1  0  0  0
 62143  1  0  0  0
 62144  1  0  0  0
 62145  1  0  0  0
 63 65  1  0  0  0
 63146  1  0  0  0
 63147  1  0  0  0
 63148  1  0  0  0
 64149  1  0  0  0
 65150  1  0  0  0
 68 85  1  0  0  0
 71 72  2  0  0  0
 71 75  1  0  0  0
 71151  1  0  0  0
 72 73  1  0  0  0
 72 88  1  0  0  0
 73 74  2  0  0  0
 73 86  1  0  0  0
 74 76  1  0  0  0
 74 87  1  0  0  0
 75 76  2  0  0  0
 75 89  1  0  0  0
 76 91  1  0  0  0
 77 79  2  0  0  0
 77 85  1  0  0  0
 77 90  1  0  0  0
 78 80  2  0  0  0
 78152  1  0  0  0
 78153  1  0  0  0
 79 80  1  0  0  0
 79154  1  0  0  0
 80155  1  0  0  0
 81 82  1  0  0  0
 81 83  1  0  0  0
 81156  1  0  0  0
 81157  1  0  0  0
 82 84  1  0  0  0
 82158  1  0  0  0
 82159  1  0  0  0
 83 85  1  0  0  0
 83160  1  0  0  0
 83161  1  0  0  0
 84 90  1  0  0  0
 84162  1  0  0  0
 84163  1  0  0  0
 85164  1  0  0  0
 86165  1  0  0  0
 86166  1  0  0  0
 86167  1  0  0  0
 87168  1  0  0  0
 87169  1  0  0  0
 87170  1  0  0  0
 88171  1  0  0  0
 88172  1  0  0  0
 88 90  1  0  0  0
 89173  1  0  0  0
 90174  1  0  0  0
M  CHG  1  90   1
M  ISO  4   1 100  68 101  85 101  89 100
M  END
> <chiral flag>
0

> <version>
0

> <s_m_source_file>
/data/baiqing/PycharmProjects/Reinvent-master-3.2/result/LINK_invent/BTK/process_docking_weight1_custom_product_contain_oxygen_bond_distance_aromatic_linkinvent_7_9_3/rearranged_h_0036.sdf

> <i_m_source_file_index>
77

> <r_mmod_Potential_Energy-OPLS-2005>
232.749649047852

> <r_mmod_Stretch_Energy-OPLS-2005>
158.965255737305

> <r_mmod_Bend_Energy-OPLS-2005>
227.890930175781

> <r_mmod_Torsional_Energy-OPLS-2005>
296.712921142578

> <r_mmod_Improper_Torsional_Energy-OPLS-2005>
7.89221906661987

> <r_mmod_Van_der_Waal_Energy-OPLS-2005>
161.543838500977

> <r_mmod_Electrostatic_Energy-OPLS-2005>
-288.084655761719

> <r_mmod_Solvation_Energy-OPLS-2005>
-430.848693847656

> <b_mmod_Minimization_Converged-OPLS-2005>
0

> <r_mmod_RMS_Derivative-OPLS-2005>
1.62903678417206

$$$$
77
                    3D
 Structure written by MMmdl.
175184  0  0  1  0            999 V2000
  -30.7076  -14.5165   20.4517 C   0  0  0  0  0  0
  -30.4120  -12.3050   19.4363 C   0  0  0  0  0  0
  -29.4922  -12.4628   18.2093 C   0  0  0  0  0  0
  -28.0101  -12.3530   18.6200 C   0  0  0  0  0  0
  -27.6488  -13.2085   19.8658 C   0  0  2  0  0  0
  -28.7023  -13.0716   20.9884 C   0  0  0  0  0  0
  -25.2551  -13.8150   20.5697 C   0  0  0  0  0  0
  -24.1811  -13.0428   20.9196 C   0  0  0  0  0  0
  -24.6377  -11.6898   20.8757 C   0  0  0  0  0  0
  -23.9043  -10.4285   21.0408 C   0  0  0  0  0  0
  -24.3604   -9.4202   21.9175 C   0  0  0  0  0  0
  -23.6292   -8.2234   22.0745 C   0  0  0  0  0  0
  -22.4274   -8.0266   21.3531 C   0  0  0  0  0  0
  -21.9906   -9.0241   20.4634 C   0  0  0  0  0  0
  -22.7225  -10.2125   20.3049 C   0  0  0  0  0  0
  -21.6855   -6.0726   22.5275 C   0  0  0  0  0  0
  -21.4009   -6.5638   23.8205 C   0  0  0  0  0  0
  -21.3656   -5.6796   24.9172 C   0  0  0  0  0  0
  -21.6045   -4.3057   24.7225 C   0  0  0  0  0  0
  -21.8815   -3.8144   23.4346 C   0  0  0  0  0  0
  -21.9200   -4.6955   22.3403 C   0  0  0  0  0  0
  -22.7837  -13.5222   21.1851 C   0  0  0  0  0  0
  -22.1664   -4.2138   21.0977 F   0  0  0  0  0  0
  -21.5631   -3.4548   25.7741 F   0  0  0  0  0  0
  -30.0222  -13.3429   20.4024 N   0  0  0  0  0  0
  -26.2971  -12.9309   20.3387 N   0  0  0  0  0  0
  -25.9303  -11.6473   20.5820 N   0  0  0  0  0  0
  -22.0490  -12.8205   22.0408 N   0  0  0  0  0  0
  -25.4273  -15.1870   20.4081 N   0  0  0  0  0  0
  -31.9032  -14.5892   20.1637 O   0  0  0  0  0  0
  -21.6638   -6.8862   21.4233 O   0  0  0  0  0  0
  -22.3526  -14.5539   20.6712 O   0  0  0  0  0  0
  -24.6153  -31.8674   23.2090 C   0  0  0  0  0  0
  -25.9059  -32.4819   23.8365 C   0  0  1  0  0  0
  -27.2262  -27.4144   20.1115 C   0  0  0  0  0  0
  -25.5943  -33.8617   24.2323 N   0  0  0  0  0  0
  -23.4027  -30.4904   21.5481 C   0  0  2  0  0  0
  -24.8479  -28.9508   20.1116 C   0  0  0  0  0  0
  -22.7404  -29.4666   22.4971 C   0  0  0  0  0  0
  -18.0277  -28.1389   22.8498 C   0  0  0  0  0  0
  -24.1475  -36.7275   23.2636 C   0  0  0  0  0  0
  -25.9308  -30.8244   21.3643 C   0  0  0  0  0  0
  -26.0056  -29.4561   20.7153 C   0  0  0  0  0  0
  -27.1965  -28.6951   20.7118 C   0  0  0  0  0  0
  -26.0621  -26.9399   19.4689 C   0  0  0  0  0  0
  -24.8721  -27.6920   19.4842 C   0  0  0  0  0  0
  -23.6119  -29.8220   20.1616 C   0  0  0  0  0  0
  -25.4105  -36.3099   24.0340 C   0  0  1  0  0  0
  -20.5869  -28.3673   23.1326 C   0  0  2  0  0  0
  -20.6764  -26.9409   22.5420 C   0  0  0  0  0  0
  -19.5738  -26.6398   21.5220 C   0  0  0  0  0  0
  -18.1920  -26.7938   22.1630 C   0  0  0  0  0  0
  -19.1530  -28.8845   23.2913 C   0  0  0  0  0  0
  -18.9459  -30.1456   23.8913 C   0  0  0  0  0  0
  -17.6462  -30.6603   24.0572 C   0  0  0  0  0  0
  -25.9044  -34.9478   23.5116 C   0  0  0  0  0  0
  -16.5353  -29.9103   23.6331 C   0  0  0  0  0  0
  -16.7267  -28.6520   23.0350 C   0  0  0  0  0  0
  -26.4488  -31.6595   25.0690 C   0  0  0  0  0  0
  -25.3757  -31.3717   26.1440 C   0  0  0  0  0  0
  -27.0309  -30.3036   24.6056 C   0  0  0  0  0  0
  -27.6060  -32.4310   25.7467 C   0  0  0  0  0  0
  -27.5573  -37.1797   24.8474 C   0  0  0  0  0  0
  -21.4131  -29.3036   22.3715 N   0  0  0  0  0  0
  -26.4280  -37.3795   23.9417 N   0  0  0  0  0  0
  -24.6675  -31.0760   22.0995 N   0  0  0  0  0  0
  -23.4175  -28.8222   23.3026 O   0  0  0  0  0  0
  -28.3944  -26.6779   20.1365 O   0  0  0  0  0  0
  -26.5590  -34.8928   22.4670 O   0  0  0  0  0  0
  -23.5353  -32.1456   23.7489 O   0  0  0  0  0  0
  -27.9994  -20.0562   18.2204 C   0  0  0  0  0  0
  -27.7988  -18.7081   17.8894 C   0  0  0  0  0  0
  -29.0448  -20.4462   19.0718 C   0  0  0  0  0  0
  -29.7797  -19.4344   19.7636 C   0  0  0  0  0  0
  -28.6457  -17.7050   18.4304 C   0  0  0  0  0  0
  -29.5750  -18.0405   19.4674 C   0  0  0  0  0  0
  -27.4272  -23.3911   21.9978 C   0  0  0  0  0  0
  -27.2200  -24.8398   21.5124 C   0  0  0  0  0  0
  -27.7148  -22.4219   20.8309 C   0  0  0  0  0  0
  -28.6714  -24.2749   19.5044 C   0  0  0  0  0  0
  -28.4022  -25.3087   20.6245 C   0  0  1  0  0  0
  -26.7163  -18.3888   16.8667 C   0  0  0  0  0  0
  -30.8524  -19.8478   20.7674 C   0  0  0  0  0  0
  -29.6124  -16.2914   16.5634 C   0  0  0  0  0  0
  -28.6365  -16.3353   17.7469 C   0  0  0  0  0  0
  -30.5022  -16.9766   20.1322 C   0  0  0  0  0  0
  -29.4327  -21.9444   19.0278 C   0  0  0  0  0  0
  -29.9705  -15.6479   20.5278 N   0  0  0  0  0  0
  -28.8876  -22.8912   20.0501 N   0  3  2  0  0  0
  -31.4590  -12.3809   19.1356 H   0  0  0  0  0  0
  -30.2989  -11.3148   19.8793 H   0  0  0  0  0  0
  -29.7281  -11.7016   17.4641 H   0  0  0  0  0  0
  -29.6774  -13.4223   17.7270 H   0  0  0  0  0  0
  -27.8054  -11.3012   18.8228 H   0  0  0  0  0  0
  -27.3690  -12.6281   17.7809 H   0  0  0  0  0  0
  -27.6515  -14.2436   19.5418 H   0  0  0  0  0  0
  -28.6845  -12.0687   21.4175 H   0  0  0  0  0  0
  -28.4865  -13.7600   21.8075 H   0  0  0  0  0  0
  -25.2744   -9.5697   22.4750 H   0  0  0  0  0  0
  -24.0007   -7.4631   22.7472 H   0  0  0  0  0  0
  -21.0836   -8.8748   19.8952 H   0  0  0  0  0  0
  -22.3665  -10.9657   19.6161 H   0  0  0  0  0  0
  -21.1995   -7.6144   23.9699 H   0  0  0  0  0  0
  -21.1479   -6.0527   25.9069 H   0  0  0  0  0  0
  -22.0604   -2.7605   23.2854 H   0  0  0  0  0  0
  -22.4119  -11.9862   22.4771 H   0  0  0  0  0  0
  -21.1100  -13.1209   22.2611 H   0  0  0  0  0  0
  -24.6612  -15.8434   20.5135 H   0  0  0  0  0  0
  -26.2796  -15.6273   20.0867 H   0  0  0  0  0  0
  -26.7126  -32.5517   23.1112 H   0  0  0  0  0  0
  -25.0190  -33.9776   25.0543 H   0  0  0  0  0  0
  -22.6924  -31.3074   21.4083 H   0  0  0  0  0  0
  -23.3758  -35.9585   23.3317 H   0  0  0  0  0  0
  -24.3566  -36.8863   22.2044 H   0  0  0  0  0  0
  -23.7192  -37.6479   23.6620 H   0  0  0  0  0  0
  -26.0447  -31.5864   20.5915 H   0  0  0  0  0  0
  -26.8196  -30.8803   21.9807 H   0  0  0  0  0  0
  -28.0873  -29.0791   21.1893 H   0  0  0  0  0  0
  -26.0666  -25.9841   18.9652 H   0  0  0  0  0  0
  -23.9840  -27.3038   19.0022 H   0  0  0  0  0  0
  -23.7253  -30.5962   19.4013 H   0  0  0  0  0  0
  -22.7330  -29.2465   19.8644 H   0  0  0  0  0  0
  -25.1280  -36.1963   25.0832 H   0  0  0  0  0  0
  -20.9972  -28.3238   24.1448 H   0  0  0  0  0  0
  -20.5688  -26.2278   23.3606 H   0  0  0  0  0  0
  -21.6635  -26.7467   22.1205 H   0  0  0  0  0  0
  -19.6892  -25.6317   21.1236 H   0  0  0  0  0  0
  -19.6678  -27.3212   20.6757 H   0  0  0  0  0  0
  -17.4197  -26.6715   21.4025 H   0  0  0  0  0  0
  -18.0307  -26.0081   22.9026 H   0  0  0  0  0  0
  -19.7936  -30.7276   24.2284 H   0  0  0  0  0  0
  -17.5022  -31.6279   24.5173 H   0  0  0  0  0  0
  -15.5354  -30.3011   23.7653 H   0  0  0  0  0  0
  -15.8668  -28.0847   22.7051 H   0  0  0  0  0  0
  -24.5918  -30.7070   25.7787 H   0  0  0  0  0  0
  -24.8962  -32.2889   26.4875 H   0  0  0  0  0  0
  -25.8122  -30.8897   27.0195 H   0  0  0  0  0  0
  -26.2843  -29.6807   24.1112 H   0  0  0  0  0  0
  -27.4091  -29.7253   25.4494 H   0  0  0  0  0  0
  -27.8670  -30.4356   23.9183 H   0  0  0  0  0  0
  -27.2672  -33.3594   26.2074 H   0  0  0  0  0  0
  -28.3874  -32.6902   25.0313 H   0  0  0  0  0  0
  -28.0714  -31.8416   26.5376 H   0  0  0  0  0  0
  -28.2625  -38.0066   24.7541 H   0  0  0  0  0  0
  -28.1035  -36.2610   24.6291 H   0  0  0  0  0  0
  -27.2291  -37.1453   25.8877 H   0  0  0  0  0  0
  -20.9290  -29.8745   21.6922 H   0  0  0  0  0  0
  -26.0167  -38.2863   24.1448 H   0  0  0  0  0  0
  -27.4123  -20.8144   17.7203 H   0  0  0  0  0  0
  -26.5419  -23.0563   22.5398 H   0  0  0  0  0  0
  -28.2496  -23.3555   22.7144 H   0  0  0  0  0  0
  -27.1032  -25.5050   22.3682 H   0  0  0  0  0  0
  -26.2804  -24.8653   20.9647 H   0  0  0  0  0  0
  -26.8440  -22.3317   20.1782 H   0  0  0  0  0  0
  -27.9065  -21.4302   21.2412 H   0  0  0  0  0  0
  -29.5564  -24.5855   18.9478 H   0  0  0  0  0  0
  -27.8429  -24.2692   18.7949 H   0  0  0  0  0  0
  -29.2824  -25.2874   21.2687 H   0  0  0  0  0  0
  -26.1826  -19.2864   16.5493 H   0  0  0  0  0  0
  -25.9788  -17.7084   17.2923 H   0  0  0  0  0  0
  -27.1404  -17.9318   15.9725 H   0  0  0  0  0  0
  -30.9107  -20.9197   20.9371 H   0  0  0  0  0  0
  -31.8363  -19.5162   20.4322 H   0  0  0  0  0  0
  -30.6471  -19.4048   21.7421 H   0  0  0  0  0  0
  -29.5708  -15.3255   16.0594 H   0  0  0  0  0  0
  -30.6382  -16.4467   16.8980 H   0  0  0  0  0  0
  -29.3848  -17.0579   15.8235 H   0  0  0  0  0  0
  -27.6353  -16.0708   17.4093 H   0  0  0  0  0  0
  -28.8971  -15.5305   18.4085 H   0  0  0  0  0  0
  -30.9713  -17.3553   21.0360 H   0  0  0  0  0  0
  -31.3191  -16.8541   19.4190 H   0  0  0  0  0  0
  -29.1350  -22.3067   18.0419 H   0  0  0  0  0  0
  -30.5193  -22.0398   19.0133 H   0  0  0  0  0  0
  -28.9842  -15.5717   20.7201 H   0  0  0  0  0  0
  -29.6340  -22.9664   20.7248 H   0  0  0  0  0  0
  1 25  1  0  0  0
  1 30  2  0  0  0
  1 88  1  0  0  0
  2  3  1  0  0  0
  2 25  1  0  0  0
  2 90  1  0  0  0
  2 91  1  0  0  0
  3  4  1  0  0  0
  3 92  1  0  0  0
  3 93  1  0  0  0
  4  5  1  0  0  0
  4 94  1  0  0  0
  4 95  1  0  0  0
  5  6  1  0  0  0
  5 26  1  0  0  0
  5 96  1  0  0  0
  6 25  1  0  0  0
  6 97  1  0  0  0
  6 98  1  0  0  0
  7  8  2  0  0  0
  7 26  1  0  0  0
  7 29  1  0  0  0
  8  9  1  0  0  0
  8 22  1  0  0  0
  9 10  1  0  0  0
  9 27  2  0  0  0
 10 11  2  0  0  0
 10 15  1  0  0  0
 11 12  1  0  0  0
 11 99  1  0  0  0
 12 13  2  0  0  0
 12100  1  0  0  0
 13 14  1  0  0  0
 13 31  1  0  0  0
 14 15  2  0  0  0
 14101  1  0  0  0
 15102  1  0  0  0
 16 17  2  0  0  0
 16 21  1  0  0  0
 16 31  1  0  0  0
 17 18  1  0  0  0
 17103  1  0  0  0
 18 19  2  0  0  0
 18104  1  0  0  0
 19 20  1  0  0  0
 19 24  1  0  0  0
 20 21  2  0  0  0
 20105  1  0  0  0
 21 23  1  0  0  0
 22 28  1  0  0  0
 22 32  2  0  0  0
 26 27  1  0  0  0
 28106  1  0  0  0
 28107  1  0  0  0
 29108  1  0  0  0
 29109  1  0  0  0
 33 34  1  0  0  0
 33 66  1  0  0  0
 33 70  2  0  0  0
 34 36  1  0  0  0
 34 59  1  0  0  0
 34110  1  0  0  0
 35 44  2  0  0  0
 35 45  1  0  0  0
 35 68  1  0  0  0
 36 56  1  0  0  0
 36111  1  0  0  0
 37 39  1  0  0  0
 37 47  1  0  0  0
 37 66  1  0  0  0
 37112  1  0  0  0
 38 43  2  0  0  0
 38 46  1  0  0  0
 38 47  1  0  0  0
 39 64  1  0  0  0
 39 67  2  0  0  0
 40 52  1  0  0  0
 40 53  2  0  0  0
 40 58  1  0  0  0
 41113  1  0  0  0
 41114  1  0  0  0
 41115  1  0  0  0
 41 48  1  0  0  0
 42 43  1  0  0  0
 42 66  1  0  0  0
 42116  1  0  0  0
 42117  1  0  0  0
 43 44  1  0  0  0
 44118  1  0  0  0
 45 46  2  0  0  0
 45119  1  0  0  0
 46120  1  0  0  0
 47121  1  0  0  0
 47122  1  0  0  0
 48 56  1  0  0  0
 48 65  1  0  0  0
 48123  1  0  0  0
 49 50  1  0  0  0
 49 53  1  0  0  0
 49 64  1  0  0  0
 49124  1  0  0  0
 50 51  1  0  0  0
 50125  1  0  0  0
 50126  1  0  0  0
 51 52  1  0  0  0
 51127  1  0  0  0
 51128  1  0  0  0
 52129  1  0  0  0
 52130  1  0  0  0
 53 54  1  0  0  0
 54 55  2  0  0  0
 54131  1  0  0  0
 55 57  1  0  0  0
 55132  1  0  0  0
 56 69  2  0  0  0
 57 58  2  0  0  0
 57133  1  0  0  0
 58134  1  0  0  0
 59 60  1  0  0  0
 59 61  1  0  0  0
 59 62  1  0  0  0
 60135  1  0  0  0
 60136  1  0  0  0
 60137  1  0  0  0
 61138  1  0  0  0
 61139  1  0  0  0
 61140  1  0  0  0
 62141  1  0  0  0
 62142  1  0  0  0
 62143  1  0  0  0
 63 65  1  0  0  0
 63144  1  0  0  0
 63145  1  0  0  0
 63146  1  0  0  0
 64147  1  0  0  0
 65148  1  0  0  0
 68 81  1  0  0  0
 71 72  2  0  0  0
 71 73  1  0  0  0
 71149  1  0  0  0
 72 75  1  0  0  0
 72 82  1  0  0  0
 73 74  2  0  0  0
 73 87  1  0  0  0
 74 76  1  0  0  0
 74 83  1  0  0  0
 75 76  2  0  0  0
 75 85  1  0  0  0
 76 86  1  0  0  0
 77 78  1  0  0  0
 77 79  1  0  0  0
 77150  1  0  0  0
 77151  1  0  0  0
 78 81  1  0  0  0
 78152  1  0  0  0
 78153  1  0  0  0
 79 89  1  0  0  0
 79154  1  0  0  0
 79155  1  0  0  0
 80 81  1  0  0  0
 80 89  1  0  0  0
 80156  1  0  0  0
 80157  1  0  0  0
 81158  1  0  0  0
 82159  1  0  0  0
 82160  1  0  0  0
 82161  1  0  0  0
 83162  1  0  0  0
 83163  1  0  0  0
 83164  1  0  0  0
 84 85  1  0  0  0
 84165  1  0  0  0
 84166  1  0  0  0
 84167  1  0  0  0
 85168  1  0  0  0
 85169  1  0  0  0
 86 88  1  0  0  0
 86170  1  0  0  0
 86171  1  0  0  0
 87172  1  0  0  0
 87173  1  0  0  0
 87 89  1  0  0  0
 88174  1  0  0  0
 89175  1  0  0  0
M  CHG  1  89   1
M  ISO  4   1 100  68 101  81 101  88 100
M  END
> <chiral flag>
0

> <version>
0

> <s_m_source_file>
/data/baiqing/PycharmProjects/Reinvent-master-3.2/result/LINK_invent/BTK/process_docking_weight1_custom_product_contain_oxygen_bond_distance_aromatic_linkinvent_7_9_3/rearranged_h_0036.sdf

> <i_m_source_file_index>
78

> <r_mmod_Potential_Energy-OPLS-2005>
-80.193359375

> <r_mmod_Stretch_Energy-OPLS-2005>
53.0848770141602

> <r_mmod_Bend_Energy-OPLS-2005>
135.776321411133

> <r_mmod_Torsional_Energy-OPLS-2005>
269.286712646484

> <r_mmod_Improper_Torsional_Energy-OPLS-2005>
10.1869983673096

> <r_mmod_Van_der_Waal_Energy-OPLS-2005>
163.886367797852

> <r_mmod_Electrostatic_Energy-OPLS-2005>
-325.553894042969

> <r_mmod_Solvation_Energy-OPLS-2005>
-412.266754150391

> <b_mmod_Minimization_Converged-OPLS-2005>
0

> <r_mmod_RMS_Derivative-OPLS-2005>
2.02180314064026

$$$$
78
                    3D
 Structure written by MMmdl.
173182  0  0  1  0            999 V2000
  -29.9093  -15.2479   20.6114 C   0  0  0  0  0  0
  -30.3950  -12.8601   19.6029 C   0  0  0  0  0  0
  -29.5348  -12.5955   18.3319 C   0  0  0  0  0  0
  -28.0816  -12.2486   18.7069 C   0  0  0  0  0  0
  -27.5714  -13.1718   19.8318 C   0  0  2  0  0  0
  -28.5207  -13.2057   21.0287 C   0  0  0  0  0  0
  -25.2218  -13.7467   20.5328 C   0  0  0  0  0  0
  -24.1545  -13.0049   20.9228 C   0  0  0  0  0  0
  -24.6112  -11.6537   20.8804 C   0  0  0  0  0  0
  -23.8820  -10.4064   21.0499 C   0  0  0  0  0  0
  -24.3456   -9.4037   21.9256 C   0  0  0  0  0  0
  -23.6168   -8.2080   22.0786 C   0  0  0  0  0  0
  -22.4162   -8.0147   21.3551 C   0  0  0  0  0  0
  -21.9747   -9.0104   20.4669 C   0  0  0  0  0  0
  -22.7037  -10.1980   20.3102 C   0  0  0  0  0  0
  -21.6796   -6.0658   22.5292 C   0  0  0  0  0  0
  -21.3972   -6.5595   23.8215 C   0  0  0  0  0  0
  -21.3634   -5.6765   24.9190 C   0  0  0  0  0  0
  -21.6038   -4.3031   24.7251 C   0  0  0  0  0  0
  -21.8832   -3.8102   23.4382 C   0  0  0  0  0  0
  -21.9184   -4.6900   22.3426 C   0  0  0  0  0  0
  -22.7681  -13.5081   21.1941 C   0  0  0  0  0  0
  -22.1662   -4.2089   21.1004 F   0  0  0  0  0  0
  -21.5632   -3.4526   25.7771 F   0  0  0  0  0  0
  -29.6925  -13.8575   20.5045 N   0  0  0  0  0  0
  -26.2426  -12.8645   20.2839 N   0  0  0  0  0  0
  -25.8973  -11.5930   20.5640 N   0  0  0  0  0  0
  -22.0270  -12.8204   22.0533 N   0  0  0  0  0  0
  -25.4170  -15.0857   20.3157 N   0  0  0  0  0  0
  -31.0954  -15.5194   20.3005 O   0  0  0  0  0  0
  -21.6549   -6.8754   21.4237 O   0  0  0  0  0  0
  -22.3536  -14.5470   20.6806 O   0  0  0  0  0  0
  -24.6676  -31.9512   23.2095 C   0  0  0  0  0  0
  -25.9601  -32.5088   23.8528 C   0  0  1  0  0  0
  -26.2573  -27.1602   20.3736 C   0  0  0  0  0  0
  -25.6457  -33.8827   24.2547 N   0  0  0  0  0  0
  -23.4487  -30.6218   21.5759 C   0  0  2  0  0  0
  -24.7846  -29.2264   19.8831 C   0  0  0  0  0  0
  -23.0193  -29.5815   22.6249 C   0  0  0  0  0  0
  -18.6034  -27.8385   22.4333 C   0  0  0  0  0  0
  -24.1525  -36.7339   23.2606 C   0  0  0  0  0  0
  -25.9815  -30.8116   21.4048 C   0  0  0  0  0  0
  -25.9019  -29.4757   20.6870 C   0  0  0  0  0  0
  -26.8020  -28.4022   20.8408 C   0  0  0  0  0  0
  -25.8299  -27.1806   19.0763 C   0  0  0  0  0  0
  -24.8273  -28.1566   18.9530 C   0  0  0  0  0  0
  -23.5742  -30.0818   20.1103 C   0  0  0  0  0  0
  -25.4158  -36.3205   24.0322 C   0  0  1  0  0  0
  -21.2319  -28.2339   23.5023 C   0  0  2  0  0  0
  -22.2251  -26.6415   23.0471 C   0  0  0  0  0  0
  -20.5742  -25.4468   21.2784 C   0  0  0  0  0  0
  -18.9689  -26.5312   21.3506 C   0  0  0  0  0  0
  -19.6002  -28.5740   23.2549 C   0  0  0  0  0  0
  -19.1485  -29.7893   23.9139 C   0  0  0  0  0  0
  -17.8198  -30.2720   23.9470 C   0  0  0  0  0  0
  -25.9187  -34.9617   23.5140 C   0  0  0  0  0  0
  -16.8345  -29.4901   23.3365 C   0  0  0  0  0  0
  -17.2276  -28.3180   22.6102 C   0  0  0  0  0  0
  -26.4607  -31.6654   25.0875 C   0  0  0  0  0  0
  -25.3675  -31.3808   26.1443 C   0  0  0  0  0  0
  -27.0374  -30.3039   24.6361 C   0  0  0  0  0  0
  -27.6164  -32.4232   25.7796 C   0  0  0  0  0  0
  -27.5611  -37.1877   24.8466 C   0  0  0  0  0  0
  -21.7489  -29.4580   22.9070 N   0  0  0  0  0  0
  -26.4322  -37.3903   23.9412 N   0  0  0  0  0  0
  -24.7179  -31.1975   22.0772 N   0  0  0  0  0  0
  -23.8402  -28.9285   23.2582 O   0  0  0  0  0  0
  -25.0749  -26.7290   21.0848 O   0  0  0  0  0  0
  -26.5539  -34.9031   22.4581 O   0  0  0  0  0  0
  -23.5877  -32.2300   23.7563 O   0  0  0  0  0  0
  -26.3938  -21.5793   22.1009 C   0  0  0  0  0  0
  -27.3614  -20.4796   21.7752 C   0  0  0  0  0  0
  -24.9300  -21.5647   22.1426 C   0  0  0  0  0  0
  -24.6335  -20.1837   21.7523 C   0  0  0  0  0  0
  -25.6122  -19.0889   21.3724 C   0  0  0  0  0  0
  -27.0931  -19.0733   21.4215 C   0  0  0  0  0  0
  -21.2584  -24.3748   23.4815 C   0  0  0  0  0  0
  -20.9399  -23.4772   24.4286 C   0  0  0  0  0  0
  -20.2092  -25.9289   23.3736 C   0  0  0  0  0  0
  -21.4598  -27.4398   21.1729 C   0  0  0  0  0  0
  -23.2742  -24.8410   21.1825 C   0  0  0  0  0  0
  -23.3012  -26.5322   20.7930 C   0  0  2  0  0  0
  -28.8269  -20.8869   21.7718 C   0  0  0  0  0  0
  -23.1457  -19.8420   21.7606 C   0  0  0  0  0  0
  -25.0022  -17.8569   20.7918 C   0  0  0  0  0  0
  -28.3907  -17.8798   20.9716 C   0  0  0  0  0  0
  -23.8608  -22.8011   22.8538 C   0  0  0  0  0  0
  -28.7775  -16.2181   20.9307 N   0  0  0  0  0  0
  -22.6935  -23.9377   22.4058 N   0  3  1  0  0  0
  -31.3787  -13.2295   19.3081 H   0  0  0  0  0  0
  -30.5789  -11.9290   20.1421 H   0  0  0  0  0  0
  -29.9734  -11.7973   17.7314 H   0  0  0  0  0  0
  -29.5383  -13.4881   17.7056 H   0  0  0  0  0  0
  -28.0551  -11.2142   19.0512 H   0  0  0  0  0  0
  -27.4325  -12.2987   17.8330 H   0  0  0  0  0  0
  -27.5306  -14.1612   19.3767 H   0  0  0  0  0  0
  -28.7290  -12.2046   21.4108 H   0  0  0  0  0  0
  -28.0948  -13.7722   21.8584 H   0  0  0  0  0  0
  -25.2597   -9.5552   22.4827 H   0  0  0  0  0  0
  -23.9888   -7.4456   22.7484 H   0  0  0  0  0  0
  -21.0681   -8.8603   19.8968 H   0  0  0  0  0  0
  -22.3501  -10.9539   19.6226 H   0  0  0  0  0  0
  -21.1949   -7.6102   23.9696 H   0  0  0  0  0  0
  -21.1442   -6.0505   25.9086 H   0  0  0  0  0  0
  -22.0639   -2.7566   23.2907 H   0  0  0  0  0  0
  -22.3765  -11.9781   22.4862 H   0  0  0  0  0  0
  -21.0943  -13.1368   22.2771 H   0  0  0  0  0  0
  -24.6177  -15.7059   20.3436 H   0  0  0  0  0  0
  -26.1587  -15.4231   19.7170 H   0  0  0  0  0  0
  -26.7721  -32.5560   23.1286 H   0  0  0  0  0  0
  -25.0733  -33.9965   25.0780 H   0  0  0  0  0  0
  -22.6879  -31.4049   21.5491 H   0  0  0  0  0  0
  -23.3833  -35.9625   23.3262 H   0  0  0  0  0  0
  -24.3624  -36.8967   22.2024 H   0  0  0  0  0  0
  -23.7216  -37.6519   23.6615 H   0  0  0  0  0  0
  -26.2339  -31.5841   20.6765 H   0  0  0  0  0  0
  -26.8304  -30.7421   22.0731 H   0  0  0  0  0  0
  -27.5900  -28.4413   21.5802 H   0  0  0  0  0  0
  -25.7053  -26.2716   18.5052 H   0  0  0  0  0  0
  -24.0484  -28.0441   18.2113 H   0  0  0  0  0  0
  -23.6622  -30.9341   19.4348 H   0  0  0  0  0  0
  -22.6754  -29.5621   19.7905 H   0  0  0  0  0  0
  -25.1316  -36.2063   25.0810 H   0  0  0  0  0  0
  -21.3841  -28.3580   24.5761 H   0  0  0  0  0  0
  -22.3988  -26.2537   24.0614 H   0  0  0  0  0  0
  -23.3049  -26.7186   22.9858 H   0  0  0  0  0  0
  -20.2486  -24.4103   21.4018 H   0  0  0  0  0  0
  -20.9016  -25.3353   20.2400 H   0  0  0  0  0  0
  -18.8318  -26.9535   20.3544 H   0  0  0  0  0  0
  -18.1274  -25.8406   21.4228 H   0  0  0  0  0  0
  -19.8744  -30.3626   24.4740 H   0  0  0  0  0  0
  -17.5651  -31.1786   24.4801 H   0  0  0  0  0  0
  -15.7963  -29.7894   23.3720 H   0  0  0  0  0  0
  -16.4464  -27.7783   22.0930 H   0  0  0  0  0  0
  -24.5823  -30.7286   25.7598 H   0  0  0  0  0  0
  -24.8910  -32.2986   26.4903 H   0  0  0  0  0  0
  -25.7827  -30.8843   27.0219 H   0  0  0  0  0  0
  -26.2977  -29.6900   24.1221 H   0  0  0  0  0  0
  -27.3809  -29.7213   25.4918 H   0  0  0  0  0  0
  -27.8994  -30.4253   23.9796 H   0  0  0  0  0  0
  -27.2817  -33.3505   26.2452 H   0  0  0  0  0  0
  -28.4040  -32.6810   25.0709 H   0  0  0  0  0  0
  -28.0730  -31.8238   26.5678 H   0  0  0  0  0  0
  -28.2613  -38.0197   24.7580 H   0  0  0  0  0  0
  -28.1136  -36.2738   24.6222 H   0  0  0  0  0  0
  -27.2326  -37.1433   25.8867 H   0  0  0  0  0  0
  -21.0768  -30.0673   22.4625 H   0  0  0  0  0  0
  -26.0209  -38.2975   24.1441 H   0  0  0  0  0  0
  -26.8376  -22.5263   22.3781 H   0  0  0  0  0  0
  -20.1100  -23.6626   25.0928 H   0  0  0  0  0  0
  -21.4743  -22.5525   24.5727 H   0  0  0  0  0  0
  -20.2072  -26.3268   24.3957 H   0  0  0  0  0  0
  -19.1899  -25.5319   23.3700 H   0  0  0  0  0  0
  -21.2816  -28.4819   20.9759 H   0  0  0  0  0  0
  -21.0071  -27.3591   20.1756 H   0  0  0  0  0  0
  -24.3109  -24.5186   21.0824 H   0  0  0  0  0  0
  -22.8357  -24.3559   20.3120 H   0  0  0  0  0  0
  -23.2387  -26.4831   19.7107 H   0  0  0  0  0  0
  -28.9573  -21.9625   21.8947 H   0  0  0  0  0  0
  -29.2941  -20.6155   20.8237 H   0  0  0  0  0  0
  -29.3697  -20.3895   22.5763 H   0  0  0  0  0  0
  -22.5401  -20.5954   22.2587 H   0  0  0  0  0  0
  -22.9633  -18.9069   22.2916 H   0  0  0  0  0  0
  -22.7578  -19.7564   20.7464 H   0  0  0  0  0  0
  -24.0593  -18.0157   20.2726 H   0  0  0  0  0  0
  -24.8528  -17.1376   21.5964 H   0  0  0  0  0  0
  -25.6894  -17.4891   20.0320 H   0  0  0  0  0  0
  -29.2547  -18.2583   21.5154 H   0  0  0  0  0  0
  -28.5979  -18.1707   19.9415 H   0  0  0  0  0  0
  -24.5602  -23.4138   23.4252 H   0  0  0  0  0  0
  -23.3703  -22.2262   23.6339 H   0  0  0  0  0  0
  -27.9516  -15.6817   21.1603 H   0  0  0  0  0  0
  -22.2203  -23.2879   21.7952 H   0  0  0  0  0  0
  1 25  1  0  0  0
  1 30  2  0  0  0
  1 88  1  0  0  0
  2  3  1  0  0  0
  2 25  1  0  0  0
  2 90  1  0  0  0
  2 91  1  0  0  0
  3  4  1  0  0  0
  3 92  1  0  0  0
  3 93  1  0  0  0
  4  5  1  0  0  0
  4 94  1  0  0  0
  4 95  1  0  0  0
  5  6  1  0  0  0
  5 26  1  0  0  0
  5 96  1  0  0  0
  6 25  1  0  0  0
  6 97  1  0  0  0
  6 98  1  0  0  0
  7  8  2  0  0  0
  7 26  1  0  0  0
  7 29  1  0  0  0
  8  9  1  0  0  0
  8 22  1  0  0  0
  9 10  1  0  0  0
  9 27  2  0  0  0
 10 11  2  0  0  0
 10 15  1  0  0  0
 11 12  1  0  0  0
 11 99  1  0  0  0
 12 13  2  0  0  0
 12100  1  0  0  0
 13 14  1  0  0  0
 13 31  1  0  0  0
 14 15  2  0  0  0
 14101  1  0  0  0
 15102  1  0  0  0
 16 17  2  0  0  0
 16 21  1  0  0  0
 16 31  1  0  0  0
 17 18  1  0  0  0
 17103  1  0  0  0
 18 19  2  0  0  0
 18104  1  0  0  0
 19 20  1  0  0  0
 19 24  1  0  0  0
 20 21  2  0  0  0
 20105  1  0  0  0
 21 23  1  0  0  0
 22 28  1  0  0  0
 22 32  2  0  0  0
 26 27  1  0  0  0
 28106  1  0  0  0
 28107  1  0  0  0
 29108  1  0  0  0
 29109  1  0  0  0
 33 34  1  0  0  0
 33 66  1  0  0  0
 33 70  2  0  0  0
 34 36  1  0  0  0
 34 59  1  0  0  0
 34110  1  0  0  0
 35 44  2  0  0  0
 35 45  1  0  0  0
 35 68  1  0  0  0
 36 56  1  0  0  0
 36111  1  0  0  0
 37 39  1  0  0  0
 37 47  1  0  0  0
 37 66  1  0  0  0
 37112  1  0  0  0
 38 43  2  0  0  0
 38 46  1  0  0  0
 38 47  1  0  0  0
 39 64  1  0  0  0
 39 67  2  0  0  0
 40 52  1  0  0  0
 40 53  2  0  0  0
 40 58  1  0  0  0
 41113  1  0  0  0
 41114  1  0  0  0
 41115  1  0  0  0
 41 48  1  0  0  0
 42 43  1  0  0  0
 42 66  1  0  0  0
 42116  1  0  0  0
 42117  1  0  0  0
 43 44  1  0  0  0
 44118  1  0  0  0
 45 46  2  0  0  0
 45119  1  0  0  0
 46120  1  0  0  0
 47121  1  0  0  0
 47122  1  0  0  0
 48 56  1  0  0  0
 48 65  1  0  0  0
 48123  1  0  0  0
 49 50  1  0  0  0
 49 53  1  0  0  0
 49 64  1  0  0  0
 49124  1  0  0  0
 50 51  1  0  0  0
 50125  1  0  0  0
 50126  1  0  0  0
 51 52  1  0  0  0
 51127  1  0  0  0
 51128  1  0  0  0
 52129  1  0  0  0
 52130  1  0  0  0
 53 54  1  0  0  0
 54 55  2  0  0  0
 54131  1  0  0  0
 55 57  1  0  0  0
 55132  1  0  0  0
 56 69  2  0  0  0
 57 58  2  0  0  0
 57133  1  0  0  0
 58134  1  0  0  0
 59 60  1  0  0  0
 59 61  1  0  0  0
 59 62  1  0  0  0
 60135  1  0  0  0
 60136  1  0  0  0
 60137  1  0  0  0
 61138  1  0  0  0
 61139  1  0  0  0
 61140  1  0  0  0
 62141  1  0  0  0
 62142  1  0  0  0
 62143  1  0  0  0
 63 65  1  0  0  0
 63144  1  0  0  0
 63145  1  0  0  0
 63146  1  0  0  0
 64147  1  0  0  0
 65148  1  0  0  0
 68 82  1  0  0  0
 71 72  2  0  0  0
 71 73  1  0  0  0
 71149  1  0  0  0
 72 76  1  0  0  0
 72 83  1  0  0  0
 73 74  2  0  0  0
 73 87  1  0  0  0
 74 75  1  0  0  0
 74 84  1  0  0  0
 75 76  2  0  0  0
 75 85  1  0  0  0
 76 86  1  0  0  0
 77 78  2  0  0  0
 77 79  1  0  0  0
 77 89  1  0  0  0
 78150  1  0  0  0
 78151  1  0  0  0
 79 80  1  0  0  0
 79152  1  0  0  0
 79153  1  0  0  0
 80 82  1  0  0  0
 80154  1  0  0  0
 80155  1  0  0  0
 81 82  1  0  0  0
 81 89  1  0  0  0
 81156  1  0  0  0
 81157  1  0  0  0
 82158  1  0  0  0
 83159  1  0  0  0
 83160  1  0  0  0
 83161  1  0  0  0
 84162  1  0  0  0
 84163  1  0  0  0
 84164  1  0  0  0
 85165  1  0  0  0
 85166  1  0  0  0
 85167  1  0  0  0
 86 88  1  0  0  0
 86168  1  0  0  0
 86169  1  0  0  0
 87170  1  0  0  0
 87171  1  0  0  0
 87 89  1  0  0  0
 88172  1  0  0  0
 89173  1  0  0  0
M  CHG  1  89   1
M  ISO  4   1 100  68 101  82 101  88 100
M  END
> <chiral flag>
0

> <version>
0

> <s_m_source_file>
/data/baiqing/PycharmProjects/Reinvent-master-3.2/result/LINK_invent/BTK/process_docking_weight1_custom_product_contain_oxygen_bond_distance_aromatic_linkinvent_7_9_3/rearranged_h_0036.sdf

> <i_m_source_file_index>
79

> <r_mmod_Potential_Energy-OPLS-2005>
11879.5400390625

> <r_mmod_Stretch_Energy-OPLS-2005>
5905.08935546875

> <r_mmod_Bend_Energy-OPLS-2005>
1154.55981445312

> <r_mmod_Torsional_Energy-OPLS-2005>
502.310852050781

> <r_mmod_Improper_Torsional_Energy-OPLS-2005>
40.1412887573242

> <r_mmod_Van_der_Waal_Energy-OPLS-2005>
2137.14331054688

> <r_mmod_Electrostatic_Energy-OPLS-2005>
-356.431182861328

> <r_mmod_Solvation_Energy-OPLS-2005>
-403.117248535156

> <b_mmod_Minimization_Converged-OPLS-2005>
0

> <r_mmod_RMS_Derivative-OPLS-2005>
4.64468050003052

$$$$
79
                    3D
 Structure written by MMmdl.
166175  0  0  1  0            999 V2000
  -30.5614  -14.7648   20.4049 C   0  0  0  0  0  0
  -30.4510  -12.4284   19.5130 C   0  0  0  0  0  0
  -29.5337  -12.3693   18.2702 C   0  0  0  0  0  0
  -28.0381  -12.3141   18.6525 C   0  0  0  0  0  0
  -27.6453  -13.2195   19.8534 C   0  0  2  0  0  0
  -28.6856  -13.1491   20.9893 C   0  0  0  0  0  0
  -25.2542  -13.8179   20.5725 C   0  0  0  0  0  0
  -24.1794  -13.0450   20.9172 C   0  0  0  0  0  0
  -24.6347  -11.6923   20.8699 C   0  0  0  0  0  0
  -23.9014  -10.4312   21.0362 C   0  0  0  0  0  0
  -24.3582   -9.4249   21.9152 C   0  0  0  0  0  0
  -23.6284   -8.2267   22.0747 C   0  0  0  0  0  0
  -22.4264   -8.0289   21.3547 C   0  0  0  0  0  0
  -21.9885   -9.0236   20.4639 C   0  0  0  0  0  0
  -22.7169  -10.2135   20.3040 C   0  0  0  0  0  0
  -21.6867   -6.0727   22.5271 C   0  0  0  0  0  0
  -21.4012   -6.5629   23.8200 C   0  0  0  0  0  0
  -21.3680   -5.6786   24.9167 C   0  0  0  0  0  0
  -21.6068   -4.3052   24.7230 C   0  0  0  0  0  0
  -21.8807   -3.8138   23.4345 C   0  0  0  0  0  0
  -21.9188   -4.6948   22.3394 C   0  0  0  0  0  0
  -22.7813  -13.5252   21.1838 C   0  0  0  0  0  0
  -22.1647   -4.2135   21.0971 F   0  0  0  0  0  0
  -21.5666   -3.4541   25.7746 F   0  0  0  0  0  0
  -29.9834  -13.5129   20.4084 N   0  0  0  0  0  0
  -26.2951  -12.9351   20.3278 N   0  0  0  0  0  0
  -25.9278  -11.6513   20.5740 N   0  0  0  0  0  0
  -22.0489  -12.8221   22.0404 N   0  0  0  0  0  0
  -25.4310  -15.1907   20.4249 N   0  0  0  0  0  0
  -31.7389  -14.8946   20.0551 O   0  0  0  0  0  0
  -21.6666   -6.8862   21.4236 O   0  0  0  0  0  0
  -22.3491  -14.5549   20.6685 O   0  0  0  0  0  0
  -24.6288  -31.8561   23.1980 C   0  0  0  0  0  0
  -25.9129  -32.4767   23.8316 C   0  0  1  0  0  0
  -27.2305  -27.2767   20.1223 C   0  0  0  0  0  0
  -25.5940  -33.8569   24.2242 N   0  0  0  0  0  0
  -23.4252  -30.4757   21.5410 C   0  0  2  0  0  0
  -24.8739  -28.9232   20.1085 C   0  0  0  0  0  0
  -22.7494  -29.4593   22.4928 C   0  0  0  0  0  0
  -18.0288  -28.1388   22.8476 C   0  0  0  0  0  0
  -24.1506  -36.7296   23.2636 C   0  0  0  0  0  0
  -25.9677  -30.7735   21.3743 C   0  0  0  0  0  0
  -26.0411  -29.3966   20.7165 C   0  0  0  0  0  0
  -27.2168  -28.5850   20.7120 C   0  0  0  0  0  0
  -26.0349  -26.8602   19.4938 C   0  0  0  0  0  0
  -24.8753  -27.6635   19.4883 C   0  0  0  0  0  0
  -23.6433  -29.8078   20.1567 C   0  0  0  0  0  0
  -25.4130  -36.3069   24.0313 C   0  0  1  0  0  0
  -20.5892  -28.3694   23.1286 C   0  0  2  0  0  0
  -20.6802  -26.9418   22.5413 C   0  0  0  0  0  0
  -19.5777  -26.6378   21.5219 C   0  0  0  0  0  0
  -18.1943  -26.7927   22.1619 C   0  0  0  0  0  0
  -19.1540  -28.8858   23.2871 C   0  0  0  0  0  0
  -18.9470  -30.1466   23.8884 C   0  0  0  0  0  0
  -17.6468  -30.6590   24.0558 C   0  0  0  0  0  0
  -25.9060  -34.9444   23.5070 C   0  0  0  0  0  0
  -16.5360  -29.9085   23.6331 C   0  0  0  0  0  0
  -16.7273  -28.6507   23.0341 C   0  0  0  0  0  0
  -26.4500  -31.6604   25.0710 C   0  0  0  0  0  0
  -25.3703  -31.3756   26.1417 C   0  0  0  0  0  0
  -27.0365  -30.3031   24.6206 C   0  0  0  0  0  0
  -27.6061  -32.4351   25.7473 C   0  0  0  0  0  0
  -27.5594  -37.1795   24.8450 C   0  0  0  0  0  0
  -21.4204  -29.3037   22.3677 N   0  0  0  0  0  0
  -26.4302  -37.3771   23.9403 N   0  0  0  0  0  0
  -24.6927  -31.0529   22.0948 N   0  0  0  0  0  0
  -23.4197  -28.8126   23.3023 O   0  0  0  0  0  0
  -28.3669  -26.4430   20.2160 O   0  0  0  0  0  0
  -26.5625  -34.8915   22.4641 O   0  0  0  0  0  0
  -23.5447  -32.1390   23.7285 O   0  0  0  0  0  0
  -29.4624  -18.4641   20.5785 C   0  0  0  0  0  0
  -28.9734  -19.6760   19.9285 C   0  0  0  0  0  0
  -28.4709  -19.5117   18.6055 C   0  0  0  0  0  0
  -28.6620  -18.2841   17.9142 C   0  0  0  0  0  0
  -29.5362  -17.1530   19.9478 C   0  0  0  0  0  0
  -29.1675  -17.1333   18.5746 C   0  0  0  0  0  0
  -30.1595  -23.7853   18.1857 C   0  0  0  0  0  0
  -29.8349  -25.1172   18.8899 C   0  0  0  0  0  0
  -30.2350  -22.6023   19.1748 C   0  0  0  0  0  0
  -28.5317  -23.7455   20.5802 C   0  0  0  0  0  0
  -28.4934  -25.0645   19.6410 C   0  0  1  0  0  0
  -27.6557  -20.6120   17.9218 C   0  0  0  0  0  0
  -28.2654  -18.1571   16.4393 C   0  0  0  0  0  0
  -28.8737  -21.0959   20.6747 C   0  0  0  0  0  0
  -29.7589  -15.8674   20.6816 N   0  0  0  0  0  0
  -28.9458  -22.4259   19.8892 N   0  3  2  0  0  0
  -29.2078  -15.6688   17.6653 Cl  0  0  0  0  0  0
  -31.4871  -12.5700   19.2040 H   0  0  0  0  0  0
  -30.4295  -11.4758   20.0443 H   0  0  0  0  0  0
  -29.7814  -11.4801   17.6894 H   0  0  0  0  0  0
  -29.7475  -13.1939   17.6003 H   0  0  0  0  0  0
  -27.8228  -11.2746   18.8996 H   0  0  0  0  0  0
  -27.4189  -12.5459   17.7849 H   0  0  0  0  0  0
  -27.6393  -14.2416   19.4814 H   0  0  0  0  0  0
  -28.7237  -12.1437   21.4143 H   0  0  0  0  0  0
  -28.4180  -13.8122   21.8136 H   0  0  0  0  0  0
  -25.2731   -9.5772   22.4705 H   0  0  0  0  0  0
  -24.0035   -7.4673   22.7456 H   0  0  0  0  0  0
  -21.0827   -8.8695   19.8931 H   0  0  0  0  0  0
  -22.3579  -10.9654   19.6150 H   0  0  0  0  0  0
  -21.1976   -7.6133   23.9695 H   0  0  0  0  0  0
  -21.1529   -6.0526   25.9072 H   0  0  0  0  0  0
  -22.0562   -2.7602   23.2846 H   0  0  0  0  0  0
  -22.4139  -11.9860   22.4707 H   0  0  0  0  0  0
  -21.1107  -13.1210   22.2672 H   0  0  0  0  0  0
  -24.6775  -15.8525   20.5770 H   0  0  0  0  0  0
  -26.2853  -15.6283   20.1059 H   0  0  0  0  0  0
  -26.7190  -32.5417   23.1049 H   0  0  0  0  0  0
  -25.0123  -33.9732   25.0408 H   0  0  0  0  0  0
  -22.7198  -31.2962   21.3929 H   0  0  0  0  0  0
  -23.3777  -35.9615   23.3248 H   0  0  0  0  0  0
  -24.3604  -36.8992   22.2062 H   0  0  0  0  0  0
  -23.7258  -37.6479   23.6705 H   0  0  0  0  0  0
  -26.1032  -31.5361   20.6062 H   0  0  0  0  0  0
  -26.8463  -30.8241   22.0056 H   0  0  0  0  0  0
  -28.1134  -28.9461   21.1952 H   0  0  0  0  0  0
  -25.9455  -25.8960   19.0209 H   0  0  0  0  0  0
  -23.9782  -27.2944   19.0115 H   0  0  0  0  0  0
  -23.7654  -30.5842   19.4004 H   0  0  0  0  0  0
  -22.7635  -29.2395   19.8523 H   0  0  0  0  0  0
  -25.1317  -36.1903   25.0804 H   0  0  0  0  0  0
  -20.9970  -28.3274   24.1414 H   0  0  0  0  0  0
  -20.5763  -26.2291   23.3610 H   0  0  0  0  0  0
  -21.6666  -26.7491   22.1173 H   0  0  0  0  0  0
  -19.6956  -25.6277   21.1282 H   0  0  0  0  0  0
  -19.6737  -27.3170   20.6731 H   0  0  0  0  0  0
  -17.4230  -26.6685   21.3997 H   0  0  0  0  0  0
  -18.0324  -26.0059   22.9008 H   0  0  0  0  0  0
  -19.7942  -30.7290   24.2249 H   0  0  0  0  0  0
  -17.5015  -31.6277   24.5163 H   0  0  0  0  0  0
  -15.5359  -30.2988   23.7665 H   0  0  0  0  0  0
  -15.8675  -28.0840   22.7049 H   0  0  0  0  0  0
  -24.5851  -30.7163   25.7693 H   0  0  0  0  0  0
  -24.8923  -32.2939   26.4842 H   0  0  0  0  0  0
  -25.7979  -30.8890   27.0195 H   0  0  0  0  0  0
  -26.2956  -29.6760   24.1241 H   0  0  0  0  0  0
  -27.4073  -29.7322   25.4732 H   0  0  0  0  0  0
  -27.8806  -30.4324   23.9427 H   0  0  0  0  0  0
  -27.2686  -33.3674   26.2010 H   0  0  0  0  0  0
  -28.3869  -32.6899   25.0287 H   0  0  0  0  0  0
  -28.0723  -31.8504   26.5420 H   0  0  0  0  0  0
  -28.2554  -38.0142   24.7560 H   0  0  0  0  0  0
  -28.1157  -36.2685   24.6201 H   0  0  0  0  0  0
  -27.2323  -37.1344   25.8851 H   0  0  0  0  0  0
  -20.9391  -29.8748   21.6875 H   0  0  0  0  0  0
  -26.0178  -38.2838   24.1431 H   0  0  0  0  0  0
  -29.7435  -18.5350   21.6201 H   0  0  0  0  0  0
  -31.1095  -23.8773   17.6578 H   0  0  0  0  0  0
  -29.4086  -23.5801   17.4196 H   0  0  0  0  0  0
  -29.8115  -25.9246   18.1575 H   0  0  0  0  0  0
  -30.6336  -25.3619   19.5919 H   0  0  0  0  0  0
  -31.0394  -22.7594   19.8946 H   0  0  0  0  0  0
  -30.4869  -21.6923   18.6286 H   0  0  0  0  0  0
  -27.5519  -23.6124   21.0397 H   0  0  0  0  0  0
  -29.2258  -23.9240   21.4039 H   0  0  0  0  0  0
  -27.7352  -24.8996   18.8786 H   0  0  0  0  0  0
  -27.1011  -21.2232   18.6303 H   0  0  0  0  0  0
  -26.8718  -20.1944   17.2880 H   0  0  0  0  0  0
  -28.2889  -21.2437   17.2971 H   0  0  0  0  0  0
  -28.2010  -19.1095   15.9173 H   0  0  0  0  0  0
  -27.3071  -17.6455   16.3433 H   0  0  0  0  0  0
  -29.0083  -17.5876   15.8822 H   0  0  0  0  0  0
  -29.6471  -21.1228   21.4424 H   0  0  0  0  0  0
  -27.9281  -21.0906   21.2180 H   0  0  0  0  0  0
  -28.9546  -15.6001   21.2289 H   0  0  0  0  0  0
  -28.2585  -22.2891   19.1627 H   0  0  0  0  0  0
  1 25  1  0  0  0
  1 30  2  0  0  0
  1 85  1  0  0  0
  2  3  1  0  0  0
  2 25  1  0  0  0
  2 88  1  0  0  0
  2 89  1  0  0  0
  3  4  1  0  0  0
  3 90  1  0  0  0
  3 91  1  0  0  0
  4  5  1  0  0  0
  4 92  1  0  0  0
  4 93  1  0  0  0
  5  6  1  0  0  0
  5 26  1  0  0  0
  5 94  1  0  0  0
  6 25  1  0  0  0
  6 95  1  0  0  0
  6 96  1  0  0  0
  7  8  2  0  0  0
  7 26  1  0  0  0
  7 29  1  0  0  0
  8  9  1  0  0  0
  8 22  1  0  0  0
  9 10  1  0  0  0
  9 27  2  0  0  0
 10 11  2  0  0  0
 10 15  1  0  0  0
 11 12  1  0  0  0
 11 97  1  0  0  0
 12 13  2  0  0  0
 12 98  1  0  0  0
 13 14  1  0  0  0
 13 31  1  0  0  0
 14 15  2  0  0  0
 14 99  1  0  0  0
 15100  1  0  0  0
 16 17  2  0  0  0
 16 21  1  0  0  0
 16 31  1  0  0  0
 17 18  1  0  0  0
 17101  1  0  0  0
 18 19  2  0  0  0
 18102  1  0  0  0
 19 20  1  0  0  0
 19 24  1  0  0  0
 20 21  2  0  0  0
 20103  1  0  0  0
 21 23  1  0  0  0
 22 28  1  0  0  0
 22 32  2  0  0  0
 26 27  1  0  0  0
 28104  1  0  0  0
 28105  1  0  0  0
 29106  1  0  0  0
 29107  1  0  0  0
 33 34  1  0  0  0
 33 66  1  0  0  0
 33 70  2  0  0  0
 34 36  1  0  0  0
 34 59  1  0  0  0
 34108  1  0  0  0
 35 44  2  0  0  0
 35 45  1  0  0  0
 35 68  1  0  0  0
 36 56  1  0  0  0
 36109  1  0  0  0
 37 39  1  0  0  0
 37 47  1  0  0  0
 37 66  1  0  0  0
 37110  1  0  0  0
 38 43  2  0  0  0
 38 46  1  0  0  0
 38 47  1  0  0  0
 39 64  1  0  0  0
 39 67  2  0  0  0
 40 52  1  0  0  0
 40 53  2  0  0  0
 40 58  1  0  0  0
 41111  1  0  0  0
 41112  1  0  0  0
 41113  1  0  0  0
 41 48  1  0  0  0
 42 43  1  0  0  0
 42 66  1  0  0  0
 42114  1  0  0  0
 42115  1  0  0  0
 43 44  1  0  0  0
 44116  1  0  0  0
 45 46  2  0  0  0
 45117  1  0  0  0
 46118  1  0  0  0
 47119  1  0  0  0
 47120  1  0  0  0
 48 56  1  0  0  0
 48 65  1  0  0  0
 48121  1  0  0  0
 49 50  1  0  0  0
 49 53  1  0  0  0
 49 64  1  0  0  0
 49122  1  0  0  0
 50 51  1  0  0  0
 50123  1  0  0  0
 50124  1  0  0  0
 51 52  1  0  0  0
 51125  1  0  0  0
 51126  1  0  0  0
 52127  1  0  0  0
 52128  1  0  0  0
 53 54  1  0  0  0
 54 55  2  0  0  0
 54129  1  0  0  0
 55 57  1  0  0  0
 55130  1  0  0  0
 56 69  2  0  0  0
 57 58  2  0  0  0
 57131  1  0  0  0
 58132  1  0  0  0
 59 60  1  0  0  0
 59 61  1  0  0  0
 59 62  1  0  0  0
 60133  1  0  0  0
 60134  1  0  0  0
 60135  1  0  0  0
 61136  1  0  0  0
 61137  1  0  0  0
 61138  1  0  0  0
 62139  1  0  0  0
 62140  1  0  0  0
 62141  1  0  0  0
 63 65  1  0  0  0
 63142  1  0  0  0
 63143  1  0  0  0
 63144  1  0  0  0
 64145  1  0  0  0
 65146  1  0  0  0
 68 81  1  0  0  0
 71 72  2  0  0  0
 71 75  1  0  0  0
 71147  1  0  0  0
 72 73  1  0  0  0
 72 84  1  0  0  0
 73 74  2  0  0  0
 73 82  1  0  0  0
 74 76  1  0  0  0
 74 83  1  0  0  0
 75 76  2  0  0  0
 75 85  1  0  0  0
 76 87  1  0  0  0
 77 78  1  0  0  0
 77 79  1  0  0  0
 77148  1  0  0  0
 77149  1  0  0  0
 78 81  1  0  0  0
 78150  1  0  0  0
 78151  1  0  0  0
 79 86  1  0  0  0
 79152  1  0  0  0
 79153  1  0  0  0
 80 81  1  0  0  0
 80 86  1  0  0  0
 80154  1  0  0  0
 80155  1  0  0  0
 81156  1  0  0  0
 82157  1  0  0  0
 82158  1  0  0  0
 82159  1  0  0  0
 83160  1  0  0  0
 83161  1  0  0  0
 83162  1  0  0  0
 84163  1  0  0  0
 84164  1  0  0  0
 84 86  1  0  0  0
 85165  1  0  0  0
 86166  1  0  0  0
M  CHG  1  86   1
M  ISO  4   1 100  68 101  81 101  85 100
M  END
> <chiral flag>
0

> <version>
0

> <s_m_source_file>
/data/baiqing/PycharmProjects/Reinvent-master-3.2/result/LINK_invent/BTK/process_docking_weight1_custom_product_contain_oxygen_bond_distance_aromatic_linkinvent_7_9_3/rearranged_h_0036.sdf

> <i_m_source_file_index>
80

> <r_mmod_Potential_Energy-OPLS-2005>
141.744201660156

> <r_mmod_Stretch_Energy-OPLS-2005>
130.707244873047

> <r_mmod_Bend_Energy-OPLS-2005>
178.770446777344

> <r_mmod_Torsional_Energy-OPLS-2005>
285.204315185547

> <r_mmod_Improper_Torsional_Energy-OPLS-2005>
6.28237295150757

> <r_mmod_Van_der_Waal_Energy-OPLS-2005>
156.518051147461

> <r_mmod_Electrostatic_Energy-OPLS-2005>
-265.212799072266

> <r_mmod_Solvation_Energy-OPLS-2005>
-439.524993896484

> <b_mmod_Minimization_Converged-OPLS-2005>
0

> <r_mmod_RMS_Derivative-OPLS-2005>
2.39659833908081

$$$$
80
                    3D
 Structure written by MMmdl.
172181  0  0  1  0            999 V2000
  -30.6127  -14.6020   20.5605 C   0  0  0  0  0  0
  -30.4778  -12.3853   19.4196 C   0  0  0  0  0  0
  -29.5367  -12.5310   18.2042 C   0  0  0  0  0  0
  -28.0525  -12.3580   18.6117 C   0  0  0  0  0  0
  -27.6833  -13.1946   19.8676 C   0  0  2  0  0  0
  -28.7267  -12.9635   20.9815 C   0  0  0  0  0  0
  -25.2848  -13.8137   20.5824 C   0  0  0  0  0  0
  -24.2000  -13.0474   20.9160 C   0  0  0  0  0  0
  -24.6444  -11.6901   20.8578 C   0  0  0  0  0  0
  -23.9084  -10.4352   21.0247 C   0  0  0  0  0  0
  -24.3640   -9.4355   21.9075 C   0  0  0  0  0  0
  -23.6334   -8.2403   22.0737 C   0  0  0  0  0  0
  -22.4322   -8.0428   21.3550 C   0  0  0  0  0  0
  -21.9893   -9.0371   20.4652 C   0  0  0  0  0  0
  -22.7223  -10.2225   20.2961 C   0  0  0  0  0  0
  -21.6904   -6.0846   22.5256 C   0  0  0  0  0  0
  -21.4093   -6.5694   23.8199 C   0  0  0  0  0  0
  -21.3638   -5.6814   24.9133 C   0  0  0  0  0  0
  -21.6007   -4.3074   24.7163 C   0  0  0  0  0  0
  -21.8873   -3.8204   23.4266 C   0  0  0  0  0  0
  -21.9237   -4.7065   22.3349 C   0  0  0  0  0  0
  -22.8025  -13.5376   21.1718 C   0  0  0  0  0  0
  -22.1701   -4.2268   21.0929 F   0  0  0  0  0  0
  -21.5561   -3.4552   25.7640 F   0  0  0  0  0  0
  -30.0432  -13.3612   20.4418 N   0  0  0  0  0  0
  -26.3197  -12.9251   20.3333 N   0  0  0  0  0  0
  -25.9390  -11.6431   20.5548 N   0  0  0  0  0  0
  -22.0475  -12.8530   22.0258 N   0  0  0  0  0  0
  -25.4594  -15.1899   20.4579 N   0  0  0  0  0  0
  -31.7431  -14.8284   20.1113 O   0  0  0  0  0  0
  -21.6675   -6.9035   21.4244 O   0  0  0  0  0  0
  -22.3762  -14.5645   20.6450 O   0  0  0  0  0  0
  -24.6223  -31.8544   23.2025 C   0  0  0  0  0  0
  -25.9070  -32.4768   23.8368 C   0  0  1  0  0  0
  -27.2550  -27.3184   20.1243 C   0  0  0  0  0  0
  -25.5860  -33.8575   24.2315 N   0  0  0  0  0  0
  -23.4231  -30.4759   21.5368 C   0  0  2  0  0  0
  -24.8805  -28.9146   20.1124 C   0  0  0  0  0  0
  -22.7490  -29.4606   22.4878 C   0  0  0  0  0  0
  -18.0297  -28.1370   22.8486 C   0  0  0  0  0  0
  -24.1472  -36.7267   23.2663 C   0  0  0  0  0  0
  -25.9634  -30.7864   21.3741 C   0  0  0  0  0  0
  -26.0416  -29.4092   20.7199 C   0  0  0  0  0  0
  -27.2216  -28.6201   20.7161 C   0  0  0  0  0  0
  -26.0700  -26.8619   19.4995 C   0  0  0  0  0  0
  -24.8949  -27.6478   19.5036 C   0  0  0  0  0  0
  -23.6486  -29.7997   20.1525 C   0  0  0  0  0  0
  -25.4101  -36.3091   24.0354 C   0  0  1  0  0  0
  -20.5911  -28.3702   23.1261 C   0  0  2  0  0  0
  -20.6762  -26.9400   22.5418 C   0  0  0  0  0  0
  -19.5731  -26.6389   21.5191 C   0  0  0  0  0  0
  -18.1910  -26.7935   22.1608 C   0  0  0  0  0  0
  -19.1548  -28.8850   23.2892 C   0  0  0  0  0  0
  -18.9474  -30.1432   23.8936 C   0  0  0  0  0  0
  -17.6465  -30.6589   24.0570 C   0  0  0  0  0  0
  -25.9013  -34.9430   23.5173 C   0  0  0  0  0  0
  -16.5364  -29.9095   23.6298 C   0  0  0  0  0  0
  -16.7281  -28.6495   23.0371 C   0  0  0  0  0  0
  -26.4462  -31.6624   25.0761 C   0  0  0  0  0  0
  -25.3698  -31.3734   26.1515 C   0  0  0  0  0  0
  -27.0331  -30.3061   24.6248 C   0  0  0  0  0  0
  -27.6073  -32.4339   25.7481 C   0  0  0  0  0  0
  -27.5576  -37.1782   24.8471 C   0  0  0  0  0  0
  -21.4196  -29.3031   22.3650 N   0  0  0  0  0  0
  -26.4278  -37.3773   23.9423 N   0  0  0  0  0  0
  -24.6887  -31.0559   22.0960 N   0  0  0  0  0  0
  -23.4202  -28.8162   23.2988 O   0  0  0  0  0  0
  -28.4194  -26.5483   20.2270 O   0  0  0  0  0  0
  -26.5594  -34.8904   22.4746 O   0  0  0  0  0  0
  -23.5382  -32.1352   23.7328 O   0  0  0  0  0  0
  -28.4191  -19.0024   21.8399 C   0  0  0  0  0  0
  -30.3238  -19.3413   20.4086 C   0  0  0  0  0  0
  -29.1822  -19.9190   21.0646 C   0  0  0  0  0  0
  -28.6413  -17.6005   21.8552 C   0  0  0  0  0  0
  -29.7104  -17.0114   21.1168 C   0  0  0  0  0  0
  -30.5520  -17.9224   20.4094 C   0  0  0  0  0  0
  -31.3504  -20.1468   19.7245 C   0  0  0  0  0  0
  -30.9483  -24.0719   18.8630 C   0  0  0  0  0  0
  -30.1935  -25.3182   19.3597 C   0  0  0  0  0  0
  -30.1338  -23.1040   17.9503 C   0  0  0  0  0  0
  -28.2685  -23.9021   20.4440 C   0  0  0  0  0  0
  -28.6706  -25.2222   19.6237 C   0  0  1  0  0  0
  -29.0121  -22.2759   18.6655 C   0  0  2  0  0  0
  -27.6718  -16.7343   22.6586 C   0  0  0  0  0  0
  -27.6316  -22.3772   17.9692 C   0  0  0  0  0  0
  -28.6359  -21.4198   21.0775 C   0  0  0  0  0  0
  -31.8755  -21.1875   20.2182 N   0  0  0  0  0  0
  -29.8098  -15.5504   21.1306 N   0  0  0  0  0  0
  -28.9907  -22.5771   20.1318 N   0  3  2  0  0  0
  -31.6135  -17.4349   19.7219 F   0  0  0  0  0  0
  -31.5124  -12.5451   19.1058 H   0  0  0  0  0  0
  -30.4563  -11.3692   19.8167 H   0  0  0  0  0  0
  -29.8089  -11.8151   17.4281 H   0  0  0  0  0  0
  -29.6874  -13.5226   17.7724 H   0  0  0  0  0  0
  -27.8751  -11.2991   18.7978 H   0  0  0  0  0  0
  -27.4121  -12.6244   17.7698 H   0  0  0  0  0  0
  -27.7340  -14.2430   19.5730 H   0  0  0  0  0  0
  -28.7421  -11.9072   21.2599 H   0  0  0  0  0  0
  -28.4641  -13.4883   21.8973 H   0  0  0  0  0  0
  -25.2770   -9.5990   22.4647 H   0  0  0  0  0  0
  -24.0082   -7.4895   22.7553 H   0  0  0  0  0  0
  -21.0780   -8.8941   19.9029 H   0  0  0  0  0  0
  -22.3639  -10.9785   19.6112 H   0  0  0  0  0  0
  -21.2139   -7.6194   23.9777 H   0  0  0  0  0  0
  -21.1310   -6.0455   25.9034 H   0  0  0  0  0  0
  -22.0615   -2.7686   23.2654 H   0  0  0  0  0  0
  -22.3829  -12.0247   22.4870 H   0  0  0  0  0  0
  -21.1054  -13.1728   22.2152 H   0  0  0  0  0  0
  -24.7445  -15.8333   20.7766 H   0  0  0  0  0  0
  -26.3474  -15.6462   20.2899 H   0  0  0  0  0  0
  -26.7181  -32.5454   23.1151 H   0  0  0  0  0  0
  -24.9916  -33.9712   25.0408 H   0  0  0  0  0  0
  -22.7160  -31.2911   21.3800 H   0  0  0  0  0  0
  -23.3728  -35.9587   23.3288 H   0  0  0  0  0  0
  -24.3529  -36.8903   22.2065 H   0  0  0  0  0  0
  -23.7196  -37.6458   23.6695 H   0  0  0  0  0  0
  -26.0935  -31.5469   20.6052 H   0  0  0  0  0  0
  -26.8434  -30.8395   22.0076 H   0  0  0  0  0  0
  -28.1149  -28.9939   21.1983 H   0  0  0  0  0  0
  -26.0345  -25.8841   19.0365 H   0  0  0  0  0  0
  -23.9975  -27.2572   19.0459 H   0  0  0  0  0  0
  -23.7841  -30.5672   19.3916 H   0  0  0  0  0  0
  -22.7735  -29.2267   19.8467 H   0  0  0  0  0  0
  -25.1273  -36.1939   25.0831 H   0  0  0  0  0  0
  -21.0012  -28.3276   24.1379 H   0  0  0  0  0  0
  -20.5572  -26.2307   23.3625 H   0  0  0  0  0  0
  -21.6639  -26.7351   22.1266 H   0  0  0  0  0  0
  -19.6865  -25.6299   21.1211 H   0  0  0  0  0  0
  -19.6692  -27.3215   20.6723 H   0  0  0  0  0  0
  -17.4200  -26.6703   21.4009 H   0  0  0  0  0  0
  -18.0311  -26.0084   22.9004 H   0  0  0  0  0  0
  -19.7952  -30.7215   24.2374 H   0  0  0  0  0  0
  -17.5037  -31.6273   24.5147 H   0  0  0  0  0  0
  -15.5372  -30.3026   23.7568 H   0  0  0  0  0  0
  -15.8680  -28.0793   22.7119 H   0  0  0  0  0  0
  -24.5908  -30.7052   25.7853 H   0  0  0  0  0  0
  -24.8828  -32.2865   26.4944 H   0  0  0  0  0  0
  -25.8027  -30.8935   27.0302 H   0  0  0  0  0  0
  -26.2931  -29.6788   24.1300 H   0  0  0  0  0  0
  -27.4058  -29.7380   25.4768 H   0  0  0  0  0  0
  -27.8770  -30.4354   23.9472 H   0  0  0  0  0  0
  -27.2805  -33.3730   26.1939 H   0  0  0  0  0  0
  -28.3915  -32.6717   25.0298 H   0  0  0  0  0  0
  -28.0700  -31.8505   26.5459 H   0  0  0  0  0  0
  -28.2619  -38.0068   24.7511 H   0  0  0  0  0  0
  -28.1050  -36.2581   24.6306 H   0  0  0  0  0  0
  -27.2269  -37.1451   25.8875 H   0  0  0  0  0  0
  -20.9377  -29.8781   21.6869 H   0  0  0  0  0  0
  -26.0155  -38.2845   24.1430 H   0  0  0  0  0  0
  -27.6136  -19.4027   22.4432 H   0  0  0  0  0  0
  -31.6560  -19.8018   18.7316 H   0  0  0  0  0  0
  -31.3451  -23.5629   19.7374 H   0  0  0  0  0  0
  -31.8563  -24.3926   18.3393 H   0  0  0  0  0  0
  -30.3569  -26.1190   18.6399 H   0  0  0  0  0  0
  -30.6874  -25.6492   20.2740 H   0  0  0  0  0  0
  -30.8374  -22.4065   17.4862 H   0  0  0  0  0  0
  -29.7254  -23.6634   17.1085 H   0  0  0  0  0  0
  -27.1944  -23.7424   20.3004 H   0  0  0  0  0  0
  -28.3819  -24.1072   21.5031 H   0  0  0  0  0  0
  -28.1921  -25.2034   18.6466 H   0  0  0  0  0  0
  -29.2677  -21.2242   18.5451 H   0  0  0  0  0  0
  -26.7443  -17.2697   22.8736 H   0  0  0  0  0  0
  -28.1009  -16.4095   23.6034 H   0  0  0  0  0  0
  -27.3873  -15.8437   22.1031 H   0  0  0  0  0  0
  -27.2335  -23.3902   17.9213 H   0  0  0  0  0  0
  -26.8820  -21.7533   18.4640 H   0  0  0  0  0  0
  -27.6943  -22.0469   16.9329 H   0  0  0  0  0  0
  -28.7806  -21.7830   22.1027 H   0  0  0  0  0  0
  -27.5516  -21.3056   20.9666 H   0  0  0  0  0  0
  -31.5516  -21.3598   21.1588 H   0  0  0  0  0  0
  -29.0077  -15.1180   21.5502 H   0  0  0  0  0  0
  -29.9645  -22.7577   20.3515 H   0  0  0  0  0  0
  1 25  1  0  0  0
  1 30  2  0  0  0
  1 88  1  0  0  0
  2  3  1  0  0  0
  2 25  1  0  0  0
  2 91  1  0  0  0
  2 92  1  0  0  0
  3  4  1  0  0  0
  3 93  1  0  0  0
  3 94  1  0  0  0
  4  5  1  0  0  0
  4 95  1  0  0  0
  4 96  1  0  0  0
  5  6  1  0  0  0
  5 26  1  0  0  0
  5 97  1  0  0  0
  6 25  1  0  0  0
  6 98  1  0  0  0
  6 99  1  0  0  0
  7  8  2  0  0  0
  7 26  1  0  0  0
  7 29  1  0  0  0
  8  9  1  0  0  0
  8 22  1  0  0  0
  9 10  1  0  0  0
  9 27  2  0  0  0
 10 11  2  0  0  0
 10 15  1  0  0  0
 11 12  1  0  0  0
 11100  1  0  0  0
 12 13  2  0  0  0
 12101  1  0  0  0
 13 14  1  0  0  0
 13 31  1  0  0  0
 14 15  2  0  0  0
 14102  1  0  0  0
 15103  1  0  0  0
 16 17  2  0  0  0
 16 21  1  0  0  0
 16 31  1  0  0  0
 17 18  1  0  0  0
 17104  1  0  0  0
 18 19  2  0  0  0
 18105  1  0  0  0
 19 20  1  0  0  0
 19 24  1  0  0  0
 20 21  2  0  0  0
 20106  1  0  0  0
 21 23  1  0  0  0
 22 28  1  0  0  0
 22 32  2  0  0  0
 26 27  1  0  0  0
 28107  1  0  0  0
 28108  1  0  0  0
 29109  1  0  0  0
 29110  1  0  0  0
 33 34  1  0  0  0
 33 66  1  0  0  0
 33 70  2  0  0  0
 34 36  1  0  0  0
 34 59  1  0  0  0
 34111  1  0  0  0
 35 44  2  0  0  0
 35 45  1  0  0  0
 35 68  1  0  0  0
 36 56  1  0  0  0
 36112  1  0  0  0
 37 39  1  0  0  0
 37 47  1  0  0  0
 37 66  1  0  0  0
 37113  1  0  0  0
 38 43  2  0  0  0
 38 46  1  0  0  0
 38 47  1  0  0  0
 39 64  1  0  0  0
 39 67  2  0  0  0
 40 52  1  0  0  0
 40 53  2  0  0  0
 40 58  1  0  0  0
 41114  1  0  0  0
 41115  1  0  0  0
 41116  1  0  0  0
 41 48  1  0  0  0
 42 43  1  0  0  0
 42 66  1  0  0  0
 42117  1  0  0  0
 42118  1  0  0  0
 43 44  1  0  0  0
 44119  1  0  0  0
 45 46  2  0  0  0
 45120  1  0  0  0
 46121  1  0  0  0
 47122  1  0  0  0
 47123  1  0  0  0
 48 56  1  0  0  0
 48 65  1  0  0  0
 48124  1  0  0  0
 49 50  1  0  0  0
 49 53  1  0  0  0
 49 64  1  0  0  0
 49125  1  0  0  0
 50 51  1  0  0  0
 50126  1  0  0  0
 50127  1  0  0  0
 51 52  1  0  0  0
 51128  1  0  0  0
 51129  1  0  0  0
 52130  1  0  0  0
 52131  1  0  0  0
 53 54  1  0  0  0
 54 55  2  0  0  0
 54132  1  0  0  0
 55 57  1  0  0  0
 55133  1  0  0  0
 56 69  2  0  0  0
 57 58  2  0  0  0
 57134  1  0  0  0
 58135  1  0  0  0
 59 60  1  0  0  0
 59 61  1  0  0  0
 59 62  1  0  0  0
 60136  1  0  0  0
 60137  1  0  0  0
 60138  1  0  0  0
 61139  1  0  0  0
 61140  1  0  0  0
 61141  1  0  0  0
 62142  1  0  0  0
 62143  1  0  0  0
 62144  1  0  0  0
 63 65  1  0  0  0
 63145  1  0  0  0
 63146  1  0  0  0
 63147  1  0  0  0
 64148  1  0  0  0
 65149  1  0  0  0
 68 82  1  0  0  0
 71 73  2  0  0  0
 71 74  1  0  0  0
 71150  1  0  0  0
 72 73  1  0  0  0
 72 76  2  0  0  0
 72 77  1  0  0  0
 73 86  1  0  0  0
 74 75  2  0  0  0
 74 84  1  0  0  0
 75 76  1  0  0  0
 75 88  1  0  0  0
 76 90  1  0  0  0
 77 87  2  0  0  0
 77151  1  0  0  0
 78 79  1  0  0  0
 78 80  1  0  0  0
 78152  1  0  0  0
 78153  1  0  0  0
 79 82  1  0  0  0
 79154  1  0  0  0
 79155  1  0  0  0
 80 83  1  0  0  0
 80156  1  0  0  0
 80157  1  0  0  0
 81 82  1  0  0  0
 81 89  1  0  0  0
 81158  1  0  0  0
 81159  1  0  0  0
 82160  1  0  0  0
 83 85  1  0  0  0
 83 89  1  0  0  0
 83161  1  0  0  0
 84162  1  0  0  0
 84163  1  0  0  0
 84164  1  0  0  0
 85165  1  0  0  0
 85166  1  0  0  0
 85167  1  0  0  0
 86168  1  0  0  0
 86169  1  0  0  0
 86 89  1  0  0  0
 87170  1  0  0  0
 88171  1  0  0  0
 89172  1  0  0  0
M  CHG  1  89   1
M  ISO  4   1 100  68 101  82 101  88 100
M  END
> <chiral flag>
0

> <version>
0

> <s_m_source_file>
/data/baiqing/PycharmProjects/Reinvent-master-3.2/result/LINK_invent/BTK/process_docking_weight1_custom_product_contain_oxygen_bond_distance_aromatic_linkinvent_7_9_3/rearranged_h_0036.sdf

> <i_m_source_file_index>
81

> <r_mmod_Potential_Energy-OPLS-2005>
111.866813659668

> <r_mmod_Stretch_Energy-OPLS-2005>
99.2782669067383

> <r_mmod_Bend_Energy-OPLS-2005>
236.434494018555

> <r_mmod_Torsional_Energy-OPLS-2005>
290.182281494141

> <r_mmod_Improper_Torsional_Energy-OPLS-2005>
3.52638459205627

> <r_mmod_Van_der_Waal_Energy-OPLS-2005>
152.802337646484

> <r_mmod_Electrostatic_Energy-OPLS-2005>
-282.322296142578

> <r_mmod_Solvation_Energy-OPLS-2005>
-431.464782714844

> <b_mmod_Minimization_Converged-OPLS-2005>
0

> <r_mmod_RMS_Derivative-OPLS-2005>
9.98780918121338

$$$$
81
                    3D
 Structure written by MMmdl.
188198  0  0  1  0            999 V2000
  -30.6639  -14.6391   20.4561 C   0  0  0  0  0  0
  -30.4233  -12.3868   19.4645 C   0  0  0  0  0  0
  -29.5041  -12.4973   18.2291 C   0  0  0  0  0  0
  -28.0281  -12.3410   18.6406 C   0  0  0  0  0  0
  -27.6478  -13.2265   19.8583 C   0  0  2  0  0  0
  -28.6942  -13.1270   20.9929 C   0  0  0  0  0  0
  -25.2512  -13.8162   20.5686 C   0  0  0  0  0  0
  -24.1805  -13.0416   20.9207 C   0  0  0  0  0  0
  -24.6401  -11.6898   20.8759 C   0  0  0  0  0  0
  -23.9073  -10.4280   21.0413 C   0  0  0  0  0  0
  -24.3617   -9.4199   21.9196 C   0  0  0  0  0  0
  -23.6290   -8.2237   22.0765 C   0  0  0  0  0  0
  -22.4273   -8.0282   21.3550 C   0  0  0  0  0  0
  -21.9918   -9.0251   20.4645 C   0  0  0  0  0  0
  -22.7249  -10.2130   20.3054 C   0  0  0  0  0  0
  -21.6846   -6.0736   22.5280 C   0  0  0  0  0  0
  -21.4007   -6.5638   23.8213 C   0  0  0  0  0  0
  -21.3656   -5.6791   24.9177 C   0  0  0  0  0  0
  -21.6044   -4.3053   24.7226 C   0  0  0  0  0  0
  -21.8824   -3.8148   23.4346 C   0  0  0  0  0  0
  -21.9195   -4.6967   22.3402 C   0  0  0  0  0  0
  -22.7831  -13.5211   21.1859 C   0  0  0  0  0  0
  -22.1664   -4.2152   21.0979 F   0  0  0  0  0  0
  -21.5631   -3.4537   25.7739 F   0  0  0  0  0  0
  -30.0094  -13.4367   20.4177 N   0  0  0  0  0  0
  -26.2964  -12.9385   20.3314 N   0  0  0  0  0  0
  -25.9335  -11.6530   20.5776 N   0  0  0  0  0  0
  -22.0467  -12.8198   22.0409 N   0  0  0  0  0  0
  -25.4147  -15.1872   20.4060 N   0  0  0  0  0  0
  -31.8453  -14.7300   20.1190 O   0  0  0  0  0  0
  -21.6635   -6.8883   21.4244 O   0  0  0  0  0  0
  -22.3524  -14.5521   20.6709 O   0  0  0  0  0  0
  -24.6237  -31.8611   23.2032 C   0  0  0  0  0  0
  -25.9096  -32.4782   23.8357 C   0  0  1  0  0  0
  -27.2213  -27.3343   20.1254 C   0  0  0  0  0  0
  -25.5923  -33.8580   24.2289 N   0  0  0  0  0  0
  -23.4175  -30.4836   21.5443 C   0  0  2  0  0  0
  -24.8663  -28.9410   20.1102 C   0  0  0  0  0  0
  -22.7467  -29.4611   22.4927 C   0  0  0  0  0  0
  -18.0289  -28.1371   22.8480 C   0  0  0  0  0  0
  -24.1483  -36.7279   23.2645 C   0  0  0  0  0  0
  -25.9562  -30.7969   21.3728 C   0  0  0  0  0  0
  -26.0331  -29.4250   20.7172 C   0  0  0  0  0  0
  -27.2174  -28.6325   20.7159 C   0  0  0  0  0  0
  -26.0407  -26.9037   19.4835 C   0  0  0  0  0  0
  -24.8704  -27.6845   19.4838 C   0  0  0  0  0  0
  -23.6334  -29.8191   20.1587 C   0  0  0  0  0  0
  -25.4109  -36.3078   24.0333 C   0  0  1  0  0  0
  -20.5887  -28.3670   23.1278 C   0  0  2  0  0  0
  -20.6776  -26.9397   22.5396 C   0  0  0  0  0  0
  -19.5744  -26.6372   21.5201 C   0  0  0  0  0  0
  -18.1927  -26.7913   22.1616 C   0  0  0  0  0  0
  -19.1543  -28.8837   23.2873 C   0  0  0  0  0  0
  -18.9471  -30.1443   23.8884 C   0  0  0  0  0  0
  -17.6474  -30.6577   24.0556 C   0  0  0  0  0  0
  -25.9049  -34.9451   23.5108 C   0  0  0  0  0  0
  -16.5364  -29.9076   23.6332 C   0  0  0  0  0  0
  -16.7277  -28.6493   23.0350 C   0  0  0  0  0  0
  -26.4491  -31.6584   25.0715 C   0  0  0  0  0  0
  -25.3732  -31.3677   26.1437 C   0  0  0  0  0  0
  -27.0367  -30.3032   24.6133 C   0  0  0  0  0  0
  -27.6024  -32.4338   25.7505 C   0  0  0  0  0  0
  -27.5567  -37.1800   24.8476 C   0  0  0  0  0  0
  -21.4183  -29.3034   22.3675 N   0  0  0  0  0  0
  -26.4284  -37.3776   23.9413 N   0  0  0  0  0  0
  -24.6842  -31.0633   22.0974 N   0  0  0  0  0  0
  -23.4196  -28.8151   23.3003 O   0  0  0  0  0  0
  -28.3198  -26.4693   20.1603 O   0  0  0  0  0  0
  -26.5611  -34.8915   22.4671 O   0  0  0  0  0  0
  -23.5402  -32.1403   23.7366 O   0  0  0  0  0  0
  -28.4357  -18.9698   20.1223 C   0  0  0  0  0  0
  -29.7763  -18.4990   20.2593 C   0  0  0  0  0  0
  -30.7578  -19.4760   20.6401 C   0  0  0  0  0  0
  -28.0990  -20.3558   20.2820 C   0  0  0  0  0  0
  -30.4044  -20.8593   20.8514 C   0  0  0  0  0  0
  -29.0738  -21.3330   20.6435 C   0  0  0  0  0  0
  -28.8038  -23.8872   20.1964 C   0  0  0  0  0  0
  -29.4840  -23.9451   19.0398 C   0  0  0  0  0  0
  -33.5692  -16.7585   24.2729 C   0  0  0  0  0  0
  -28.5613  -23.9709   23.0587 C   0  0  0  0  0  0
  -33.7814  -16.2029   22.8575 C   0  0  0  0  0  0
  -32.2518  -17.5458   24.3424 C   0  0  0  0  0  0
  -28.3432  -25.3032   22.3081 C   0  0  0  0  0  0
  -28.0544  -22.7470   22.2803 C   0  0  0  0  0  0
  -33.6885  -17.3189   21.8009 C   0  0  0  0  0  0
  -32.1908  -18.6324   23.2524 C   0  0  0  0  0  0
  -28.0841  -25.1524   20.7916 C   0  0  1  0  0  0
  -27.3291  -17.9849   19.7557 C   0  0  0  0  0  0
  -26.6554  -20.8039   20.0483 C   0  0  0  0  0  0
  -31.4720  -21.8566   21.3092 C   0  0  0  0  0  0
  -30.1803  -17.0355   19.7932 C   0  0  0  0  0  0
  -32.2228  -19.0328   20.8019 C   0  0  0  0  0  0
  -28.6826  -22.6851   20.9587 N   0  0  0  0  0  0
  -29.9162  -15.7820   20.5901 N   0  0  0  0  0  0
  -32.3975  -18.0502   21.8994 N   0  3  0  0  0  0
  -31.4674  -12.4840   19.1616 H   0  0  0  0  0  0
  -30.3367  -11.4015   19.9254 H   0  0  0  0  0  0
  -29.7697  -11.7392   17.4903 H   0  0  0  0  0  0
  -29.6510  -13.4629   17.7424 H   0  0  0  0  0  0
  -27.8660  -11.2898   18.8830 H   0  0  0  0  0  0
  -27.3736  -12.5599   17.7958 H   0  0  0  0  0  0
  -27.6530  -14.2550   19.4972 H   0  0  0  0  0  0
  -28.7018  -12.1254   21.4259 H   0  0  0  0  0  0
  -28.4496  -13.8106   21.8072 H   0  0  0  0  0  0
  -25.2757   -9.5678   22.4775 H   0  0  0  0  0  0
  -23.9994   -7.4636   22.7490 H   0  0  0  0  0  0
  -21.0854   -8.8775   19.8943 H   0  0  0  0  0  0
  -22.3717  -10.9672   19.6161 H   0  0  0  0  0  0
  -21.1993   -7.6145   23.9716 H   0  0  0  0  0  0
  -21.1467   -6.0519   25.9081 H   0  0  0  0  0  0
  -22.0602   -2.7609   23.2843 H   0  0  0  0  0  0
  -22.4069  -11.9845   22.4783 H   0  0  0  0  0  0
  -21.1088  -13.1238   22.2609 H   0  0  0  0  0  0
  -24.6366  -15.8309   20.5011 H   0  0  0  0  0  0
  -26.2478  -15.6208   20.0356 H   0  0  0  0  0  0
  -26.7153  -32.5467   23.1098 H   0  0  0  0  0  0
  -25.0093  -33.9723   25.0446 H   0  0  0  0  0  0
  -22.7096  -31.3027   21.4012 H   0  0  0  0  0  0
  -23.3751  -35.9606   23.3316 H   0  0  0  0  0  0
  -24.3565  -36.8901   22.2057 H   0  0  0  0  0  0
  -23.7232  -37.6477   23.6666 H   0  0  0  0  0  0
  -26.0838  -31.5599   20.6042 H   0  0  0  0  0  0
  -26.8377  -30.8478   21.9997 H   0  0  0  0  0  0
  -28.1126  -28.9938   21.2026 H   0  0  0  0  0  0
  -26.0160  -25.9407   18.9922 H   0  0  0  0  0  0
  -23.9779  -27.3095   19.0029 H   0  0  0  0  0  0
  -23.7517  -30.5965   19.4029 H   0  0  0  0  0  0
  -22.7540  -29.2478   19.8553 H   0  0  0  0  0  0
  -25.1287  -36.1928   25.0825 H   0  0  0  0  0  0
  -20.9975  -28.3241   24.1400 H   0  0  0  0  0  0
  -20.5684  -26.2274   23.3587 H   0  0  0  0  0  0
  -21.6645  -26.7420   22.1194 H   0  0  0  0  0  0
  -19.6909  -25.6282   21.1231 H   0  0  0  0  0  0
  -19.6684  -27.3172   20.6722 H   0  0  0  0  0  0
  -17.4194  -26.6655   21.4026 H   0  0  0  0  0  0
  -18.0334  -26.0053   22.9010 H   0  0  0  0  0  0
  -19.7950  -30.7257   24.2247 H   0  0  0  0  0  0
  -17.5035  -31.6259   24.5157 H   0  0  0  0  0  0
  -15.5364  -30.2979   23.7666 H   0  0  0  0  0  0
  -15.8675  -28.0818   22.7068 H   0  0  0  0  0  0
  -24.5914  -30.7024   25.7752 H   0  0  0  0  0  0
  -24.8905  -32.2826   26.4884 H   0  0  0  0  0  0
  -25.8074  -30.8837   27.0195 H   0  0  0  0  0  0
  -26.2941  -29.6754   24.1191 H   0  0  0  0  0  0
  -27.4151  -29.7297   25.4604 H   0  0  0  0  0  0
  -27.8762  -30.4358   23.9304 H   0  0  0  0  0  0
  -27.2607  -33.3644   26.2045 H   0  0  0  0  0  0
  -28.3859  -32.6898   25.0363 H   0  0  0  0  0  0
  -28.0660  -31.8494   26.5459 H   0  0  0  0  0  0
  -28.2585  -38.0097   24.7530 H   0  0  0  0  0  0
  -28.1069  -36.2625   24.6316 H   0  0  0  0  0  0
  -27.2276  -37.1464   25.8879 H   0  0  0  0  0  0
  -20.9348  -29.8784   21.6914 H   0  0  0  0  0  0
  -26.0164  -38.2849   24.1425 H   0  0  0  0  0  0
  -29.5576  -24.8696   18.4838 H   0  0  0  0  0  0
  -29.9788  -23.0787   18.6255 H   0  0  0  0  0  0
  -34.4036  -17.4074   24.5449 H   0  0  0  0  0  0
  -33.5625  -15.9448   24.9996 H   0  0  0  0  0  0
  -28.0842  -24.0137   24.0386 H   0  0  0  0  0  0
  -29.6267  -23.8392   23.2518 H   0  0  0  0  0  0
  -33.0387  -15.4331   22.6451 H   0  0  0  0  0  0
  -34.7533  -15.7126   22.7916 H   0  0  0  0  0  0
  -32.1448  -18.0038   25.3269 H   0  0  0  0  0  0
  -31.4066  -16.8650   24.2304 H   0  0  0  0  0  0
  -29.2180  -25.9339   22.4685 H   0  0  0  0  0  0
  -27.5052  -25.8421   22.7512 H   0  0  0  0  0  0
  -26.9714  -22.7991   22.1640 H   0  0  0  0  0  0
  -28.2590  -21.8431   22.8581 H   0  0  0  0  0  0
  -33.7946  -16.8810   20.8072 H   0  0  0  0  0  0
  -34.5166  -18.0196   21.9219 H   0  0  0  0  0  0
  -32.9485  -19.3941   23.4433 H   0  0  0  0  0  0
  -31.2244  -19.1365   23.3036 H   0  0  0  0  0  0
  -27.0312  -24.8865   20.6923 H   0  0  0  0  0  0
  -27.5876  -16.9569   19.9933 H   0  0  0  0  0  0
  -27.1032  -18.0388   18.6900 H   0  0  0  0  0  0
  -26.4143  -18.1919   20.3109 H   0  0  0  0  0  0
  -26.2031  -20.2880   19.2024 H   0  0  0  0  0  0
  -26.5799  -21.8653   19.8146 H   0  0  0  0  0  0
  -26.0501  -20.6102   20.9343 H   0  0  0  0  0  0
  -31.9377  -21.5254   22.2373 H   0  0  0  0  0  0
  -31.0917  -22.8570   21.5053 H   0  0  0  0  0  0
  -32.2421  -21.9696   20.5459 H   0  0  0  0  0  0
  -31.2134  -17.0307   19.4553 H   0  0  0  0  0  0
  -29.6523  -16.8775   18.8515 H   0  0  0  0  0  0
  -32.9133  -19.8553   20.9749 H   0  0  0  0  0  0
  -32.5645  -18.6213   19.8530 H   0  0  0  0  0  0
  -28.9677  -15.6454   20.9053 H   0  0  0  0  0  0
  -31.6691  -17.3659   21.7652 H   0  0  0  0  0  0
  1 25  1  0  0  0
  1 30  2  0  0  0
  1 94  1  0  0  0
  2  3  1  0  0  0
  2 25  1  0  0  0
  2 96  1  0  0  0
  2 97  1  0  0  0
  3  4  1  0  0  0
  3 98  1  0  0  0
  3 99  1  0  0  0
  4  5  1  0  0  0
  4100  1  0  0  0
  4101  1  0  0  0
  5  6  1  0  0  0
  5 26  1  0  0  0
  5102  1  0  0  0
  6 25  1  0  0  0
  6103  1  0  0  0
  6104  1  0  0  0
  7  8  2  0  0  0
  7 26  1  0  0  0
  7 29  1  0  0  0
  8  9  1  0  0  0
  8 22  1  0  0  0
  9 10  1  0  0  0
  9 27  2  0  0  0
 10 11  2  0  0  0
 10 15  1  0  0  0
 11 12  1  0  0  0
 11105  1  0  0  0
 12 13  2  0  0  0
 12106  1  0  0  0
 13 14  1  0  0  0
 13 31  1  0  0  0
 14 15  2  0  0  0
 14107  1  0  0  0
 15108  1  0  0  0
 16 17  2  0  0  0
 16 21  1  0  0  0
 16 31  1  0  0  0
 17 18  1  0  0  0
 17109  1  0  0  0
 18 19  2  0  0  0
 18110  1  0  0  0
 19 20  1  0  0  0
 19 24  1  0  0  0
 20 21  2  0  0  0
 20111  1  0  0  0
 21 23  1  0  0  0
 22 28  1  0  0  0
 22 32  2  0  0  0
 26 27  1  0  0  0
 28112  1  0  0  0
 28113  1  0  0  0
 29114  1  0  0  0
 29115  1  0  0  0
 33 34  1  0  0  0
 33 66  1  0  0  0
 33 70  2  0  0  0
 34 36  1  0  0  0
 34 59  1  0  0  0
 34116  1  0  0  0
 35 44  2  0  0  0
 35 45  1  0  0  0
 35 68  1  0  0  0
 36 56  1  0  0  0
 36117  1  0  0  0
 37 39  1  0  0  0
 37 47  1  0  0  0
 37 66  1  0  0  0
 37118  1  0  0  0
 38 43  2  0  0  0
 38 46  1  0  0  0
 38 47  1  0  0  0
 39 64  1  0  0  0
 39 67  2  0  0  0
 40 52  1  0  0  0
 40 53  2  0  0  0
 40 58  1  0  0  0
 41119  1  0  0  0
 41120  1  0  0  0
 41121  1  0  0  0
 41 48  1  0  0  0
 42 43  1  0  0  0
 42 66  1  0  0  0
 42122  1  0  0  0
 42123  1  0  0  0
 43 44  1  0  0  0
 44124  1  0  0  0
 45 46  2  0  0  0
 45125  1  0  0  0
 46126  1  0  0  0
 47127  1  0  0  0
 47128  1  0  0  0
 48 56  1  0  0  0
 48 65  1  0  0  0
 48129  1  0  0  0
 49 50  1  0  0  0
 49 53  1  0  0  0
 49 64  1  0  0  0
 49130  1  0  0  0
 50 51  1  0  0  0
 50131  1  0  0  0
 50132  1  0  0  0
 51 52  1  0  0  0
 51133  1  0  0  0
 51134  1  0  0  0
 52135  1  0  0  0
 52136  1  0  0  0
 53 54  1  0  0  0
 54 55  2  0  0  0
 54137  1  0  0  0
 55 57  1  0  0  0
 55138  1  0  0  0
 56 69  2  0  0  0
 57 58  2  0  0  0
 57139  1  0  0  0
 58140  1  0  0  0
 59 60  1  0  0  0
 59 61  1  0  0  0
 59 62  1  0  0  0
 60141  1  0  0  0
 60142  1  0  0  0
 60143  1  0  0  0
 61144  1  0  0  0
 61145  1  0  0  0
 61146  1  0  0  0
 62147  1  0  0  0
 62148  1  0  0  0
 62149  1  0  0  0
 63 65  1  0  0  0
 63150  1  0  0  0
 63151  1  0  0  0
 63152  1  0  0  0
 64153  1  0  0  0
 65154  1  0  0  0
 68 87  1  0  0  0
 71 72  2  0  0  0
 71 74  1  0  0  0
 71 88  1  0  0  0
 72 73  1  0  0  0
 72 91  1  0  0  0
 73 75  2  0  0  0
 73 92  1  0  0  0
 74 76  2  0  0  0
 74 89  1  0  0  0
 75 76  1  0  0  0
 75 90  1  0  0  0
 76 93  1  0  0  0
 77 78  2  0  0  0
 77 87  1  0  0  0
 77 93  1  0  0  0
 78155  1  0  0  0
 78156  1  0  0  0
 79 81  1  0  0  0
 79 82  1  0  0  0
 79157  1  0  0  0
 79158  1  0  0  0
 80 83  1  0  0  0
 80 84  1  0  0  0
 80159  1  0  0  0
 80160  1  0  0  0
 81 85  1  0  0  0
 81161  1  0  0  0
 81162  1  0  0  0
 82 86  1  0  0  0
 82163  1  0  0  0
 82164  1  0  0  0
 83 87  1  0  0  0
 83165  1  0  0  0
 83166  1  0  0  0
 84 93  1  0  0  0
 84167  1  0  0  0
 84168  1  0  0  0
 85 95  1  0  0  0
 85169  1  0  0  0
 85170  1  0  0  0
 86 95  1  0  0  0
 86171  1  0  0  0
 86172  1  0  0  0
 87173  1  0  0  0
 88174  1  0  0  0
 88175  1  0  0  0
 88176  1  0  0  0
 89177  1  0  0  0
 89178  1  0  0  0
 89179  1  0  0  0
 90180  1  0  0  0
 90181  1  0  0  0
 90182  1  0  0  0
 91 94  1  0  0  0
 91183  1  0  0  0
 91184  1  0  0  0
 92185  1  0  0  0
 92186  1  0  0  0
 92 95  1  0  0  0
 94187  1  0  0  0
 95188  1  0  0  0
M  CHG  1  95   1
M  ISO  4   1 100  68 101  87 101  94 100
M  END
> <chiral flag>
0

> <version>
0

> <s_m_source_file>
/data/baiqing/PycharmProjects/Reinvent-master-3.2/result/LINK_invent/BTK/process_docking_weight1_custom_product_contain_oxygen_bond_distance_aromatic_linkinvent_7_9_3/rearranged_h_0036.sdf

> <i_m_source_file_index>
82

> <r_mmod_Potential_Energy-OPLS-2005>
-8.08163452148438

> <r_mmod_Stretch_Energy-OPLS-2005>
90.6654586791992

> <r_mmod_Bend_Energy-OPLS-2005>
140.566223144531

> <r_mmod_Torsional_Energy-OPLS-2005>
323.316802978516

> <r_mmod_Improper_Torsional_Energy-OPLS-2005>
10.6065845489502

> <r_mmod_Van_der_Waal_Energy-OPLS-2005>
160.883483886719

> <r_mmod_Electrostatic_Energy-OPLS-2005>
-394.36328125

> <r_mmod_Solvation_Energy-OPLS-2005>
-389.437255859375

> <b_mmod_Minimization_Converged-OPLS-2005>
0

> <r_mmod_RMS_Derivative-OPLS-2005>
1.06734764575958

$$$$
82
                    3D
 Structure written by MMmdl.
169178  0  0  1  0            999 V2000
  -30.6867  -14.7707   20.4892 C   0  0  0  0  0  0
  -30.4203  -12.4917   19.4651 C   0  0  0  0  0  0
  -29.5001  -12.5153   18.2293 C   0  0  0  0  0  0
  -28.0320  -12.3309   18.6637 C   0  0  0  0  0  0
  -27.6369  -13.2262   19.8685 C   0  0  2  0  0  0
  -28.7052  -13.2247   20.9898 C   0  0  0  0  0  0
  -25.2565  -13.8172   20.5968 C   0  0  0  0  0  0
  -24.1778  -13.0383   20.9287 C   0  0  0  0  0  0
  -24.6307  -11.6879   20.8663 C   0  0  0  0  0  0
  -23.8922  -10.4255   21.0265 C   0  0  0  0  0  0
  -24.3479   -9.4259   21.9120 C   0  0  0  0  0  0
  -23.6233   -8.2257   22.0690 C   0  0  0  0  0  0
  -22.4237   -8.0223   21.3489 C   0  0  0  0  0  0
  -21.9769   -9.0163   20.4617 C   0  0  0  0  0  0
  -22.7040  -10.2075   20.2970 C   0  0  0  0  0  0
  -21.6859   -6.0639   22.5223 C   0  0  0  0  0  0
  -21.4081   -6.5585   23.8152 C   0  0  0  0  0  0
  -21.3668   -5.6754   24.9124 C   0  0  0  0  0  0
  -21.6051   -4.3023   24.7193 C   0  0  0  0  0  0
  -21.8854   -3.8085   23.4331 C   0  0  0  0  0  0
  -21.9226   -4.6871   22.3371 C   0  0  0  0  0  0
  -22.7822  -13.5193   21.1892 C   0  0  0  0  0  0
  -22.1629   -4.2021   21.0941 F   0  0  0  0  0  0
  -21.5608   -3.4552   25.7733 F   0  0  0  0  0  0
  -29.9908  -13.5816   20.3784 N   0  0  0  0  0  0
  -26.2942  -12.9317   20.3522 N   0  0  0  0  0  0
  -25.9245  -11.6451   20.5710 N   0  0  0  0  0  0
  -22.0447  -12.8139   22.0442 N   0  0  0  0  0  0
  -25.4334  -15.1872   20.4591 N   0  0  0  0  0  0
  -31.8614  -14.8114   20.1165 O   0  0  0  0  0  0
  -21.6686   -6.8759   21.4163 O   0  0  0  0  0  0
  -22.3515  -14.5480   20.6728 O   0  0  0  0  0  0
  -24.6393  -31.8581   23.2058 C   0  0  0  0  0  0
  -25.9231  -32.4767   23.8410 C   0  0  1  0  0  0
  -27.2132  -27.2708   20.1049 C   0  0  0  0  0  0
  -25.6064  -33.8580   24.2268 N   0  0  0  0  0  0
  -23.4289  -30.4891   21.5506 C   0  0  2  0  0  0
  -24.8687  -28.9354   20.1160 C   0  0  0  0  0  0
  -22.7426  -29.4716   22.4985 C   0  0  0  0  0  0
  -18.0240  -28.1376   22.8381 C   0  0  0  0  0  0
  -24.1487  -36.7293   23.2614 C   0  0  0  0  0  0
  -25.9758  -30.7778   21.3818 C   0  0  0  0  0  0
  -26.0470  -29.4004   20.7178 C   0  0  0  0  0  0
  -27.2229  -28.5750   20.7101 C   0  0  0  0  0  0
  -26.0293  -26.9131   19.4341 C   0  0  0  0  0  0
  -24.8637  -27.6951   19.4684 C   0  0  0  0  0  0
  -23.6429  -29.8250   20.1677 C   0  0  0  0  0  0
  -25.4126  -36.3038   24.0252 C   0  0  1  0  0  0
  -20.5824  -28.3727   23.1154 C   0  0  2  0  0  0
  -20.6753  -26.9460   22.5325 C   0  0  0  0  0  0
  -19.5773  -26.6375   21.5090 C   0  0  0  0  0  0
  -18.1937  -26.7919   22.1507 C   0  0  0  0  0  0
  -19.1488  -28.8879   23.2773 C   0  0  0  0  0  0
  -18.9452  -30.1446   23.8829 C   0  0  0  0  0  0
  -17.6466  -30.6605   24.0537 C   0  0  0  0  0  0
  -25.9082  -34.9442   23.5015 C   0  0  0  0  0  0
  -16.5339  -29.9110   23.6323 C   0  0  0  0  0  0
  -16.7236  -28.6519   23.0362 C   0  0  0  0  0  0
  -26.4558  -31.6565   25.0795 C   0  0  0  0  0  0
  -25.3821  -31.3723   26.1545 C   0  0  0  0  0  0
  -27.0304  -30.2929   24.6295 C   0  0  0  0  0  0
  -27.6086  -32.4324   25.7556 C   0  0  0  0  0  0
  -27.5532  -37.1817   24.8421 C   0  0  0  0  0  0
  -21.4141  -29.3130   22.3640 N   0  0  0  0  0  0
  -26.4253  -37.3779   23.9357 N   0  0  0  0  0  0
  -24.7002  -31.0525   22.1074 N   0  0  0  0  0  0
  -23.4078  -28.8248   23.3114 O   0  0  0  0  0  0
  -28.2907  -26.3495   20.1048 O   0  0  0  0  0  0
  -26.5585  -34.8897   22.4537 O   0  0  0  0  0  0
  -23.5519  -32.1418   23.7362 O   0  0  0  0  0  0
  -29.4565  -18.4832   20.6207 C   0  0  0  0  0  0
  -28.6890  -16.7598   19.0974 C   0  0  0  0  0  0
  -28.6351  -19.5242   19.9900 C   0  0  0  0  0  0
  -27.7068  -19.0229   19.0188 C   0  0  0  0  0  0
  -29.4516  -17.0746   20.2309 C   0  0  0  0  0  0
  -27.8004  -17.6875   18.5322 C   0  0  0  0  0  0
  -28.6766  -22.6138   16.5086 C   0  0  0  0  0  0
  -27.2902  -23.0602   17.0285 C   0  0  0  0  0  0
  -29.4310  -21.5175   17.2845 C   0  0  0  0  0  0
  -27.0723  -23.3237   18.5520 C   0  0  0  0  0  0
  -30.0504  -22.0025   18.6160 C   0  0  0  0  0  0
  -28.3139  -23.6496   19.4034 C   0  0  1  0  0  0
  -26.5533  -19.8884   18.5329 C   0  0  0  0  0  0
  -28.5416  -21.0741   20.4877 C   0  0  0  0  0  0
  -28.0607  -24.8831   20.4546 C   0  0  0  0  0  0
  -30.1022  -15.9481   20.9555 N   0  0  0  0  0  0
  -29.1088  -22.3290   19.7345 N   0  3  1  0  0  0
  -26.7697  -17.0922   17.2760 Cl  0  0  0  0  0  0
  -31.4650  -12.5796   19.1720 H   0  0  0  0  0  0
  -30.3353  -11.5243   19.9571 H   0  0  0  0  0  0
  -29.7716  -11.7043   17.5512 H   0  0  0  0  0  0
  -29.6340  -13.4459   17.6753 H   0  0  0  0  0  0
  -27.9174  -11.2834   18.9412 H   0  0  0  0  0  0
  -27.3476  -12.4884   17.8263 H   0  0  0  0  0  0
  -27.5815  -14.2334   19.4802 H   0  0  0  0  0  0
  -28.7870  -12.2552   21.4820 H   0  0  0  0  0  0
  -28.4573  -13.9443   21.7695 H   0  0  0  0  0  0
  -25.2543   -9.5858   22.4771 H   0  0  0  0  0  0
  -23.9972   -7.4687   22.7418 H   0  0  0  0  0  0
  -21.0650   -8.8581   19.8996 H   0  0  0  0  0  0
  -22.3336  -10.9565   19.6112 H   0  0  0  0  0  0
  -21.2121   -7.6106   23.9607 H   0  0  0  0  0  0
  -21.1446   -6.0483   25.9002 H   0  0  0  0  0  0
  -22.0662   -2.7541   23.2848 H   0  0  0  0  0  0
  -22.4052  -11.9795   22.4791 H   0  0  0  0  0  0
  -21.1101  -13.1192   22.2762 H   0  0  0  0  0  0
  -24.6815  -15.8536   20.5986 H   0  0  0  0  0  0
  -26.3205  -15.6187   20.2298 H   0  0  0  0  0  0
  -26.7390  -32.5348   23.1241 H   0  0  0  0  0  0
  -25.0361  -33.9787   25.0503 H   0  0  0  0  0  0
  -22.7384  -31.3238   21.4034 H   0  0  0  0  0  0
  -23.3730  -35.9651   23.3272 H   0  0  0  0  0  0
  -24.3556  -36.8951   22.2027 H   0  0  0  0  0  0
  -23.7303  -37.6503   23.6682 H   0  0  0  0  0  0
  -26.1091  -31.5558   20.6274 H   0  0  0  0  0  0
  -26.8593  -30.8178   22.0118 H   0  0  0  0  0  0
  -28.1215  -28.9292   21.2014 H   0  0  0  0  0  0
  -25.9846  -26.0326   18.8329 H   0  0  0  0  0  0
  -23.9697  -27.3362   18.9729 H   0  0  0  0  0  0
  -23.7867  -30.6032   19.4182 H   0  0  0  0  0  0
  -22.7527  -29.2754   19.8556 H   0  0  0  0  0  0
  -25.1368  -36.1842   25.0755 H   0  0  0  0  0  0
  -20.9864  -28.3336   24.1283 H   0  0  0  0  0  0
  -20.5502  -26.2422   23.3561 H   0  0  0  0  0  0
  -21.6662  -26.7462   22.1229 H   0  0  0  0  0  0
  -19.6972  -25.6263   21.1205 H   0  0  0  0  0  0
  -19.6727  -27.3082   20.6525 H   0  0  0  0  0  0
  -17.4190  -26.6509   21.3953 H   0  0  0  0  0  0
  -18.0487  -26.0086   22.8944 H   0  0  0  0  0  0
  -19.7965  -30.7233   24.2168 H   0  0  0  0  0  0
  -17.5076  -31.6253   24.5213 H   0  0  0  0  0  0
  -15.5372  -30.3071   23.7687 H   0  0  0  0  0  0
  -15.8575  -28.0848   22.7175 H   0  0  0  0  0  0
  -24.5993  -30.7056   25.7927 H   0  0  0  0  0  0
  -24.9089  -32.2885   26.5057 H   0  0  0  0  0  0
  -25.8254  -30.8865   27.0242 H   0  0  0  0  0  0
  -26.2825  -29.6752   24.1314 H   0  0  0  0  0  0
  -27.3847  -29.7179   25.4866 H   0  0  0  0  0  0
  -27.8802  -30.4102   23.9582 H   0  0  0  0  0  0
  -27.2645  -33.3608   26.2130 H   0  0  0  0  0  0
  -28.3889  -32.6929   25.0391 H   0  0  0  0  0  0
  -28.0774  -31.8474   26.5484 H   0  0  0  0  0  0
  -28.2566  -38.0107   24.7474 H   0  0  0  0  0  0
  -28.1004  -36.2626   24.6261 H   0  0  0  0  0  0
  -27.2198  -37.1504   25.8814 H   0  0  0  0  0  0
  -20.9322  -29.8933   21.6926 H   0  0  0  0  0  0
  -26.0062  -38.2782   24.1519 H   0  0  0  0  0  0
  -30.0715  -18.7718   21.4651 H   0  0  0  0  0  0
  -28.7151  -15.7620   18.6913 H   0  0  0  0  0  0
  -29.3236  -23.4826   16.3972 H   0  0  0  0  0  0
  -28.5403  -22.2626   15.4831 H   0  0  0  0  0  0
  -26.5404  -22.3543   16.6637 H   0  0  0  0  0  0
  -27.0589  -23.9864   16.4955 H   0  0  0  0  0  0
  -30.2826  -21.2595   16.6554 H   0  0  0  0  0  0
  -28.9002  -20.5687   17.3260 H   0  0  0  0  0  0
  -26.4858  -22.5505   19.0461 H   0  0  0  0  0  0
  -26.3720  -24.1407   18.6149 H   0  0  0  0  0  0
  -30.5764  -22.9156   18.3377 H   0  0  0  0  0  0
  -30.8309  -21.3238   18.9547 H   0  0  0  0  0  0
  -28.9743  -24.1984   18.7381 H   0  0  0  0  0  0
  -26.9627  -20.7957   18.1317 H   0  0  0  0  0  0
  -25.8720  -20.1311   19.3520 H   0  0  0  0  0  0
  -25.9619  -19.4629   17.7222 H   0  0  0  0  0  0
  -29.0876  -21.0677   21.4387 H   0  0  0  0  0  0
  -27.5124  -21.2756   20.7974 H   0  0  0  0  0  0
  -28.6555  -24.6925   21.3499 H   0  0  0  0  0  0
  -27.0330  -24.8090   20.8095 H   0  0  0  0  0  0
  -30.6205  -16.2890   21.7537 H   0  0  0  0  0  0
  -29.7665  -22.6544   20.4309 H   0  0  0  0  0  0
  1 25  1  0  0  0
  1 30  2  0  0  0
  1 86  1  0  0  0
  2  3  1  0  0  0
  2 25  1  0  0  0
  2 89  1  0  0  0
  2 90  1  0  0  0
  3  4  1  0  0  0
  3 91  1  0  0  0
  3 92  1  0  0  0
  4  5  1  0  0  0
  4 93  1  0  0  0
  4 94  1  0  0  0
  5  6  1  0  0  0
  5 26  1  0  0  0
  5 95  1  0  0  0
  6 25  1  0  0  0
  6 96  1  0  0  0
  6 97  1  0  0  0
  7  8  2  0  0  0
  7 26  1  0  0  0
  7 29  1  0  0  0
  8  9  1  0  0  0
  8 22  1  0  0  0
  9 10  1  0  0  0
  9 27  2  0  0  0
 10 11  2  0  0  0
 10 15  1  0  0  0
 11 12  1  0  0  0
 11 98  1  0  0  0
 12 13  2  0  0  0
 12 99  1  0  0  0
 13 14  1  0  0  0
 13 31  1  0  0  0
 14 15  2  0  0  0
 14100  1  0  0  0
 15101  1  0  0  0
 16 17  2  0  0  0
 16 21  1  0  0  0
 16 31  1  0  0  0
 17 18  1  0  0  0
 17102  1  0  0  0
 18 19  2  0  0  0
 18103  1  0  0  0
 19 20  1  0  0  0
 19 24  1  0  0  0
 20 21  2  0  0  0
 20104  1  0  0  0
 21 23  1  0  0  0
 22 28  1  0  0  0
 22 32  2  0  0  0
 26 27  1  0  0  0
 28105  1  0  0  0
 28106  1  0  0  0
 29107  1  0  0  0
 29108  1  0  0  0
 33 34  1  0  0  0
 33 66  1  0  0  0
 33 70  2  0  0  0
 34 36  1  0  0  0
 34 59  1  0  0  0
 34109  1  0  0  0
 35 44  2  0  0  0
 35 45  1  0  0  0
 35 68  1  0  0  0
 36 56  1  0  0  0
 36110  1  0  0  0
 37 39  1  0  0  0
 37 47  1  0  0  0
 37 66  1  0  0  0
 37111  1  0  0  0
 38 43  2  0  0  0
 38 46  1  0  0  0
 38 47  1  0  0  0
 39 64  1  0  0  0
 39 67  2  0  0  0
 40 52  1  0  0  0
 40 53  2  0  0  0
 40 58  1  0  0  0
 41112  1  0  0  0
 41113  1  0  0  0
 41114  1  0  0  0
 41 48  1  0  0  0
 42 43  1  0  0  0
 42 66  1  0  0  0
 42115  1  0  0  0
 42116  1  0  0  0
 43 44  1  0  0  0
 44117  1  0  0  0
 45 46  2  0  0  0
 45118  1  0  0  0
 46119  1  0  0  0
 47120  1  0  0  0
 47121  1  0  0  0
 48 56  1  0  0  0
 48 65  1  0  0  0
 48122  1  0  0  0
 49 50  1  0  0  0
 49 53  1  0  0  0
 49 64  1  0  0  0
 49123  1  0  0  0
 50 51  1  0  0  0
 50124  1  0  0  0
 50125  1  0  0  0
 51 52  1  0  0  0
 51126  1  0  0  0
 51127  1  0  0  0
 52128  1  0  0  0
 52129  1  0  0  0
 53 54  1  0  0  0
 54 55  2  0  0  0
 54130  1  0  0  0
 55 57  1  0  0  0
 55131  1  0  0  0
 56 69  2  0  0  0
 57 58  2  0  0  0
 57132  1  0  0  0
 58133  1  0  0  0
 59 60  1  0  0  0
 59 61  1  0  0  0
 59 62  1  0  0  0
 60134  1  0  0  0
 60135  1  0  0  0
 60136  1  0  0  0
 61137  1  0  0  0
 61138  1  0  0  0
 61139  1  0  0  0
 62140  1  0  0  0
 62141  1  0  0  0
 62142  1  0  0  0
 63 65  1  0  0  0
 63143  1  0  0  0
 63144  1  0  0  0
 63145  1  0  0  0
 64146  1  0  0  0
 65147  1  0  0  0
 68 85  1  0  0  0
 71 73  2  0  0  0
 71 75  1  0  0  0
 71148  1  0  0  0
 72 75  2  0  0  0
 72 76  1  0  0  0
 72149  1  0  0  0
 73 74  1  0  0  0
 73 84  1  0  0  0
 74 76  2  0  0  0
 74 83  1  0  0  0
 75 86  1  0  0  0
 76 88  1  0  0  0
 77 78  1  0  0  0
 77 79  1  0  0  0
 77150  1  0  0  0
 77151  1  0  0  0
 78 80  1  0  0  0
 78152  1  0  0  0
 78153  1  0  0  0
 79 81  1  0  0  0
 79154  1  0  0  0
 79155  1  0  0  0
 80 82  1  0  0  0
 80156  1  0  0  0
 80157  1  0  0  0
 81 87  1  0  0  0
 81158  1  0  0  0
 81159  1  0  0  0
 82 85  1  0  0  0
 82 87  1  0  0  0
 82160  1  0  0  0
 83161  1  0  0  0
 83162  1  0  0  0
 83163  1  0  0  0
 84164  1  0  0  0
 84165  1  0  0  0
 84 87  1  0  0  0
 85166  1  0  0  0
 85167  1  0  0  0
 86168  1  0  0  0
 87169  1  0  0  0
M  CHG  1  87   1
M  ISO  4   1 100  68 101  85 101  86 100
M  END
> <chiral flag>
0

> <version>
0

> <s_m_source_file>
/data/baiqing/PycharmProjects/Reinvent-master-3.2/result/LINK_invent/BTK/process_docking_weight1_custom_product_contain_oxygen_bond_distance_aromatic_linkinvent_7_9_3/rearranged_h_0036.sdf

> <i_m_source_file_index>
83

> <r_mmod_Potential_Energy-OPLS-2005>
396.969207763672

> <r_mmod_Stretch_Energy-OPLS-2005>
170.3154296875

> <r_mmod_Bend_Energy-OPLS-2005>
282.291046142578

> <r_mmod_Torsional_Energy-OPLS-2005>
352.108795166016

> <r_mmod_Improper_Torsional_Energy-OPLS-2005>
6.10060739517212

> <r_mmod_Van_der_Waal_Energy-OPLS-2005>
150.254211425781

> <r_mmod_Electrostatic_Energy-OPLS-2005>
-223.10791015625

> <r_mmod_Solvation_Energy-OPLS-2005>
-433.203826904297

> <b_mmod_Minimization_Converged-OPLS-2005>
0

> <r_mmod_RMS_Derivative-OPLS-2005>
9.68886852264404

$$$$
83
                    3D
 Structure written by MMmdl.
157165  0  0  1  0            999 V2000
  -30.5936  -14.7417   20.4374 C   0  0  0  0  0  0
  -30.4394  -12.4301   19.5035 C   0  0  0  0  0  0
  -29.5278  -12.4524   18.2561 C   0  0  0  0  0  0
  -28.0385  -12.3477   18.6451 C   0  0  0  0  0  0
  -27.6464  -13.2365   19.8576 C   0  0  2  0  0  0
  -28.6850  -13.1537   20.9951 C   0  0  0  0  0  0
  -25.2514  -13.8203   20.5678 C   0  0  0  0  0  0
  -24.1799  -13.0444   20.9205 C   0  0  0  0  0  0
  -24.6399  -11.6919   20.8743 C   0  0  0  0  0  0
  -23.9066  -10.4290   21.0398 C   0  0  0  0  0  0
  -24.3607   -9.4206   21.9174 C   0  0  0  0  0  0
  -23.6293   -8.2227   22.0714 C   0  0  0  0  0  0
  -22.4273   -8.0264   21.3512 C   0  0  0  0  0  0
  -21.9925   -9.0244   20.4619 C   0  0  0  0  0  0
  -22.7243  -10.2126   20.3039 C   0  0  0  0  0  0
  -21.6855   -6.0744   22.5270 C   0  0  0  0  0  0
  -21.4033   -6.5652   23.8210 C   0  0  0  0  0  0
  -21.3662   -5.6793   24.9165 C   0  0  0  0  0  0
  -21.6037   -4.3054   24.7224 C   0  0  0  0  0  0
  -21.8820   -3.8152   23.4338 C   0  0  0  0  0  0
  -21.9199   -4.6967   22.3395 C   0  0  0  0  0  0
  -22.7818  -13.5203   21.1897 C   0  0  0  0  0  0
  -22.1659   -4.2158   21.0976 F   0  0  0  0  0  0
  -21.5622   -3.4542   25.7737 F   0  0  0  0  0  0
  -29.9931  -13.5023   20.4239 N   0  0  0  0  0  0
  -26.2953  -12.9422   20.3287 N   0  0  0  0  0  0
  -25.9340  -11.6566   20.5767 N   0  0  0  0  0  0
  -22.0466  -12.8160   22.0431 N   0  0  0  0  0  0
  -25.4238  -15.1915   20.4079 N   0  0  0  0  0  0
  -31.7708  -14.8572   20.0834 O   0  0  0  0  0  0
  -21.6612   -6.8881   21.4233 O   0  0  0  0  0  0
  -22.3493  -14.5536   20.6793 O   0  0  0  0  0  0
  -24.6328  -31.8569   23.1994 C   0  0  0  0  0  0
  -25.9155  -32.4759   23.8337 C   0  0  1  0  0  0
  -27.2046  -27.2545   20.1229 C   0  0  0  0  0  0
  -25.5936  -33.8560   24.2272 N   0  0  0  0  0  0
  -23.4276  -30.4840   21.5443 C   0  0  2  0  0  0
  -24.8703  -28.9373   20.1037 C   0  0  0  0  0  0
  -22.7510  -29.4624   22.4902 C   0  0  0  0  0  0
  -18.0299  -28.1389   22.8493 C   0  0  0  0  0  0
  -24.1487  -36.7289   23.2643 C   0  0  0  0  0  0
  -25.9754  -30.7661   21.3805 C   0  0  0  0  0  0
  -26.0427  -29.3887   20.7228 C   0  0  0  0  0  0
  -27.2102  -28.5582   20.7281 C   0  0  0  0  0  0
  -26.0170  -26.8933   19.4433 C   0  0  0  0  0  0
  -24.8640  -27.6981   19.4512 C   0  0  0  0  0  0
  -23.6427  -29.8252   20.1572 C   0  0  0  0  0  0
  -25.4114  -36.3076   24.0336 C   0  0  1  0  0  0
  -20.5906  -28.3705   23.1263 C   0  0  2  0  0  0
  -20.6782  -26.9416   22.5412 C   0  0  0  0  0  0
  -19.5755  -26.6388   21.5216 C   0  0  0  0  0  0
  -18.1937  -26.7929   22.1631 C   0  0  0  0  0  0
  -19.1554  -28.8858   23.2876 C   0  0  0  0  0  0
  -18.9474  -30.1455   23.8898 C   0  0  0  0  0  0
  -17.6471  -30.6590   24.0560 C   0  0  0  0  0  0
  -25.9059  -34.9445   23.5110 C   0  0  0  0  0  0
  -16.5355  -29.9089   23.6323 C   0  0  0  0  0  0
  -16.7286  -28.6500   23.0351 C   0  0  0  0  0  0
  -26.4501  -31.6567   25.0722 C   0  0  0  0  0  0
  -25.3705  -31.3707   26.1424 C   0  0  0  0  0  0
  -27.0343  -30.2987   24.6189 C   0  0  0  0  0  0
  -27.6062  -32.4285   25.7499 C   0  0  0  0  0  0
  -27.5577  -37.1807   24.8466 C   0  0  0  0  0  0
  -21.4215  -29.3059   22.3656 N   0  0  0  0  0  0
  -26.4289  -37.3775   23.9403 N   0  0  0  0  0  0
  -24.6983  -31.0530   22.0978 N   0  0  0  0  0  0
  -23.4218  -28.8155   23.2995 O   0  0  0  0  0  0
  -28.2744  -26.3281   20.2156 O   0  0  0  0  0  0
  -26.5645  -34.8924   22.4685 O   0  0  0  0  0  0
  -23.5478  -32.1391   23.7286 O   0  0  0  0  0  0
  -29.3579  -19.7962   18.8226 C   0  0  0  0  0  0
  -29.5488  -18.6249   18.0661 C   0  0  0  0  0  0
  -29.5437  -18.4420   20.8319 C   0  0  0  0  0  0
  -29.3323  -19.7548   20.2287 C   0  0  0  0  0  0
  -29.7317  -17.3562   18.6636 C   0  0  0  0  0  0
  -29.7540  -17.2098   20.0825 C   0  0  0  0  0  0
  -28.8496  -23.7246   20.6130 C   0  0  0  0  0  0
  -29.8149  -16.1695   17.7209 C   0  0  0  0  0  0
  -28.0214  -20.8629   22.1298 C   0  0  0  0  0  0
  -28.0078  -24.8763   19.8880 C   0  0  0  0  0  0
  -29.0708  -21.1132   21.0296 C   0  0  2  0  0  0
  -29.8087  -15.8567   20.7095 N   0  0  0  0  0  0
  -28.6538  -22.3880   20.2883 N   0  0  0  0  0  0
  -29.6380  -24.0424   21.5057 O   0  0  0  0  0  0
  -31.4850  -12.5467   19.2095 H   0  0  0  0  0  0
  -30.3792  -11.4607   20.0018 H   0  0  0  0  0  0
  -29.7880  -11.6211   17.5998 H   0  0  0  0  0  0
  -29.7102  -13.3527   17.6720 H   0  0  0  0  0  0
  -27.8415  -11.3028   18.8852 H   0  0  0  0  0  0
  -27.4074  -12.5891   17.7893 H   0  0  0  0  0  0
  -27.6475  -14.2647   19.4978 H   0  0  0  0  0  0
  -28.7094  -12.1545   21.4318 H   0  0  0  0  0  0
  -28.4165  -13.8313   21.8073 H   0  0  0  0  0  0
  -25.2735   -9.5711   22.4762 H   0  0  0  0  0  0
  -24.0025   -7.4624   22.7420 H   0  0  0  0  0  0
  -21.0856   -8.8761   19.8925 H   0  0  0  0  0  0
  -22.3685  -10.9667   19.6153 H   0  0  0  0  0  0
  -21.2035   -7.6159   23.9726 H   0  0  0  0  0  0
  -21.1481   -6.0506   25.9072 H   0  0  0  0  0  0
  -22.0606   -2.7618   23.2805 H   0  0  0  0  0  0
  -22.4077  -11.9810   22.4815 H   0  0  0  0  0  0
  -21.1087  -13.1167   22.2667 H   0  0  0  0  0  0
  -24.6650  -15.8541   20.5209 H   0  0  0  0  0  0
  -26.2753  -15.6236   20.0727 H   0  0  0  0  0  0
  -26.7221  -32.5409   23.1076 H   0  0  0  0  0  0
  -25.0025  -33.9681   25.0375 H   0  0  0  0  0  0
  -22.7239  -31.3075   21.4035 H   0  0  0  0  0  0
  -23.3748  -35.9620   23.3311 H   0  0  0  0  0  0
  -24.3581  -36.8905   22.2057 H   0  0  0  0  0  0
  -23.7239  -37.6496   23.6657 H   0  0  0  0  0  0
  -26.1155  -31.5234   20.6076 H   0  0  0  0  0  0
  -26.8537  -30.8150   22.0113 H   0  0  0  0  0  0
  -28.1011  -28.8921   21.2408 H   0  0  0  0  0  0
  -25.9355  -25.9638   18.9017 H   0  0  0  0  0  0
  -23.9726  -27.3557   18.9426 H   0  0  0  0  0  0
  -23.7655  -30.6054   19.4051 H   0  0  0  0  0  0
  -22.7591  -29.2617   19.8533 H   0  0  0  0  0  0
  -25.1289  -36.1932   25.0828 H   0  0  0  0  0  0
  -21.0009  -28.3288   24.1377 H   0  0  0  0  0  0
  -20.5674  -26.2320   23.3626 H   0  0  0  0  0  0
  -21.6649  -26.7428   22.1210 H   0  0  0  0  0  0
  -19.6913  -25.6296   21.1253 H   0  0  0  0  0  0
  -19.6689  -27.3195   20.6741 H   0  0  0  0  0  0
  -17.4209  -26.6682   21.4030 H   0  0  0  0  0  0
  -18.0330  -26.0066   22.9023 H   0  0  0  0  0  0
  -19.7945  -30.7268   24.2266 H   0  0  0  0  0  0
  -17.5026  -31.6260   24.5166 H   0  0  0  0  0  0
  -15.5359  -30.2990   23.7630 H   0  0  0  0  0  0
  -15.8693  -28.0813   22.7064 H   0  0  0  0  0  0
  -24.5899  -30.7043   25.7732 H   0  0  0  0  0  0
  -24.8863  -32.2870   26.4817 H   0  0  0  0  0  0
  -25.8002  -30.8900   27.0220 H   0  0  0  0  0  0
  -26.2922  -29.6740   24.1205 H   0  0  0  0  0  0
  -27.4030  -29.7237   25.4691 H   0  0  0  0  0  0
  -27.8798  -30.4269   23.9426 H   0  0  0  0  0  0
  -27.2691  -33.3604   26.2043 H   0  0  0  0  0  0
  -28.3893  -32.6800   25.0335 H   0  0  0  0  0  0
  -28.0698  -31.8414   26.5435 H   0  0  0  0  0  0
  -28.2595  -38.0101   24.7501 H   0  0  0  0  0  0
  -28.1068  -36.2633   24.6295 H   0  0  0  0  0  0
  -27.2298  -37.1467   25.8870 H   0  0  0  0  0  0
  -20.9399  -29.8788   21.6867 H   0  0  0  0  0  0
  -26.0175  -38.2857   24.1370 H   0  0  0  0  0  0
  -29.2153  -20.7341   18.3033 H   0  0  0  0  0  0
  -29.5238  -18.7065   16.9882 H   0  0  0  0  0  0
  -29.5327  -18.3698   21.9099 H   0  0  0  0  0  0
  -29.6276  -16.4569   16.6859 H   0  0  0  0  0  0
  -29.0535  -15.4403   17.9891 H   0  0  0  0  0  0
  -30.7996  -15.7060   17.7532 H   0  0  0  0  0  0
  -28.3228  -20.0668   22.8097 H   0  0  0  0  0  0
  -27.0598  -20.5783   21.7004 H   0  0  0  0  0  0
  -27.8607  -21.7497   22.7428 H   0  0  0  0  0  0
  -26.9825  -24.6214   20.1552 H   0  0  0  0  0  0
  -28.1003  -24.7442   18.8093 H   0  0  0  0  0  0
  -30.0144  -21.3418   21.5274 H   0  0  0  0  0  0
  -28.9931  -15.6339   21.2603 H   0  0  0  0  0  0
  -28.0082  -22.2367   19.5263 H   0  0  0  0  0  0
  1 25  1  0  0  0
  1 30  2  0  0  0
  1 82  1  0  0  0
  2  3  1  0  0  0
  2 25  1  0  0  0
  2 85  1  0  0  0
  2 86  1  0  0  0
  3  4  1  0  0  0
  3 87  1  0  0  0
  3 88  1  0  0  0
  4  5  1  0  0  0
  4 89  1  0  0  0
  4 90  1  0  0  0
  5  6  1  0  0  0
  5 26  1  0  0  0
  5 91  1  0  0  0
  6 25  1  0  0  0
  6 92  1  0  0  0
  6 93  1  0  0  0
  7  8  2  0  0  0
  7 26  1  0  0  0
  7 29  1  0  0  0
  8  9  1  0  0  0
  8 22  1  0  0  0
  9 10  1  0  0  0
  9 27  2  0  0  0
 10 11  2  0  0  0
 10 15  1  0  0  0
 11 12  1  0  0  0
 11 94  1  0  0  0
 12 13  2  0  0  0
 12 95  1  0  0  0
 13 14  1  0  0  0
 13 31  1  0  0  0
 14 15  2  0  0  0
 14 96  1  0  0  0
 15 97  1  0  0  0
 16 17  2  0  0  0
 16 21  1  0  0  0
 16 31  1  0  0  0
 17 18  1  0  0  0
 17 98  1  0  0  0
 18 19  2  0  0  0
 18 99  1  0  0  0
 19 20  1  0  0  0
 19 24  1  0  0  0
 20 21  2  0  0  0
 20100  1  0  0  0
 21 23  1  0  0  0
 22 28  1  0  0  0
 22 32  2  0  0  0
 26 27  1  0  0  0
 28101  1  0  0  0
 28102  1  0  0  0
 29103  1  0  0  0
 29104  1  0  0  0
 33 34  1  0  0  0
 33 66  1  0  0  0
 33 70  2  0  0  0
 34 36  1  0  0  0
 34 59  1  0  0  0
 34105  1  0  0  0
 35 44  2  0  0  0
 35 45  1  0  0  0
 35 68  1  0  0  0
 36 56  1  0  0  0
 36106  1  0  0  0
 37 39  1  0  0  0
 37 47  1  0  0  0
 37 66  1  0  0  0
 37107  1  0  0  0
 38 43  2  0  0  0
 38 46  1  0  0  0
 38 47  1  0  0  0
 39 64  1  0  0  0
 39 67  2  0  0  0
 40 52  1  0  0  0
 40 53  2  0  0  0
 40 58  1  0  0  0
 41108  1  0  0  0
 41109  1  0  0  0
 41110  1  0  0  0
 41 48  1  0  0  0
 42 43  1  0  0  0
 42 66  1  0  0  0
 42111  1  0  0  0
 42112  1  0  0  0
 43 44  1  0  0  0
 44113  1  0  0  0
 45 46  2  0  0  0
 45114  1  0  0  0
 46115  1  0  0  0
 47116  1  0  0  0
 47117  1  0  0  0
 48 56  1  0  0  0
 48 65  1  0  0  0
 48118  1  0  0  0
 49 50  1  0  0  0
 49 53  1  0  0  0
 49 64  1  0  0  0
 49119  1  0  0  0
 50 51  1  0  0  0
 50120  1  0  0  0
 50121  1  0  0  0
 51 52  1  0  0  0
 51122  1  0  0  0
 51123  1  0  0  0
 52124  1  0  0  0
 52125  1  0  0  0
 53 54  1  0  0  0
 54 55  2  0  0  0
 54126  1  0  0  0
 55 57  1  0  0  0
 55127  1  0  0  0
 56 69  2  0  0  0
 57 58  2  0  0  0
 57128  1  0  0  0
 58129  1  0  0  0
 59 60  1  0  0  0
 59 61  1  0  0  0
 59 62  1  0  0  0
 60130  1  0  0  0
 60131  1  0  0  0
 60132  1  0  0  0
 61133  1  0  0  0
 61134  1  0  0  0
 61135  1  0  0  0
 62136  1  0  0  0
 62137  1  0  0  0
 62138  1  0  0  0
 63 65  1  0  0  0
 63139  1  0  0  0
 63140  1  0  0  0
 63141  1  0  0  0
 64142  1  0  0  0
 65143  1  0  0  0
 68 80  1  0  0  0
 71 72  2  0  0  0
 71 74  1  0  0  0
 71144  1  0  0  0
 72 75  1  0  0  0
 72145  1  0  0  0
 73 74  2  0  0  0
 73 76  1  0  0  0
 73146  1  0  0  0
 74 81  1  0  0  0
 75 76  2  0  0  0
 75 78  1  0  0  0
 76 82  1  0  0  0
 77 80  1  0  0  0
 77 83  1  0  0  0
 77 84  2  0  0  0
 78147  1  0  0  0
 78148  1  0  0  0
 78149  1  0  0  0
 79150  1  0  0  0
 79151  1  0  0  0
 79152  1  0  0  0
 79 81  1  0  0  0
 80153  1  0  0  0
 80154  1  0  0  0
 81 83  1  0  0  0
 81155  1  0  0  0
 82156  1  0  0  0
 83157  1  0  0  0
M  ISO  4   1 100  68 101  80 101  82 100
M  END
> <chiral flag>
0

> <version>
0

> <s_m_source_file>
/data/baiqing/PycharmProjects/Reinvent-master-3.2/result/LINK_invent/BTK/process_docking_weight1_custom_product_contain_oxygen_bond_distance_aromatic_linkinvent_7_9_3/rearranged_h_0036.sdf

> <i_m_source_file_index>
84

> <r_mmod_Potential_Energy-OPLS-2005>
82.7052154541016

> <r_mmod_Stretch_Energy-OPLS-2005>
126.008781433105

> <r_mmod_Bend_Energy-OPLS-2005>
155.854522705078

> <r_mmod_Torsional_Energy-OPLS-2005>
238.094039916992

> <r_mmod_Improper_Torsional_Energy-OPLS-2005>
5.53914213180542

> <r_mmod_Van_der_Waal_Energy-OPLS-2005>
143.56608581543

> <r_mmod_Electrostatic_Energy-OPLS-2005>
-430.988616943359

> <r_mmod_Solvation_Energy-OPLS-2005>
-246.873046875

> <b_mmod_Minimization_Converged-OPLS-2005>
0

> <r_mmod_RMS_Derivative-OPLS-2005>
2.45520353317261

$$$$
84
                    3D
 Structure written by MMmdl.
159168  0  0  1  0            999 V2000
  -30.6888  -14.6511   20.5043 C   0  0  0  0  0  0
  -30.4174  -12.4098   19.4520 C   0  0  0  0  0  0
  -29.4964  -12.4938   18.2190 C   0  0  0  0  0  0
  -28.0237  -12.3307   18.6397 C   0  0  0  0  0  0
  -27.6406  -13.2288   19.8469 C   0  0  2  0  0  0
  -28.6892  -13.1542   20.9778 C   0  0  0  0  0  0
  -25.2511  -13.8194   20.5696 C   0  0  0  0  0  0
  -24.1803  -13.0441   20.9214 C   0  0  0  0  0  0
  -24.6389  -11.6917   20.8752 C   0  0  0  0  0  0
  -23.9067  -10.4293   21.0409 C   0  0  0  0  0  0
  -24.3619   -9.4208   21.9185 C   0  0  0  0  0  0
  -23.6295   -8.2243   22.0756 C   0  0  0  0  0  0
  -22.4278   -8.0281   21.3547 C   0  0  0  0  0  0
  -21.9912   -9.0254   20.4650 C   0  0  0  0  0  0
  -22.7239  -10.2134   20.3057 C   0  0  0  0  0  0
  -21.6857   -6.0733   22.5277 C   0  0  0  0  0  0
  -21.4015   -6.5638   23.8209 C   0  0  0  0  0  0
  -21.3659   -5.6793   24.9173 C   0  0  0  0  0  0
  -21.6044   -4.3055   24.7226 C   0  0  0  0  0  0
  -21.8818   -3.8145   23.4348 C   0  0  0  0  0  0
  -21.9195   -4.6960   22.3403 C   0  0  0  0  0  0
  -22.7825  -13.5226   21.1869 C   0  0  0  0  0  0
  -22.1662   -4.2144   21.0981 F   0  0  0  0  0  0
  -21.5632   -3.4539   25.7740 F   0  0  0  0  0  0
  -29.9919  -13.4752   20.3843 N   0  0  0  0  0  0
  -26.2934  -12.9399   20.3281 N   0  0  0  0  0  0
  -25.9317  -11.6542   20.5755 N   0  0  0  0  0  0
  -22.0471  -12.8215   22.0423 N   0  0  0  0  0  0
  -25.4194  -15.1918   20.4099 N   0  0  0  0  0  0
  -31.8846  -14.6727   20.2027 O   0  0  0  0  0  0
  -21.6644   -6.8877   21.4240 O   0  0  0  0  0  0
  -22.3509  -14.5530   20.6713 O   0  0  0  0  0  0
  -24.6293  -31.8606   23.2045 C   0  0  0  0  0  0
  -25.9140  -32.4781   23.8365 C   0  0  1  0  0  0
  -27.2070  -27.2985   20.1109 C   0  0  0  0  0  0
  -25.5954  -33.8579   24.2291 N   0  0  0  0  0  0
  -23.4213  -30.4893   21.5487 C   0  0  2  0  0  0
  -24.8627  -28.9520   20.1091 C   0  0  0  0  0  0
  -22.7486  -29.4637   22.4931 C   0  0  0  0  0  0
  -18.0293  -28.1392   22.8488 C   0  0  0  0  0  0
  -24.1489  -36.7287   23.2635 C   0  0  0  0  0  0
  -25.9672  -30.7856   21.3794 C   0  0  0  0  0  0
  -26.0372  -29.4149   20.7155 C   0  0  0  0  0  0
  -27.2130  -28.6012   20.7067 C   0  0  0  0  0  0
  -26.0029  -26.9056   19.4769 C   0  0  0  0  0  0
  -24.8492  -27.7033   19.4803 C   0  0  0  0  0  0
  -23.6348  -29.8353   20.1611 C   0  0  0  0  0  0
  -25.4111  -36.3078   24.0331 C   0  0  1  0  0  0
  -20.5897  -28.3699   23.1277 C   0  0  2  0  0  0
  -20.6784  -26.9422   22.5406 C   0  0  0  0  0  0
  -19.5755  -26.6391   21.5214 C   0  0  0  0  0  0
  -18.1936  -26.7937   22.1629 C   0  0  0  0  0  0
  -19.1547  -28.8862   23.2879 C   0  0  0  0  0  0
  -18.9464  -30.1461   23.8898 C   0  0  0  0  0  0
  -17.6464  -30.6592   24.0563 C   0  0  0  0  0  0
  -25.9053  -34.9449   23.5104 C   0  0  0  0  0  0
  -16.5355  -29.9089   23.6332 C   0  0  0  0  0  0
  -16.7279  -28.6507   23.0355 C   0  0  0  0  0  0
  -26.4515  -31.6592   25.0738 C   0  0  0  0  0  0
  -25.3741  -31.3743   26.1458 C   0  0  0  0  0  0
  -27.0350  -30.3006   24.6212 C   0  0  0  0  0  0
  -27.6070  -32.4333   25.7512 C   0  0  0  0  0  0
  -27.5578  -37.1799   24.8464 C   0  0  0  0  0  0
  -21.4200  -29.3054   22.3669 N   0  0  0  0  0  0
  -26.4287  -37.3774   23.9411 N   0  0  0  0  0  0
  -24.6918  -31.0613   22.1006 N   0  0  0  0  0  0
  -23.4204  -28.8164   23.3004 O   0  0  0  0  0  0
  -28.3048  -26.4119   20.1748 O   0  0  0  0  0  0
  -26.5609  -34.8920   22.4662 O   0  0  0  0  0  0
  -23.5454  -32.1412   23.7370 O   0  0  0  0  0  0
  -29.3055  -20.2200   19.0895 C   0  0  0  0  0  0
  -29.2008  -20.7264   21.4172 C   0  0  0  0  0  0
  -29.8402  -18.4019   20.7036 C   0  0  0  0  0  0
  -29.6692  -18.8648   19.3651 C   0  0  0  0  0  0
  -29.0443  -21.2029   20.0892 C   0  0  0  0  0  0
  -29.5859  -19.3802   21.7203 C   0  0  0  0  0  0
  -28.0910  -23.0061   18.5504 C   0  0  0  0  0  0
  -27.4304  -22.2824   17.6286 C   0  0  0  0  0  0
  -30.5327  -17.0507   21.0236 C   0  0  0  0  0  0
  -28.1476  -24.5233   18.4951 C   0  0  0  0  0  0
  -28.8752  -23.7632   20.6130 C   0  0  0  0  0  0
  -28.0527  -24.9541   19.9619 C   0  0  1  0  0  0
  -29.9396  -17.9447   18.1814 C   0  0  0  0  0  0
  -28.6506  -22.5593   19.7514 N   0  0  0  0  0  0
  -29.9899  -15.8240   20.7051 N   0  0  0  0  0  0
  -31.6398  -17.1392   21.5674 O   0  0  0  0  0  0
  -29.7480  -18.9723   23.3954 Cl  0  0  0  0  0  0
  -31.4607  -12.5032   19.1457 H   0  0  0  0  0  0
  -30.3351  -11.4325   19.9301 H   0  0  0  0  0  0
  -29.7651  -11.7241   17.4941 H   0  0  0  0  0  0
  -29.6345  -13.4522   17.7159 H   0  0  0  0  0  0
  -27.8733  -11.2821   18.8982 H   0  0  0  0  0  0
  -27.3639  -12.5311   17.7948 H   0  0  0  0  0  0
  -27.6384  -14.2516   19.4700 H   0  0  0  0  0  0
  -28.7098  -12.1594   21.4251 H   0  0  0  0  0  0
  -28.4395  -13.8485   21.7823 H   0  0  0  0  0  0
  -25.2763   -9.5688   22.4759 H   0  0  0  0  0  0
  -24.0008   -7.4636   22.7473 H   0  0  0  0  0  0
  -21.0847   -8.8769   19.8953 H   0  0  0  0  0  0
  -22.3695  -10.9674   19.6167 H   0  0  0  0  0  0
  -21.2002   -7.6145   23.9711 H   0  0  0  0  0  0
  -21.1485   -6.0523   25.9077 H   0  0  0  0  0  0
  -22.0597   -2.7606   23.2849 H   0  0  0  0  0  0
  -22.4098  -11.9879   22.4807 H   0  0  0  0  0  0
  -21.1086  -13.1234   22.2629 H   0  0  0  0  0  0
  -24.6472  -15.8408   20.5151 H   0  0  0  0  0  0
  -26.2577  -15.6323   20.0545 H   0  0  0  0  0  0
  -26.7205  -32.5436   23.1106 H   0  0  0  0  0  0
  -25.0127  -33.9726   25.0455 H   0  0  0  0  0  0
  -22.7158  -31.3114   21.4113 H   0  0  0  0  0  0
  -23.3753  -35.9618   23.3293 H   0  0  0  0  0  0
  -24.3582  -36.8904   22.2049 H   0  0  0  0  0  0
  -23.7244  -37.6490   23.6654 H   0  0  0  0  0  0
  -26.1059  -31.5521   20.6154 H   0  0  0  0  0  0
  -26.8450  -30.8272   22.0124 H   0  0  0  0  0  0
  -28.1105  -28.9508   21.1972 H   0  0  0  0  0  0
  -25.8939  -25.9552   18.9839 H   0  0  0  0  0  0
  -23.9493  -27.3427   19.0011 H   0  0  0  0  0  0
  -23.7591  -30.6171   19.4109 H   0  0  0  0  0  0
  -22.7524  -29.2713   19.8531 H   0  0  0  0  0  0
  -25.1293  -36.1924   25.0824 H   0  0  0  0  0  0
  -20.9992  -28.3271   24.1397 H   0  0  0  0  0  0
  -20.5698  -26.2307   23.3605 H   0  0  0  0  0  0
  -21.6649  -26.7460   22.1190 H   0  0  0  0  0  0
  -19.6915  -25.6299   21.1248 H   0  0  0  0  0  0
  -19.6692  -27.3195   20.6737 H   0  0  0  0  0  0
  -17.4208  -26.6685   21.4030 H   0  0  0  0  0  0
  -18.0337  -26.0081   22.9028 H   0  0  0  0  0  0
  -19.7935  -30.7279   24.2269 H   0  0  0  0  0  0
  -17.5016  -31.6273   24.5161 H   0  0  0  0  0  0
  -15.5353  -30.2989   23.7656 H   0  0  0  0  0  0
  -15.8681  -28.0820   22.7075 H   0  0  0  0  0  0
  -24.5928  -30.7076   25.7792 H   0  0  0  0  0  0
  -24.8920  -32.2912   26.4857 H   0  0  0  0  0  0
  -25.8067  -30.8947   27.0247 H   0  0  0  0  0  0
  -26.2923  -29.6763   24.1230 H   0  0  0  0  0  0
  -27.4019  -29.7262   25.4727 H   0  0  0  0  0  0
  -27.8815  -30.4276   23.9459 H   0  0  0  0  0  0
  -27.2673  -33.3634   26.2083 H   0  0  0  0  0  0
  -28.3888  -32.6893   25.0347 H   0  0  0  0  0  0
  -28.0732  -31.8464   26.5435 H   0  0  0  0  0  0
  -28.2595  -38.0097   24.7508 H   0  0  0  0  0  0
  -28.1076  -36.2628   24.6290 H   0  0  0  0  0  0
  -27.2300  -37.1447   25.8869 H   0  0  0  0  0  0
  -20.9377  -29.8778   21.6883 H   0  0  0  0  0  0
  -26.0166  -38.2850   24.1408 H   0  0  0  0  0  0
  -29.2675  -20.5139   18.0522 H   0  0  0  0  0  0
  -29.0239  -21.4003   22.2416 H   0  0  0  0  0  0
  -26.9827  -22.7643   16.7705 H   0  0  0  0  0  0
  -27.2797  -21.2164   17.7095 H   0  0  0  0  0  0
  -27.3558  -24.9309   17.8694 H   0  0  0  0  0  0
  -29.0985  -24.8319   18.0584 H   0  0  0  0  0  0
  -28.5611  -23.5894   21.6426 H   0  0  0  0  0  0
  -29.9406  -23.9954   20.6258 H   0  0  0  0  0  0
  -27.0440  -24.7433   20.3193 H   0  0  0  0  0  0
  -29.7787  -18.4523   17.2297 H   0  0  0  0  0  0
  -29.2733  -17.0816   18.2041 H   0  0  0  0  0  0
  -30.9698  -17.5865   18.1899 H   0  0  0  0  0  0
  -28.9961  -15.7958   20.5561 H   0  0  0  0  0  0
  1 25  1  0  0  0
  1 30  2  0  0  0
  1 85  1  0  0  0
  2  3  1  0  0  0
  2 25  1  0  0  0
  2 88  1  0  0  0
  2 89  1  0  0  0
  3  4  1  0  0  0
  3 90  1  0  0  0
  3 91  1  0  0  0
  4  5  1  0  0  0
  4 92  1  0  0  0
  4 93  1  0  0  0
  5  6  1  0  0  0
  5 26  1  0  0  0
  5 94  1  0  0  0
  6 25  1  0  0  0
  6 95  1  0  0  0
  6 96  1  0  0  0
  7  8  2  0  0  0
  7 26  1  0  0  0
  7 29  1  0  0  0
  8  9  1  0  0  0
  8 22  1  0  0  0
  9 10  1  0  0  0
  9 27  2  0  0  0
 10 11  2  0  0  0
 10 15  1  0  0  0
 11 12  1  0  0  0
 11 97  1  0  0  0
 12 13  2  0  0  0
 12 98  1  0  0  0
 13 14  1  0  0  0
 13 31  1  0  0  0
 14 15  2  0  0  0
 14 99  1  0  0  0
 15100  1  0  0  0
 16 17  2  0  0  0
 16 21  1  0  0  0
 16 31  1  0  0  0
 17 18  1  0  0  0
 17101  1  0  0  0
 18 19  2  0  0  0
 18102  1  0  0  0
 19 20  1  0  0  0
 19 24  1  0  0  0
 20 21  2  0  0  0
 20103  1  0  0  0
 21 23  1  0  0  0
 22 28  1  0  0  0
 22 32  2  0  0  0
 26 27  1  0  0  0
 28104  1  0  0  0
 28105  1  0  0  0
 29106  1  0  0  0
 29107  1  0  0  0
 33 34  1  0  0  0
 33 66  1  0  0  0
 33 70  2  0  0  0
 34 36  1  0  0  0
 34 59  1  0  0  0
 34108  1  0  0  0
 35 44  2  0  0  0
 35 45  1  0  0  0
 35 68  1  0  0  0
 36 56  1  0  0  0
 36109  1  0  0  0
 37 39  1  0  0  0
 37 47  1  0  0  0
 37 66  1  0  0  0
 37110  1  0  0  0
 38 43  2  0  0  0
 38 46  1  0  0  0
 38 47  1  0  0  0
 39 64  1  0  0  0
 39 67  2  0  0  0
 40 52  1  0  0  0
 40 53  2  0  0  0
 40 58  1  0  0  0
 41111  1  0  0  0
 41112  1  0  0  0
 41113  1  0  0  0
 41 48  1  0  0  0
 42 43  1  0  0  0
 42 66  1  0  0  0
 42114  1  0  0  0
 42115  1  0  0  0
 43 44  1  0  0  0
 44116  1  0  0  0
 45 46  2  0  0  0
 45117  1  0  0  0
 46118  1  0  0  0
 47119  1  0  0  0
 47120  1  0  0  0
 48 56  1  0  0  0
 48 65  1  0  0  0
 48121  1  0  0  0
 49 50  1  0  0  0
 49 53  1  0  0  0
 49 64  1  0  0  0
 49122  1  0  0  0
 50 51  1  0  0  0
 50123  1  0  0  0
 50124  1  0  0  0
 51 52  1  0  0  0
 51125  1  0  0  0
 51126  1  0  0  0
 52127  1  0  0  0
 52128  1  0  0  0
 53 54  1  0  0  0
 54 55  2  0  0  0
 54129  1  0  0  0
 55 57  1  0  0  0
 55130  1  0  0  0
 56 69  2  0  0  0
 57 58  2  0  0  0
 57131  1  0  0  0
 58132  1  0  0  0
 59 60  1  0  0  0
 59 61  1  0  0  0
 59 62  1  0  0  0
 60133  1  0  0  0
 60134  1  0  0  0
 60135  1  0  0  0
 61136  1  0  0  0
 61137  1  0  0  0
 61138  1  0  0  0
 62139  1  0  0  0
 62140  1  0  0  0
 62141  1  0  0  0
 63 65  1  0  0  0
 63142  1  0  0  0
 63143  1  0  0  0
 63144  1  0  0  0
 64145  1  0  0  0
 65146  1  0  0  0
 68 82  1  0  0  0
 71 74  2  0  0  0
 71 75  1  0  0  0
 71147  1  0  0  0
 72 75  2  0  0  0
 72 76  1  0  0  0
 72148  1  0  0  0
 73 74  1  0  0  0
 73 76  2  0  0  0
 73 79  1  0  0  0
 74 83  1  0  0  0
 75 84  1  0  0  0
 76 87  1  0  0  0
 77 78  2  0  0  0
 77 80  1  0  0  0
 77 84  1  0  0  0
 78149  1  0  0  0
 78150  1  0  0  0
 79 85  1  0  0  0
 79 86  2  0  0  0
 80 82  1  0  0  0
 80151  1  0  0  0
 80152  1  0  0  0
 81 82  1  0  0  0
 81 84  1  0  0  0
 81153  1  0  0  0
 81154  1  0  0  0
 82155  1  0  0  0
 83156  1  0  0  0
 83157  1  0  0  0
 83158  1  0  0  0
 85159  1  0  0  0
M  ISO  4   1 100  68 101  82 101  85 100
M  END
> <chiral flag>
0

> <version>
0

> <s_m_source_file>
/data/baiqing/PycharmProjects/Reinvent-master-3.2/result/LINK_invent/BTK/process_docking_weight1_custom_product_contain_oxygen_bond_distance_aromatic_linkinvent_7_9_3/rearranged_h_0036.sdf

> <i_m_source_file_index>
85

> <r_mmod_Potential_Energy-OPLS-2005>
177.338180541992

> <r_mmod_Stretch_Energy-OPLS-2005>
89.101448059082

> <r_mmod_Bend_Energy-OPLS-2005>
202.782836914062

> <r_mmod_Torsional_Energy-OPLS-2005>
256.085662841797

> <r_mmod_Improper_Torsional_Energy-OPLS-2005>
8.02908039093018

> <r_mmod_Van_der_Waal_Energy-OPLS-2005>
162.075180053711

> <r_mmod_Electrostatic_Energy-OPLS-2005>
-381.589904785156

> <r_mmod_Solvation_Energy-OPLS-2005>
-221.831268310547

> <b_mmod_Minimization_Converged-OPLS-2005>
0

> <r_mmod_RMS_Derivative-OPLS-2005>
0.64686530828476

$$$$
85
                    3D
 Structure written by MMmdl.
173182  0  0  1  0            999 V2000
  -29.5798  -15.4008   20.7549 C   0  0  0  0  0  0
  -30.3332  -13.0308   19.6957 C   0  0  0  0  0  0
  -29.5346  -12.6775   18.3984 C   0  0  0  0  0  0
  -28.0817  -12.2812   18.7246 C   0  0  0  0  0  0
  -27.5278  -13.1964   19.8372 C   0  0  2  0  0  0
  -28.4266  -13.2057   21.0682 C   0  0  0  0  0  0
  -25.1950  -13.7988   20.5506 C   0  0  0  0  0  0
  -24.1366  -13.0295   20.9258 C   0  0  0  0  0  0
  -24.5943  -11.6763   20.8752 C   0  0  0  0  0  0
  -23.8761  -10.4186   21.0483 C   0  0  0  0  0  0
  -24.3441   -9.4138   21.9222 C   0  0  0  0  0  0
  -23.6193   -8.2143   22.0747 C   0  0  0  0  0  0
  -22.4181   -8.0174   21.3534 C   0  0  0  0  0  0
  -21.9754   -9.0120   20.4645 C   0  0  0  0  0  0
  -22.6997  -10.2026   20.3084 C   0  0  0  0  0  0
  -21.6811   -6.0671   22.5291 C   0  0  0  0  0  0
  -21.3986   -6.5599   23.8217 C   0  0  0  0  0  0
  -21.3648   -5.6766   24.9188 C   0  0  0  0  0  0
  -21.6043   -4.3029   24.7250 C   0  0  0  0  0  0
  -21.8820   -3.8106   23.4377 C   0  0  0  0  0  0
  -21.9178   -4.6908   22.3423 C   0  0  0  0  0  0
  -22.7488  -13.5170   21.2013 C   0  0  0  0  0  0
  -22.1652   -4.2097   21.1000 F   0  0  0  0  0  0
  -21.5639   -3.4522   25.7770 F   0  0  0  0  0  0
  -29.5357  -13.9761   20.6082 N   0  0  0  0  0  0
  -26.2019  -12.9009   20.2667 N   0  0  0  0  0  0
  -25.8717  -11.6235   20.5416 N   0  0  0  0  0  0
  -22.0154  -12.8201   22.0602 N   0  0  0  0  0  0
  -25.3812  -15.1713   20.3983 N   0  0  0  0  0  0
  -30.7419  -15.7371   20.3883 O   0  0  0  0  0  0
  -21.6568   -6.8776   21.4238 O   0  0  0  0  0  0
  -22.3254  -14.5510   20.6857 O   0  0  0  0  0  0
  -24.6959  -32.0073   23.2445 C   0  0  0  0  0  0
  -25.9931  -32.5300   23.8829 C   0  0  1  0  0  0
  -25.2055  -27.3836   20.6342 C   0  0  0  0  0  0
  -25.6818  -33.9016   24.2805 N   0  0  0  0  0  0
  -23.4913  -30.6482   21.6749 C   0  0  2  0  0  0
  -24.8559  -29.5592   19.6474 C   0  0  0  0  0  0
  -23.2800  -29.5413   22.8029 C   0  0  0  0  0  0
  -18.6850  -27.3934   22.2762 C   0  0  0  0  0  0
  -24.1545  -36.7362   23.2580 C   0  0  0  0  0  0
  -26.0093  -30.8487   21.4507 C   0  0  0  0  0  0
  -25.8645  -29.5941   20.6150 C   0  0  0  0  0  0
  -26.2494  -28.3143   21.0443 C   0  0  0  0  0  0
  -25.3693  -27.1985   19.2816 C   0  0  0  0  0  0
  -24.7514  -28.3725   18.8315 C   0  0  0  0  0  0
  -23.6428  -30.3560   20.0942 C   0  0  0  0  0  0
  -25.4164  -36.3272   24.0342 C   0  0  1  0  0  0
  -21.8392  -27.6151   23.4267 C   0  0  2  0  0  0
  -22.3145  -25.8473   22.3321 C   0  0  0  0  0  0
  -20.5391  -24.8568   21.2533 C   0  0  0  0  0  0
  -18.7446  -25.7811   21.4919 C   0  0  0  0  0  0
  -20.2524  -28.1777   23.4345 C   0  0  0  0  0  0
  -19.8175  -29.7020   23.9638 C   0  0  0  0  0  0
  -18.4443  -30.3373   23.6554 C   0  0  0  0  0  0
  -25.9268  -34.9713   23.5200 C   0  0  0  0  0  0
  -17.3460  -29.7090   22.8455 C   0  0  0  0  0  0
  -17.4320  -28.3573   22.1536 C   0  0  0  0  0  0
  -26.4793  -31.6780   25.1160 C   0  0  0  0  0  0
  -25.3769  -31.3774   26.1583 C   0  0  0  0  0  0
  -27.0869  -30.3245   24.6809 C   0  0  0  0  0  0
  -27.6214  -32.4420   25.8206 C   0  0  0  0  0  0
  -27.5628  -37.1922   24.8458 C   0  0  0  0  0  0
  -22.1360  -29.0543   23.1369 N   0  0  0  0  0  0
  -26.4319  -37.3961   23.9436 N   0  0  0  0  0  0
  -24.7469  -31.2667   22.1128 N   0  0  0  0  0  0
  -24.1798  -28.9609   23.3705 O   0  0  0  0  0  0
  -23.7355  -27.7340   21.0764 O   0  0  0  0  0  0
  -26.5432  -34.9058   22.4531 O   0  0  0  0  0  0
  -23.6142  -32.2836   23.7912 O   0  0  0  0  0  0
  -23.8586  -22.7466   23.2401 C   0  0  0  0  0  0
  -24.9034  -21.6512   22.9305 C   0  0  0  0  0  0
  -22.3679  -22.8436   23.0508 C   0  0  0  0  0  0
  -24.8107  -20.2837   22.3142 C   0  0  0  0  0  0
  -22.2540  -21.4593   22.4457 C   0  0  0  0  0  0
  -23.3158  -20.3587   22.1135 C   0  0  0  0  0  0
  -19.0031  -26.2801   24.5036 C   0  0  0  0  0  0
  -18.6088  -25.4084   25.4455 C   0  0  0  0  0  0
  -18.3017  -27.9247   24.3723 C   0  0  0  0  0  0
  -19.8235  -29.2176   21.5927 C   0  0  0  0  0  0
  -20.7574  -27.0994   21.3122 C   0  0  0  0  0  0
  -21.7100  -28.2463   20.8710 C   0  0  2  0  0  0
  -20.8067  -21.0431   22.1910 C   0  0  0  0  0  0
  -22.7633  -19.0600   21.5366 C   0  0  0  0  0  0
  -21.0338  -24.1116   23.6729 C   0  0  0  0  0  0
  -27.4356  -17.8573   21.2069 C   0  0  0  0  0  0
  -26.0418  -18.8099   22.2358 C   0  0  0  0  0  0
  -28.3333  -16.2817   21.1886 N   0  0  0  0  0  0
  -20.2774  -25.7940   23.3313 N   0  3  2  0  0  0
  -26.7415  -19.0698   23.3393 F   0  0  0  0  0  0
  -25.2518  -17.7863   22.5504 F   0  0  0  0  0  0
  -31.2824  -13.4866   19.4153 H   0  0  0  0  0  0
  -30.6018  -12.1222   20.2386 H   0  0  0  0  0  0
  -30.0372  -11.8888   17.8364 H   0  0  0  0  0  0
  -29.5234  -13.5542   17.7496 H   0  0  0  0  0  0
  -28.0770  -11.2448   19.0663 H   0  0  0  0  0  0
  -27.4548  -12.3222   17.8321 H   0  0  0  0  0  0
  -27.4789  -14.1875   19.3840 H   0  0  0  0  0  0
  -28.6890  -12.1974   21.3956 H   0  0  0  0  0  0
  -27.9436  -13.6869   21.9208 H   0  0  0  0  0  0
  -25.2577   -9.5659   22.4793 H   0  0  0  0  0  0
  -23.9937   -7.4513   22.7416 H   0  0  0  0  0  0
  -21.0706   -8.8586   19.8938 H   0  0  0  0  0  0
  -22.3433  -10.9572   19.6210 H   0  0  0  0  0  0
  -21.1966   -7.6105   23.9712 H   0  0  0  0  0  0
  -21.1478   -6.0496   25.9090 H   0  0  0  0  0  0
  -22.0618   -2.7570   23.2890 H   0  0  0  0  0  0
  -22.3740  -11.9849   22.4995 H   0  0  0  0  0  0
  -21.0787  -13.1270   22.2818 H   0  0  0  0  0  0
  -24.5742  -15.7824   20.4504 H   0  0  0  0  0  0
  -26.1186  -15.5463   19.8175 H   0  0  0  0  0  0
  -26.8083  -32.5643   23.1613 H   0  0  0  0  0  0
  -25.1307  -34.0206   25.1170 H   0  0  0  0  0  0
  -22.6705  -31.3668   21.7455 H   0  0  0  0  0  0
  -23.3874  -35.9628   23.3208 H   0  0  0  0  0  0
  -24.3704  -36.8969   22.2009 H   0  0  0  0  0  0
  -23.7196  -37.6537   23.6558 H   0  0  0  0  0  0
  -26.3570  -31.6619   20.8126 H   0  0  0  0  0  0
  -26.8107  -30.6445   22.1499 H   0  0  0  0  0  0
  -26.6793  -28.2552   22.0345 H   0  0  0  0  0  0
  -25.0357  -26.2976   18.7875 H   0  0  0  0  0  0
  -24.0395  -28.3096   18.0195 H   0  0  0  0  0  0
  -23.8064  -31.3302   19.6312 H   0  0  0  0  0  0
  -22.7357  -30.0764   19.5826 H   0  0  0  0  0  0
  -25.1279  -36.2182   25.0827 H   0  0  0  0  0  0
  -22.1379  -27.4593   24.4637 H   0  0  0  0  0  0
  -22.9143  -25.2816   23.0384 H   0  0  0  0  0  0
  -23.1202  -25.8016   21.6179 H   0  0  0  0  0  0
  -20.4256  -23.7824   21.3939 H   0  0  0  0  0  0
  -20.7433  -24.8037   20.1785 H   0  0  0  0  0  0
  -18.2453  -25.8538   20.5255 H   0  0  0  0  0  0
  -18.0848  -25.1290   22.0669 H   0  0  0  0  0  0
  -20.5023  -30.2946   24.5559 H   0  0  0  0  0  0
  -18.2479  -31.3162   24.0691 H   0  0  0  0  0  0
  -16.4273  -30.2664   22.7385 H   0  0  0  0  0  0
  -16.5743  -28.0195   21.5896 H   0  0  0  0  0  0
  -24.6069  -30.7121   25.7650 H   0  0  0  0  0  0
  -24.8840  -32.2865   26.5046 H   0  0  0  0  0  0
  -25.7932  -30.8853   27.0383 H   0  0  0  0  0  0
  -26.3795  -29.6873   24.1595 H   0  0  0  0  0  0
  -27.4206  -29.7554   25.5501 H   0  0  0  0  0  0
  -27.9652  -30.4571   24.0483 H   0  0  0  0  0  0
  -27.2738  -33.3606   26.2951 H   0  0  0  0  0  0
  -28.4123  -32.7156   25.1207 H   0  0  0  0  0  0
  -28.0808  -31.8421   26.6074 H   0  0  0  0  0  0
  -28.2539  -38.0315   24.7636 H   0  0  0  0  0  0
  -28.1240  -36.2861   24.6130 H   0  0  0  0  0  0
  -27.2366  -37.1354   25.8855 H   0  0  0  0  0  0
  -21.3055  -29.5871   22.9053 H   0  0  0  0  0  0
  -26.0213  -38.3033   24.1476 H   0  0  0  0  0  0
  -24.2850  -23.6004   23.7461 H   0  0  0  0  0  0
  -25.8970  -21.8982   23.2803 H   0  0  0  0  0  0
  -17.8476  -25.6901   26.1584 H   0  0  0  0  0  0
  -19.0195  -24.4151   25.5318 H   0  0  0  0  0  0
  -18.5185  -28.3477   25.3626 H   0  0  0  0  0  0
  -17.2138  -27.7943   24.4282 H   0  0  0  0  0  0
  -20.0232  -30.2930   21.6330 H   0  0  0  0  0  0
  -19.1807  -29.2234   20.7039 H   0  0  0  0  0  0
  -21.3970  -26.6762   20.5150 H   0  0  0  0  0  0
  -20.0518  -27.2177   20.4730 H   0  0  0  0  0  0
  -21.6390  -28.4104   19.7902 H   0  0  0  0  0  0
  -20.0775  -21.7612   22.5527 H   0  0  0  0  0  0
  -20.5802  -20.1084   22.7061 H   0  0  0  0  0  0
  -20.6184  -20.9122   21.1248 H   0  0  0  0  0  0
  -23.5370  -18.4629   21.0564 H   0  0  0  0  0  0
  -22.0195  -19.2310   20.7622 H   0  0  0  0  0  0
  -22.3135  -18.4585   22.3269 H   0  0  0  0  0  0
  -21.3907  -24.2623   24.6917 H   0  0  0  0  0  0
  -20.1537  -23.4914   23.8172 H   0  0  0  0  0  0
  -28.2192  -18.5950   21.0415 H   0  0  0  0  0  0
  -26.9524  -17.7842   20.2326 H   0  0  0  0  0  0
  -27.6499  -15.6091   21.5079 H   0  0  0  0  0  0
  -21.0622  -26.2194   23.7874 H   0  0  0  0  0  0
  1 25  1  0  0  0
  1 30  2  0  0  0
  1 88  1  0  0  0
  2  3  1  0  0  0
  2 25  1  0  0  0
  2 92  1  0  0  0
  2 93  1  0  0  0
  3  4  1  0  0  0
  3 94  1  0  0  0
  3 95  1  0  0  0
  4  5  1  0  0  0
  4 96  1  0  0  0
  4 97  1  0  0  0
  5  6  1  0  0  0
  5 26  1  0  0  0
  5 98  1  0  0  0
  6 25  1  0  0  0
  6 99  1  0  0  0
  6100  1  0  0  0
  7  8  2  0  0  0
  7 26  1  0  0  0
  7 29  1  0  0  0
  8  9  1  0  0  0
  8 22  1  0  0  0
  9 10  1  0  0  0
  9 27  2  0  0  0
 10 11  2  0  0  0
 10 15  1  0  0  0
 11 12  1  0  0  0
 11101  1  0  0  0
 12 13  2  0  0  0
 12102  1  0  0  0
 13 14  1  0  0  0
 13 31  1  0  0  0
 14 15  2  0  0  0
 14103  1  0  0  0
 15104  1  0  0  0
 16 17  2  0  0  0
 16 21  1  0  0  0
 16 31  1  0  0  0
 17 18  1  0  0  0
 17105  1  0  0  0
 18 19  2  0  0  0
 18106  1  0  0  0
 19 20  1  0  0  0
 19 24  1  0  0  0
 20 21  2  0  0  0
 20107  1  0  0  0
 21 23  1  0  0  0
 22 28  1  0  0  0
 22 32  2  0  0  0
 26 27  1  0  0  0
 28108  1  0  0  0
 28109  1  0  0  0
 29110  1  0  0  0
 29111  1  0  0  0
 33 34  1  0  0  0
 33 66  1  0  0  0
 33 70  2  0  0  0
 34 36  1  0  0  0
 34 59  1  0  0  0
 34112  1  0  0  0
 35 44  2  0  0  0
 35 45  1  0  0  0
 35 68  1  0  0  0
 36 56  1  0  0  0
 36113  1  0  0  0
 37 39  1  0  0  0
 37 47  1  0  0  0
 37 66  1  0  0  0
 37114  1  0  0  0
 38 43  2  0  0  0
 38 46  1  0  0  0
 38 47  1  0  0  0
 39 64  1  0  0  0
 39 67  2  0  0  0
 40 52  1  0  0  0
 40 53  2  0  0  0
 40 58  1  0  0  0
 41115  1  0  0  0
 41116  1  0  0  0
 41117  1  0  0  0
 41 48  1  0  0  0
 42 43  1  0  0  0
 42 66  1  0  0  0
 42118  1  0  0  0
 42119  1  0  0  0
 43 44  1  0  0  0
 44120  1  0  0  0
 45 46  2  0  0  0
 45121  1  0  0  0
 46122  1  0  0  0
 47123  1  0  0  0
 47124  1  0  0  0
 48 56  1  0  0  0
 48 65  1  0  0  0
 48125  1  0  0  0
 49 50  1  0  0  0
 49 53  1  0  0  0
 49 64  1  0  0  0
 49126  1  0  0  0
 50 51  1  0  0  0
 50127  1  0  0  0
 50128  1  0  0  0
 51 52  1  0  0  0
 51129  1  0  0  0
 51130  1  0  0  0
 52131  1  0  0  0
 52132  1  0  0  0
 53 54  1  0  0  0
 54 55  2  0  0  0
 54133  1  0  0  0
 55 57  1  0  0  0
 55134  1  0  0  0
 56 69  2  0  0  0
 57 58  2  0  0  0
 57135  1  0  0  0
 58136  1  0  0  0
 59 60  1  0  0  0
 59 61  1  0  0  0
 59 62  1  0  0  0
 60137  1  0  0  0
 60138  1  0  0  0
 60139  1  0  0  0
 61140  1  0  0  0
 61141  1  0  0  0
 61142  1  0  0  0
 62143  1  0  0  0
 62144  1  0  0  0
 62145  1  0  0  0
 63 65  1  0  0  0
 63146  1  0  0  0
 63147  1  0  0  0
 63148  1  0  0  0
 64149  1  0  0  0
 65150  1  0  0  0
 68 82  1  0  0  0
 71 72  2  0  0  0
 71 73  1  0  0  0
 71151  1  0  0  0
 72 74  1  0  0  0
 72152  1  0  0  0
 73 75  2  0  0  0
 73 85  1  0  0  0
 74 76  2  0  0  0
 74 87  1  0  0  0
 75 76  1  0  0  0
 75 83  1  0  0  0
 76 84  1  0  0  0
 77 78  2  0  0  0
 77 79  1  0  0  0
 77 89  1  0  0  0
 78153  1  0  0  0
 78154  1  0  0  0
 79 80  1  0  0  0
 79155  1  0  0  0
 79156  1  0  0  0
 80 82  1  0  0  0
 80157  1  0  0  0
 80158  1  0  0  0
 81 82  1  0  0  0
 81 89  1  0  0  0
 81159  1  0  0  0
 81160  1  0  0  0
 82161  1  0  0  0
 83162  1  0  0  0
 83163  1  0  0  0
 83164  1  0  0  0
 84165  1  0  0  0
 84166  1  0  0  0
 84167  1  0  0  0
 85168  1  0  0  0
 85169  1  0  0  0
 85 89  1  0  0  0
 86 87  1  0  0  0
 86 88  1  0  0  0
 86170  1  0  0  0
 86171  1  0  0  0
 87 90  1  0  0  0
 87 91  1  0  0  0
 88172  1  0  0  0
 89173  1  0  0  0
M  CHG  1  89   1
M  ISO  4   1 100  68 101  82 101  88 100
M  END
> <chiral flag>
0

> <version>
0

> <s_m_source_file>
/data/baiqing/PycharmProjects/Reinvent-master-3.2/result/LINK_invent/BTK/process_docking_weight1_custom_product_contain_oxygen_bond_distance_aromatic_linkinvent_7_9_3/rearranged_h_0036.sdf

> <i_m_source_file_index>
86

> <r_mmod_Potential_Energy-OPLS-2005>
23447.005859375

> <r_mmod_Stretch_Energy-OPLS-2005>
11332.763671875

> <r_mmod_Bend_Energy-OPLS-2005>
1893.80322265625

> <r_mmod_Torsional_Energy-OPLS-2005>
618.859558105469

> <r_mmod_Improper_Torsional_Energy-OPLS-2005>
68.6109008789062

> <r_mmod_Van_der_Waal_Energy-OPLS-2005>
4178.64990234375

> <r_mmod_Electrostatic_Energy-OPLS-2005>
-375.090850830078

> <r_mmod_Solvation_Energy-OPLS-2005>
-381.688873291016

> <b_mmod_Minimization_Converged-OPLS-2005>
0

> <r_mmod_RMS_Derivative-OPLS-2005>
5.45513391494751

$$$$
86
                    3D
 Structure written by MMmdl.
169178  0  0  1  0            999 V2000
  -30.7032  -14.5083   20.5870 C   0  0  0  0  0  0
  -30.4182  -12.3391   19.4320 C   0  0  0  0  0  0
  -29.4949  -12.5276   18.2113 C   0  0  0  0  0  0
  -28.0182  -12.3760   18.6245 C   0  0  0  0  0  0
  -27.6585  -13.2159   19.8791 C   0  0  2  0  0  0
  -28.6998  -13.0195   21.0030 C   0  0  0  0  0  0
  -25.2567  -13.8182   20.5691 C   0  0  0  0  0  0
  -24.1835  -13.0438   20.9170 C   0  0  0  0  0  0
  -24.6407  -11.6912   20.8726 C   0  0  0  0  0  0
  -23.9070  -10.4305   21.0412 C   0  0  0  0  0  0
  -24.3617   -9.4215   21.9193 C   0  0  0  0  0  0
  -23.6303   -8.2253   22.0763 C   0  0  0  0  0  0
  -22.4284   -8.0293   21.3558 C   0  0  0  0  0  0
  -21.9928   -9.0250   20.4646 C   0  0  0  0  0  0
  -22.7254  -10.2135   20.3057 C   0  0  0  0  0  0
  -21.6852   -6.0749   22.5281 C   0  0  0  0  0  0
  -21.4012   -6.5646   23.8217 C   0  0  0  0  0  0
  -21.3660   -5.6796   24.9175 C   0  0  0  0  0  0
  -21.6047   -4.3061   24.7228 C   0  0  0  0  0  0
  -21.8817   -3.8160   23.4347 C   0  0  0  0  0  0
  -21.9193   -4.6975   22.3406 C   0  0  0  0  0  0
  -22.7862  -13.5232   21.1851 C   0  0  0  0  0  0
  -22.1667   -4.2160   21.0981 F   0  0  0  0  0  0
  -21.5623   -3.4546   25.7743 F   0  0  0  0  0  0
  -30.0264  -13.3326   20.4497 N   0  0  0  0  0  0
  -26.3017  -12.9366   20.3393 N   0  0  0  0  0  0
  -25.9343  -11.6516   20.5764 N   0  0  0  0  0  0
  -22.0501  -12.8206   22.0383 N   0  0  0  0  0  0
  -25.4269  -15.1899   20.4095 N   0  0  0  0  0  0
  -31.8205  -14.6813   20.0922 O   0  0  0  0  0  0
  -21.6642   -6.8889   21.4252 O   0  0  0  0  0  0
  -22.3548  -14.5555   20.6732 O   0  0  0  0  0  0
  -24.6166  -31.8608   23.2115 C   0  0  0  0  0  0
  -25.9050  -32.4784   23.8396 C   0  0  1  0  0  0
  -27.2331  -27.3861   20.1220 C   0  0  0  0  0  0
  -25.5905  -33.8593   24.2303 N   0  0  0  0  0  0
  -23.4049  -30.4877   21.5532 C   0  0  2  0  0  0
  -24.8555  -28.9569   20.1111 C   0  0  0  0  0  0
  -22.7390  -29.4632   22.4992 C   0  0  0  0  0  0
  -18.0257  -28.1357   22.8500 C   0  0  0  0  0  0
  -24.1476  -36.7315   23.2650 C   0  0  0  0  0  0
  -25.9394  -30.8205   21.3675 C   0  0  0  0  0  0
  -26.0176  -29.4532   20.7124 C   0  0  0  0  0  0
  -27.2065  -28.6788   20.7111 C   0  0  0  0  0  0
  -26.0513  -26.9317   19.4855 C   0  0  0  0  0  0
  -24.8724  -27.6997   19.4888 C   0  0  0  0  0  0
  -23.6135  -29.8204   20.1667 C   0  0  0  0  0  0
  -25.4108  -36.3093   24.0310 C   0  0  1  0  0  0
  -20.5833  -28.3645   23.1312 C   0  0  2  0  0  0
  -20.6739  -26.9378   22.5422 C   0  0  0  0  0  0
  -19.5722  -26.6363   21.5213 C   0  0  0  0  0  0
  -18.1887  -26.7911   22.1615 C   0  0  0  0  0  0
  -19.1504  -28.8823   23.2893 C   0  0  0  0  0  0
  -18.9436  -30.1439   23.8882 C   0  0  0  0  0  0
  -17.6448  -30.6571   24.0557 C   0  0  0  0  0  0
  -25.9030  -34.9451   23.5099 C   0  0  0  0  0  0
  -16.5331  -29.9060   23.6357 C   0  0  0  0  0  0
  -16.7251  -28.6481   23.0380 C   0  0  0  0  0  0
  -26.4488  -31.6594   25.0740 C   0  0  0  0  0  0
  -25.3765  -31.3635   26.1495 C   0  0  0  0  0  0
  -27.0422  -30.3072   24.6153 C   0  0  0  0  0  0
  -27.6032  -32.4364   25.7492 C   0  0  0  0  0  0
  -27.5562  -37.1801   24.8448 C   0  0  0  0  0  0
  -21.4109  -29.3027   22.3742 N   0  0  0  0  0  0
  -26.4278  -37.3784   23.9396 N   0  0  0  0  0  0
  -24.6733  -31.0675   22.1043 N   0  0  0  0  0  0
  -23.4137  -28.8136   23.3029 O   0  0  0  0  0  0
  -28.3856  -26.6054   20.2024 O   0  0  0  0  0  0
  -26.5576  -34.8893   22.4651 O   0  0  0  0  0  0
  -23.5353  -32.1397   23.7486 O   0  0  0  0  0  0
  -30.0840  -19.4076   21.4946 C   0  0  0  0  0  0
  -29.4005  -20.5629   21.9765 C   0  0  0  0  0  0
  -29.7005  -18.0765   21.8395 C   0  0  0  0  0  0
  -28.2755  -20.3697   22.8254 C   0  0  0  0  0  0
  -27.8675  -19.0496   23.1721 C   0  0  0  0  0  0
  -28.5752  -17.9154   22.6926 C   0  0  0  0  0  0
  -28.5343  -23.2840   18.3525 C   0  0  0  0  0  0
  -28.6074  -24.8038   18.5849 C   0  0  0  0  0  0
  -29.4473  -22.5089   19.3224 C   0  0  0  0  0  0
  -29.2200  -24.3225   20.9898 C   0  0  0  0  0  0
  -28.2841  -25.1572   20.0460 C   0  0  1  0  0  0
  -27.5164  -21.5593   23.4178 C   0  0  0  0  0  0
  -26.6832  -18.8122   24.1123 C   0  0  0  0  0  0
  -30.6061  -16.8997   21.3670 C   0  0  0  0  0  0
  -29.9583  -21.9865   21.6825 C   0  0  0  0  0  0
  -30.0559  -15.5317   21.1914 N   0  0  0  0  0  0
  -29.1446  -22.8312   20.7409 N   0  3  2  0  0  0
  -28.0672  -16.3433   23.2220 Cl  0  0  0  0  0  0
  -31.4640  -12.4315   19.1322 H   0  0  0  0  0  0
  -30.3130  -11.3303   19.8348 H   0  0  0  0  0  0
  -29.7451  -11.8097   17.4296 H   0  0  0  0  0  0
  -29.6541  -13.5166   17.7779 H   0  0  0  0  0  0
  -27.8400  -11.3181   18.8227 H   0  0  0  0  0  0
  -27.3657  -12.6447   17.7932 H   0  0  0  0  0  0
  -27.6961  -14.2634   19.5805 H   0  0  0  0  0  0
  -28.6820  -11.9877   21.3563 H   0  0  0  0  0  0
  -28.4567  -13.6283   21.8741 H   0  0  0  0  0  0
  -25.2768   -9.5673   22.4765 H   0  0  0  0  0  0
  -24.0005   -7.4645   22.7491 H   0  0  0  0  0  0
  -21.0869   -8.8776   19.8949 H   0  0  0  0  0  0
  -22.3739  -10.9665   19.6154 H   0  0  0  0  0  0
  -21.2006   -7.6152   23.9715 H   0  0  0  0  0  0
  -21.1483   -6.0534   25.9072 H   0  0  0  0  0  0
  -22.0597   -2.7625   23.2852 H   0  0  0  0  0  0
  -22.4133  -11.9832   22.4708 H   0  0  0  0  0  0
  -21.1124  -13.1212   22.2611 H   0  0  0  0  0  0
  -24.6641  -15.8460   20.5316 H   0  0  0  0  0  0
  -26.2918  -15.6336   20.1302 H   0  0  0  0  0  0
  -26.7117  -32.5479   23.1148 H   0  0  0  0  0  0
  -25.0107  -33.9771   25.0483 H   0  0  0  0  0  0
  -22.6999  -31.3088   21.4122 H   0  0  0  0  0  0
  -23.3730  -35.9650   23.3310 H   0  0  0  0  0  0
  -24.3558  -36.8969   22.2071 H   0  0  0  0  0  0
  -23.7246  -37.6512   23.6701 H   0  0  0  0  0  0
  -26.0483  -31.5869   20.5987 H   0  0  0  0  0  0
  -26.8294  -30.8764   21.9824 H   0  0  0  0  0  0
  -28.0970  -29.0585   21.1917 H   0  0  0  0  0  0
  -26.0047  -25.9751   18.9857 H   0  0  0  0  0  0
  -23.9808  -27.3159   19.0127 H   0  0  0  0  0  0
  -23.7016  -30.5948   19.4045 H   0  0  0  0  0  0
  -22.7398  -29.2315   19.8812 H   0  0  0  0  0  0
  -25.1286  -36.1949   25.0796 H   0  0  0  0  0  0
  -20.9930  -28.3210   24.1432 H   0  0  0  0  0  0
  -20.5649  -26.2232   23.3597 H   0  0  0  0  0  0
  -21.6606  -26.7404   22.1217 H   0  0  0  0  0  0
  -19.6873  -25.6278   21.1229 H   0  0  0  0  0  0
  -19.6660  -27.3170   20.6736 H   0  0  0  0  0  0
  -17.4167  -26.6694   21.3997 H   0  0  0  0  0  0
  -18.0261  -26.0016   22.8973 H   0  0  0  0  0  0
  -19.7913  -30.7270   24.2225 H   0  0  0  0  0  0
  -17.4992  -31.6249   24.5161 H   0  0  0  0  0  0
  -15.5328  -30.2959   23.7698 H   0  0  0  0  0  0
  -15.8644  -28.0800   22.7116 H   0  0  0  0  0  0
  -24.5980  -30.6919   25.7854 H   0  0  0  0  0  0
  -24.8891  -32.2749   26.4968 H   0  0  0  0  0  0
  -25.8166  -30.8832   27.0244 H   0  0  0  0  0  0
  -26.3025  -29.6708   24.1297 H   0  0  0  0  0  0
  -27.4352  -29.7413   25.4613 H   0  0  0  0  0  0
  -27.8728  -30.4465   23.9230 H   0  0  0  0  0  0
  -27.2658  -33.3699   26.2002 H   0  0  0  0  0  0
  -28.3857  -32.6888   25.0321 H   0  0  0  0  0  0
  -28.0675  -31.8538   26.5463 H   0  0  0  0  0  0
  -28.2559  -38.0119   24.7547 H   0  0  0  0  0  0
  -28.1084  -36.2655   24.6238 H   0  0  0  0  0  0
  -27.2254  -37.1416   25.8838 H   0  0  0  0  0  0
  -20.9259  -29.8811   21.7019 H   0  0  0  0  0  0
  -26.0154  -38.2831   24.1465 H   0  0  0  0  0  0
  -30.9669  -19.5430   20.8839 H   0  0  0  0  0  0
  -28.8191  -23.0597   17.3239 H   0  0  0  0  0  0
  -27.5044  -22.9412   18.4588 H   0  0  0  0  0  0
  -27.9248  -25.3136   17.9064 H   0  0  0  0  0  0
  -29.6062  -25.1660   18.3374 H   0  0  0  0  0  0
  -30.4924  -22.7482   19.1116 H   0  0  0  0  0  0
  -29.3383  -21.4360   19.1584 H   0  0  0  0  0  0
  -28.9523  -24.5298   22.0262 H   0  0  0  0  0  0
  -30.2526  -24.6530   20.8684 H   0  0  0  0  0  0
  -27.2734  -24.8254   20.2882 H   0  0  0  0  0  0
  -27.9120  -22.5364   23.1602 H   0  0  0  0  0  0
  -27.5341  -21.5039   24.5070 H   0  0  0  0  0  0
  -26.4767  -21.5429   23.0882 H   0  0  0  0  0  0
  -26.1492  -19.7090   24.4165 H   0  0  0  0  0  0
  -27.0192  -18.3240   25.0276 H   0  0  0  0  0  0
  -25.9485  -18.1653   23.6351 H   0  0  0  0  0  0
  -31.4201  -16.8231   22.0891 H   0  0  0  0  0  0
  -31.0799  -17.1969   20.4294 H   0  0  0  0  0  0
  -30.9808  -21.9086   21.3095 H   0  0  0  0  0  0
  -30.0684  -22.4981   22.6406 H   0  0  0  0  0  0
  -29.1483  -15.3443   21.5947 H   0  0  0  0  0  0
  -28.1873  -22.5541   20.9036 H   0  0  0  0  0  0
  1 25  1  0  0  0
  1 30  2  0  0  0
  1 86  1  0  0  0
  2  3  1  0  0  0
  2 25  1  0  0  0
  2 89  1  0  0  0
  2 90  1  0  0  0
  3  4  1  0  0  0
  3 91  1  0  0  0
  3 92  1  0  0  0
  4  5  1  0  0  0
  4 93  1  0  0  0
  4 94  1  0  0  0
  5  6  1  0  0  0
  5 26  1  0  0  0
  5 95  1  0  0  0
  6 25  1  0  0  0
  6 96  1  0  0  0
  6 97  1  0  0  0
  7  8  2  0  0  0
  7 26  1  0  0  0
  7 29  1  0  0  0
  8  9  1  0  0  0
  8 22  1  0  0  0
  9 10  1  0  0  0
  9 27  2  0  0  0
 10 11  2  0  0  0
 10 15  1  0  0  0
 11 12  1  0  0  0
 11 98  1  0  0  0
 12 13  2  0  0  0
 12 99  1  0  0  0
 13 14  1  0  0  0
 13 31  1  0  0  0
 14 15  2  0  0  0
 14100  1  0  0  0
 15101  1  0  0  0
 16 17  2  0  0  0
 16 21  1  0  0  0
 16 31  1  0  0  0
 17 18  1  0  0  0
 17102  1  0  0  0
 18 19  2  0  0  0
 18103  1  0  0  0
 19 20  1  0  0  0
 19 24  1  0  0  0
 20 21  2  0  0  0
 20104  1  0  0  0
 21 23  1  0  0  0
 22 28  1  0  0  0
 22 32  2  0  0  0
 26 27  1  0  0  0
 28105  1  0  0  0
 28106  1  0  0  0
 29107  1  0  0  0
 29108  1  0  0  0
 33 34  1  0  0  0
 33 66  1  0  0  0
 33 70  2  0  0  0
 34 36  1  0  0  0
 34 59  1  0  0  0
 34109  1  0  0  0
 35 44  2  0  0  0
 35 45  1  0  0  0
 35 68  1  0  0  0
 36 56  1  0  0  0
 36110  1  0  0  0
 37 39  1  0  0  0
 37 47  1  0  0  0
 37 66  1  0  0  0
 37111  1  0  0  0
 38 43  2  0  0  0
 38 46  1  0  0  0
 38 47  1  0  0  0
 39 64  1  0  0  0
 39 67  2  0  0  0
 40 52  1  0  0  0
 40 53  2  0  0  0
 40 58  1  0  0  0
 41112  1  0  0  0
 41113  1  0  0  0
 41114  1  0  0  0
 41 48  1  0  0  0
 42 43  1  0  0  0
 42 66  1  0  0  0
 42115  1  0  0  0
 42116  1  0  0  0
 43 44  1  0  0  0
 44117  1  0  0  0
 45 46  2  0  0  0
 45118  1  0  0  0
 46119  1  0  0  0
 47120  1  0  0  0
 47121  1  0  0  0
 48 56  1  0  0  0
 48 65  1  0  0  0
 48122  1  0  0  0
 49 50  1  0  0  0
 49 53  1  0  0  0
 49 64  1  0  0  0
 49123  1  0  0  0
 50 51  1  0  0  0
 50124  1  0  0  0
 50125  1  0  0  0
 51 52  1  0  0  0
 51126  1  0  0  0
 51127  1  0  0  0
 52128  1  0  0  0
 52129  1  0  0  0
 53 54  1  0  0  0
 54 55  2  0  0  0
 54130  1  0  0  0
 55 57  1  0  0  0
 55131  1  0  0  0
 56 69  2  0  0  0
 57 58  2  0  0  0
 57132  1  0  0  0
 58133  1  0  0  0
 59 60  1  0  0  0
 59 61  1  0  0  0
 59 62  1  0  0  0
 60134  1  0  0  0
 60135  1  0  0  0
 60136  1  0  0  0
 61137  1  0  0  0
 61138  1  0  0  0
 61139  1  0  0  0
 62140  1  0  0  0
 62141  1  0  0  0
 62142  1  0  0  0
 63 65  1  0  0  0
 63143  1  0  0  0
 63144  1  0  0  0
 63145  1  0  0  0
 64146  1  0  0  0
 65147  1  0  0  0
 68 81  1  0  0  0
 71 72  2  0  0  0
 71 73  1  0  0  0
 71148  1  0  0  0
 72 74  1  0  0  0
 72 85  1  0  0  0
 73 76  2  0  0  0
 73 84  1  0  0  0
 74 75  2  0  0  0
 74 82  1  0  0  0
 75 76  1  0  0  0
 75 83  1  0  0  0
 76 88  1  0  0  0
 77 78  1  0  0  0
 77 79  1  0  0  0
 77149  1  0  0  0
 77150  1  0  0  0
 78 81  1  0  0  0
 78151  1  0  0  0
 78152  1  0  0  0
 79 87  1  0  0  0
 79153  1  0  0  0
 79154  1  0  0  0
 80 81  1  0  0  0
 80 87  1  0  0  0
 80155  1  0  0  0
 80156  1  0  0  0
 81157  1  0  0  0
 82158  1  0  0  0
 82159  1  0  0  0
 82160  1  0  0  0
 83161  1  0  0  0
 83162  1  0  0  0
 83163  1  0  0  0
 84 86  1  0  0  0
 84164  1  0  0  0
 84165  1  0  0  0
 85166  1  0  0  0
 85167  1  0  0  0
 85 87  1  0  0  0
 86168  1  0  0  0
 87169  1  0  0  0
M  CHG  1  87   1
M  ISO  4   1 100  68 101  81 101  86 100
M  END
> <chiral flag>
0

> <version>
0

> <s_m_source_file>
/data/baiqing/PycharmProjects/Reinvent-master-3.2/result/LINK_invent/BTK/process_docking_weight1_custom_product_contain_oxygen_bond_distance_aromatic_linkinvent_7_9_3/rearranged_h_0036.sdf

> <i_m_source_file_index>
87

> <r_mmod_Potential_Energy-OPLS-2005>
-116.143043518066

> <r_mmod_Stretch_Energy-OPLS-2005>
59.2922592163086

> <r_mmod_Bend_Energy-OPLS-2005>
118.157043457031

> <r_mmod_Torsional_Energy-OPLS-2005>
217.869049072266

> <r_mmod_Improper_Torsional_Energy-OPLS-2005>
3.38288855552673

> <r_mmod_Van_der_Waal_Energy-OPLS-2005>
165.280899047852

> <r_mmod_Electrostatic_Energy-OPLS-2005>
-281.414306640625

> <r_mmod_Solvation_Energy-OPLS-2005>
-419.451507568359

> <b_mmod_Minimization_Converged-OPLS-2005>
0

> <r_mmod_RMS_Derivative-OPLS-2005>
3.00274014472961

$$$$
87
                    3D
 Structure written by MMmdl.
160169  0  0  1  0            999 V2000
  -30.4925  -14.9576   20.4241 C   0  0  0  0  0  0
  -30.4508  -12.5970   19.4991 C   0  0  0  0  0  0
  -29.5297  -12.5471   18.2569 C   0  0  0  0  0  0
  -28.0634  -12.3114   18.6723 C   0  0  0  0  0  0
  -27.6336  -13.2358   19.8417 C   0  0  2  0  0  0
  -28.6734  -13.2492   20.9812 C   0  0  0  0  0  0
  -25.2521  -13.8179   20.5732 C   0  0  0  0  0  0
  -24.1802  -13.0441   20.9229 C   0  0  0  0  0  0
  -24.6388  -11.6914   20.8759 C   0  0  0  0  0  0
  -23.9069  -10.4300   21.0416 C   0  0  0  0  0  0
  -24.3623   -9.4226   21.9203 C   0  0  0  0  0  0
  -23.6312   -8.2255   22.0776 C   0  0  0  0  0  0
  -22.4296   -8.0290   21.3559 C   0  0  0  0  0  0
  -21.9935   -9.0258   20.4656 C   0  0  0  0  0  0
  -22.7236  -10.2145   20.3079 C   0  0  0  0  0  0
  -21.6856   -6.0751   22.5283 C   0  0  0  0  0  0
  -21.3997   -6.5646   23.8218 C   0  0  0  0  0  0
  -21.3657   -5.6795   24.9179 C   0  0  0  0  0  0
  -21.6055   -4.3067   24.7215 C   0  0  0  0  0  0
  -21.8813   -3.8172   23.4331 C   0  0  0  0  0  0
  -21.9195   -4.6982   22.3389 C   0  0  0  0  0  0
  -22.7836  -13.5262   21.1841 C   0  0  0  0  0  0
  -22.1662   -4.2185   21.0957 F   0  0  0  0  0  0
  -21.5644   -3.4543   25.7724 F   0  0  0  0  0  0
  -29.9476  -13.6770   20.3903 N   0  0  0  0  0  0
  -26.2908  -12.9376   20.3244 N   0  0  0  0  0  0
  -25.9310  -11.6514   20.5721 N   0  0  0  0  0  0
  -22.0431  -12.8284   22.0378 N   0  0  0  0  0  0
  -25.4260  -15.1911   20.4200 N   0  0  0  0  0  0
  -31.6965  -15.0731   20.1690 O   0  0  0  0  0  0
  -21.6642   -6.8892   21.4252 O   0  0  0  0  0  0
  -22.3552  -14.5576   20.6670 O   0  0  0  0  0  0
  -24.6418  -31.8430   23.1882 C   0  0  0  0  0  0
  -25.9182  -32.4713   23.8254 C   0  0  1  0  0  0
  -27.2176  -27.1457   20.1567 C   0  0  0  0  0  0
  -25.5912  -33.8514   24.2171 N   0  0  0  0  0  0
  -23.4447  -30.4615   21.5348 C   0  0  2  0  0  0
  -24.8932  -28.8816   20.1166 C   0  0  0  0  0  0
  -22.7542  -29.4542   22.4877 C   0  0  0  0  0  0
  -18.0282  -28.1429   22.8494 C   0  0  0  0  0  0
  -24.1434  -36.7206   23.2669 C   0  0  0  0  0  0
  -26.0011  -30.7226   21.3814 C   0  0  0  0  0  0
  -26.0724  -29.3342   20.7232 C   0  0  0  0  0  0
  -27.2405  -28.4855   20.7138 C   0  0  0  0  0  0
  -26.0120  -26.7789   19.5287 C   0  0  0  0  0  0
  -24.8745  -27.6185   19.5022 C   0  0  0  0  0  0
  -23.6712  -29.7875   20.1555 C   0  0  0  0  0  0
  -25.4093  -36.3039   24.0336 C   0  0  1  0  0  0
  -20.5902  -28.3719   23.1262 C   0  0  2  0  0  0
  -20.6762  -26.9413   22.5453 C   0  0  0  0  0  0
  -19.5763  -26.6388   21.5238 C   0  0  0  0  0  0
  -18.1915  -26.7992   22.1589 C   0  0  0  0  0  0
  -19.1550  -28.8898   23.2874 C   0  0  0  0  0  0
  -18.9492  -30.1498   23.8895 C   0  0  0  0  0  0
  -17.6494  -30.6626   24.0575 C   0  0  0  0  0  0
  -25.9052  -34.9420   23.5063 C   0  0  0  0  0  0
  -16.5374  -29.9121   23.6358 C   0  0  0  0  0  0
  -16.7274  -28.6543   23.0374 C   0  0  0  0  0  0
  -26.4513  -31.6622   25.0715 C   0  0  0  0  0  0
  -25.3666  -31.3801   26.1382 C   0  0  0  0  0  0
  -27.0417  -30.3032   24.6314 C   0  0  0  0  0  0
  -27.6013  -32.4449   25.7499 C   0  0  0  0  0  0
  -27.5559  -37.1742   24.8483 C   0  0  0  0  0  0
  -21.4235  -29.3043   22.3636 N   0  0  0  0  0  0
  -26.4249  -37.3769   23.9465 N   0  0  0  0  0  0
  -24.7162  -31.0284   22.0910 N   0  0  0  0  0  0
  -23.4190  -28.8068   23.3009 O   0  0  0  0  0  0
  -28.3014  -26.2033   20.1346 O   0  0  0  0  0  0
  -26.5636  -34.8931   22.4638 O   0  0  0  0  0  0
  -23.5536  -32.1293   23.7120 O   0  0  0  0  0  0
  -29.7902  -19.8883   21.5319 C   0  0  0  0  0  0
  -28.8222  -19.8446   19.3889 C   0  0  0  0  0  0
  -28.9993  -18.3736   19.3756 C   0  0  0  0  0  0
  -29.2277  -20.7087   20.4835 C   0  0  0  0  0  0
  -29.6297  -17.6015   20.4315 C   0  0  0  0  0  0
  -29.9994  -18.4533   21.5176 C   0  0  0  0  0  0
  -29.8892  -23.0250   21.4704 C   0  0  0  0  0  0
  -31.0679  -22.6973   22.0296 C   0  0  0  0  0  0
  -29.3752  -24.4764   21.5835 C   0  0  0  0  0  0
  -28.3486  -23.2863   19.8178 C   0  0  0  0  0  0
  -28.2070  -24.7261   20.6180 C   0  0  2  0  0  0
  -28.1493  -20.5162   18.1929 C   0  0  0  0  0  0
  -28.4669  -17.5855   18.1789 C   0  0  0  0  0  0
  -29.1209  -22.2160   20.6127 N   0  0  0  0  0  0
  -29.6039  -16.0633   20.5277 N   0  0  0  0  0  0
  -30.6737  -17.7302   22.9353 Cl  0  0  0  0  0  0
  -31.4838  -12.7757   19.1983 H   0  0  0  0  0  0
  -30.4482  -11.6397   20.0237 H   0  0  0  0  0  0
  -29.8607  -11.7648   17.5743 H   0  0  0  0  0  0
  -29.6038  -13.4881   17.7078 H   0  0  0  0  0  0
  -27.9742  -11.2676   18.9770 H   0  0  0  0  0  0
  -27.3978  -12.4373   17.8177 H   0  0  0  0  0  0
  -27.5978  -14.2382   19.4172 H   0  0  0  0  0  0
  -28.7632  -12.2647   21.4432 H   0  0  0  0  0  0
  -28.3673  -13.9306   21.7766 H   0  0  0  0  0  0
  -25.2761   -9.5710   22.4796 H   0  0  0  0  0  0
  -24.0017   -7.4649   22.7504 H   0  0  0  0  0  0
  -21.0873   -8.8770   19.8949 H   0  0  0  0  0  0
  -22.3702  -10.9692   19.6213 H   0  0  0  0  0  0
  -21.1965   -7.6146   23.9731 H   0  0  0  0  0  0
  -21.1491   -6.0526   25.9085 H   0  0  0  0  0  0
  -22.0600   -2.7649   23.2820 H   0  0  0  0  0  0
  -22.3989  -11.9938   22.4788 H   0  0  0  0  0  0
  -21.1066  -13.1371   22.2523 H   0  0  0  0  0  0
  -24.6687  -15.8504   20.5560 H   0  0  0  0  0  0
  -26.2653  -15.6295   20.0687 H   0  0  0  0  0  0
  -26.7235  -32.5319   23.0971 H   0  0  0  0  0  0
  -25.0049  -33.9640   25.0309 H   0  0  0  0  0  0
  -22.7496  -31.2879   21.3777 H   0  0  0  0  0  0
  -23.3763  -35.9464   23.3317 H   0  0  0  0  0  0
  -24.3493  -36.8851   22.2076 H   0  0  0  0  0  0
  -23.7100  -37.6355   23.6717 H   0  0  0  0  0  0
  -26.1546  -31.4825   20.6135 H   0  0  0  0  0  0
  -26.8718  -30.7721   22.0240 H   0  0  0  0  0  0
  -28.1534  -28.8400   21.1700 H   0  0  0  0  0  0
  -25.9430  -25.8107   19.0537 H   0  0  0  0  0  0
  -23.9730  -27.2681   19.0165 H   0  0  0  0  0  0
  -23.8089  -30.5606   19.4010 H   0  0  0  0  0  0
  -22.7866  -29.2304   19.8423 H   0  0  0  0  0  0
  -25.1289  -36.1847   25.0821 H   0  0  0  0  0  0
  -20.9998  -28.3309   24.1385 H   0  0  0  0  0  0
  -20.5618  -26.2335   23.3674 H   0  0  0  0  0  0
  -21.6633  -26.7389   22.1281 H   0  0  0  0  0  0
  -19.6902  -25.6271   21.1323 H   0  0  0  0  0  0
  -19.6758  -27.3148   20.6734 H   0  0  0  0  0  0
  -17.4223  -26.6832   21.3933 H   0  0  0  0  0  0
  -18.0204  -26.0099   22.8930 H   0  0  0  0  0  0
  -19.7965  -30.7332   24.2243 H   0  0  0  0  0  0
  -17.5048  -31.6312   24.5167 H   0  0  0  0  0  0
  -15.5386  -30.3047   23.7712 H   0  0  0  0  0  0
  -15.8658  -28.0889   22.7103 H   0  0  0  0  0  0
  -24.6042  -30.6899   25.7768 H   0  0  0  0  0  0
  -24.8595  -32.2924   26.4502 H   0  0  0  0  0  0
  -25.7947  -30.9306   27.0338 H   0  0  0  0  0  0
  -26.3056  -29.6747   24.1292 H   0  0  0  0  0  0
  -27.4010  -29.7362   25.4909 H   0  0  0  0  0  0
  -27.8941  -30.4326   23.9653 H   0  0  0  0  0  0
  -27.2556  -33.3747   26.2025 H   0  0  0  0  0  0
  -28.3803  -32.7036   25.0327 H   0  0  0  0  0  0
  -28.0697  -31.8640   26.5448 H   0  0  0  0  0  0
  -28.2599  -38.0018   24.7549 H   0  0  0  0  0  0
  -28.1021  -36.2556   24.6277 H   0  0  0  0  0  0
  -27.2285  -37.1369   25.8886 H   0  0  0  0  0  0
  -20.9439  -29.8769   21.6833 H   0  0  0  0  0  0
  -26.0110  -38.2812   24.1573 H   0  0  0  0  0  0
  -30.0660  -20.3697   22.4547 H   0  0  0  0  0  0
  -31.6137  -23.4223   22.6184 H   0  0  0  0  0  0
  -31.5506  -21.7432   21.8952 H   0  0  0  0  0  0
  -30.2013  -25.1352   21.3153 H   0  0  0  0  0  0
  -29.1000  -24.7230   22.6096 H   0  0  0  0  0  0
  -28.8935  -23.4684   18.8900 H   0  0  0  0  0  0
  -27.3637  -22.9202   19.5302 H   0  0  0  0  0  0
  -27.2896  -24.6509   21.2043 H   0  0  0  0  0  0
  -28.1516  -19.9202   17.2837 H   0  0  0  0  0  0
  -28.6665  -21.4363   17.9321 H   0  0  0  0  0  0
  -27.1115  -20.7548   18.4257 H   0  0  0  0  0  0
  -27.4150  -17.8120   18.0032 H   0  0  0  0  0  0
  -28.5368  -16.5045   18.2971 H   0  0  0  0  0  0
  -29.0294  -17.8392   17.2794 H   0  0  0  0  0  0
  -28.6655  -15.7236   20.6623 H   0  0  0  0  0  0
  1 25  1  0  0  0
  1 30  2  0  0  0
  1 85  1  0  0  0
  2  3  1  0  0  0
  2 25  1  0  0  0
  2 87  1  0  0  0
  2 88  1  0  0  0
  3  4  1  0  0  0
  3 89  1  0  0  0
  3 90  1  0  0  0
  4  5  1  0  0  0
  4 91  1  0  0  0
  4 92  1  0  0  0
  5  6  1  0  0  0
  5 26  1  0  0  0
  5 93  1  0  0  0
  6 25  1  0  0  0
  6 94  1  0  0  0
  6 95  1  0  0  0
  7  8  2  0  0  0
  7 26  1  0  0  0
  7 29  1  0  0  0
  8  9  1  0  0  0
  8 22  1  0  0  0
  9 10  1  0  0  0
  9 27  2  0  0  0
 10 11  2  0  0  0
 10 15  1  0  0  0
 11 12  1  0  0  0
 11 96  1  0  0  0
 12 13  2  0  0  0
 12 97  1  0  0  0
 13 14  1  0  0  0
 13 31  1  0  0  0
 14 15  2  0  0  0
 14 98  1  0  0  0
 15 99  1  0  0  0
 16 17  2  0  0  0
 16 21  1  0  0  0
 16 31  1  0  0  0
 17 18  1  0  0  0
 17100  1  0  0  0
 18 19  2  0  0  0
 18101  1  0  0  0
 19 20  1  0  0  0
 19 24  1  0  0  0
 20 21  2  0  0  0
 20102  1  0  0  0
 21 23  1  0  0  0
 22 28  1  0  0  0
 22 32  2  0  0  0
 26 27  1  0  0  0
 28103  1  0  0  0
 28104  1  0  0  0
 29105  1  0  0  0
 29106  1  0  0  0
 33 34  1  0  0  0
 33 66  1  0  0  0
 33 70  2  0  0  0
 34 36  1  0  0  0
 34 59  1  0  0  0
 34107  1  0  0  0
 35 44  2  0  0  0
 35 45  1  0  0  0
 35 68  1  0  0  0
 36 56  1  0  0  0
 36108  1  0  0  0
 37 39  1  0  0  0
 37 47  1  0  0  0
 37 66  1  0  0  0
 37109  1  0  0  0
 38 43  2  0  0  0
 38 46  1  0  0  0
 38 47  1  0  0  0
 39 64  1  0  0  0
 39 67  2  0  0  0
 40 52  1  0  0  0
 40 53  2  0  0  0
 40 58  1  0  0  0
 41110  1  0  0  0
 41111  1  0  0  0
 41112  1  0  0  0
 41 48  1  0  0  0
 42 43  1  0  0  0
 42 66  1  0  0  0
 42113  1  0  0  0
 42114  1  0  0  0
 43 44  1  0  0  0
 44115  1  0  0  0
 45 46  2  0  0  0
 45116  1  0  0  0
 46117  1  0  0  0
 47118  1  0  0  0
 47119  1  0  0  0
 48 56  1  0  0  0
 48 65  1  0  0  0
 48120  1  0  0  0
 49 50  1  0  0  0
 49 53  1  0  0  0
 49 64  1  0  0  0
 49121  1  0  0  0
 50 51  1  0  0  0
 50122  1  0  0  0
 50123  1  0  0  0
 51 52  1  0  0  0
 51124  1  0  0  0
 51125  1  0  0  0
 52126  1  0  0  0
 52127  1  0  0  0
 53 54  1  0  0  0
 54 55  2  0  0  0
 54128  1  0  0  0
 55 57  1  0  0  0
 55129  1  0  0  0
 56 69  2  0  0  0
 57 58  2  0  0  0
 57130  1  0  0  0
 58131  1  0  0  0
 59 60  1  0  0  0
 59 61  1  0  0  0
 59 62  1  0  0  0
 60132  1  0  0  0
 60133  1  0  0  0
 60134  1  0  0  0
 61135  1  0  0  0
 61136  1  0  0  0
 61137  1  0  0  0
 62138  1  0  0  0
 62139  1  0  0  0
 62140  1  0  0  0
 63 65  1  0  0  0
 63141  1  0  0  0
 63142  1  0  0  0
 63143  1  0  0  0
 64144  1  0  0  0
 65145  1  0  0  0
 68 81  1  0  0  0
 71 74  2  0  0  0
 71 76  1  0  0  0
 71146  1  0  0  0
 72 73  2  0  0  0
 72 74  1  0  0  0
 72 82  1  0  0  0
 73 75  1  0  0  0
 73 83  1  0  0  0
 74 84  1  0  0  0
 75 76  2  0  0  0
 75 85  1  0  0  0
 76 86  1  0  0  0
 77 78  2  0  0  0
 77 79  1  0  0  0
 77 84  1  0  0  0
 78147  1  0  0  0
 78148  1  0  0  0
 79 81  1  0  0  0
 79149  1  0  0  0
 79150  1  0  0  0
 80 81  1  0  0  0
 80 84  1  0  0  0
 80151  1  0  0  0
 80152  1  0  0  0
 81153  1  0  0  0
 82154  1  0  0  0
 82155  1  0  0  0
 82156  1  0  0  0
 83157  1  0  0  0
 83158  1  0  0  0
 83159  1  0  0  0
 85160  1  0  0  0
M  ISO  4   1 100  68 101  81 101  85 100
M  END
> <chiral flag>
0

> <version>
0

> <s_m_source_file>
/data/baiqing/PycharmProjects/Reinvent-master-3.2/result/LINK_invent/BTK/process_docking_weight1_custom_product_contain_oxygen_bond_distance_aromatic_linkinvent_7_9_3/rearranged_h_0036.sdf

> <i_m_source_file_index>
88

> <r_mmod_Potential_Energy-OPLS-2005>
523.158996582031

> <r_mmod_Stretch_Energy-OPLS-2005>
231.557968139648

> <r_mmod_Bend_Energy-OPLS-2005>
317.617584228516

> <r_mmod_Torsional_Energy-OPLS-2005>
279.564636230469

> <r_mmod_Improper_Torsional_Energy-OPLS-2005>
7.69226503372192

> <r_mmod_Van_der_Waal_Energy-OPLS-2005>
138.366058349609

> <r_mmod_Electrostatic_Energy-OPLS-2005>
-428.514953613281

> <r_mmod_Solvation_Energy-OPLS-2005>
-212.044967651367

> <b_mmod_Minimization_Converged-OPLS-2005>
0

> <r_mmod_RMS_Derivative-OPLS-2005>
3.29886531829834

$$$$
88
                    3D
 Structure written by MMmdl.
175184  0  0  1  0            999 V2000
  -30.6065  -14.7380   20.4722 C   0  0  0  0  0  0
  -30.4185  -12.4472   19.4712 C   0  0  0  0  0  0
  -29.5058  -12.5225   18.2290 C   0  0  0  0  0  0
  -28.0282  -12.3426   18.6356 C   0  0  0  0  0  0
  -27.6341  -13.2346   19.8414 C   0  0  2  0  0  0
  -28.6725  -13.1604   20.9795 C   0  0  0  0  0  0
  -25.2442  -13.8185   20.5627 C   0  0  0  0  0  0
  -24.1749  -13.0424   20.9203 C   0  0  0  0  0  0
  -24.6356  -11.6916   20.8713 C   0  0  0  0  0  0
  -23.9036  -10.4289   21.0371 C   0  0  0  0  0  0
  -24.3599   -9.4201   21.9158 C   0  0  0  0  0  0
  -23.6282   -8.2237   22.0734 C   0  0  0  0  0  0
  -22.4241   -8.0278   21.3538 C   0  0  0  0  0  0
  -21.9879   -9.0245   20.4638 C   0  0  0  0  0  0
  -22.7213  -10.2121   20.3020 C   0  0  0  0  0  0
  -21.6874   -6.0719   22.5282 C   0  0  0  0  0  0
  -21.4045   -6.5621   23.8214 C   0  0  0  0  0  0
  -21.3651   -5.6768   24.9174 C   0  0  0  0  0  0
  -21.6042   -4.3020   24.7229 C   0  0  0  0  0  0
  -21.8833   -3.8121   23.4344 C   0  0  0  0  0  0
  -21.9200   -4.6948   22.3407 C   0  0  0  0  0  0
  -22.7755  -13.5203   21.1862 C   0  0  0  0  0  0
  -22.1664   -4.2135   21.0988 F   0  0  0  0  0  0
  -21.5609   -3.4503   25.7729 F   0  0  0  0  0  0
  -29.9751  -13.5138   20.4004 N   0  0  0  0  0  0
  -26.2846  -12.9424   20.3166 N   0  0  0  0  0  0
  -25.9281  -11.6544   20.5673 N   0  0  0  0  0  0
  -22.0432  -12.8205   22.0433 N   0  0  0  0  0  0
  -25.4086  -15.1911   20.3998 N   0  0  0  0  0  0
  -31.8003  -14.8091   20.1648 O   0  0  0  0  0  0
  -21.6635   -6.8855   21.4227 O   0  0  0  0  0  0
  -22.3432  -14.5486   20.6679 O   0  0  0  0  0  0
  -24.6334  -31.8544   23.1939 C   0  0  0  0  0  0
  -25.9210  -32.4706   23.8247 C   0  0  1  0  0  0
  -27.2350  -27.2703   20.1373 C   0  0  0  0  0  0
  -25.6057  -33.8517   24.2243 N   0  0  0  0  0  0
  -23.4270  -30.4686   21.5362 C   0  0  2  0  0  0
  -24.8783  -28.9126   20.0989 C   0  0  0  0  0  0
  -22.7513  -29.4548   22.4914 C   0  0  0  0  0  0
  -18.0289  -28.1368   22.8441 C   0  0  0  0  0  0
  -24.1497  -36.7204   23.2603 C   0  0  0  0  0  0
  -25.9646  -30.7661   21.3721 C   0  0  0  0  0  0
  -26.0400  -29.3889   20.7180 C   0  0  0  0  0  0
  -27.2091  -28.5717   20.7393 C   0  0  0  0  0  0
  -26.0640  -26.8655   19.4633 C   0  0  0  0  0  0
  -24.8952  -27.6595   19.4613 C   0  0  0  0  0  0
  -23.6448  -29.7960   20.1527 C   0  0  0  0  0  0
  -25.4114  -36.3019   24.0317 C   0  0  1  0  0  0
  -20.5896  -28.3668   23.1265 C   0  0  2  0  0  0
  -20.6788  -26.9383   22.5395 C   0  0  0  0  0  0
  -19.5774  -26.6357   21.5188 C   0  0  0  0  0  0
  -18.1943  -26.7911   22.1570 C   0  0  0  0  0  0
  -19.1541  -28.8831   23.2828 C   0  0  0  0  0  0
  -18.9471  -30.1454   23.8823 C   0  0  0  0  0  0
  -17.6462  -30.6578   24.0530 C   0  0  0  0  0  0
  -25.9077  -34.9409   23.5049 C   0  0  0  0  0  0
  -16.5354  -29.9049   23.6346 C   0  0  0  0  0  0
  -16.7269  -28.6482   23.0323 C   0  0  0  0  0  0
  -26.4607  -31.6516   25.0627 C   0  0  0  0  0  0
  -25.3869  -31.3681   26.1376 C   0  0  0  0  0  0
  -27.0410  -30.2912   24.6090 C   0  0  0  0  0  0
  -27.6171  -32.4258   25.7383 C   0  0  0  0  0  0
  -27.5611  -37.1686   24.8419 C   0  0  0  0  0  0
  -21.4216  -29.3000   22.3661 N   0  0  0  0  0  0
  -26.4243  -37.3789   23.9496 N   0  0  0  0  0  0
  -24.6916  -31.0479   22.0914 N   0  0  0  0  0  0
  -23.4211  -28.8122   23.3033 O   0  0  0  0  0  0
  -28.3505  -26.4208   20.3061 O   0  0  0  0  0  0
  -26.5585  -34.8918   22.4580 O   0  0  0  0  0  0
  -23.5495  -32.1366   23.7283 O   0  0  0  0  0  0
  -31.9003  -19.0128   21.3434 C   0  0  0  0  0  0
  -30.9874  -20.0743   21.2172 C   0  0  0  0  0  0
  -31.5114  -17.6796   21.1309 C   0  0  0  0  0  0
  -29.6450  -19.8645   20.8344 C   0  0  0  0  0  0
  -29.2589  -18.4614   20.6163 C   0  0  0  0  0  0
  -30.1877  -17.3321   20.7712 C   0  0  0  0  0  0
  -27.9233  -23.7225   20.2245 C   0  0  0  0  0  0
  -26.6551  -23.7631   20.6977 C   0  0  0  0  0  0
  -25.7064  -22.6641   20.7869 C   0  0  0  0  0  0
  -24.4658  -22.7965   21.2914 C   0  0  0  0  0  0
  -23.5125  -21.7059   21.2729 C   0  0  0  0  0  0
  -22.2450  -21.8202   21.7069 C   0  0  0  0  0  0
  -30.7805  -23.6164   19.8656 C   0  0  0  0  0  0
  -30.1639  -25.0007   19.6337 C   0  0  0  0  0  0
  -29.9506  -22.5340   19.1762 C   0  0  0  0  0  0
  -28.6158  -25.0742   19.6969 C   0  0  2  0  0  0
  -27.8277  -18.1469   20.2187 C   0  0  0  0  0  0
  -21.2287  -20.6992   21.6612 C   0  0  0  0  0  0
  -28.7047  -21.1788   20.9163 C   0  0  0  0  0  0
  -29.8290  -15.8821   20.6456 N   0  0  0  0  0  0
  -28.6609  -22.3380   19.8779 N   0  3  1  0  0  0
  -31.4639  -12.5527   19.1805 H   0  0  0  0  0  0
  -30.3374  -11.4674   19.9443 H   0  0  0  0  0  0
  -29.7873  -11.7652   17.4956 H   0  0  0  0  0  0
  -29.6382  -13.4878   17.7376 H   0  0  0  0  0  0
  -27.8797  -11.2919   18.8910 H   0  0  0  0  0  0
  -27.3788  -12.5480   17.7848 H   0  0  0  0  0  0
  -27.6302  -14.2571   19.4623 H   0  0  0  0  0  0
  -28.7007  -12.1567   21.4071 H   0  0  0  0  0  0
  -28.4036  -13.8335   21.7940 H   0  0  0  0  0  0
  -25.2786   -9.5687   22.4676 H   0  0  0  0  0  0
  -24.0023   -7.4627   22.7424 H   0  0  0  0  0  0
  -21.0826   -8.8772   19.8949 H   0  0  0  0  0  0
  -22.3700  -10.9637   19.6077 H   0  0  0  0  0  0
  -21.2077   -7.6131   23.9718 H   0  0  0  0  0  0
  -21.1440   -6.0484   25.9069 H   0  0  0  0  0  0
  -22.0615   -2.7580   23.2850 H   0  0  0  0  0  0
  -22.4049  -11.9902   22.4915 H   0  0  0  0  0  0
  -21.1034  -13.1192   22.2618 H   0  0  0  0  0  0
  -24.6240  -15.8322   20.4812 H   0  0  0  0  0  0
  -26.2283  -15.6200   19.9964 H   0  0  0  0  0  0
  -26.7251  -32.5403   23.0954 H   0  0  0  0  0  0
  -25.0535  -33.9638   25.0598 H   0  0  0  0  0  0
  -22.7191  -31.2871   21.3892 H   0  0  0  0  0  0
  -23.3862  -35.9422   23.3112 H   0  0  0  0  0  0
  -24.3660  -36.8987   22.2056 H   0  0  0  0  0  0
  -23.7106  -37.6284   23.6730 H   0  0  0  0  0  0
  -26.1078  -31.5252   20.6015 H   0  0  0  0  0  0
  -26.8414  -30.8157   22.0056 H   0  0  0  0  0  0
  -28.0869  -28.9156   21.2681 H   0  0  0  0  0  0
  -26.0234  -25.9019   18.9777 H   0  0  0  0  0  0
  -24.0077  -27.2894   18.9661 H   0  0  0  0  0  0
  -23.7639  -30.5677   19.3890 H   0  0  0  0  0  0
  -22.7635  -29.2217   19.8606 H   0  0  0  0  0  0
  -25.1273  -36.1789   25.0802 H   0  0  0  0  0  0
  -20.9946  -28.3253   24.1401 H   0  0  0  0  0  0
  -20.5723  -26.2256   23.3587 H   0  0  0  0  0  0
  -21.6669  -26.7451   22.1188 H   0  0  0  0  0  0
  -19.6957  -25.6267   21.1239 H   0  0  0  0  0  0
  -19.6741  -27.3149   20.6704 H   0  0  0  0  0  0
  -17.4234  -26.6661   21.3943 H   0  0  0  0  0  0
  -18.0306  -26.0072   22.8982 H   0  0  0  0  0  0
  -19.7962  -30.7291   24.2140 H   0  0  0  0  0  0
  -17.5033  -31.6262   24.5128 H   0  0  0  0  0  0
  -15.5347  -30.2900   23.7746 H   0  0  0  0  0  0
  -15.8679  -28.0800   22.7012 H   0  0  0  0  0  0
  -24.6101  -30.6928   25.7771 H   0  0  0  0  0  0
  -24.8997  -32.2849   26.4707 H   0  0  0  0  0  0
  -25.8266  -30.8983   27.0188 H   0  0  0  0  0  0
  -26.2939  -29.6612   24.1242 H   0  0  0  0  0  0
  -27.4217  -29.7215   25.4574 H   0  0  0  0  0  0
  -27.8797  -30.4115   23.9228 H   0  0  0  0  0  0
  -27.2810  -33.3606   26.1884 H   0  0  0  0  0  0
  -28.4022  -32.6735   25.0223 H   0  0  0  0  0  0
  -28.0815  -31.8434   26.5344 H   0  0  0  0  0  0
  -28.2404  -38.0179   24.7846 H   0  0  0  0  0  0
  -28.1305  -36.2774   24.5777 H   0  0  0  0  0  0
  -27.2416  -37.0792   25.8803 H   0  0  0  0  0  0
  -20.9414  -29.8642   21.6801 H   0  0  0  0  0  0
  -26.0075  -38.2787   24.1740 H   0  0  0  0  0  0
  -32.9172  -19.2282   21.6444 H   0  0  0  0  0  0
  -31.3289  -21.0728   21.4599 H   0  0  0  0  0  0
  -32.2622  -16.9205   21.2930 H   0  0  0  0  0  0
  -26.2417  -24.7438   20.8819 H   0  0  0  0  0  0
  -25.9569  -21.6997   20.3828 H   0  0  0  0  0  0
  -24.1569  -23.7477   21.7083 H   0  0  0  0  0  0
  -23.8358  -20.7488   20.8820 H   0  0  0  0  0  0
  -21.8946  -22.7592   22.1186 H   0  0  0  0  0  0
  -30.8621  -23.4089   20.9335 H   0  0  0  0  0  0
  -31.7987  -23.6031   19.4802 H   0  0  0  0  0  0
  -30.4788  -25.3606   18.6517 H   0  0  0  0  0  0
  -30.6148  -25.6969   20.3430 H   0  0  0  0  0  0
  -30.5131  -21.6081   19.0828 H   0  0  0  0  0  0
  -29.7499  -22.8443   18.1486 H   0  0  0  0  0  0
  -28.2740  -25.1681   18.6664 H   0  0  0  0  0  0
  -27.7141  -18.2431   19.1397 H   0  0  0  0  0  0
  -27.1019  -18.7962   20.7020 H   0  0  0  0  0  0
  -27.5517  -17.1330   20.4976 H   0  0  0  0  0  0
  -21.6257  -19.8117   21.1634 H   0  0  0  0  0  0
  -20.3433  -21.0265   21.1142 H   0  0  0  0  0  0
  -20.9236  -20.4203   22.6710 H   0  0  0  0  0  0
  -28.9864  -21.6650   21.8498 H   0  0  0  0  0  0
  -27.6974  -20.8411   21.1159 H   0  0  0  0  0  0
  -28.8412  -15.6857   20.6926 H   0  0  0  0  0  0
  -28.1134  -21.9110   19.1467 H   0  0  0  0  0  0
  1 25  1  0  0  0
  1 30  2  0  0  0
  1 90  1  0  0  0
  2  3  1  0  0  0
  2 25  1  0  0  0
  2 92  1  0  0  0
  2 93  1  0  0  0
  3  4  1  0  0  0
  3 94  1  0  0  0
  3 95  1  0  0  0
  4  5  1  0  0  0
  4 96  1  0  0  0
  4 97  1  0  0  0
  5  6  1  0  0  0
  5 26  1  0  0  0
  5 98  1  0  0  0
  6 25  1  0  0  0
  6 99  1  0  0  0
  6100  1  0  0  0
  7  8  2  0  0  0
  7 26  1  0  0  0
  7 29  1  0  0  0
  8  9  1  0  0  0
  8 22  1  0  0  0
  9 10  1  0  0  0
  9 27  2  0  0  0
 10 11  2  0  0  0
 10 15  1  0  0  0
 11 12  1  0  0  0
 11101  1  0  0  0
 12 13  2  0  0  0
 12102  1  0  0  0
 13 14  1  0  0  0
 13 31  1  0  0  0
 14 15  2  0  0  0
 14103  1  0  0  0
 15104  1  0  0  0
 16 17  2  0  0  0
 16 21  1  0  0  0
 16 31  1  0  0  0
 17 18  1  0  0  0
 17105  1  0  0  0
 18 19  2  0  0  0
 18106  1  0  0  0
 19 20  1  0  0  0
 19 24  1  0  0  0
 20 21  2  0  0  0
 20107  1  0  0  0
 21 23  1  0  0  0
 22 28  1  0  0  0
 22 32  2  0  0  0
 26 27  1  0  0  0
 28108  1  0  0  0
 28109  1  0  0  0
 29110  1  0  0  0
 29111  1  0  0  0
 33 34  1  0  0  0
 33 66  1  0  0  0
 33 70  2  0  0  0
 34 36  1  0  0  0
 34 59  1  0  0  0
 34112  1  0  0  0
 35 44  2  0  0  0
 35 45  1  0  0  0
 35 68  1  0  0  0
 36 56  1  0  0  0
 36113  1  0  0  0
 37 39  1  0  0  0
 37 47  1  0  0  0
 37 66  1  0  0  0
 37114  1  0  0  0
 38 43  2  0  0  0
 38 46  1  0  0  0
 38 47  1  0  0  0
 39 64  1  0  0  0
 39 67  2  0  0  0
 40 52  1  0  0  0
 40 53  2  0  0  0
 40 58  1  0  0  0
 41115  1  0  0  0
 41116  1  0  0  0
 41117  1  0  0  0
 41 48  1  0  0  0
 42 43  1  0  0  0
 42 66  1  0  0  0
 42118  1  0  0  0
 42119  1  0  0  0
 43 44  1  0  0  0
 44120  1  0  0  0
 45 46  2  0  0  0
 45121  1  0  0  0
 46122  1  0  0  0
 47123  1  0  0  0
 47124  1  0  0  0
 48 56  1  0  0  0
 48 65  1  0  0  0
 48125  1  0  0  0
 49 50  1  0  0  0
 49 53  1  0  0  0
 49 64  1  0  0  0
 49126  1  0  0  0
 50 51  1  0  0  0
 50127  1  0  0  0
 50128  1  0  0  0
 51 52  1  0  0  0
 51129  1  0  0  0
 51130  1  0  0  0
 52131  1  0  0  0
 52132  1  0  0  0
 53 54  1  0  0  0
 54 55  2  0  0  0
 54133  1  0  0  0
 55 57  1  0  0  0
 55134  1  0  0  0
 56 69  2  0  0  0
 57 58  2  0  0  0
 57135  1  0  0  0
 58136  1  0  0  0
 59 60  1  0  0  0
 59 61  1  0  0  0
 59 62  1  0  0  0
 60137  1  0  0  0
 60138  1  0  0  0
 60139  1  0  0  0
 61140  1  0  0  0
 61141  1  0  0  0
 61142  1  0  0  0
 62143  1  0  0  0
 62144  1  0  0  0
 62145  1  0  0  0
 63 65  1  0  0  0
 63146  1  0  0  0
 63147  1  0  0  0
 63148  1  0  0  0
 64149  1  0  0  0
 65150  1  0  0  0
 68 86  1  0  0  0
 71 72  2  0  0  0
 71 73  1  0  0  0
 71151  1  0  0  0
 72 74  1  0  0  0
 72152  1  0  0  0
 73 76  2  0  0  0
 73153  1  0  0  0
 74 75  2  0  0  0
 74 89  1  0  0  0
 75 76  1  0  0  0
 75 87  1  0  0  0
 76 90  1  0  0  0
 77 78  2  0  0  0
 77 86  1  0  0  0
 77 91  1  0  0  0
 78 79  1  0  0  0
 78154  1  0  0  0
 79 80  2  0  0  0
 79155  1  0  0  0
 80 81  1  0  0  0
 80156  1  0  0  0
 81 82  2  0  0  0
 81157  1  0  0  0
 82 88  1  0  0  0
 82158  1  0  0  0
 83 84  1  0  0  0
 83 85  1  0  0  0
 83159  1  0  0  0
 83160  1  0  0  0
 84 86  1  0  0  0
 84161  1  0  0  0
 84162  1  0  0  0
 85 91  1  0  0  0
 85163  1  0  0  0
 85164  1  0  0  0
 86165  1  0  0  0
 87166  1  0  0  0
 87167  1  0  0  0
 87168  1  0  0  0
 88169  1  0  0  0
 88170  1  0  0  0
 88171  1  0  0  0
 89172  1  0  0  0
 89173  1  0  0  0
 89 91  1  0  0  0
 90174  1  0  0  0
 91175  1  0  0  0
M  CHG  1  91   1
M  ISO  4   1 100  68 101  86 101  90 100
M  END
> <chiral flag>
0

> <version>
0

> <s_m_source_file>
/data/baiqing/PycharmProjects/Reinvent-master-3.2/result/LINK_invent/BTK/process_docking_weight1_custom_product_contain_oxygen_bond_distance_aromatic_linkinvent_7_9_3/rearranged_h_0036.sdf

> <i_m_source_file_index>
89

> <r_mmod_Potential_Energy-OPLS-2005>
144.564758300781

> <r_mmod_Stretch_Energy-OPLS-2005>
157.357727050781

> <r_mmod_Bend_Energy-OPLS-2005>
228.504684448242

> <r_mmod_Torsional_Energy-OPLS-2005>
242.434692382812

> <r_mmod_Improper_Torsional_Energy-OPLS-2005>
8.650390625

> <r_mmod_Van_der_Waal_Energy-OPLS-2005>
141.287933349609

> <r_mmod_Electrostatic_Energy-OPLS-2005>
-280.954376220703

> <r_mmod_Solvation_Energy-OPLS-2005>
-437.640411376953

> <b_mmod_Minimization_Converged-OPLS-2005>
0

> <r_mmod_RMS_Derivative-OPLS-2005>
5.43436288833618

$$$$
89
                    3D
 Structure written by MMmdl.
167176  0  0  1  0            999 V2000
  -30.5837  -14.7721   20.3889 C   0  0  0  0  0  0
  -30.4480  -12.4667   19.4584 C   0  0  0  0  0  0
  -29.5120  -12.4723   18.2317 C   0  0  0  0  0  0
  -28.0362  -12.3122   18.6467 C   0  0  0  0  0  0
  -27.6407  -13.2237   19.8407 C   0  0  2  0  0  0
  -28.6915  -13.1683   20.9681 C   0  0  0  0  0  0
  -25.2538  -13.8166   20.5717 C   0  0  0  0  0  0
  -24.1819  -13.0443   20.9220 C   0  0  0  0  0  0
  -24.6383  -11.6900   20.8748 C   0  0  0  0  0  0
  -23.9076  -10.4281   21.0407 C   0  0  0  0  0  0
  -24.3626   -9.4197   21.9182 C   0  0  0  0  0  0
  -23.6310   -8.2228   22.0744 C   0  0  0  0  0  0
  -22.4282   -8.0274   21.3560 C   0  0  0  0  0  0
  -21.9926   -9.0241   20.4656 C   0  0  0  0  0  0
  -22.7242  -10.2130   20.3066 C   0  0  0  0  0  0
  -21.6866   -6.0729   22.5281 C   0  0  0  0  0  0
  -21.4009   -6.5626   23.8214 C   0  0  0  0  0  0
  -21.3681   -5.6783   24.9182 C   0  0  0  0  0  0
  -21.6049   -4.3047   24.7229 C   0  0  0  0  0  0
  -21.8826   -3.8143   23.4350 C   0  0  0  0  0  0
  -21.9212   -4.6961   22.3409 C   0  0  0  0  0  0
  -22.7837  -13.5221   21.1882 C   0  0  0  0  0  0
  -22.1657   -4.2141   21.0984 F   0  0  0  0  0  0
  -21.5670   -3.4532   25.7740 F   0  0  0  0  0  0
  -29.9807  -13.5338   20.3706 N   0  0  0  0  0  0
  -26.2959  -12.9366   20.3281 N   0  0  0  0  0  0
  -25.9319  -11.6520   20.5726 N   0  0  0  0  0  0
  -22.0501  -12.8188   22.0428 N   0  0  0  0  0  0
  -25.4257  -15.1893   20.4074 N   0  0  0  0  0  0
  -31.7987  -14.8536   20.2190 O   0  0  0  0  0  0
  -21.6671   -6.8855   21.4238 O   0  0  0  0  0  0
  -22.3509  -14.5538   20.6737 O   0  0  0  0  0  0
  -24.6289  -31.8549   23.1963 C   0  0  0  0  0  0
  -25.9105  -32.4761   23.8327 C   0  0  1  0  0  0
  -27.2253  -27.2575   20.1597 C   0  0  0  0  0  0
  -25.5895  -33.8564   24.2249 N   0  0  0  0  0  0
  -23.4280  -30.4741   21.5392 C   0  0  2  0  0  0
  -24.8778  -28.9071   20.1239 C   0  0  0  0  0  0
  -22.7489  -29.4607   22.4906 C   0  0  0  0  0  0
  -18.0296  -28.1397   22.8476 C   0  0  0  0  0  0
  -24.1482  -36.7300   23.2647 C   0  0  0  0  0  0
  -25.9698  -30.7690   21.3737 C   0  0  0  0  0  0
  -26.0463  -29.3841   20.7317 C   0  0  0  0  0  0
  -27.2246  -28.5724   20.7345 C   0  0  0  0  0  0
  -26.0345  -26.8361   19.5350 C   0  0  0  0  0  0
  -24.8751  -27.6399   19.5183 C   0  0  0  0  0  0
  -23.6517  -29.7994   20.1590 C   0  0  0  0  0  0
  -25.4109  -36.3075   24.0329 C   0  0  1  0  0  0
  -20.5888  -28.3709   23.1277 C   0  0  2  0  0  0
  -20.6779  -26.9424   22.5422 C   0  0  0  0  0  0
  -19.5765  -26.6383   21.5222 C   0  0  0  0  0  0
  -18.1939  -26.7932   22.1620 C   0  0  0  0  0  0
  -19.1541  -28.8871   23.2872 C   0  0  0  0  0  0
  -18.9468  -30.1462   23.8899 C   0  0  0  0  0  0
  -17.6467  -30.6597   24.0564 C   0  0  0  0  0  0
  -25.9048  -34.9449   23.5097 C   0  0  0  0  0  0
  -16.5359  -29.9104   23.6320 C   0  0  0  0  0  0
  -16.7278  -28.6523   23.0340 C   0  0  0  0  0  0
  -26.4461  -31.6581   25.0724 C   0  0  0  0  0  0
  -25.3697  -31.3765   26.1471 C   0  0  0  0  0  0
  -27.0307  -30.2995   24.6205 C   0  0  0  0  0  0
  -27.6014  -32.4316   25.7508 C   0  0  0  0  0  0
  -27.5574  -37.1807   24.8450 C   0  0  0  0  0  0
  -21.4198  -29.3046   22.3650 N   0  0  0  0  0  0
  -26.4280  -37.3776   23.9402 N   0  0  0  0  0  0
  -24.6951  -31.0513   22.0939 N   0  0  0  0  0  0
  -23.4178  -28.8158   23.3019 O   0  0  0  0  0  0
  -28.3438  -26.3992   20.1254 O   0  0  0  0  0  0
  -26.5636  -34.8915   22.4676 O   0  0  0  0  0  0
  -23.5444  -32.1364   23.7261 O   0  0  0  0  0  0
  -30.3188  -20.1178   19.2210 C   0  0  0  0  0  0
  -29.1704  -18.4022   20.4821 C   0  0  0  0  0  0
  -29.2826  -19.8059   20.1066 C   0  0  0  0  0  0
  -31.1274  -19.1195   18.6496 C   0  0  0  0  0  0
  -30.8950  -17.7225   18.8802 C   0  0  0  0  0  0
  -29.9839  -17.3211   19.9288 C   0  0  0  0  0  0
  -30.0273  -22.5568   21.6322 C   0  0  0  0  0  0
  -30.5398  -21.6113   22.4417 C   0  0  0  0  0  0
  -30.6383  -23.9407   21.4142 C   0  0  0  0  0  0
  -29.6422  -25.0907   21.7026 C   0  0  0  0  0  0
  -28.2635  -23.6330   20.1001 C   0  0  0  0  0  0
  -28.3521  -25.0740   20.8414 C   0  0  2  0  0  0
  -32.2375  -19.6322   17.7385 C   0  0  0  0  0  0
  -28.2733  -20.9813   20.5132 C   0  0  0  0  0  0
  -31.5481  -16.7328   17.8840 C   0  0  0  0  0  0
  -29.7651  -15.9024   20.3726 N   0  0  0  0  0  0
  -28.6931  -22.4099   20.9467 N   0  3  1  0  0  0
  -31.5798  -17.2483   16.6554 F   0  0  0  0  0  0
  -32.8065  -16.4520   18.2283 F   0  0  0  0  0  0
  -30.8554  -15.6090   17.7228 F   0  0  0  0  0  0
  -31.4767  -12.6324   19.1276 H   0  0  0  0  0  0
  -30.4408  -11.4980   19.9577 H   0  0  0  0  0  0
  -29.7921  -11.6684   17.5510 H   0  0  0  0  0  0
  -29.6358  -13.3990   17.6720 H   0  0  0  0  0  0
  -27.8923  -11.2647   18.9172 H   0  0  0  0  0  0
  -27.3827  -12.5030   17.7924 H   0  0  0  0  0  0
  -27.6274  -14.2393   19.4466 H   0  0  0  0  0  0
  -28.7440  -12.1658   21.3982 H   0  0  0  0  0  0
  -28.4331  -13.8483   21.7803 H   0  0  0  0  0  0
  -25.2781   -9.5700   22.4735 H   0  0  0  0  0  0
  -24.0070   -7.4624   22.7448 H   0  0  0  0  0  0
  -21.0879   -8.8719   19.8940 H   0  0  0  0  0  0
  -22.3681  -10.9657   19.6157 H   0  0  0  0  0  0
  -21.1934   -7.6118   23.9692 H   0  0  0  0  0  0
  -21.1520   -6.0522   25.9083 H   0  0  0  0  0  0
  -22.0589   -2.7600   23.2857 H   0  0  0  0  0  0
  -22.4124  -11.9855   22.4824 H   0  0  0  0  0  0
  -21.1082  -13.1156   22.2581 H   0  0  0  0  0  0
  -24.6631  -15.8482   20.5210 H   0  0  0  0  0  0
  -26.2627  -15.6257   20.0457 H   0  0  0  0  0  0
  -26.7183  -32.5414   23.1088 H   0  0  0  0  0  0
  -24.9984  -33.9690   25.0353 H   0  0  0  0  0  0
  -22.7252  -31.2960   21.3869 H   0  0  0  0  0  0
  -23.3731  -35.9641   23.3287 H   0  0  0  0  0  0
  -24.3576  -36.8950   22.2064 H   0  0  0  0  0  0
  -23.7242  -37.6501   23.6683 H   0  0  0  0  0  0
  -26.0944  -31.5219   20.5927 H   0  0  0  0  0  0
  -26.8528  -30.8348   21.9993 H   0  0  0  0  0  0
  -28.1239  -28.9377   21.2089 H   0  0  0  0  0  0
  -25.9982  -25.8659   19.0582 H   0  0  0  0  0  0
  -23.9778  -27.2650   19.0480 H   0  0  0  0  0  0
  -23.7872  -30.5714   19.3992 H   0  0  0  0  0  0
  -22.7678  -29.2382   19.8504 H   0  0  0  0  0  0
  -25.1291  -36.1927   25.0821 H   0  0  0  0  0  0
  -20.9987  -28.3294   24.1398 H   0  0  0  0  0  0
  -20.5686  -26.2322   23.3631 H   0  0  0  0  0  0
  -21.6652  -26.7451   22.1219 H   0  0  0  0  0  0
  -19.6923  -25.6295   21.1268 H   0  0  0  0  0  0
  -19.6704  -27.3186   20.6749 H   0  0  0  0  0  0
  -17.4207  -26.6674   21.4019 H   0  0  0  0  0  0
  -18.0327  -26.0088   22.9033 H   0  0  0  0  0  0
  -19.7946  -30.7271   24.2264 H   0  0  0  0  0  0
  -17.5036  -31.6281   24.5172 H   0  0  0  0  0  0
  -15.5367  -30.3020   23.7651 H   0  0  0  0  0  0
  -15.8669  -28.0863   22.7042 H   0  0  0  0  0  0
  -24.5809  -30.7180   25.7803 H   0  0  0  0  0  0
  -24.8981  -32.2981   26.4909 H   0  0  0  0  0  0
  -25.8031  -30.8913   27.0233 H   0  0  0  0  0  0
  -26.2912  -29.6758   24.1180 H   0  0  0  0  0  0
  -27.3923  -29.7234   25.4725 H   0  0  0  0  0  0
  -27.8797  -30.4241   23.9487 H   0  0  0  0  0  0
  -27.2594  -33.3588   26.2114 H   0  0  0  0  0  0
  -28.3832  -32.6926   25.0364 H   0  0  0  0  0  0
  -28.0674  -31.8430   26.5419 H   0  0  0  0  0  0
  -28.2579  -38.0115   24.7503 H   0  0  0  0  0  0
  -28.1086  -36.2647   24.6262 H   0  0  0  0  0  0
  -27.2300  -37.1449   25.8857 H   0  0  0  0  0  0
  -20.9381  -29.8763   21.6848 H   0  0  0  0  0  0
  -26.0151  -38.2842   24.1430 H   0  0  0  0  0  0
  -30.4803  -21.1499   18.9377 H   0  0  0  0  0  0
  -28.3968  -18.1368   21.1892 H   0  0  0  0  0  0
  -31.4748  -21.7688   22.9611 H   0  0  0  0  0  0
  -30.0511  -20.6632   22.6171 H   0  0  0  0  0  0
  -31.0202  -24.0011   20.3943 H   0  0  0  0  0  0
  -31.5130  -24.0535   22.0591 H   0  0  0  0  0  0
  -30.1666  -26.0406   21.5800 H   0  0  0  0  0  0
  -29.3606  -25.0540   22.7572 H   0  0  0  0  0  0
  -28.8863  -23.6464   19.2064 H   0  0  0  0  0  0
  -27.2410  -23.4857   19.7531 H   0  0  0  0  0  0
  -27.5130  -25.1080   21.5379 H   0  0  0  0  0  0
  -32.6315  -20.5772   18.1185 H   0  0  0  0  0  0
  -31.8581  -19.8083   16.7292 H   0  0  0  0  0  0
  -33.0815  -18.9455   17.6841 H   0  0  0  0  0  0
  -27.6940  -20.5916   21.3512 H   0  0  0  0  0  0
  -27.5484  -21.0775   19.7038 H   0  0  0  0  0  0
  -28.8220  -15.7023   20.6677 H   0  0  0  0  0  0
  -28.0309  -22.5073   21.7036 H   0  0  0  0  0  0
  1 25  1  0  0  0
  1 30  2  0  0  0
  1 86  1  0  0  0
  2  3  1  0  0  0
  2 25  1  0  0  0
  2 91  1  0  0  0
  2 92  1  0  0  0
  3  4  1  0  0  0
  3 93  1  0  0  0
  3 94  1  0  0  0
  4  5  1  0  0  0
  4 95  1  0  0  0
  4 96  1  0  0  0
  5  6  1  0  0  0
  5 26  1  0  0  0
  5 97  1  0  0  0
  6 25  1  0  0  0
  6 98  1  0  0  0
  6 99  1  0  0  0
  7  8  2  0  0  0
  7 26  1  0  0  0
  7 29  1  0  0  0
  8  9  1  0  0  0
  8 22  1  0  0  0
  9 10  1  0  0  0
  9 27  2  0  0  0
 10 11  2  0  0  0
 10 15  1  0  0  0
 11 12  1  0  0  0
 11100  1  0  0  0
 12 13  2  0  0  0
 12101  1  0  0  0
 13 14  1  0  0  0
 13 31  1  0  0  0
 14 15  2  0  0  0
 14102  1  0  0  0
 15103  1  0  0  0
 16 17  2  0  0  0
 16 21  1  0  0  0
 16 31  1  0  0  0
 17 18  1  0  0  0
 17104  1  0  0  0
 18 19  2  0  0  0
 18105  1  0  0  0
 19 20  1  0  0  0
 19 24  1  0  0  0
 20 21  2  0  0  0
 20106  1  0  0  0
 21 23  1  0  0  0
 22 28  1  0  0  0
 22 32  2  0  0  0
 26 27  1  0  0  0
 28107  1  0  0  0
 28108  1  0  0  0
 29109  1  0  0  0
 29110  1  0  0  0
 33 34  1  0  0  0
 33 66  1  0  0  0
 33 70  2  0  0  0
 34 36  1  0  0  0
 34 59  1  0  0  0
 34111  1  0  0  0
 35 44  2  0  0  0
 35 45  1  0  0  0
 35 68  1  0  0  0
 36 56  1  0  0  0
 36112  1  0  0  0
 37 39  1  0  0  0
 37 47  1  0  0  0
 37 66  1  0  0  0
 37113  1  0  0  0
 38 43  2  0  0  0
 38 46  1  0  0  0
 38 47  1  0  0  0
 39 64  1  0  0  0
 39 67  2  0  0  0
 40 52  1  0  0  0
 40 53  2  0  0  0
 40 58  1  0  0  0
 41114  1  0  0  0
 41115  1  0  0  0
 41116  1  0  0  0
 41 48  1  0  0  0
 42 43  1  0  0  0
 42 66  1  0  0  0
 42117  1  0  0  0
 42118  1  0  0  0
 43 44  1  0  0  0
 44119  1  0  0  0
 45 46  2  0  0  0
 45120  1  0  0  0
 46121  1  0  0  0
 47122  1  0  0  0
 47123  1  0  0  0
 48 56  1  0  0  0
 48 65  1  0  0  0
 48124  1  0  0  0
 49 50  1  0  0  0
 49 53  1  0  0  0
 49 64  1  0  0  0
 49125  1  0  0  0
 50 51  1  0  0  0
 50126  1  0  0  0
 50127  1  0  0  0
 51 52  1  0  0  0
 51128  1  0  0  0
 51129  1  0  0  0
 52130  1  0  0  0
 52131  1  0  0  0
 53 54  1  0  0  0
 54 55  2  0  0  0
 54132  1  0  0  0
 55 57  1  0  0  0
 55133  1  0  0  0
 56 69  2  0  0  0
 57 58  2  0  0  0
 57134  1  0  0  0
 58135  1  0  0  0
 59 60  1  0  0  0
 59 61  1  0  0  0
 59 62  1  0  0  0
 60136  1  0  0  0
 60137  1  0  0  0
 60138  1  0  0  0
 61139  1  0  0  0
 61140  1  0  0  0
 61141  1  0  0  0
 62142  1  0  0  0
 62143  1  0  0  0
 62144  1  0  0  0
 63 65  1  0  0  0
 63145  1  0  0  0
 63146  1  0  0  0
 63147  1  0  0  0
 64148  1  0  0  0
 65149  1  0  0  0
 68 82  1  0  0  0
 71 73  2  0  0  0
 71 74  1  0  0  0
 71150  1  0  0  0
 72 73  1  0  0  0
 72 76  2  0  0  0
 72151  1  0  0  0
 73 84  1  0  0  0
 74 75  2  0  0  0
 74 83  1  0  0  0
 75 76  1  0  0  0
 75 85  1  0  0  0
 76 86  1  0  0  0
 77 78  2  0  0  0
 77 79  1  0  0  0
 77 87  1  0  0  0
 78152  1  0  0  0
 78153  1  0  0  0
 79 80  1  0  0  0
 79154  1  0  0  0
 79155  1  0  0  0
 80 82  1  0  0  0
 80156  1  0  0  0
 80157  1  0  0  0
 81 82  1  0  0  0
 81 87  1  0  0  0
 81158  1  0  0  0
 81159  1  0  0  0
 82160  1  0  0  0
 83161  1  0  0  0
 83162  1  0  0  0
 83163  1  0  0  0
 84164  1  0  0  0
 84165  1  0  0  0
 84 87  1  0  0  0
 85 88  1  0  0  0
 85 89  1  0  0  0
 85 90  1  0  0  0
 86166  1  0  0  0
 87167  1  0  0  0
M  CHG  1  87   1
M  ISO  4   1 100  68 101  82 101  86 100
M  END
> <chiral flag>
0

> <version>
0

> <s_m_source_file>
/data/baiqing/PycharmProjects/Reinvent-master-3.2/result/LINK_invent/BTK/process_docking_weight1_custom_product_contain_oxygen_bond_distance_aromatic_linkinvent_7_9_3/rearranged_h_0036.sdf

> <i_m_source_file_index>
90

> <r_mmod_Potential_Energy-OPLS-2005>
282.734558105469

> <r_mmod_Stretch_Energy-OPLS-2005>
141.374328613281

> <r_mmod_Bend_Energy-OPLS-2005>
206.645034790039

> <r_mmod_Torsional_Energy-OPLS-2005>
306.532623291016

> <r_mmod_Improper_Torsional_Energy-OPLS-2005>
6.29472923278809

> <r_mmod_Van_der_Waal_Energy-OPLS-2005>
152.298950195312

> <r_mmod_Electrostatic_Energy-OPLS-2005>
-172.570739746094

> <r_mmod_Solvation_Energy-OPLS-2005>
-451.558776855469

> <b_mmod_Minimization_Converged-OPLS-2005>
0

> <r_mmod_RMS_Derivative-OPLS-2005>
3.99709820747375

$$$$
90
                    3D
 Structure written by MMmdl.
166175  0  0  1  0            999 V2000
  -30.8012  -14.5439   20.4857 C   0  0  0  0  0  0
  -30.3950  -12.3486   19.4584 C   0  0  0  0  0  0
  -29.4956  -12.4961   18.2190 C   0  0  0  0  0  0
  -28.0247  -12.3418   18.6385 C   0  0  0  0  0  0
  -27.6483  -13.2388   19.8489 C   0  0  2  0  0  0
  -28.7006  -13.1755   20.9836 C   0  0  0  0  0  0
  -25.2553  -13.8225   20.5738 C   0  0  0  0  0  0
  -24.1851  -13.0474   20.9217 C   0  0  0  0  0  0
  -24.6436  -11.6934   20.8765 C   0  0  0  0  0  0
  -23.9114  -10.4287   21.0418 C   0  0  0  0  0  0
  -24.3651   -9.4188   21.9198 C   0  0  0  0  0  0
  -23.6296   -8.2250   22.0781 C   0  0  0  0  0  0
  -22.4284   -8.0302   21.3569 C   0  0  0  0  0  0
  -21.9926   -9.0280   20.4677 C   0  0  0  0  0  0
  -22.7279  -10.2137   20.3076 C   0  0  0  0  0  0
  -21.6847   -6.0757   22.5301 C   0  0  0  0  0  0
  -21.4004   -6.5661   23.8234 C   0  0  0  0  0  0
  -21.3651   -5.6816   24.9193 C   0  0  0  0  0  0
  -21.6034   -4.3079   24.7232 C   0  0  0  0  0  0
  -21.8800   -3.8170   23.4351 C   0  0  0  0  0  0
  -21.9165   -4.6983   22.3409 C   0  0  0  0  0  0
  -22.7841  -13.5222   21.1829 C   0  0  0  0  0  0
  -22.1648   -4.2181   21.0984 F   0  0  0  0  0  0
  -21.5601   -3.4552   25.7731 F   0  0  0  0  0  0
  -30.0213  -13.4267   20.3929 N   0  0  0  0  0  0
  -26.3008  -12.9471   20.3314 N   0  0  0  0  0  0
  -25.9386  -11.6598   20.5795 N   0  0  0  0  0  0
  -22.0454  -12.8283   22.0388 N   0  0  0  0  0  0
  -25.4155  -15.1977   20.4159 N   0  0  0  0  0  0
  -31.9707  -14.5148   20.1089 O   0  0  0  0  0  0
  -21.6634   -6.8916   21.4273 O   0  0  0  0  0  0
  -22.3543  -14.5519   20.6619 O   0  0  0  0  0  0
  -24.6143  -31.8654   23.2040 C   0  0  0  0  0  0
  -25.9017  -32.4778   23.8369 C   0  0  1  0  0  0
  -27.2374  -27.4169   20.1292 C   0  0  0  0  0  0
  -25.5857  -33.8562   24.2319 N   0  0  0  0  0  0
  -23.4063  -30.4918   21.5447 C   0  0  2  0  0  0
  -24.8602  -28.9643   20.1080 C   0  0  0  0  0  0
  -22.7414  -29.4661   22.4927 C   0  0  0  0  0  0
  -18.0297  -28.1336   22.8474 C   0  0  0  0  0  0
  -24.1506  -36.7392   23.2659 C   0  0  0  0  0  0
  -25.9347  -30.8393   21.3558 C   0  0  0  0  0  0
  -26.0189  -29.4728   20.7059 C   0  0  0  0  0  0
  -27.2151  -28.7132   20.7025 C   0  0  0  0  0  0
  -26.0693  -26.9484   19.4882 C   0  0  0  0  0  0
  -24.8813  -27.7022   19.4915 C   0  0  0  0  0  0
  -23.6161  -29.8268   20.1592 C   0  0  0  0  0  0
  -25.4084  -36.3055   24.0334 C   0  0  1  0  0  0
  -20.5879  -28.3673   23.1279 C   0  0  2  0  0  0
  -20.6792  -26.9410   22.5412 C   0  0  0  0  0  0
  -19.5770  -26.6344   21.5219 C   0  0  0  0  0  0
  -18.1943  -26.7881   22.1609 C   0  0  0  0  0  0
  -19.1532  -28.8818   23.2869 C   0  0  0  0  0  0
  -18.9458  -30.1419   23.8902 C   0  0  0  0  0  0
  -17.6448  -30.6540   24.0549 C   0  0  0  0  0  0
  -25.9028  -34.9428   23.5133 C   0  0  0  0  0  0
  -16.5345  -29.9022   23.6325 C   0  0  0  0  0  0
  -16.7282  -28.6434   23.0333 C   0  0  0  0  0  0
  -26.4417  -31.6551   25.0688 C   0  0  0  0  0  0
  -25.3681  -31.3617   26.1463 C   0  0  0  0  0  0
  -27.0285  -30.3028   24.6037 C   0  0  0  0  0  0
  -27.6027  -32.4262   25.7371 C   0  0  0  0  0  0
  -27.5552  -37.1831   24.8469 C   0  0  0  0  0  0
  -21.4146  -29.3063   22.3707 N   0  0  0  0  0  0
  -26.4276  -37.3731   23.9400 N   0  0  0  0  0  0
  -24.6700  -31.0778   22.0938 N   0  0  0  0  0  0
  -23.4181  -28.8220   23.2995 O   0  0  0  0  0  0
  -28.3534  -26.5967   20.2274 O   0  0  0  0  0  0
  -26.5594  -34.8873   22.4703 O   0  0  0  0  0  0
  -23.5352  -32.1392   23.7465 O   0  0  0  0  0  0
  -30.5967  -19.0403   19.4961 C   0  0  0  0  0  0
  -30.6436  -20.6534   21.7767 C   0  0  0  0  0  0
  -30.7084  -18.4132   20.7637 C   0  0  0  0  0  0
  -30.6856  -21.2939   20.5108 C   0  0  0  0  0  0
  -30.6935  -19.2464   21.9083 C   0  0  0  0  0  0
  -30.6068  -20.4537   19.3651 C   0  0  0  0  0  0
  -28.1909  -25.4561   22.4428 C   0  0  0  0  0  0
  -29.5995  -25.2138   22.9913 C   0  0  0  0  0  0
  -28.8979  -24.0974   20.3720 C   0  0  0  0  0  0
  -28.1018  -25.3316   20.9087 C   0  0  2  0  0  0
  -30.1926  -23.8799   22.5020 C   0  0  2  0  0  0
  -31.5785  -23.6934   23.1668 C   0  0  0  0  0  0
  -31.1817  -16.9431   20.8589 C   0  0  0  0  0  0
  -31.0673  -22.7983   20.3690 C   0  0  0  0  0  0
  -30.2738  -15.7537   20.8158 N   0  0  0  0  0  0
  -30.2362  -23.8756   21.0081 N   0  3  1  0  0  0
  -30.8831  -18.5912   23.4981 Cl  0  0  0  0  0  0
  -30.6443  -21.1191   17.7680 Cl  0  0  0  0  0  0
  -31.4477  -12.3681   19.1665 H   0  0  0  0  0  0
  -30.2419  -11.3768   19.9320 H   0  0  0  0  0  0
  -29.7561  -11.7460   17.4712 H   0  0  0  0  0  0
  -29.6552  -13.4689   17.7499 H   0  0  0  0  0  0
  -27.8709  -11.2934   18.8970 H   0  0  0  0  0  0
  -27.3651  -12.5451   17.7942 H   0  0  0  0  0  0
  -27.6416  -14.2612   19.4730 H   0  0  0  0  0  0
  -28.6983  -12.1990   21.4676 H   0  0  0  0  0  0
  -28.4758  -13.9058   21.7644 H   0  0  0  0  0  0
  -25.2780   -9.5646   22.4805 H   0  0  0  0  0  0
  -23.9970   -7.4635   22.7513 H   0  0  0  0  0  0
  -21.0844   -8.8828   19.8995 H   0  0  0  0  0  0
  -22.3748  -10.9700   19.6209 H   0  0  0  0  0  0
  -21.2042   -7.6175   23.9757 H   0  0  0  0  0  0
  -21.1483   -6.0542   25.9100 H   0  0  0  0  0  0
  -22.0581   -2.7635   23.2845 H   0  0  0  0  0  0
  -22.4008  -11.9975   22.4878 H   0  0  0  0  0  0
  -21.1081  -13.1389   22.2515 H   0  0  0  0  0  0
  -24.6371  -15.8397   20.5239 H   0  0  0  0  0  0
  -26.2621  -15.6522   20.1019 H   0  0  0  0  0  0
  -26.7102  -32.5536   23.1175 H   0  0  0  0  0  0
  -24.9954  -33.9695   25.0439 H   0  0  0  0  0  0
  -22.6987  -31.3103   21.4031 H   0  0  0  0  0  0
  -23.3655  -35.9842   23.3300 H   0  0  0  0  0  0
  -24.3669  -36.9041   22.2102 H   0  0  0  0  0  0
  -23.7386  -37.6637   23.6691 H   0  0  0  0  0  0
  -26.0387  -31.6036   20.5851 H   0  0  0  0  0  0
  -26.8232  -30.8991   21.9711 H   0  0  0  0  0  0
  -28.1066  -29.1017   21.1727 H   0  0  0  0  0  0
  -26.0602  -25.9781   19.0103 H   0  0  0  0  0  0
  -23.9920  -27.3054   19.0248 H   0  0  0  0  0  0
  -23.7155  -30.5997   19.3971 H   0  0  0  0  0  0
  -22.7405  -29.2461   19.8617 H   0  0  0  0  0  0
  -25.1261  -36.1939   25.0810 H   0  0  0  0  0  0
  -20.9928  -28.3260   24.1399 H   0  0  0  0  0  0
  -20.5714  -26.2304   23.3598 H   0  0  0  0  0  0
  -21.6675  -26.7455   22.1223 H   0  0  0  0  0  0
  -19.6955  -25.6241   21.1267 H   0  0  0  0  0  0
  -19.6685  -27.3154   20.6743 H   0  0  0  0  0  0
  -17.4227  -26.6642   21.3989 H   0  0  0  0  0  0
  -18.0336  -26.0005   22.8998 H   0  0  0  0  0  0
  -19.7947  -30.7230   24.2246 H   0  0  0  0  0  0
  -17.5009  -31.6220   24.5156 H   0  0  0  0  0  0
  -15.5334  -30.2892   23.7642 H   0  0  0  0  0  0
  -15.8703  -28.0734   22.7006 H   0  0  0  0  0  0
  -24.5922  -30.6879   25.7814 H   0  0  0  0  0  0
  -24.8748  -32.2739   26.4838 H   0  0  0  0  0  0
  -25.8016  -30.8944   27.0321 H   0  0  0  0  0  0
  -26.2909  -29.6904   24.0820 H   0  0  0  0  0  0
  -27.3815  -29.7157   25.4503 H   0  0  0  0  0  0
  -27.8805  -30.4419   23.9390 H   0  0  0  0  0  0
  -27.2733  -33.3590   26.1953 H   0  0  0  0  0  0
  -28.3722  -32.6727   25.0041 H   0  0  0  0  0  0
  -28.0762  -31.8377   26.5223 H   0  0  0  0  0  0
  -28.2475  -38.0181   24.7385 H   0  0  0  0  0  0
  -28.1103  -36.2682   24.6403 H   0  0  0  0  0  0
  -27.2268  -37.1597   25.8866 H   0  0  0  0  0  0
  -20.9284  -29.8806   21.6957 H   0  0  0  0  0  0
  -26.0133  -38.2799   24.1371 H   0  0  0  0  0  0
  -30.6393  -18.4405   18.5987 H   0  0  0  0  0  0
  -30.6861  -21.2087   22.6968 H   0  0  0  0  0  0
  -27.8169  -26.4233   22.7812 H   0  0  0  0  0  0
  -27.5263  -24.7125   22.8840 H   0  0  0  0  0  0
  -29.5441  -25.2085   24.0819 H   0  0  0  0  0  0
  -30.2581  -26.0388   22.7224 H   0  0  0  0  0  0
  -28.9851  -24.1748   19.2885 H   0  0  0  0  0  0
  -28.3051  -23.2006   20.5632 H   0  0  0  0  0  0
  -27.0609  -25.0561   20.7405 H   0  0  0  0  0  0
  -29.5285  -23.0727   22.8215 H   0  0  0  0  0  0
  -32.0893  -22.7626   22.9194 H   0  0  0  0  0  0
  -31.4815  -23.6833   24.2502 H   0  0  0  0  0  0
  -32.2543  -24.5053   22.8983 H   0  0  0  0  0  0
  -31.8240  -16.8339   21.7327 H   0  0  0  0  0  0
  -31.8816  -16.8842   20.0247 H   0  0  0  0  0  0
  -31.1844  -23.0821   19.3260 H   0  0  0  0  0  0
  -32.0909  -22.8938   20.7314 H   0  0  0  0  0  0
  -29.3048  -15.8455   21.0827 H   0  0  0  0  0  0
  -30.7500  -24.7167   20.7834 H   0  0  0  0  0  0
  1 25  1  0  0  0
  1 30  2  0  0  0
  1 85  1  0  0  0
  2  3  1  0  0  0
  2 25  1  0  0  0
  2 89  1  0  0  0
  2 90  1  0  0  0
  3  4  1  0  0  0
  3 91  1  0  0  0
  3 92  1  0  0  0
  4  5  1  0  0  0
  4 93  1  0  0  0
  4 94  1  0  0  0
  5  6  1  0  0  0
  5 26  1  0  0  0
  5 95  1  0  0  0
  6 25  1  0  0  0
  6 96  1  0  0  0
  6 97  1  0  0  0
  7  8  2  0  0  0
  7 26  1  0  0  0
  7 29  1  0  0  0
  8  9  1  0  0  0
  8 22  1  0  0  0
  9 10  1  0  0  0
  9 27  2  0  0  0
 10 11  2  0  0  0
 10 15  1  0  0  0
 11 12  1  0  0  0
 11 98  1  0  0  0
 12 13  2  0  0  0
 12 99  1  0  0  0
 13 14  1  0  0  0
 13 31  1  0  0  0
 14 15  2  0  0  0
 14100  1  0  0  0
 15101  1  0  0  0
 16 17  2  0  0  0
 16 21  1  0  0  0
 16 31  1  0  0  0
 17 18  1  0  0  0
 17102  1  0  0  0
 18 19  2  0  0  0
 18103  1  0  0  0
 19 20  1  0  0  0
 19 24  1  0  0  0
 20 21  2  0  0  0
 20104  1  0  0  0
 21 23  1  0  0  0
 22 28  1  0  0  0
 22 32  2  0  0  0
 26 27  1  0  0  0
 28105  1  0  0  0
 28106  1  0  0  0
 29107  1  0  0  0
 29108  1  0  0  0
 33 34  1  0  0  0
 33 66  1  0  0  0
 33 70  2  0  0  0
 34 36  1  0  0  0
 34 59  1  0  0  0
 34109  1  0  0  0
 35 44  2  0  0  0
 35 45  1  0  0  0
 35 68  1  0  0  0
 36 56  1  0  0  0
 36110  1  0  0  0
 37 39  1  0  0  0
 37 47  1  0  0  0
 37 66  1  0  0  0
 37111  1  0  0  0
 38 43  2  0  0  0
 38 46  1  0  0  0
 38 47  1  0  0  0
 39 64  1  0  0  0
 39 67  2  0  0  0
 40 52  1  0  0  0
 40 53  2  0  0  0
 40 58  1  0  0  0
 41112  1  0  0  0
 41113  1  0  0  0
 41114  1  0  0  0
 41 48  1  0  0  0
 42 43  1  0  0  0
 42 66  1  0  0  0
 42115  1  0  0  0
 42116  1  0  0  0
 43 44  1  0  0  0
 44117  1  0  0  0
 45 46  2  0  0  0
 45118  1  0  0  0
 46119  1  0  0  0
 47120  1  0  0  0
 47121  1  0  0  0
 48 56  1  0  0  0
 48 65  1  0  0  0
 48122  1  0  0  0
 49 50  1  0  0  0
 49 53  1  0  0  0
 49 64  1  0  0  0
 49123  1  0  0  0
 50 51  1  0  0  0
 50124  1  0  0  0
 50125  1  0  0  0
 51 52  1  0  0  0
 51126  1  0  0  0
 51127  1  0  0  0
 52128  1  0  0  0
 52129  1  0  0  0
 53 54  1  0  0  0
 54 55  2  0  0  0
 54130  1  0  0  0
 55 57  1  0  0  0
 55131  1  0  0  0
 56 69  2  0  0  0
 57 58  2  0  0  0
 57132  1  0  0  0
 58133  1  0  0  0
 59 60  1  0  0  0
 59 61  1  0  0  0
 59 62  1  0  0  0
 60134  1  0  0  0
 60135  1  0  0  0
 60136  1  0  0  0
 61137  1  0  0  0
 61138  1  0  0  0
 61139  1  0  0  0
 62140  1  0  0  0
 62141  1  0  0  0
 62142  1  0  0  0
 63 65  1  0  0  0
 63143  1  0  0  0
 63144  1  0  0  0
 63145  1  0  0  0
 64146  1  0  0  0
 65147  1  0  0  0
 68 80  1  0  0  0
 71 73  2  0  0  0
 71 76  1  0  0  0
 71148  1  0  0  0
 72 74  1  0  0  0
 72 75  2  0  0  0
 72149  1  0  0  0
 73 75  1  0  0  0
 73 83  1  0  0  0
 74 76  2  0  0  0
 74 84  1  0  0  0
 75 87  1  0  0  0
 76 88  1  0  0  0
 77 78  1  0  0  0
 77 80  1  0  0  0
 77150  1  0  0  0
 77151  1  0  0  0
 78 81  1  0  0  0
 78152  1  0  0  0
 78153  1  0  0  0
 79 80  1  0  0  0
 79 86  1  0  0  0
 79154  1  0  0  0
 79155  1  0  0  0
 80156  1  0  0  0
 81 82  1  0  0  0
 81 86  1  0  0  0
 81157  1  0  0  0
 82158  1  0  0  0
 82159  1  0  0  0
 82160  1  0  0  0
 83 85  1  0  0  0
 83161  1  0  0  0
 83162  1  0  0  0
 84163  1  0  0  0
 84164  1  0  0  0
 84 86  1  0  0  0
 85165  1  0  0  0
 86166  1  0  0  0
M  CHG  1  86   1
M  ISO  4   1 100  68 101  80 101  85 100
M  END
> <chiral flag>
0

> <version>
0

> <s_m_source_file>
/data/baiqing/PycharmProjects/Reinvent-master-3.2/result/LINK_invent/BTK/process_docking_weight1_custom_product_contain_oxygen_bond_distance_aromatic_linkinvent_7_9_3/rearranged_h_0036.sdf

> <i_m_source_file_index>
91

> <r_mmod_Potential_Energy-OPLS-2005>
-33.7833213806152

> <r_mmod_Stretch_Energy-OPLS-2005>
53.3093795776367

> <r_mmod_Bend_Energy-OPLS-2005>
155.273590087891

> <r_mmod_Torsional_Energy-OPLS-2005>
283.326995849609

> <r_mmod_Improper_Torsional_Energy-OPLS-2005>
8.28363800048828

> <r_mmod_Van_der_Waal_Energy-OPLS-2005>
170.17448425293

> <r_mmod_Electrostatic_Energy-OPLS-2005>
-324.30615234375

> <r_mmod_Solvation_Energy-OPLS-2005>
-419.601226806641

> <b_mmod_Minimization_Converged-OPLS-2005>
0

> <r_mmod_RMS_Derivative-OPLS-2005>
5.97760629653931

$$$$
91
                    3D
 Structure written by MMmdl.
154162  0  0  1  0            999 V2000
  -30.5179  -14.9068   20.4345 C   0  0  0  0  0  0
  -30.4513  -12.5589   19.4870 C   0  0  0  0  0  0
  -29.5245  -12.5345   18.2480 C   0  0  0  0  0  0
  -28.0540  -12.3237   18.6625 C   0  0  0  0  0  0
  -27.6363  -13.2385   19.8437 C   0  0  2  0  0  0
  -28.6811  -13.2188   20.9804 C   0  0  0  0  0  0
  -25.2489  -13.8192   20.5699 C   0  0  0  0  0  0
  -24.1795  -13.0426   20.9209 C   0  0  0  0  0  0
  -24.6396  -11.6910   20.8738 C   0  0  0  0  0  0
  -23.9071  -10.4287   21.0403 C   0  0  0  0  0  0
  -24.3619   -9.4203   21.9181 C   0  0  0  0  0  0
  -23.6293   -8.2239   22.0750 C   0  0  0  0  0  0
  -22.4274   -8.0279   21.3543 C   0  0  0  0  0  0
  -21.9910   -9.0249   20.4644 C   0  0  0  0  0  0
  -22.7241  -10.2128   20.3050 C   0  0  0  0  0  0
  -21.6854   -6.0732   22.5279 C   0  0  0  0  0  0
  -21.4016   -6.5634   23.8212 C   0  0  0  0  0  0
  -21.3658   -5.6786   24.9173 C   0  0  0  0  0  0
  -21.6044   -4.3049   24.7224 C   0  0  0  0  0  0
  -21.8820   -3.8143   23.4346 C   0  0  0  0  0  0
  -21.9191   -4.6958   22.3403 C   0  0  0  0  0  0
  -22.7815  -13.5204   21.1868 C   0  0  0  0  0  0
  -22.1663   -4.2145   21.0981 F   0  0  0  0  0  0
  -21.5623   -3.4533   25.7738 F   0  0  0  0  0  0
  -29.9637  -13.6320   20.3937 N   0  0  0  0  0  0
  -26.2914  -12.9408   20.3244 N   0  0  0  0  0  0
  -25.9325  -11.6546   20.5719 N   0  0  0  0  0  0
  -22.0463  -12.8197   22.0428 N   0  0  0  0  0  0
  -25.4144  -15.1925   20.4135 N   0  0  0  0  0  0
  -31.7159  -15.0327   20.1576 O   0  0  0  0  0  0
  -21.6639   -6.8876   21.4241 O   0  0  0  0  0  0
  -22.3496  -14.5505   20.6705 O   0  0  0  0  0  0
  -24.6414  -31.8460   23.1894 C   0  0  0  0  0  0
  -25.9195  -32.4705   23.8281 C   0  0  1  0  0  0
  -27.2212  -27.1604   20.1587 C   0  0  0  0  0  0
  -25.5950  -33.8510   24.2199 N   0  0  0  0  0  0
  -23.4446  -30.4645   21.5341 C   0  0  2  0  0  0
  -24.8956  -28.8907   20.1151 C   0  0  0  0  0  0
  -22.7560  -29.4556   22.4868 C   0  0  0  0  0  0
  -18.0303  -28.1396   22.8477 C   0  0  0  0  0  0
  -24.1491  -36.7259   23.2642 C   0  0  0  0  0  0
  -25.9984  -30.7282   21.3839 C   0  0  0  0  0  0
  -26.0721  -29.3394   20.7301 C   0  0  0  0  0  0
  -27.2400  -28.4916   20.7315 C   0  0  0  0  0  0
  -26.0215  -26.8038   19.5090 C   0  0  0  0  0  0
  -24.8811  -27.6349   19.4884 C   0  0  0  0  0  0
  -23.6709  -29.7904   20.1547 C   0  0  0  0  0  0
  -25.4122  -36.3039   24.0317 C   0  0  1  0  0  0
  -20.5913  -28.3722   23.1241 C   0  0  2  0  0  0
  -20.6787  -26.9428   22.5403 C   0  0  0  0  0  0
  -19.5760  -26.6384   21.5212 C   0  0  0  0  0  0
  -18.1943  -26.7936   22.1623 C   0  0  0  0  0  0
  -19.1558  -28.8877   23.2850 C   0  0  0  0  0  0
  -18.9476  -30.1473   23.8875 C   0  0  0  0  0  0
  -17.6472  -30.6592   24.0559 C   0  0  0  0  0  0
  -25.9071  -34.9413   23.5066 C   0  0  0  0  0  0
  -16.5363  -29.9085   23.6334 C   0  0  0  0  0  0
  -16.7288  -28.6503   23.0357 C   0  0  0  0  0  0
  -26.4522  -31.6564   25.0714 C   0  0  0  0  0  0
  -25.3711  -31.3740   26.1410 C   0  0  0  0  0  0
  -27.0386  -30.2966   24.6278 C   0  0  0  0  0  0
  -27.6057  -32.4326   25.7497 C   0  0  0  0  0  0
  -27.5578  -37.1786   24.8466 C   0  0  0  0  0  0
  -21.4254  -29.3049   22.3616 N   0  0  0  0  0  0
  -26.4288  -37.3750   23.9410 N   0  0  0  0  0  0
  -24.7145  -31.0339   22.0911 N   0  0  0  0  0  0
  -23.4211  -28.8109   23.3017 O   0  0  0  0  0  0
  -28.2775  -26.1877   20.1712 O   0  0  0  0  0  0
  -26.5656  -34.8909   22.4644 O   0  0  0  0  0  0
  -23.5538  -32.1319   23.7128 O   0  0  0  0  0  0
  -30.2770  -18.4164   21.4016 C   0  0  0  0  0  0
  -29.1810  -20.5940   20.5772 C   0  0  0  0  0  0
  -28.6025  -19.7170   19.5856 C   0  0  0  0  0  0
  -28.8271  -18.2645   19.5390 C   0  0  0  0  0  0
  -29.6604  -17.5317   20.4652 C   0  0  0  0  0  0
  -30.0561  -19.8500   21.4540 C   0  0  0  0  0  0
  -28.8654  -22.1532   20.8358 C   0  0  0  0  0  0
  -28.5187  -23.3352   20.1365 C   0  0  0  0  0  0
  -27.6396  -20.3351   18.5765 C   0  0  0  0  0  0
  -28.1096  -17.4504   18.4657 C   0  0  0  0  0  0
  -28.0220  -24.7770   20.7463 C   0  0  0  0  0  0
  -29.6388  -16.0049   20.5826 N   0  0  0  0  0  0
  -30.8771  -20.7001   22.7167 Cl  0  0  0  0  0  0
  -31.4843  -12.7292   19.1792 H   0  0  0  0  0  0
  -30.4456  -11.5938   19.9962 H   0  0  0  0  0  0
  -29.8364  -11.7513   17.5555 H   0  0  0  0  0  0
  -29.6189  -13.4762   17.7048 H   0  0  0  0  0  0
  -27.9393  -11.2782   18.9505 H   0  0  0  0  0  0
  -27.3937  -12.4789   17.8085 H   0  0  0  0  0  0
  -27.6107  -14.2490   19.4363 H   0  0  0  0  0  0
  -28.7579  -12.2249   21.4237 H   0  0  0  0  0  0
  -28.3886  -13.8912   21.7886 H   0  0  0  0  0  0
  -25.2767   -9.5678   22.4750 H   0  0  0  0  0  0
  -24.0004   -7.4629   22.7466 H   0  0  0  0  0  0
  -21.0840   -8.8763   19.8952 H   0  0  0  0  0  0
  -22.3700  -10.9659   19.6152 H   0  0  0  0  0  0
  -21.2016   -7.6145   23.9714 H   0  0  0  0  0  0
  -21.1478   -6.0518   25.9076 H   0  0  0  0  0  0
  -22.0603   -2.7605   23.2845 H   0  0  0  0  0  0
  -22.4089  -11.9870   22.4830 H   0  0  0  0  0  0
  -21.1076  -13.1217   22.2625 H   0  0  0  0  0  0
  -24.6384  -15.8366   20.5217 H   0  0  0  0  0  0
  -26.2515  -15.6396   20.0671 H   0  0  0  0  0  0
  -26.7265  -32.5324   23.1017 H   0  0  0  0  0  0
  -25.0071  -33.9623   25.0329 H   0  0  0  0  0  0
  -22.7457  -31.2892   21.3788 H   0  0  0  0  0  0
  -23.3759  -35.9586   23.3293 H   0  0  0  0  0  0
  -24.3576  -36.8901   22.2059 H   0  0  0  0  0  0
  -23.7241  -37.6451   23.6685 H   0  0  0  0  0  0
  -26.1496  -31.4814   20.6095 H   0  0  0  0  0  0
  -26.8706  -30.7812   22.0238 H   0  0  0  0  0  0
  -28.1405  -28.8335   21.2220 H   0  0  0  0  0  0
  -25.9538  -25.8390   19.0264 H   0  0  0  0  0  0
  -23.9835  -27.2863   18.9962 H   0  0  0  0  0  0
  -23.8062  -30.5625   19.3963 H   0  0  0  0  0  0
  -22.7867  -29.2296   19.8463 H   0  0  0  0  0  0
  -25.1308  -36.1866   25.0809 H   0  0  0  0  0  0
  -21.0005  -28.3313   24.1362 H   0  0  0  0  0  0
  -20.5683  -26.2338   23.3622 H   0  0  0  0  0  0
  -21.6654  -26.7436   22.1203 H   0  0  0  0  0  0
  -19.6923  -25.6290   21.1256 H   0  0  0  0  0  0
  -19.6695  -27.3180   20.6730 H   0  0  0  0  0  0
  -17.4211  -26.6680   21.4027 H   0  0  0  0  0  0
  -18.0342  -26.0083   22.9026 H   0  0  0  0  0  0
  -19.7950  -30.7296   24.2238 H   0  0  0  0  0  0
  -17.5023  -31.6270   24.5168 H   0  0  0  0  0  0
  -15.5361  -30.2979   23.7670 H   0  0  0  0  0  0
  -15.8690  -28.0813   22.7085 H   0  0  0  0  0  0
  -24.5896  -30.7087   25.7721 H   0  0  0  0  0  0
  -24.8892  -32.2915   26.4795 H   0  0  0  0  0  0
  -25.7993  -30.8933   27.0214 H   0  0  0  0  0  0
  -26.2997  -29.6690   24.1284 H   0  0  0  0  0  0
  -27.4007  -29.7261   25.4841 H   0  0  0  0  0  0
  -27.8901  -30.4208   23.9584 H   0  0  0  0  0  0
  -27.2657  -33.3645   26.2026 H   0  0  0  0  0  0
  -28.3893  -32.6857   25.0344 H   0  0  0  0  0  0
  -28.0702  -31.8485   26.5452 H   0  0  0  0  0  0
  -28.2586  -38.0092   24.7518 H   0  0  0  0  0  0
  -28.1083  -36.2622   24.6285 H   0  0  0  0  0  0
  -27.2298  -37.1427   25.8870 H   0  0  0  0  0  0
  -20.9470  -29.8752   21.6783 H   0  0  0  0  0  0
  -26.0155  -38.2819   24.1410 H   0  0  0  0  0  0
  -30.9063  -17.9829   22.1650 H   0  0  0  0  0  0
  -28.8478  -22.3363   21.9006 H   0  0  0  0  0  0
  -28.4982  -23.2901   19.0575 H   0  0  0  0  0  0
  -27.2402  -21.2899   18.9104 H   0  0  0  0  0  0
  -26.7703  -19.7007   18.4076 H   0  0  0  0  0  0
  -28.1407  -20.4943   17.6213 H   0  0  0  0  0  0
  -28.1563  -17.9478   17.4972 H   0  0  0  0  0  0
  -27.0615  -17.3107   18.7310 H   0  0  0  0  0  0
  -28.5522  -16.4662   18.3181 H   0  0  0  0  0  0
  -28.3883  -24.8099   21.7726 H   0  0  0  0  0  0
  -26.9436  -24.6650   20.8578 H   0  0  0  0  0  0
  -28.7005  -15.6542   20.6923 H   0  0  0  0  0  0
  1 25  1  0  0  0
  1 30  2  0  0  0
  1 82  1  0  0  0
  2  3  1  0  0  0
  2 25  1  0  0  0
  2 84  1  0  0  0
  2 85  1  0  0  0
  3  4  1  0  0  0
  3 86  1  0  0  0
  3 87  1  0  0  0
  4  5  1  0  0  0
  4 88  1  0  0  0
  4 89  1  0  0  0
  5  6  1  0  0  0
  5 26  1  0  0  0
  5 90  1  0  0  0
  6 25  1  0  0  0
  6 91  1  0  0  0
  6 92  1  0  0  0
  7  8  2  0  0  0
  7 26  1  0  0  0
  7 29  1  0  0  0
  8  9  1  0  0  0
  8 22  1  0  0  0
  9 10  1  0  0  0
  9 27  2  0  0  0
 10 11  2  0  0  0
 10 15  1  0  0  0
 11 12  1  0  0  0
 11 93  1  0  0  0
 12 13  2  0  0  0
 12 94  1  0  0  0
 13 14  1  0  0  0
 13 31  1  0  0  0
 14 15  2  0  0  0
 14 95  1  0  0  0
 15 96  1  0  0  0
 16 17  2  0  0  0
 16 21  1  0  0  0
 16 31  1  0  0  0
 17 18  1  0  0  0
 17 97  1  0  0  0
 18 19  2  0  0  0
 18 98  1  0  0  0
 19 20  1  0  0  0
 19 24  1  0  0  0
 20 21  2  0  0  0
 20 99  1  0  0  0
 21 23  1  0  0  0
 22 28  1  0  0  0
 22 32  2  0  0  0
 26 27  1  0  0  0
 28100  1  0  0  0
 28101  1  0  0  0
 29102  1  0  0  0
 29103  1  0  0  0
 33 34  1  0  0  0
 33 66  1  0  0  0
 33 70  2  0  0  0
 34 36  1  0  0  0
 34 59  1  0  0  0
 34104  1  0  0  0
 35 44  2  0  0  0
 35 45  1  0  0  0
 35 68  1  0  0  0
 36 56  1  0  0  0
 36105  1  0  0  0
 37 39  1  0  0  0
 37 47  1  0  0  0
 37 66  1  0  0  0
 37106  1  0  0  0
 38 43  2  0  0  0
 38 46  1  0  0  0
 38 47  1  0  0  0
 39 64  1  0  0  0
 39 67  2  0  0  0
 40 52  1  0  0  0
 40 53  2  0  0  0
 40 58  1  0  0  0
 41107  1  0  0  0
 41108  1  0  0  0
 41109  1  0  0  0
 41 48  1  0  0  0
 42 43  1  0  0  0
 42 66  1  0  0  0
 42110  1  0  0  0
 42111  1  0  0  0
 43 44  1  0  0  0
 44112  1  0  0  0
 45 46  2  0  0  0
 45113  1  0  0  0
 46114  1  0  0  0
 47115  1  0  0  0
 47116  1  0  0  0
 48 56  1  0  0  0
 48 65  1  0  0  0
 48117  1  0  0  0
 49 50  1  0  0  0
 49 53  1  0  0  0
 49 64  1  0  0  0
 49118  1  0  0  0
 50 51  1  0  0  0
 50119  1  0  0  0
 50120  1  0  0  0
 51 52  1  0  0  0
 51121  1  0  0  0
 51122  1  0  0  0
 52123  1  0  0  0
 52124  1  0  0  0
 53 54  1  0  0  0
 54 55  2  0  0  0
 54125  1  0  0  0
 55 57  1  0  0  0
 55126  1  0  0  0
 56 69  2  0  0  0
 57 58  2  0  0  0
 57127  1  0  0  0
 58128  1  0  0  0
 59 60  1  0  0  0
 59 61  1  0  0  0
 59 62  1  0  0  0
 60129  1  0  0  0
 60130  1  0  0  0
 60131  1  0  0  0
 61132  1  0  0  0
 61133  1  0  0  0
 61134  1  0  0  0
 62135  1  0  0  0
 62136  1  0  0  0
 62137  1  0  0  0
 63 65  1  0  0  0
 63138  1  0  0  0
 63139  1  0  0  0
 63140  1  0  0  0
 64141  1  0  0  0
 65142  1  0  0  0
 68 81  1  0  0  0
 71 75  2  0  0  0
 71 76  1  0  0  0
 71143  1  0  0  0
 72 73  1  0  0  0
 72 76  2  0  0  0
 72 77  1  0  0  0
 73 74  2  0  0  0
 73 79  1  0  0  0
 74 75  1  0  0  0
 74 80  1  0  0  0
 75 82  1  0  0  0
 76 83  1  0  0  0
 77 78  2  0  0  0
 77144  1  0  0  0
 78 81  1  0  0  0
 78145  1  0  0  0
 79146  1  0  0  0
 79147  1  0  0  0
 79148  1  0  0  0
 80149  1  0  0  0
 80150  1  0  0  0
 80151  1  0  0  0
 81152  1  0  0  0
 81153  1  0  0  0
 82154  1  0  0  0
M  ISO  4   1 100  68 101  81 101  82 100
M  END
> <chiral flag>
0

> <version>
0

> <s_m_source_file>
/data/baiqing/PycharmProjects/Reinvent-master-3.2/result/LINK_invent/BTK/process_docking_weight1_custom_product_contain_oxygen_bond_distance_aromatic_linkinvent_7_9_3/rearranged_h_0036.sdf

> <i_m_source_file_index>
92

> <r_mmod_Potential_Energy-OPLS-2005>
465.742706298828

> <r_mmod_Stretch_Energy-OPLS-2005>
215.03239440918

> <r_mmod_Bend_Energy-OPLS-2005>
239.800659179688

> <r_mmod_Torsional_Energy-OPLS-2005>
270.778991699219

> <r_mmod_Improper_Torsional_Energy-OPLS-2005>
8.37068271636963

> <r_mmod_Van_der_Waal_Energy-OPLS-2005>
135.140243530273

> <r_mmod_Electrostatic_Energy-OPLS-2005>
-363.859466552734

> <r_mmod_Solvation_Energy-OPLS-2005>
-207.387649536133

> <b_mmod_Minimization_Converged-OPLS-2005>
0

> <r_mmod_RMS_Derivative-OPLS-2005>
0.698151826858521

$$$$
92
                    3D
 Structure written by MMmdl.
167176  0  0  1  0            999 V2000
  -30.5916  -14.5493   20.5087 C   0  0  0  0  0  0
  -30.4237  -12.3355   19.4352 C   0  0  0  0  0  0
  -29.5017  -12.5214   18.2078 C   0  0  0  0  0  0
  -28.0151  -12.3929   18.5970 C   0  0  0  0  0  0
  -27.6490  -13.2110   19.8646 C   0  0  2  0  0  0
  -28.6852  -12.9938   20.9942 C   0  0  0  0  0  0
  -25.2532  -13.8183   20.5609 C   0  0  0  0  0  0
  -24.1772  -13.0398   20.9157 C   0  0  0  0  0  0
  -24.6359  -11.6918   20.8677 C   0  0  0  0  0  0
  -23.9012  -10.4283   21.0375 C   0  0  0  0  0  0
  -24.3581   -9.4243   21.9161 C   0  0  0  0  0  0
  -23.6285   -8.2275   22.0755 C   0  0  0  0  0  0
  -22.4286   -8.0263   21.3528 C   0  0  0  0  0  0
  -21.9867   -9.0235   20.4657 C   0  0  0  0  0  0
  -22.7186  -10.2139   20.3052 C   0  0  0  0  0  0
  -21.6864   -6.0730   22.5288 C   0  0  0  0  0  0
  -21.4011   -6.5628   23.8207 C   0  0  0  0  0  0
  -21.3661   -5.6784   24.9173 C   0  0  0  0  0  0
  -21.6051   -4.3046   24.7228 C   0  0  0  0  0  0
  -21.8824   -3.8146   23.4339 C   0  0  0  0  0  0
  -21.9189   -4.6953   22.3407 C   0  0  0  0  0  0
  -22.7827  -13.5267   21.1834 C   0  0  0  0  0  0
  -22.1669   -4.2132   21.0979 F   0  0  0  0  0  0
  -21.5626   -3.4548   25.7737 F   0  0  0  0  0  0
  -30.0053  -13.3252   20.4454 N   0  0  0  0  0  0
  -26.2916  -12.9340   20.3280 N   0  0  0  0  0  0
  -25.9267  -11.6509   20.5657 N   0  0  0  0  0  0
  -22.0471  -12.8240   22.0432 N   0  0  0  0  0  0
  -25.4150  -15.1876   20.3975 N   0  0  0  0  0  0
  -31.7581  -14.7383   20.1378 O   0  0  0  0  0  0
  -21.6651   -6.8873   21.4251 O   0  0  0  0  0  0
  -22.3493  -14.5549   20.6716 O   0  0  0  0  0  0
  -24.6382  -31.8584   23.2101 C   0  0  0  0  0  0
  -25.9156  -32.4855   23.8497 C   0  0  1  0  0  0
  -27.1741  -27.2864   20.1652 C   0  0  0  0  0  0
  -25.5927  -33.8647   24.2361 N   0  0  0  0  0  0
  -23.4581  -30.4951   21.5562 C   0  0  2  0  0  0
  -24.8797  -28.9418   20.1140 C   0  0  0  0  0  0
  -22.7708  -29.4968   22.5064 C   0  0  0  0  0  0
  -17.9931  -28.1460   22.8984 C   0  0  0  0  0  0
  -24.1466  -36.7338   23.2631 C   0  0  0  0  0  0
  -25.9827  -30.7851   21.3788 C   0  0  0  0  0  0
  -26.0435  -29.4071   20.7317 C   0  0  0  0  0  0
  -27.2015  -28.5841   20.7517 C   0  0  0  0  0  0
  -26.0130  -26.8912   19.4844 C   0  0  0  0  0  0
  -24.8599  -27.6941   19.4715 C   0  0  0  0  0  0
  -23.6508  -29.8163   20.1731 C   0  0  0  0  0  0
  -25.4103  -36.3170   24.0307 C   0  0  1  0  0  0
  -20.4862  -28.4847   22.7977 C   0  0  2  0  0  0
  -20.6852  -26.9966   22.4902 C   0  0  0  0  0  0
  -19.5179  -26.5124   21.5977 C   0  0  0  0  0  0
  -18.1647  -26.7524   22.2806 C   0  0  0  0  0  0
  -19.1182  -28.9221   23.2660 C   0  0  0  0  0  0
  -18.9414  -30.1793   23.8812 C   0  0  0  0  0  0
  -17.6553  -30.6865   24.0973 C   0  0  0  0  0  0
  -25.9026  -34.9515   23.5135 C   0  0  0  0  0  0
  -16.5373  -29.9436   23.6939 C   0  0  0  0  0  0
  -16.7064  -28.6780   23.1086 C   0  0  0  0  0  0
  -26.4545  -31.6650   25.0856 C   0  0  0  0  0  0
  -25.3779  -31.3695   26.1553 C   0  0  0  0  0  0
  -27.0277  -30.3040   24.6283 C   0  0  0  0  0  0
  -27.6129  -32.4351   25.7670 C   0  0  0  0  0  0
  -27.5586  -37.1851   24.8460 C   0  0  0  0  0  0
  -21.4513  -29.4695   22.3765 N   0  0  0  0  0  0
  -26.4324  -37.3841   23.9371 N   0  0  0  0  0  0
  -24.7148  -31.0619   22.1077 N   0  0  0  0  0  0
  -23.3949  -28.7695   23.2768 O   0  0  0  0  0  0
  -28.2478  -26.4086   20.2512 O   0  0  0  0  0  0
  -26.5636  -34.8959   22.4734 O   0  0  0  0  0  0
  -23.5490  -32.1333   23.7391 O   0  0  0  0  0  0
  -27.3398  -19.7151   19.4541 C   0  0  0  0  0  0
  -28.0975  -20.0539   21.7183 C   0  0  0  0  0  0
  -27.3388  -20.5289   20.6154 C   0  0  0  0  0  0
  -28.9414  -18.1036   20.4573 C   0  0  0  0  0  0
  -28.1242  -18.5295   19.3725 C   0  0  0  0  0  0
  -28.8751  -18.8693   21.6526 C   0  0  0  0  0  0
  -25.3421  -23.9525   20.8288 C   0  0  0  0  0  0
  -24.1114  -24.1414   20.3303 C   0  0  0  0  0  0
  -25.8433  -24.6209   22.1037 C   0  0  0  0  0  0
  -27.3709  -24.8613   22.1616 C   0  0  0  0  0  0
  -27.6924  -23.7819   19.8922 C   0  0  0  0  0  0
  -28.0436  -25.0324   20.7936 C   0  0  1  0  0  0
  -23.5636  -23.6080   19.0204 C   0  0  0  0  0  0
  -30.0105  -16.9726   20.2908 C   0  0  0  0  0  0
  -26.3410  -21.6939   20.8462 C   0  0  0  0  0  0
  -29.7381  -15.5815   20.7367 N   0  0  0  0  0  0
  -26.3880  -23.0667   20.1893 N   0  3  1  0  0  0
  -28.0399  -17.6013   17.9161 Cl  0  0  0  0  0  0
  -29.7357  -18.3702   23.0669 Cl  0  0  0  0  0  0
  -31.4696  -12.4622   19.1428 H   0  0  0  0  0  0
  -30.3414  -11.3245   19.8353 H   0  0  0  0  0  0
  -29.7581  -11.7954   17.4350 H   0  0  0  0  0  0
  -29.6841  -13.5087   17.7687 H   0  0  0  0  0  0
  -27.7938  -11.3360   18.7504 H   0  0  0  0  0  0
  -27.3933  -12.7175   17.7643 H   0  0  0  0  0  0
  -27.6807  -14.2612   19.5766 H   0  0  0  0  0  0
  -28.6695  -11.9572   21.3300 H   0  0  0  0  0  0
  -28.4452  -13.5953   21.8743 H   0  0  0  0  0  0
  -25.2746   -9.5739   22.4721 H   0  0  0  0  0  0
  -24.0013   -7.4669   22.7475 H   0  0  0  0  0  0
  -21.0801   -8.8752   19.8962 H   0  0  0  0  0  0
  -22.3624  -10.9664   19.6152 H   0  0  0  0  0  0
  -21.2005   -7.6144   23.9703 H   0  0  0  0  0  0
  -21.1479   -6.0520   25.9066 H   0  0  0  0  0  0
  -22.0595   -2.7608   23.2856 H   0  0  0  0  0  0
  -22.4087  -11.9909   22.4848 H   0  0  0  0  0  0
  -21.1092  -13.1282   22.2658 H   0  0  0  0  0  0
  -24.6314  -15.8226   20.4741 H   0  0  0  0  0  0
  -26.2455  -15.6345   20.0288 H   0  0  0  0  0  0
  -26.7251  -32.5606   23.1317 H   0  0  0  0  0  0
  -25.0071  -33.9790   25.0512 H   0  0  0  0  0  0
  -22.7618  -31.3290   21.4102 H   0  0  0  0  0  0
  -23.3779  -35.9646   23.3297 H   0  0  0  0  0  0
  -24.3499  -36.8940   22.2048 H   0  0  0  0  0  0
  -23.7207  -37.6522   23.6645 H   0  0  0  0  0  0
  -26.0844  -31.5349   20.5932 H   0  0  0  0  0  0
  -26.8725  -30.8594   21.9896 H   0  0  0  0  0  0
  -28.1001  -28.9108   21.2610 H   0  0  0  0  0  0
  -25.9896  -25.9502   18.9543 H   0  0  0  0  0  0
  -23.9689  -27.3471   18.9677 H   0  0  0  0  0  0
  -23.7664  -30.5690   19.3951 H   0  0  0  0  0  0
  -22.7841  -29.2270   19.8804 H   0  0  0  0  0  0
  -25.1294  -36.2070   25.0805 H   0  0  0  0  0  0
  -20.1325  -28.7423   21.7994 H   0  0  0  0  0  0
  -20.6773  -26.4297   23.4223 H   0  0  0  0  0  0
  -21.6470  -26.8272   21.9984 H   0  0  0  0  0  0
  -19.5166  -27.0354   20.6352 H   0  0  0  0  0  0
  -19.6064  -25.4464   21.3976 H   0  0  0  0  0  0
  -17.3292  -26.4973   21.6214 H   0  0  0  0  0  0
  -18.0961  -26.0424   23.1010 H   0  0  0  0  0  0
  -19.7925  -30.7988   24.1252 H   0  0  0  0  0  0
  -17.5397  -31.6607   24.5496 H   0  0  0  0  0  0
  -15.5577  -30.3702   23.8370 H   0  0  0  0  0  0
  -15.8333  -28.1096   22.8283 H   0  0  0  0  0  0
  -24.6061  -30.6935   25.7815 H   0  0  0  0  0  0
  -24.8885  -32.2805   26.5000 H   0  0  0  0  0  0
  -25.8053  -30.8892   27.0372 H   0  0  0  0  0  0
  -26.2718  -29.6950   24.1280 H   0  0  0  0  0  0
  -27.3842  -29.7137   25.4744 H   0  0  0  0  0  0
  -27.8740  -30.4228   23.9515 H   0  0  0  0  0  0
  -27.2802  -33.3706   26.2225 H   0  0  0  0  0  0
  -28.4054  -32.6820   25.0572 H   0  0  0  0  0  0
  -28.0785  -31.8537   26.5659 H   0  0  0  0  0  0
  -28.2661  -38.0103   24.7557 H   0  0  0  0  0  0
  -28.1032  -36.2651   24.6275 H   0  0  0  0  0  0
  -27.2288  -37.1515   25.8861 H   0  0  0  0  0  0
  -21.0929  -30.1614   21.7303 H   0  0  0  0  0  0
  -26.0210  -38.2921   24.1359 H   0  0  0  0  0  0
  -26.6981  -19.9767   18.6234 H   0  0  0  0  0  0
  -28.0469  -20.5767   22.6610 H   0  0  0  0  0  0
  -23.4471  -24.8043   20.8810 H   0  0  0  0  0  0
  -25.5157  -23.9869   22.9316 H   0  0  0  0  0  0
  -25.3148  -25.5785   22.1996 H   0  0  0  0  0  0
  -27.6278  -25.6627   22.8598 H   0  0  0  0  0  0
  -27.8243  -23.9729   22.6066 H   0  0  0  0  0  0
  -28.4929  -23.0413   19.9630 H   0  0  0  0  0  0
  -27.6725  -24.0947   18.8450 H   0  0  0  0  0  0
  -29.0894  -24.8431   21.0488 H   0  0  0  0  0  0
  -24.1140  -22.7304   18.6789 H   0  0  0  0  0  0
  -23.6338  -24.3765   18.2459 H   0  0  0  0  0  0
  -22.5154  -23.3239   19.1298 H   0  0  0  0  0  0
  -30.9165  -17.3122   20.7895 H   0  0  0  0  0  0
  -30.2827  -16.9301   19.2338 H   0  0  0  0  0  0
  -26.3078  -21.8577   21.9255 H   0  0  0  0  0  0
  -25.3602  -21.2754   20.6090 H   0  0  0  0  0  0
  -28.8111  -15.3628   21.0327 H   0  0  0  0  0  0
  -26.0541  -22.8400   19.2657 H   0  0  0  0  0  0
  1 25  1  0  0  0
  1 30  2  0  0  0
  1 86  1  0  0  0
  2  3  1  0  0  0
  2 25  1  0  0  0
  2 90  1  0  0  0
  2 91  1  0  0  0
  3  4  1  0  0  0
  3 92  1  0  0  0
  3 93  1  0  0  0
  4  5  1  0  0  0
  4 94  1  0  0  0
  4 95  1  0  0  0
  5  6  1  0  0  0
  5 26  1  0  0  0
  5 96  1  0  0  0
  6 25  1  0  0  0
  6 97  1  0  0  0
  6 98  1  0  0  0
  7  8  2  0  0  0
  7 26  1  0  0  0
  7 29  1  0  0  0
  8  9  1  0  0  0
  8 22  1  0  0  0
  9 10  1  0  0  0
  9 27  2  0  0  0
 10 11  2  0  0  0
 10 15  1  0  0  0
 11 12  1  0  0  0
 11 99  1  0  0  0
 12 13  2  0  0  0
 12100  1  0  0  0
 13 14  1  0  0  0
 13 31  1  0  0  0
 14 15  2  0  0  0
 14101  1  0  0  0
 15102  1  0  0  0
 16 17  2  0  0  0
 16 21  1  0  0  0
 16 31  1  0  0  0
 17 18  1  0  0  0
 17103  1  0  0  0
 18 19  2  0  0  0
 18104  1  0  0  0
 19 20  1  0  0  0
 19 24  1  0  0  0
 20 21  2  0  0  0
 20105  1  0  0  0
 21 23  1  0  0  0
 22 28  1  0  0  0
 22 32  2  0  0  0
 26 27  1  0  0  0
 28106  1  0  0  0
 28107  1  0  0  0
 29108  1  0  0  0
 29109  1  0  0  0
 33 34  1  0  0  0
 33 66  1  0  0  0
 33 70  2  0  0  0
 34 36  1  0  0  0
 34 59  1  0  0  0
 34110  1  0  0  0
 35 44  2  0  0  0
 35 45  1  0  0  0
 35 68  1  0  0  0
 36 56  1  0  0  0
 36111  1  0  0  0
 37 39  1  0  0  0
 37 47  1  0  0  0
 37 66  1  0  0  0
 37112  1  0  0  0
 38 43  2  0  0  0
 38 46  1  0  0  0
 38 47  1  0  0  0
 39 64  1  0  0  0
 39 67  2  0  0  0
 40 52  1  0  0  0
 40 53  2  0  0  0
 40 58  1  0  0  0
 41113  1  0  0  0
 41114  1  0  0  0
 41115  1  0  0  0
 41 48  1  0  0  0
 42 43  1  0  0  0
 42 66  1  0  0  0
 42116  1  0  0  0
 42117  1  0  0  0
 43 44  1  0  0  0
 44118  1  0  0  0
 45 46  2  0  0  0
 45119  1  0  0  0
 46120  1  0  0  0
 47121  1  0  0  0
 47122  1  0  0  0
 48 56  1  0  0  0
 48 65  1  0  0  0
 48123  1  0  0  0
 49 50  1  0  0  0
 49 53  1  0  0  0
 49 64  1  0  0  0
 49124  1  0  0  0
 50 51  1  0  0  0
 50125  1  0  0  0
 50126  1  0  0  0
 51 52  1  0  0  0
 51127  1  0  0  0
 51128  1  0  0  0
 52129  1  0  0  0
 52130  1  0  0  0
 53 54  1  0  0  0
 54 55  2  0  0  0
 54131  1  0  0  0
 55 57  1  0  0  0
 55132  1  0  0  0
 56 69  2  0  0  0
 57 58  2  0  0  0
 57133  1  0  0  0
 58134  1  0  0  0
 59 60  1  0  0  0
 59 61  1  0  0  0
 59 62  1  0  0  0
 60135  1  0  0  0
 60136  1  0  0  0
 60137  1  0  0  0
 61138  1  0  0  0
 61139  1  0  0  0
 61140  1  0  0  0
 62141  1  0  0  0
 62142  1  0  0  0
 62143  1  0  0  0
 63 65  1  0  0  0
 63144  1  0  0  0
 63145  1  0  0  0
 63146  1  0  0  0
 64147  1  0  0  0
 65148  1  0  0  0
 68 82  1  0  0  0
 71 73  2  0  0  0
 71 75  1  0  0  0
 71149  1  0  0  0
 72 73  1  0  0  0
 72 76  2  0  0  0
 72150  1  0  0  0
 73 85  1  0  0  0
 74 75  2  0  0  0
 74 76  1  0  0  0
 74 84  1  0  0  0
 75 88  1  0  0  0
 76 89  1  0  0  0
 77 78  2  0  0  0
 77 79  1  0  0  0
 77 87  1  0  0  0
 78 83  1  0  0  0
 78151  1  0  0  0
 79 80  1  0  0  0
 79152  1  0  0  0
 79153  1  0  0  0
 80 82  1  0  0  0
 80154  1  0  0  0
 80155  1  0  0  0
 81 82  1  0  0  0
 81 87  1  0  0  0
 81156  1  0  0  0
 81157  1  0  0  0
 82158  1  0  0  0
 83159  1  0  0  0
 83160  1  0  0  0
 83161  1  0  0  0
 84 86  1  0  0  0
 84162  1  0  0  0
 84163  1  0  0  0
 85164  1  0  0  0
 85165  1  0  0  0
 85 87  1  0  0  0
 86166  1  0  0  0
 87167  1  0  0  0
M  CHG  1  87   1
M  ISO  4   1 100  68 101  82 101  86 100
M  END
> <chiral flag>
0

> <version>
0

> <s_m_source_file>
/data/baiqing/PycharmProjects/Reinvent-master-3.2/result/LINK_invent/BTK/process_docking_weight1_custom_product_contain_oxygen_bond_distance_aromatic_linkinvent_7_9_3/rearranged_h_0036.sdf

> <i_m_source_file_index>
93

> <r_mmod_Potential_Energy-OPLS-2005>
155.908828735352

> <r_mmod_Stretch_Energy-OPLS-2005>
66.7861785888672

> <r_mmod_Bend_Energy-OPLS-2005>
304.705688476562

> <r_mmod_Torsional_Energy-OPLS-2005>
279.48681640625

> <r_mmod_Improper_Torsional_Energy-OPLS-2005>
11.867359161377

> <r_mmod_Van_der_Waal_Energy-OPLS-2005>
135.376434326172

> <r_mmod_Electrostatic_Energy-OPLS-2005>
-273.639251708984

> <r_mmod_Solvation_Energy-OPLS-2005>
-440.608123779297

> <b_mmod_Minimization_Converged-OPLS-2005>
0

> <r_mmod_RMS_Derivative-OPLS-2005>
16.1284255981445

$$$$
93
                    3D
 Structure written by MMmdl.
166175  0  0  1  0            999 V2000
  -30.8012  -14.5439   20.4857 C   0  0  0  0  0  0
  -30.3950  -12.3486   19.4584 C   0  0  0  0  0  0
  -29.4956  -12.4961   18.2190 C   0  0  0  0  0  0
  -28.0247  -12.3418   18.6385 C   0  0  0  0  0  0
  -27.6483  -13.2388   19.8489 C   0  0  2  0  0  0
  -28.7006  -13.1755   20.9836 C   0  0  0  0  0  0
  -25.2553  -13.8225   20.5738 C   0  0  0  0  0  0
  -24.1851  -13.0474   20.9217 C   0  0  0  0  0  0
  -24.6436  -11.6934   20.8765 C   0  0  0  0  0  0
  -23.9114  -10.4287   21.0418 C   0  0  0  0  0  0
  -24.3651   -9.4188   21.9198 C   0  0  0  0  0  0
  -23.6296   -8.2250   22.0781 C   0  0  0  0  0  0
  -22.4284   -8.0302   21.3569 C   0  0  0  0  0  0
  -21.9926   -9.0280   20.4677 C   0  0  0  0  0  0
  -22.7279  -10.2137   20.3076 C   0  0  0  0  0  0
  -21.6847   -6.0757   22.5301 C   0  0  0  0  0  0
  -21.4004   -6.5661   23.8234 C   0  0  0  0  0  0
  -21.3651   -5.6816   24.9193 C   0  0  0  0  0  0
  -21.6034   -4.3079   24.7232 C   0  0  0  0  0  0
  -21.8800   -3.8170   23.4351 C   0  0  0  0  0  0
  -21.9165   -4.6983   22.3409 C   0  0  0  0  0  0
  -22.7841  -13.5222   21.1829 C   0  0  0  0  0  0
  -22.1648   -4.2181   21.0984 F   0  0  0  0  0  0
  -21.5601   -3.4552   25.7731 F   0  0  0  0  0  0
  -30.0213  -13.4267   20.3929 N   0  0  0  0  0  0
  -26.3008  -12.9471   20.3314 N   0  0  0  0  0  0
  -25.9386  -11.6598   20.5795 N   0  0  0  0  0  0
  -22.0454  -12.8283   22.0388 N   0  0  0  0  0  0
  -25.4155  -15.1977   20.4159 N   0  0  0  0  0  0
  -31.9707  -14.5148   20.1089 O   0  0  0  0  0  0
  -21.6634   -6.8916   21.4273 O   0  0  0  0  0  0
  -22.3543  -14.5519   20.6619 O   0  0  0  0  0  0
  -24.6143  -31.8654   23.2040 C   0  0  0  0  0  0
  -25.9017  -32.4778   23.8369 C   0  0  1  0  0  0
  -27.2374  -27.4169   20.1292 C   0  0  0  0  0  0
  -25.5857  -33.8562   24.2319 N   0  0  0  0  0  0
  -23.4063  -30.4918   21.5447 C   0  0  2  0  0  0
  -24.8602  -28.9643   20.1080 C   0  0  0  0  0  0
  -22.7414  -29.4661   22.4927 C   0  0  0  0  0  0
  -18.0297  -28.1336   22.8474 C   0  0  0  0  0  0
  -24.1506  -36.7392   23.2659 C   0  0  0  0  0  0
  -25.9347  -30.8393   21.3558 C   0  0  0  0  0  0
  -26.0189  -29.4728   20.7059 C   0  0  0  0  0  0
  -27.2151  -28.7132   20.7025 C   0  0  0  0  0  0
  -26.0693  -26.9484   19.4882 C   0  0  0  0  0  0
  -24.8813  -27.7022   19.4915 C   0  0  0  0  0  0
  -23.6161  -29.8268   20.1592 C   0  0  0  0  0  0
  -25.4084  -36.3055   24.0334 C   0  0  1  0  0  0
  -20.5879  -28.3673   23.1279 C   0  0  2  0  0  0
  -20.6792  -26.9410   22.5412 C   0  0  0  0  0  0
  -19.5770  -26.6344   21.5219 C   0  0  0  0  0  0
  -18.1943  -26.7881   22.1609 C   0  0  0  0  0  0
  -19.1532  -28.8818   23.2869 C   0  0  0  0  0  0
  -18.9458  -30.1419   23.8902 C   0  0  0  0  0  0
  -17.6448  -30.6540   24.0549 C   0  0  0  0  0  0
  -25.9028  -34.9428   23.5133 C   0  0  0  0  0  0
  -16.5345  -29.9022   23.6325 C   0  0  0  0  0  0
  -16.7282  -28.6434   23.0333 C   0  0  0  0  0  0
  -26.4417  -31.6551   25.0688 C   0  0  0  0  0  0
  -25.3681  -31.3617   26.1463 C   0  0  0  0  0  0
  -27.0285  -30.3028   24.6037 C   0  0  0  0  0  0
  -27.6027  -32.4262   25.7371 C   0  0  0  0  0  0
  -27.5552  -37.1831   24.8469 C   0  0  0  0  0  0
  -21.4146  -29.3063   22.3707 N   0  0  0  0  0  0
  -26.4276  -37.3731   23.9400 N   0  0  0  0  0  0
  -24.6700  -31.0778   22.0938 N   0  0  0  0  0  0
  -23.4181  -28.8220   23.2995 O   0  0  0  0  0  0
  -28.3534  -26.5967   20.2274 O   0  0  0  0  0  0
  -26.5594  -34.8873   22.4703 O   0  0  0  0  0  0
  -23.5352  -32.1392   23.7465 O   0  0  0  0  0  0
  -30.5967  -19.0403   19.4961 C   0  0  0  0  0  0
  -30.6436  -20.6534   21.7767 C   0  0  0  0  0  0
  -30.7084  -18.4132   20.7637 C   0  0  0  0  0  0
  -30.6856  -21.2939   20.5108 C   0  0  0  0  0  0
  -30.6935  -19.2464   21.9083 C   0  0  0  0  0  0
  -30.6068  -20.4537   19.3651 C   0  0  0  0  0  0
  -28.1909  -25.4561   22.4428 C   0  0  0  0  0  0
  -29.5995  -25.2138   22.9913 C   0  0  0  0  0  0
  -28.8979  -24.0974   20.3720 C   0  0  0  0  0  0
  -28.1018  -25.3316   20.9087 C   0  0  2  0  0  0
  -30.1926  -23.8799   22.5020 C   0  0  2  0  0  0
  -31.5785  -23.6934   23.1668 C   0  0  0  0  0  0
  -31.1817  -16.9431   20.8589 C   0  0  0  0  0  0
  -31.0673  -22.7983   20.3690 C   0  0  0  0  0  0
  -30.2738  -15.7537   20.8158 N   0  0  0  0  0  0
  -30.2362  -23.8756   21.0081 N   0  3  1  0  0  0
  -30.8831  -18.5912   23.4981 Cl  0  0  0  0  0  0
  -30.6443  -21.1191   17.7680 Cl  0  0  0  0  0  0
  -31.4477  -12.3681   19.1665 H   0  0  0  0  0  0
  -30.2419  -11.3768   19.9320 H   0  0  0  0  0  0
  -29.7561  -11.7460   17.4712 H   0  0  0  0  0  0
  -29.6552  -13.4689   17.7499 H   0  0  0  0  0  0
  -27.8709  -11.2934   18.8970 H   0  0  0  0  0  0
  -27.3651  -12.5451   17.7942 H   0  0  0  0  0  0
  -27.6416  -14.2612   19.4730 H   0  0  0  0  0  0
  -28.6983  -12.1990   21.4676 H   0  0  0  0  0  0
  -28.4758  -13.9058   21.7644 H   0  0  0  0  0  0
  -25.2780   -9.5646   22.4805 H   0  0  0  0  0  0
  -23.9970   -7.4635   22.7513 H   0  0  0  0  0  0
  -21.0844   -8.8828   19.8995 H   0  0  0  0  0  0
  -22.3748  -10.9700   19.6209 H   0  0  0  0  0  0
  -21.2042   -7.6175   23.9757 H   0  0  0  0  0  0
  -21.1483   -6.0542   25.9100 H   0  0  0  0  0  0
  -22.0581   -2.7635   23.2845 H   0  0  0  0  0  0
  -22.4008  -11.9975   22.4878 H   0  0  0  0  0  0
  -21.1081  -13.1389   22.2515 H   0  0  0  0  0  0
  -24.6371  -15.8397   20.5239 H   0  0  0  0  0  0
  -26.2621  -15.6522   20.1019 H   0  0  0  0  0  0
  -26.7102  -32.5536   23.1175 H   0  0  0  0  0  0
  -24.9954  -33.9695   25.0439 H   0  0  0  0  0  0
  -22.6987  -31.3103   21.4031 H   0  0  0  0  0  0
  -23.3655  -35.9842   23.3300 H   0  0  0  0  0  0
  -24.3669  -36.9041   22.2102 H   0  0  0  0  0  0
  -23.7386  -37.6637   23.6691 H   0  0  0  0  0  0
  -26.0387  -31.6036   20.5851 H   0  0  0  0  0  0
  -26.8232  -30.8991   21.9711 H   0  0  0  0  0  0
  -28.1066  -29.1017   21.1727 H   0  0  0  0  0  0
  -26.0602  -25.9781   19.0103 H   0  0  0  0  0  0
  -23.9920  -27.3054   19.0248 H   0  0  0  0  0  0
  -23.7155  -30.5997   19.3971 H   0  0  0  0  0  0
  -22.7405  -29.2461   19.8617 H   0  0  0  0  0  0
  -25.1261  -36.1939   25.0810 H   0  0  0  0  0  0
  -20.9928  -28.3260   24.1399 H   0  0  0  0  0  0
  -20.5714  -26.2304   23.3598 H   0  0  0  0  0  0
  -21.6675  -26.7455   22.1223 H   0  0  0  0  0  0
  -19.6955  -25.6241   21.1267 H   0  0  0  0  0  0
  -19.6685  -27.3154   20.6743 H   0  0  0  0  0  0
  -17.4227  -26.6642   21.3989 H   0  0  0  0  0  0
  -18.0336  -26.0005   22.8998 H   0  0  0  0  0  0
  -19.7947  -30.7230   24.2246 H   0  0  0  0  0  0
  -17.5009  -31.6220   24.5156 H   0  0  0  0  0  0
  -15.5334  -30.2892   23.7642 H   0  0  0  0  0  0
  -15.8703  -28.0734   22.7006 H   0  0  0  0  0  0
  -24.5922  -30.6879   25.7814 H   0  0  0  0  0  0
  -24.8748  -32.2739   26.4838 H   0  0  0  0  0  0
  -25.8016  -30.8944   27.0321 H   0  0  0  0  0  0
  -26.2909  -29.6904   24.0820 H   0  0  0  0  0  0
  -27.3815  -29.7157   25.4503 H   0  0  0  0  0  0
  -27.8805  -30.4419   23.9390 H   0  0  0  0  0  0
  -27.2733  -33.3590   26.1953 H   0  0  0  0  0  0
  -28.3722  -32.6727   25.0041 H   0  0  0  0  0  0
  -28.0762  -31.8377   26.5223 H   0  0  0  0  0  0
  -28.2475  -38.0181   24.7385 H   0  0  0  0  0  0
  -28.1103  -36.2682   24.6403 H   0  0  0  0  0  0
  -27.2268  -37.1597   25.8866 H   0  0  0  0  0  0
  -20.9284  -29.8806   21.6957 H   0  0  0  0  0  0
  -26.0133  -38.2799   24.1371 H   0  0  0  0  0  0
  -30.6393  -18.4405   18.5987 H   0  0  0  0  0  0
  -30.6861  -21.2087   22.6968 H   0  0  0  0  0  0
  -27.8169  -26.4233   22.7812 H   0  0  0  0  0  0
  -27.5263  -24.7125   22.8840 H   0  0  0  0  0  0
  -29.5441  -25.2085   24.0819 H   0  0  0  0  0  0
  -30.2581  -26.0388   22.7224 H   0  0  0  0  0  0
  -28.9851  -24.1748   19.2885 H   0  0  0  0  0  0
  -28.3051  -23.2006   20.5632 H   0  0  0  0  0  0
  -27.0609  -25.0561   20.7405 H   0  0  0  0  0  0
  -29.5285  -23.0727   22.8215 H   0  0  0  0  0  0
  -32.0893  -22.7626   22.9194 H   0  0  0  0  0  0
  -31.4815  -23.6833   24.2502 H   0  0  0  0  0  0
  -32.2543  -24.5053   22.8983 H   0  0  0  0  0  0
  -31.8240  -16.8339   21.7327 H   0  0  0  0  0  0
  -31.8816  -16.8842   20.0247 H   0  0  0  0  0  0
  -31.1844  -23.0821   19.3260 H   0  0  0  0  0  0
  -32.0909  -22.8938   20.7314 H   0  0  0  0  0  0
  -29.3048  -15.8455   21.0827 H   0  0  0  0  0  0
  -30.7500  -24.7167   20.7834 H   0  0  0  0  0  0
  1 25  1  0  0  0
  1 30  2  0  0  0
  1 85  1  0  0  0
  2  3  1  0  0  0
  2 25  1  0  0  0
  2 89  1  0  0  0
  2 90  1  0  0  0
  3  4  1  0  0  0
  3 91  1  0  0  0
  3 92  1  0  0  0
  4  5  1  0  0  0
  4 93  1  0  0  0
  4 94  1  0  0  0
  5  6  1  0  0  0
  5 26  1  0  0  0
  5 95  1  0  0  0
  6 25  1  0  0  0
  6 96  1  0  0  0
  6 97  1  0  0  0
  7  8  2  0  0  0
  7 26  1  0  0  0
  7 29  1  0  0  0
  8  9  1  0  0  0
  8 22  1  0  0  0
  9 10  1  0  0  0
  9 27  2  0  0  0
 10 11  2  0  0  0
 10 15  1  0  0  0
 11 12  1  0  0  0
 11 98  1  0  0  0
 12 13  2  0  0  0
 12 99  1  0  0  0
 13 14  1  0  0  0
 13 31  1  0  0  0
 14 15  2  0  0  0
 14100  1  0  0  0
 15101  1  0  0  0
 16 17  2  0  0  0
 16 21  1  0  0  0
 16 31  1  0  0  0
 17 18  1  0  0  0
 17102  1  0  0  0
 18 19  2  0  0  0
 18103  1  0  0  0
 19 20  1  0  0  0
 19 24  1  0  0  0
 20 21  2  0  0  0
 20104  1  0  0  0
 21 23  1  0  0  0
 22 28  1  0  0  0
 22 32  2  0  0  0
 26 27  1  0  0  0
 28105  1  0  0  0
 28106  1  0  0  0
 29107  1  0  0  0
 29108  1  0  0  0
 33 34  1  0  0  0
 33 66  1  0  0  0
 33 70  2  0  0  0
 34 36  1  0  0  0
 34 59  1  0  0  0
 34109  1  0  0  0
 35 44  2  0  0  0
 35 45  1  0  0  0
 35 68  1  0  0  0
 36 56  1  0  0  0
 36110  1  0  0  0
 37 39  1  0  0  0
 37 47  1  0  0  0
 37 66  1  0  0  0
 37111  1  0  0  0
 38 43  2  0  0  0
 38 46  1  0  0  0
 38 47  1  0  0  0
 39 64  1  0  0  0
 39 67  2  0  0  0
 40 52  1  0  0  0
 40 53  2  0  0  0
 40 58  1  0  0  0
 41112  1  0  0  0
 41113  1  0  0  0
 41114  1  0  0  0
 41 48  1  0  0  0
 42 43  1  0  0  0
 42 66  1  0  0  0
 42115  1  0  0  0
 42116  1  0  0  0
 43 44  1  0  0  0
 44117  1  0  0  0
 45 46  2  0  0  0
 45118  1  0  0  0
 46119  1  0  0  0
 47120  1  0  0  0
 47121  1  0  0  0
 48 56  1  0  0  0
 48 65  1  0  0  0
 48122  1  0  0  0
 49 50  1  0  0  0
 49 53  1  0  0  0
 49 64  1  0  0  0
 49123  1  0  0  0
 50 51  1  0  0  0
 50124  1  0  0  0
 50125  1  0  0  0
 51 52  1  0  0  0
 51126  1  0  0  0
 51127  1  0  0  0
 52128  1  0  0  0
 52129  1  0  0  0
 53 54  1  0  0  0
 54 55  2  0  0  0
 54130  1  0  0  0
 55 57  1  0  0  0
 55131  1  0  0  0
 56 69  2  0  0  0
 57 58  2  0  0  0
 57132  1  0  0  0
 58133  1  0  0  0
 59 60  1  0  0  0
 59 61  1  0  0  0
 59 62  1  0  0  0
 60134  1  0  0  0
 60135  1  0  0  0
 60136  1  0  0  0
 61137  1  0  0  0
 61138  1  0  0  0
 61139  1  0  0  0
 62140  1  0  0  0
 62141  1  0  0  0
 62142  1  0  0  0
 63 65  1  0  0  0
 63143  1  0  0  0
 63144  1  0  0  0
 63145  1  0  0  0
 64146  1  0  0  0
 65147  1  0  0  0
 68 80  1  0  0  0
 71 73  2  0  0  0
 71 76  1  0  0  0
 71148  1  0  0  0
 72 74  1  0  0  0
 72 75  2  0  0  0
 72149  1  0  0  0
 73 75  1  0  0  0
 73 83  1  0  0  0
 74 76  2  0  0  0
 74 84  1  0  0  0
 75 87  1  0  0  0
 76 88  1  0  0  0
 77 78  1  0  0  0
 77 80  1  0  0  0
 77150  1  0  0  0
 77151  1  0  0  0
 78 81  1  0  0  0
 78152  1  0  0  0
 78153  1  0  0  0
 79 80  1  0  0  0
 79 86  1  0  0  0
 79154  1  0  0  0
 79155  1  0  0  0
 80156  1  0  0  0
 81 82  1  0  0  0
 81 86  1  0  0  0
 81157  1  0  0  0
 82158  1  0  0  0
 82159  1  0  0  0
 82160  1  0  0  0
 83 85  1  0  0  0
 83161  1  0  0  0
 83162  1  0  0  0
 84163  1  0  0  0
 84164  1  0  0  0
 84 86  1  0  0  0
 85165  1  0  0  0
 86166  1  0  0  0
M  CHG  1  86   1
M  ISO  4   1 100  68 101  80 101  85 100
M  END
> <chiral flag>
0

> <version>
0

> <s_m_source_file>
/data/baiqing/PycharmProjects/Reinvent-master-3.2/result/LINK_invent/BTK/process_docking_weight1_custom_product_contain_oxygen_bond_distance_aromatic_linkinvent_7_9_3/rearranged_h_0036.sdf

> <i_m_source_file_index>
94

> <r_mmod_Potential_Energy-OPLS-2005>
-33.7833213806152

> <r_mmod_Stretch_Energy-OPLS-2005>
53.3093795776367

> <r_mmod_Bend_Energy-OPLS-2005>
155.273590087891

> <r_mmod_Torsional_Energy-OPLS-2005>
283.326995849609

> <r_mmod_Improper_Torsional_Energy-OPLS-2005>
8.28363800048828

> <r_mmod_Van_der_Waal_Energy-OPLS-2005>
170.17448425293

> <r_mmod_Electrostatic_Energy-OPLS-2005>
-324.30615234375

> <r_mmod_Solvation_Energy-OPLS-2005>
-419.601226806641

> <b_mmod_Minimization_Converged-OPLS-2005>
0

> <r_mmod_RMS_Derivative-OPLS-2005>
5.97760629653931

$$$$
94
                    3D
 Structure written by MMmdl.
173182  0  0  1  0            999 V2000
  -30.6745  -14.5258   20.5526 C   0  0  0  0  0  0
  -30.4273  -12.3407   19.4098 C   0  0  0  0  0  0
  -29.4933  -12.5055   18.1937 C   0  0  0  0  0  0
  -28.0134  -12.3614   18.6060 C   0  0  0  0  0  0
  -27.6533  -13.2100   19.8557 C   0  0  2  0  0  0
  -28.6993  -13.0147   20.9738 C   0  0  0  0  0  0
  -25.2565  -13.8171   20.5639 C   0  0  0  0  0  0
  -24.1838  -13.0440   20.9186 C   0  0  0  0  0  0
  -24.6396  -11.6910   20.8731 C   0  0  0  0  0  0
  -23.9068  -10.4292   21.0391 C   0  0  0  0  0  0
  -24.3627   -9.4211   21.9164 C   0  0  0  0  0  0
  -23.6305   -8.2250   22.0744 C   0  0  0  0  0  0
  -22.4282   -8.0284   21.3546 C   0  0  0  0  0  0
  -21.9918   -9.0255   20.4644 C   0  0  0  0  0  0
  -22.7244  -10.2132   20.3039 C   0  0  0  0  0  0
  -21.6857   -6.0743   22.5288 C   0  0  0  0  0  0
  -21.4011   -6.5645   23.8223 C   0  0  0  0  0  0
  -21.3655   -5.6793   24.9181 C   0  0  0  0  0  0
  -21.6045   -4.3056   24.7229 C   0  0  0  0  0  0
  -21.8823   -3.8152   23.4348 C   0  0  0  0  0  0
  -21.9195   -4.6971   22.3406 C   0  0  0  0  0  0
  -22.7861  -13.5235   21.1858 C   0  0  0  0  0  0
  -22.1660   -4.2166   21.0979 F   0  0  0  0  0  0
  -21.5634   -3.4532   25.7736 F   0  0  0  0  0  0
  -30.0187  -13.3400   20.4086 N   0  0  0  0  0  0
  -26.2985  -12.9333   20.3268 N   0  0  0  0  0  0
  -25.9314  -11.6503   20.5719 N   0  0  0  0  0  0
  -22.0499  -12.8223   22.0406 N   0  0  0  0  0  0
  -25.4282  -15.1889   20.4024 N   0  0  0  0  0  0
  -31.8380  -14.6916   20.1788 O   0  0  0  0  0  0
  -21.6644   -6.8881   21.4248 O   0  0  0  0  0  0
  -22.3535  -14.5537   20.6691 O   0  0  0  0  0  0
  -24.6211  -31.8642   23.2091 C   0  0  0  0  0  0
  -25.9084  -32.4800   23.8390 C   0  0  1  0  0  0
  -27.2258  -27.3783   20.0879 C   0  0  0  0  0  0
  -25.5919  -33.8600   24.2312 N   0  0  0  0  0  0
  -23.4097  -30.4913   21.5523 C   0  0  2  0  0  0
  -24.8500  -28.9545   20.1192 C   0  0  0  0  0  0
  -22.7435  -29.4650   22.4988 C   0  0  0  0  0  0
  -18.0280  -28.1383   22.8491 C   0  0  0  0  0  0
  -24.1485  -36.7304   23.2637 C   0  0  0  0  0  0
  -25.9466  -30.8156   21.3679 C   0  0  0  0  0  0
  -26.0202  -29.4482   20.7078 C   0  0  0  0  0  0
  -27.2106  -28.6728   20.6806 C   0  0  0  0  0  0
  -26.0139  -26.9081   19.5235 C   0  0  0  0  0  0
  -24.8441  -27.6855   19.5262 C   0  0  0  0  0  0
  -23.6179  -29.8292   20.1669 C   0  0  0  0  0  0
  -25.4105  -36.3091   24.0335 C   0  0  1  0  0  0
  -20.5873  -28.3672   23.1312 C   0  0  2  0  0  0
  -20.6773  -26.9409   22.5414 C   0  0  0  0  0  0
  -19.5746  -26.6387   21.5215 C   0  0  0  0  0  0
  -18.1925  -26.7931   22.1627 C   0  0  0  0  0  0
  -19.1533  -28.8844   23.2896 C   0  0  0  0  0  0
  -18.9459  -30.1455   23.8896 C   0  0  0  0  0  0
  -17.6459  -30.6586   24.0567 C   0  0  0  0  0  0
  -25.9045  -34.9458   23.5119 C   0  0  0  0  0  0
  -16.5348  -29.9084   23.6332 C   0  0  0  0  0  0
  -16.7269  -28.6506   23.0350 C   0  0  0  0  0  0
  -26.4494  -31.6597   25.0737 C   0  0  0  0  0  0
  -25.3764  -31.3713   26.1491 C   0  0  0  0  0  0
  -27.0319  -30.3025   24.6138 C   0  0  0  0  0  0
  -27.6054  -32.4328   25.7513 C   0  0  0  0  0  0
  -27.5579  -37.1802   24.8463 C   0  0  0  0  0  0
  -21.4161  -29.3033   22.3716 N   0  0  0  0  0  0
  -26.4282  -37.3786   23.9419 N   0  0  0  0  0  0
  -24.6782  -31.0712   22.1010 N   0  0  0  0  0  0
  -23.4187  -28.8184   23.3042 O   0  0  0  0  0  0
  -28.3966  -26.6147   20.0886 O   0  0  0  0  0  0
  -26.5605  -34.8922   22.4684 O   0  0  0  0  0  0
  -23.5388  -32.1412   23.7458 O   0  0  0  0  0  0
  -31.8972  -18.1619   20.2379 C   0  0  0  0  0  0
  -32.4182  -19.3950   19.8157 C   0  0  0  0  0  0
  -30.6552  -18.0815   20.8836 C   0  0  0  0  0  0
  -31.7051  -20.5957   20.0612 C   0  0  0  0  0  0
  -29.8335  -19.2570   20.9323 C   0  0  0  0  0  0
  -30.3513  -20.5407   20.5239 C   0  0  0  0  0  0
  -29.1663  -22.6697   18.2845 C   0  0  0  0  0  0
  -29.7083  -21.7345   17.4839 C   0  0  0  0  0  0
  -28.0433  -23.5958   17.8389 C   0  0  0  0  0  0
  -28.3095  -25.0615   18.1841 C   0  0  0  0  0  0
  -29.5620  -24.3694   20.2133 C   0  0  0  0  0  0
  -28.3444  -25.2048   19.7079 C   0  0  1  0  0  0
  -33.7851  -19.3941   19.1476 C   0  0  0  0  0  0
  -32.4410  -21.9228   19.8581 C   0  0  0  0  0  0
  -28.4150  -19.1459   21.4861 C   0  0  0  0  0  0
  -30.3854  -16.7822   21.6880 C   0  0  0  0  0  0
  -29.5060  -21.8547   20.6995 C   0  0  0  0  0  0
  -29.9258  -15.5491   21.0193 N   0  0  0  0  0  0
  -29.6915  -22.9510   19.6795 N   0  3  1  0  0  0
  -31.4677  -12.4629   19.1048 H   0  0  0  0  0  0
  -30.3506  -11.3332   19.8229 H   0  0  0  0  0  0
  -29.7419  -11.7731   17.4243 H   0  0  0  0  0  0
  -29.6518  -13.4860   17.7420 H   0  0  0  0  0  0
  -27.8274  -11.3058   18.8062 H   0  0  0  0  0  0
  -27.3633  -12.6277   17.7715 H   0  0  0  0  0  0
  -27.6855  -14.2544   19.5431 H   0  0  0  0  0  0
  -28.6934  -11.9799   21.3228 H   0  0  0  0  0  0
  -28.4575  -13.6205   21.8485 H   0  0  0  0  0  0
  -25.2778   -9.5700   22.4726 H   0  0  0  0  0  0
  -24.0042   -7.4638   22.7454 H   0  0  0  0  0  0
  -21.0860   -8.8757   19.8943 H   0  0  0  0  0  0
  -22.3701  -10.9662   19.6143 H   0  0  0  0  0  0
  -21.1993   -7.6150   23.9731 H   0  0  0  0  0  0
  -21.1475   -6.0515   25.9084 H   0  0  0  0  0  0
  -22.0604   -2.7619   23.2839 H   0  0  0  0  0  0
  -22.4117  -11.9895   22.4819 H   0  0  0  0  0  0
  -21.1098  -13.1220   22.2572 H   0  0  0  0  0  0
  -24.6608  -15.8435   20.5063 H   0  0  0  0  0  0
  -26.2742  -15.6258   20.0572 H   0  0  0  0  0  0
  -26.7151  -32.5486   23.1145 H   0  0  0  0  0  0
  -25.0068  -33.9755   25.0454 H   0  0  0  0  0  0
  -22.7006  -31.3106   21.4149 H   0  0  0  0  0  0
  -23.3743  -35.9643   23.3298 H   0  0  0  0  0  0
  -24.3575  -36.8920   22.2051 H   0  0  0  0  0  0
  -23.7243  -37.6509   23.6660 H   0  0  0  0  0  0
  -26.0678  -31.5827   20.6018 H   0  0  0  0  0  0
  -26.8309  -30.8617   21.9918 H   0  0  0  0  0  0
  -28.1165  -29.0554   21.1293 H   0  0  0  0  0  0
  -25.9196  -25.9308   19.0775 H   0  0  0  0  0  0
  -23.9383  -27.2921   19.0846 H   0  0  0  0  0  0
  -23.7355  -30.6058   19.4105 H   0  0  0  0  0  0
  -22.7378  -29.2576   19.8665 H   0  0  0  0  0  0
  -25.1280  -36.1942   25.0826 H   0  0  0  0  0  0
  -20.9964  -28.3234   24.1433 H   0  0  0  0  0  0
  -20.5688  -26.2277   23.3598 H   0  0  0  0  0  0
  -21.6645  -26.7453   22.1200 H   0  0  0  0  0  0
  -19.6914  -25.6298   21.1239 H   0  0  0  0  0  0
  -19.6691  -27.3201   20.6747 H   0  0  0  0  0  0
  -17.4200  -26.6677   21.4026 H   0  0  0  0  0  0
  -18.0335  -26.0069   22.9019 H   0  0  0  0  0  0
  -19.7936  -30.7284   24.2253 H   0  0  0  0  0  0
  -17.5013  -31.6271   24.5165 H   0  0  0  0  0  0
  -15.5351  -30.2992   23.7660 H   0  0  0  0  0  0
  -15.8671  -28.0833   22.7058 H   0  0  0  0  0  0
  -24.5933  -30.7053   25.7850 H   0  0  0  0  0  0
  -24.8973  -32.2873   26.4954 H   0  0  0  0  0  0
  -25.8132  -30.8884   27.0242 H   0  0  0  0  0  0
  -26.2863  -29.6792   24.1180 H   0  0  0  0  0  0
  -27.4051  -29.7254   25.4611 H   0  0  0  0  0  0
  -27.8729  -30.4319   23.9318 H   0  0  0  0  0  0
  -27.2649  -33.3616   26.2103 H   0  0  0  0  0  0
  -28.3870  -32.6900   25.0355 H   0  0  0  0  0  0
  -28.0719  -31.8451   26.5427 H   0  0  0  0  0  0
  -28.2581  -38.0113   24.7525 H   0  0  0  0  0  0
  -28.1087  -36.2644   24.6262 H   0  0  0  0  0  0
  -27.2305  -37.1420   25.8867 H   0  0  0  0  0  0
  -20.9328  -29.8755   21.6934 H   0  0  0  0  0  0
  -26.0160  -38.2854   24.1445 H   0  0  0  0  0  0
  -32.5062  -17.2720   20.1508 H   0  0  0  0  0  0
  -29.3304  -21.5853   16.4823 H   0  0  0  0  0  0
  -30.5275  -21.1007   17.7822 H   0  0  0  0  0  0
  -27.1051  -23.2576   18.2809 H   0  0  0  0  0  0
  -27.9167  -23.5054   16.7592 H   0  0  0  0  0  0
  -27.5492  -25.6859   17.7214 H   0  0  0  0  0  0
  -29.2552  -25.3951   17.7533 H   0  0  0  0  0  0
  -29.5832  -24.3863   21.3022 H   0  0  0  0  0  0
  -30.4677  -24.8912   19.9040 H   0  0  0  0  0  0
  -27.4545  -24.7539   20.1495 H   0  0  0  0  0  0
  -34.0389  -18.4032   18.7688 H   0  0  0  0  0  0
  -34.5625  -19.6921   19.8516 H   0  0  0  0  0  0
  -33.8003  -20.0759   18.2954 H   0  0  0  0  0  0
  -33.5164  -21.8148   19.9995 H   0  0  0  0  0  0
  -32.1447  -22.6687   20.5952 H   0  0  0  0  0  0
  -32.2890  -22.3205   18.8548 H   0  0  0  0  0  0
  -28.0803  -18.1127   21.5755 H   0  0  0  0  0  0
  -27.6960  -19.6180   20.8171 H   0  0  0  0  0  0
  -28.3389  -19.6132   22.4677 H   0  0  0  0  0  0
  -29.7000  -16.9885   22.5087 H   0  0  0  0  0  0
  -31.3180  -16.5379   22.2009 H   0  0  0  0  0  0
  -29.7724  -22.2298   21.6877 H   0  0  0  0  0  0
  -28.4385  -21.6525   20.7464 H   0  0  0  0  0  0
  -28.9576  -15.3165   21.1783 H   0  0  0  0  0  0
  -30.6954  -22.8914   19.5846 H   0  0  0  0  0  0
  1 25  1  0  0  0
  1 30  2  0  0  0
  1 88  1  0  0  0
  2  3  1  0  0  0
  2 25  1  0  0  0
  2 90  1  0  0  0
  2 91  1  0  0  0
  3  4  1  0  0  0
  3 92  1  0  0  0
  3 93  1  0  0  0
  4  5  1  0  0  0
  4 94  1  0  0  0
  4 95  1  0  0  0
  5  6  1  0  0  0
  5 26  1  0  0  0
  5 96  1  0  0  0
  6 25  1  0  0  0
  6 97  1  0  0  0
  6 98  1  0  0  0
  7  8  2  0  0  0
  7 26  1  0  0  0
  7 29  1  0  0  0
  8  9  1  0  0  0
  8 22  1  0  0  0
  9 10  1  0  0  0
  9 27  2  0  0  0
 10 11  2  0  0  0
 10 15  1  0  0  0
 11 12  1  0  0  0
 11 99  1  0  0  0
 12 13  2  0  0  0
 12100  1  0  0  0
 13 14  1  0  0  0
 13 31  1  0  0  0
 14 15  2  0  0  0
 14101  1  0  0  0
 15102  1  0  0  0
 16 17  2  0  0  0
 16 21  1  0  0  0
 16 31  1  0  0  0
 17 18  1  0  0  0
 17103  1  0  0  0
 18 19  2  0  0  0
 18104  1  0  0  0
 19 20  1  0  0  0
 19 24  1  0  0  0
 20 21  2  0  0  0
 20105  1  0  0  0
 21 23  1  0  0  0
 22 28  1  0  0  0
 22 32  2  0  0  0
 26 27  1  0  0  0
 28106  1  0  0  0
 28107  1  0  0  0
 29108  1  0  0  0
 29109  1  0  0  0
 33 34  1  0  0  0
 33 66  1  0  0  0
 33 70  2  0  0  0
 34 36  1  0  0  0
 34 59  1  0  0  0
 34110  1  0  0  0
 35 44  2  0  0  0
 35 45  1  0  0  0
 35 68  1  0  0  0
 36 56  1  0  0  0
 36111  1  0  0  0
 37 39  1  0  0  0
 37 47  1  0  0  0
 37 66  1  0  0  0
 37112  1  0  0  0
 38 43  2  0  0  0
 38 46  1  0  0  0
 38 47  1  0  0  0
 39 64  1  0  0  0
 39 67  2  0  0  0
 40 52  1  0  0  0
 40 53  2  0  0  0
 40 58  1  0  0  0
 41113  1  0  0  0
 41114  1  0  0  0
 41115  1  0  0  0
 41 48  1  0  0  0
 42 43  1  0  0  0
 42 66  1  0  0  0
 42116  1  0  0  0
 42117  1  0  0  0
 43 44  1  0  0  0
 44118  1  0  0  0
 45 46  2  0  0  0
 45119  1  0  0  0
 46120  1  0  0  0
 47121  1  0  0  0
 47122  1  0  0  0
 48 56  1  0  0  0
 48 65  1  0  0  0
 48123  1  0  0  0
 49 50  1  0  0  0
 49 53  1  0  0  0
 49 64  1  0  0  0
 49124  1  0  0  0
 50 51  1  0  0  0
 50125  1  0  0  0
 50126  1  0  0  0
 51 52  1  0  0  0
 51127  1  0  0  0
 51128  1  0  0  0
 52129  1  0  0  0
 52130  1  0  0  0
 53 54  1  0  0  0
 54 55  2  0  0  0
 54131  1  0  0  0
 55 57  1  0  0  0
 55132  1  0  0  0
 56 69  2  0  0  0
 57 58  2  0  0  0
 57133  1  0  0  0
 58134  1  0  0  0
 59 60  1  0  0  0
 59 61  1  0  0  0
 59 62  1  0  0  0
 60135  1  0  0  0
 60136  1  0  0  0
 60137  1  0  0  0
 61138  1  0  0  0
 61139  1  0  0  0
 61140  1  0  0  0
 62141  1  0  0  0
 62142  1  0  0  0
 62143  1  0  0  0
 63 65  1  0  0  0
 63144  1  0  0  0
 63145  1  0  0  0
 63146  1  0  0  0
 64147  1  0  0  0
 65148  1  0  0  0
 68 82  1  0  0  0
 71 72  2  0  0  0
 71 73  1  0  0  0
 71149  1  0  0  0
 72 74  1  0  0  0
 72 83  1  0  0  0
 73 75  2  0  0  0
 73 86  1  0  0  0
 74 76  2  0  0  0
 74 84  1  0  0  0
 75 76  1  0  0  0
 75 85  1  0  0  0
 76 87  1  0  0  0
 77 78  2  0  0  0
 77 79  1  0  0  0
 77 89  1  0  0  0
 78150  1  0  0  0
 78151  1  0  0  0
 79 80  1  0  0  0
 79152  1  0  0  0
 79153  1  0  0  0
 80 82  1  0  0  0
 80154  1  0  0  0
 80155  1  0  0  0
 81 82  1  0  0  0
 81 89  1  0  0  0
 81156  1  0  0  0
 81157  1  0  0  0
 82158  1  0  0  0
 83159  1  0  0  0
 83160  1  0  0  0
 83161  1  0  0  0
 84162  1  0  0  0
 84163  1  0  0  0
 84164  1  0  0  0
 85165  1  0  0  0
 85166  1  0  0  0
 85167  1  0  0  0
 86 88  1  0  0  0
 86168  1  0  0  0
 86169  1  0  0  0
 87170  1  0  0  0
 87171  1  0  0  0
 87 89  1  0  0  0
 88172  1  0  0  0
 89173  1  0  0  0
M  CHG  1  89   1
M  ISO  4   1 100  68 101  82 101  88 100
M  END
> <chiral flag>
0

> <version>
0

> <s_m_source_file>
/data/baiqing/PycharmProjects/Reinvent-master-3.2/result/LINK_invent/BTK/process_docking_weight1_custom_product_contain_oxygen_bond_distance_aromatic_linkinvent_7_9_3/rearranged_h_0036.sdf

> <i_m_source_file_index>
95

> <r_mmod_Potential_Energy-OPLS-2005>
-95.0065536499023

> <r_mmod_Stretch_Energy-OPLS-2005>
65.3255233764648

> <r_mmod_Bend_Energy-OPLS-2005>
147.244537353516

> <r_mmod_Torsional_Energy-OPLS-2005>
241.828033447266

> <r_mmod_Improper_Torsional_Energy-OPLS-2005>
5.38354682922363

> <r_mmod_Van_der_Waal_Energy-OPLS-2005>
168.723617553711

> <r_mmod_Electrostatic_Energy-OPLS-2005>
-337.088470458984

> <r_mmod_Solvation_Energy-OPLS-2005>
-409.6328125

> <b_mmod_Minimization_Converged-OPLS-2005>
0

> <r_mmod_RMS_Derivative-OPLS-2005>
1.69471502304077

$$$$
95
                    3D
 Structure written by MMmdl.
159167  0  0  1  0            999 V2000
  -30.7705  -14.3361   20.7162 C   0  0  0  0  0  0
  -30.4195  -12.2900   19.3792 C   0  0  0  0  0  0
  -29.4833  -12.5415   18.1833 C   0  0  0  0  0  0
  -28.0077  -12.3921   18.5984 C   0  0  0  0  0  0
  -27.6677  -13.2006   19.8772 C   0  0  2  0  0  0
  -28.7036  -12.9171   20.9860 C   0  0  0  0  0  0
  -25.2622  -13.8161   20.5689 C   0  0  0  0  0  0
  -24.1853  -13.0440   20.9163 C   0  0  0  0  0  0
  -24.6391  -11.6902   20.8698 C   0  0  0  0  0  0
  -23.9053  -10.4293   21.0395 C   0  0  0  0  0  0
  -24.3605   -9.4213   21.9176 C   0  0  0  0  0  0
  -23.6287   -8.2242   22.0750 C   0  0  0  0  0  0
  -22.4267   -8.0278   21.3542 C   0  0  0  0  0  0
  -21.9896   -9.0254   20.4648 C   0  0  0  0  0  0
  -22.7223  -10.2136   20.3052 C   0  0  0  0  0  0
  -21.6853   -6.0735   22.5281 C   0  0  0  0  0  0
  -21.4014   -6.5637   23.8214 C   0  0  0  0  0  0
  -21.3666   -5.6790   24.9177 C   0  0  0  0  0  0
  -21.6044   -4.3051   24.7223 C   0  0  0  0  0  0
  -21.8821   -3.8139   23.4347 C   0  0  0  0  0  0
  -21.9193   -4.6961   22.3404 C   0  0  0  0  0  0
  -22.7871  -13.5244   21.1831 C   0  0  0  0  0  0
  -22.1660   -4.2145   21.0980 F   0  0  0  0  0  0
  -21.5632   -3.4536   25.7736 F   0  0  0  0  0  0
  -30.0512  -13.2145   20.4604 N   0  0  0  0  0  0
  -26.3044  -12.9320   20.3345 N   0  0  0  0  0  0
  -25.9310  -11.6483   20.5701 N   0  0  0  0  0  0
  -22.0501  -12.8255   22.0398 N   0  0  0  0  0  0
  -25.4376  -15.1878   20.4162 N   0  0  0  0  0  0
  -31.7702  -14.6701   20.0720 O   0  0  0  0  0  0
  -21.6638   -6.8871   21.4240 O   0  0  0  0  0  0
  -22.3559  -14.5554   20.6694 O   0  0  0  0  0  0
  -24.6140  -31.8698   23.2118 C   0  0  0  0  0  0
  -25.9039  -32.4834   23.8401 C   0  0  1  0  0  0
  -27.2302  -27.4467   20.0880 C   0  0  0  0  0  0
  -25.5906  -33.8628   24.2341 N   0  0  0  0  0  0
  -23.4007  -30.4950   21.5534 C   0  0  2  0  0  0
  -24.8447  -28.9681   20.1142 C   0  0  0  0  0  0
  -22.7402  -29.4674   22.5001 C   0  0  0  0  0  0
  -18.0276  -28.1361   22.8491 C   0  0  0  0  0  0
  -24.1491  -36.7317   23.2639 C   0  0  0  0  0  0
  -25.9293  -30.8399   21.3640 C   0  0  0  0  0  0
  -26.0065  -29.4773   20.7069 C   0  0  0  0  0  0
  -27.2041  -28.7259   20.6885 C   0  0  0  0  0  0
  -26.0491  -26.9579   19.4811 C   0  0  0  0  0  0
  -24.8612  -27.7076   19.4966 C   0  0  0  0  0  0
  -23.6082  -29.8329   20.1662 C   0  0  0  0  0  0
  -25.4106  -36.3110   24.0339 C   0  0  1  0  0  0
  -20.5862  -28.3648   23.1327 C   0  0  2  0  0  0
  -20.6763  -26.9383   22.5428 C   0  0  0  0  0  0
  -19.5734  -26.6351   21.5228 C   0  0  0  0  0  0
  -18.1922  -26.7900   22.1640 C   0  0  0  0  0  0
  -19.1527  -28.8823   23.2901 C   0  0  0  0  0  0
  -18.9452  -30.1445   23.8896 C   0  0  0  0  0  0
  -17.6455  -30.6579   24.0556 C   0  0  0  0  0  0
  -25.9031  -34.9483   23.5132 C   0  0  0  0  0  0
  -16.5345  -29.9075   23.6320 C   0  0  0  0  0  0
  -16.7266  -28.6492   23.0344 C   0  0  0  0  0  0
  -26.4470  -31.6601   25.0716 C   0  0  0  0  0  0
  -25.3740  -31.3689   26.1464 C   0  0  0  0  0  0
  -27.0295  -30.3045   24.6083 C   0  0  0  0  0  0
  -27.6056  -32.4309   25.7469 C   0  0  0  0  0  0
  -27.5575  -37.1820   24.8466 C   0  0  0  0  0  0
  -21.4135  -29.3028   22.3743 N   0  0  0  0  0  0
  -26.4294  -37.3788   23.9403 N   0  0  0  0  0  0
  -24.6658  -31.0817   22.1013 N   0  0  0  0  0  0
  -23.4189  -28.8206   23.3018 O   0  0  0  0  0  0
  -28.3902  -26.6983   20.1045 O   0  0  0  0  0  0
  -26.5586  -34.8930   22.4690 O   0  0  0  0  0  0
  -23.5340  -32.1439   23.7537 O   0  0  0  0  0  0
  -29.5199  -17.6727   20.7659 C   0  0  0  0  0  0
  -29.3895  -19.7715   22.6199 C   0  0  0  0  0  0
  -30.1752  -17.5323   22.0104 C   0  0  0  0  0  0
  -28.7044  -19.8924   21.3908 C   0  0  0  0  0  0
  -30.1229  -18.6083   22.9317 C   0  0  0  0  0  0
  -28.7910  -18.8361   20.4536 C   0  0  0  0  0  0
  -30.9340  -16.2445   22.3393 C   0  0  0  0  0  0
  -27.8232  -21.1139   21.1325 C   0  0  0  0  0  0
  -29.5147  -24.5320   20.5898 C   0  0  0  0  0  0
  -29.3242  -23.1286   21.2214 C   0  0  0  0  0  0
  -28.1981  -25.3165   20.4383 C   0  0  0  0  0  0
  -30.3395  -15.0359   21.7715 N   0  0  0  0  0  0
  -28.4891  -22.2166   20.3991 N   0  3  0  0  0  0
  -30.9316  -18.5281   24.4584 Cl  0  0  0  0  0  0
  -28.0016  -18.9259   18.9189 Cl  0  0  0  0  0  0
  -31.4612  -12.4039   19.0728 H   0  0  0  0  0  0
  -30.3220  -11.2589   19.7250 H   0  0  0  0  0  0
  -29.7126  -11.8508   17.3712 H   0  0  0  0  0  0
  -29.6549  -13.5448   17.7888 H   0  0  0  0  0  0
  -27.8148  -11.3319   18.7691 H   0  0  0  0  0  0
  -27.3536  -12.6920   17.7788 H   0  0  0  0  0  0
  -27.7326  -14.2580   19.6191 H   0  0  0  0  0  0
  -28.6589  -11.8666   21.2781 H   0  0  0  0  0  0
  -28.4415  -13.4717   21.8867 H   0  0  0  0  0  0
  -25.2758   -9.5690   22.4742 H   0  0  0  0  0  0
  -24.0006   -7.4637   22.7471 H   0  0  0  0  0  0
  -21.0822   -8.8774   19.8960 H   0  0  0  0  0  0
  -22.3681  -10.9674   19.6156 H   0  0  0  0  0  0
  -21.2003   -7.6144   23.9716 H   0  0  0  0  0  0
  -21.1488   -6.0519   25.9084 H   0  0  0  0  0  0
  -22.0592   -2.7599   23.2849 H   0  0  0  0  0  0
  -22.4103  -11.9921   22.4816 H   0  0  0  0  0  0
  -21.1121  -13.1302   22.2590 H   0  0  0  0  0  0
  -24.6776  -15.8490   20.5344 H   0  0  0  0  0  0
  -26.3015  -15.6257   20.1225 H   0  0  0  0  0  0
  -26.7107  -32.5552   23.1168 H   0  0  0  0  0  0
  -25.0059  -33.9780   25.0486 H   0  0  0  0  0  0
  -22.6876  -31.3104   21.4181 H   0  0  0  0  0  0
  -23.3734  -35.9669   23.3330 H   0  0  0  0  0  0
  -24.3576  -36.8893   22.2044 H   0  0  0  0  0  0
  -23.7276  -37.6548   23.6626 H   0  0  0  0  0  0
  -26.0408  -31.6101   20.5993 H   0  0  0  0  0  0
  -26.8158  -30.8903   21.9838 H   0  0  0  0  0  0
  -28.1003  -29.1192   21.1476 H   0  0  0  0  0  0
  -26.0248  -26.0031   18.9772 H   0  0  0  0  0  0
  -23.9715  -27.3147   19.0257 H   0  0  0  0  0  0
  -23.7157  -30.6114   19.4095 H   0  0  0  0  0  0
  -22.7304  -29.2556   19.8696 H   0  0  0  0  0  0
  -25.1291  -36.1975   25.0832 H   0  0  0  0  0  0
  -20.9947  -28.3226   24.1456 H   0  0  0  0  0  0
  -20.5637  -26.2278   23.3626 H   0  0  0  0  0  0
  -21.6652  -26.7411   22.1263 H   0  0  0  0  0  0
  -19.6865  -25.6255   21.1271 H   0  0  0  0  0  0
  -19.6677  -27.3149   20.6740 H   0  0  0  0  0  0
  -17.4173  -26.6592   21.4071 H   0  0  0  0  0  0
  -18.0332  -26.0062   22.9075 H   0  0  0  0  0  0
  -19.7921  -30.7271   24.2259 H   0  0  0  0  0  0
  -17.5007  -31.6258   24.5150 H   0  0  0  0  0  0
  -15.5340  -30.2974   23.7639 H   0  0  0  0  0  0
  -15.8673  -28.0803   22.7051 H   0  0  0  0  0  0
  -24.5908  -30.7046   25.7800 H   0  0  0  0  0  0
  -24.8925  -32.2830   26.4938 H   0  0  0  0  0  0
  -25.8089  -30.8840   27.0214 H   0  0  0  0  0  0
  -26.2837  -29.6803   24.1153 H   0  0  0  0  0  0
  -27.4085  -29.7288   25.4539 H   0  0  0  0  0  0
  -27.8662  -30.4355   23.9219 H   0  0  0  0  0  0
  -27.2678  -33.3598   26.2079 H   0  0  0  0  0  0
  -28.3834  -32.6885   25.0265 H   0  0  0  0  0  0
  -28.0753  -31.8410   26.5351 H   0  0  0  0  0  0
  -28.2624  -38.0087   24.7473 H   0  0  0  0  0  0
  -28.1051  -36.2625   24.6349 H   0  0  0  0  0  0
  -27.2292  -37.1528   25.8871 H   0  0  0  0  0  0
  -20.9283  -29.8771   21.6993 H   0  0  0  0  0  0
  -26.0193  -38.2879   24.1376 H   0  0  0  0  0  0
  -29.5598  -16.8814   20.0325 H   0  0  0  0  0  0
  -29.3334  -20.5657   23.3507 H   0  0  0  0  0  0
  -30.9518  -16.0856   23.4179 H   0  0  0  0  0  0
  -31.9751  -16.3545   22.0334 H   0  0  0  0  0  0
  -27.4158  -21.4790   22.0763 H   0  0  0  0  0  0
  -26.9502  -20.8027   20.5590 H   0  0  0  0  0  0
  -30.0143  -24.4506   19.6246 H   0  0  0  0  0  0
  -30.1887  -25.1028   21.2299 H   0  0  0  0  0  0
  -28.8818  -23.2519   22.2118 H   0  0  0  0  0  0
  -30.2957  -22.6591   21.3793 H   0  0  0  0  0  0
  -27.6338  -25.2595   21.3719 H   0  0  0  0  0  0
  -27.6094  -24.8127   19.6731 H   0  0  0  0  0  0
  -29.5401  -14.6560   22.2564 H   0  0  0  0  0  0
  -27.7393  -22.7579   20.0033 H   0  0  0  0  0  0
  -29.0219  -21.8450   19.6296 H   0  0  0  0  0  0
  1 25  1  0  0  0
  1 30  2  0  0  0
  1 82  1  0  0  0
  2  3  1  0  0  0
  2 25  1  0  0  0
  2 86  1  0  0  0
  2 87  1  0  0  0
  3  4  1  0  0  0
  3 88  1  0  0  0
  3 89  1  0  0  0
  4  5  1  0  0  0
  4 90  1  0  0  0
  4 91  1  0  0  0
  5  6  1  0  0  0
  5 26  1  0  0  0
  5 92  1  0  0  0
  6 25  1  0  0  0
  6 93  1  0  0  0
  6 94  1  0  0  0
  7  8  2  0  0  0
  7 26  1  0  0  0
  7 29  1  0  0  0
  8  9  1  0  0  0
  8 22  1  0  0  0
  9 10  1  0  0  0
  9 27  2  0  0  0
 10 11  2  0  0  0
 10 15  1  0  0  0
 11 12  1  0  0  0
 11 95  1  0  0  0
 12 13  2  0  0  0
 12 96  1  0  0  0
 13 14  1  0  0  0
 13 31  1  0  0  0
 14 15  2  0  0  0
 14 97  1  0  0  0
 15 98  1  0  0  0
 16 17  2  0  0  0
 16 21  1  0  0  0
 16 31  1  0  0  0
 17 18  1  0  0  0
 17 99  1  0  0  0
 18 19  2  0  0  0
 18100  1  0  0  0
 19 20  1  0  0  0
 19 24  1  0  0  0
 20 21  2  0  0  0
 20101  1  0  0  0
 21 23  1  0  0  0
 22 28  1  0  0  0
 22 32  2  0  0  0
 26 27  1  0  0  0
 28102  1  0  0  0
 28103  1  0  0  0
 29104  1  0  0  0
 29105  1  0  0  0
 33 34  1  0  0  0
 33 66  1  0  0  0
 33 70  2  0  0  0
 34 36  1  0  0  0
 34 59  1  0  0  0
 34106  1  0  0  0
 35 44  2  0  0  0
 35 45  1  0  0  0
 35 68  1  0  0  0
 36 56  1  0  0  0
 36107  1  0  0  0
 37 39  1  0  0  0
 37 47  1  0  0  0
 37 66  1  0  0  0
 37108  1  0  0  0
 38 43  2  0  0  0
 38 46  1  0  0  0
 38 47  1  0  0  0
 39 64  1  0  0  0
 39 67  2  0  0  0
 40 52  1  0  0  0
 40 53  2  0  0  0
 40 58  1  0  0  0
 41109  1  0  0  0
 41110  1  0  0  0
 41111  1  0  0  0
 41 48  1  0  0  0
 42 43  1  0  0  0
 42 66  1  0  0  0
 42112  1  0  0  0
 42113  1  0  0  0
 43 44  1  0  0  0
 44114  1  0  0  0
 45 46  2  0  0  0
 45115  1  0  0  0
 46116  1  0  0  0
 47117  1  0  0  0
 47118  1  0  0  0
 48 56  1  0  0  0
 48 65  1  0  0  0
 48119  1  0  0  0
 49 50  1  0  0  0
 49 53  1  0  0  0
 49 64  1  0  0  0
 49120  1  0  0  0
 50 51  1  0  0  0
 50121  1  0  0  0
 50122  1  0  0  0
 51 52  1  0  0  0
 51123  1  0  0  0
 51124  1  0  0  0
 52125  1  0  0  0
 52126  1  0  0  0
 53 54  1  0  0  0
 54 55  2  0  0  0
 54127  1  0  0  0
 55 57  1  0  0  0
 55128  1  0  0  0
 56 69  2  0  0  0
 57 58  2  0  0  0
 57129  1  0  0  0
 58130  1  0  0  0
 59 60  1  0  0  0
 59 61  1  0  0  0
 59 62  1  0  0  0
 60131  1  0  0  0
 60132  1  0  0  0
 60133  1  0  0  0
 61134  1  0  0  0
 61135  1  0  0  0
 61136  1  0  0  0
 62137  1  0  0  0
 62138  1  0  0  0
 62139  1  0  0  0
 63 65  1  0  0  0
 63140  1  0  0  0
 63141  1  0  0  0
 63142  1  0  0  0
 64143  1  0  0  0
 65144  1  0  0  0
 68 81  1  0  0  0
 71 73  2  0  0  0
 71 76  1  0  0  0
 71145  1  0  0  0
 72 74  1  0  0  0
 72 75  2  0  0  0
 72146  1  0  0  0
 73 75  1  0  0  0
 73 77  1  0  0  0
 74 76  2  0  0  0
 74 78  1  0  0  0
 75 84  1  0  0  0
 76 85  1  0  0  0
 77 82  1  0  0  0
 77147  1  0  0  0
 77148  1  0  0  0
 78 83  1  0  0  0
 78149  1  0  0  0
 78150  1  0  0  0
 79 80  1  0  0  0
 79 81  1  0  0  0
 79151  1  0  0  0
 79152  1  0  0  0
 80 83  1  0  0  0
 80153  1  0  0  0
 80154  1  0  0  0
 81155  1  0  0  0
 81156  1  0  0  0
 82157  1  0  0  0
 83158  1  0  0  0
 83159  1  0  0  0
M  CHG  1  83   1
M  ISO  4   1 100  68 101  81 101  82 100
M  END
> <chiral flag>
0

> <version>
0

> <s_m_source_file>
/data/baiqing/PycharmProjects/Reinvent-master-3.2/result/LINK_invent/BTK/process_docking_weight1_custom_product_contain_oxygen_bond_distance_aromatic_linkinvent_7_9_3/rearranged_h_0036.sdf

> <i_m_source_file_index>
96

> <r_mmod_Potential_Energy-OPLS-2005>
-338.915008544922

> <r_mmod_Stretch_Energy-OPLS-2005>
34.2291793823242

> <r_mmod_Bend_Energy-OPLS-2005>
90.0460586547852

> <r_mmod_Torsional_Energy-OPLS-2005>
202.370178222656

> <r_mmod_Improper_Torsional_Energy-OPLS-2005>
1.98848819732666

> <r_mmod_Van_der_Waal_Energy-OPLS-2005>
153.71711730957

> <r_mmod_Electrostatic_Energy-OPLS-2005>
-348.312255859375

> <r_mmod_Solvation_Energy-OPLS-2005>
-481.584930419922

> <b_mmod_Minimization_Converged-OPLS-2005>
0

> <r_mmod_RMS_Derivative-OPLS-2005>
1.85295510292053

$$$$
96
                    3D
 Structure written by MMmdl.
170179  0  0  1  0            999 V2000
  -30.6134  -14.6440   20.4799 C   0  0  0  0  0  0
  -30.4360  -12.3906   19.4495 C   0  0  0  0  0  0
  -29.5060  -12.5044   18.2200 C   0  0  0  0  0  0
  -28.0269  -12.3485   18.6285 C   0  0  0  0  0  0
  -27.6499  -13.2165   19.8594 C   0  0  2  0  0  0
  -28.6961  -13.0698   20.9879 C   0  0  0  0  0  0
  -25.2462  -13.8078   20.5514 C   0  0  0  0  0  0
  -24.1793  -13.0373   20.9192 C   0  0  0  0  0  0
  -24.6396  -11.6864   20.8785 C   0  0  0  0  0  0
  -23.9072  -10.4255   21.0436 C   0  0  0  0  0  0
  -24.3621   -9.4172   21.9210 C   0  0  0  0  0  0
  -23.6288   -8.2217   22.0767 C   0  0  0  0  0  0
  -22.4275   -8.0266   21.3549 C   0  0  0  0  0  0
  -21.9916   -9.0244   20.4651 C   0  0  0  0  0  0
  -22.7251  -10.2115   20.3068 C   0  0  0  0  0  0
  -21.6846   -6.0735   22.5280 C   0  0  0  0  0  0
  -21.4006   -6.5640   23.8214 C   0  0  0  0  0  0
  -21.3655   -5.6794   24.9178 C   0  0  0  0  0  0
  -21.6045   -4.3056   24.7227 C   0  0  0  0  0  0
  -21.8822   -3.8145   23.4347 C   0  0  0  0  0  0
  -21.9190   -4.6964   22.3403 C   0  0  0  0  0  0
  -22.7817  -13.5180   21.1850 C   0  0  0  0  0  0
  -22.1663   -4.2155   21.0981 F   0  0  0  0  0  0
  -21.5629   -3.4539   25.7741 F   0  0  0  0  0  0
  -30.0117  -13.4140   20.4244 N   0  0  0  0  0  0
  -26.2962  -12.9314   20.3278 N   0  0  0  0  0  0
  -25.9331  -11.6476   20.5795 N   0  0  0  0  0  0
  -22.0467  -12.8191   22.0417 N   0  0  0  0  0  0
  -25.3948  -15.1737   20.3548 N   0  0  0  0  0  0
  -31.7813  -14.8008   20.1102 O   0  0  0  0  0  0
  -21.6631   -6.8875   21.4241 O   0  0  0  0  0  0
  -22.3516  -14.5506   20.6706 O   0  0  0  0  0  0
  -24.6229  -31.8616   23.1990 C   0  0  0  0  0  0
  -25.9081  -32.4776   23.8328 C   0  0  1  0  0  0
  -27.2390  -27.3405   20.1074 C   0  0  0  0  0  0
  -25.5925  -33.8576   24.2260 N   0  0  0  0  0  0
  -23.4172  -30.4798   21.5429 C   0  0  2  0  0  0
  -24.8665  -28.9251   20.1180 C   0  0  0  0  0  0
  -22.7473  -29.4614   22.4946 C   0  0  0  0  0  0
  -18.0296  -28.1372   22.8451 C   0  0  0  0  0  0
  -24.1526  -36.7282   23.2648 C   0  0  0  0  0  0
  -25.9554  -30.7924   21.3690 C   0  0  0  0  0  0
  -26.0330  -29.4196   20.7152 C   0  0  0  0  0  0
  -27.2235  -28.6382   20.6980 C   0  0  0  0  0  0
  -26.0518  -26.8803   19.5022 C   0  0  0  0  0  0
  -24.8762  -27.6578   19.5077 C   0  0  0  0  0  0
  -23.6327  -29.8033   20.1631 C   0  0  0  0  0  0
  -25.4141  -36.3072   24.0338 C   0  0  1  0  0  0
  -20.5893  -28.3661   23.1280 C   0  0  2  0  0  0
  -20.6802  -26.9387   22.5403 C   0  0  0  0  0  0
  -19.5784  -26.6370   21.5199 C   0  0  0  0  0  0
  -18.1951  -26.7914   22.1596 C   0  0  0  0  0  0
  -19.1545  -28.8833   23.2856 C   0  0  0  0  0  0
  -18.9474  -30.1444   23.8850 C   0  0  0  0  0  0
  -17.6478  -30.6565   24.0556 C   0  0  0  0  0  0
  -25.9078  -34.9448   23.5104 C   0  0  0  0  0  0
  -16.5366  -29.9061   23.6332 C   0  0  0  0  0  0
  -16.7292  -28.6498   23.0311 C   0  0  0  0  0  0
  -26.4474  -31.6594   25.0698 C   0  0  0  0  0  0
  -25.3696  -31.3733   26.1425 C   0  0  0  0  0  0
  -27.0343  -30.3032   24.6131 C   0  0  0  0  0  0
  -27.6024  -32.4339   25.7454 C   0  0  0  0  0  0
  -27.5595  -37.1799   24.8465 C   0  0  0  0  0  0
  -21.4194  -29.3014   22.3679 N   0  0  0  0  0  0
  -26.4313  -37.3763   23.9414 N   0  0  0  0  0  0
  -24.6838  -31.0629   22.0936 N   0  0  0  0  0  0
  -23.4203  -28.8179   23.3028 O   0  0  0  0  0  0
  -28.3888  -26.5500   20.0515 O   0  0  0  0  0  0
  -26.5639  -34.8905   22.4670 O   0  0  0  0  0  0
  -23.5402  -32.1417   23.7325 O   0  0  0  0  0  0
  -28.6316  -19.3331   20.4928 C   0  0  0  0  0  0
  -30.9405  -17.8349   20.0230 C   0  0  0  0  0  0
  -29.7311  -20.0247   19.9290 C   0  0  0  0  0  0
  -28.6758  -17.9446   20.8200 C   0  0  0  0  0  0
  -30.9099  -19.2346   19.7294 C   0  0  0  0  0  0
  -29.8238  -17.1370   20.5513 C   0  0  0  0  0  0
  -29.1338  -24.1143   19.7915 C   0  0  0  0  0  0
  -29.7684  -24.4267   18.6432 C   0  0  0  0  0  0
  -28.7536  -24.4577   23.1403 C   0  0  0  0  0  0
  -28.8317  -22.9593   22.8109 C   0  0  0  0  0  0
  -29.0655  -25.4400   21.9992 C   0  0  0  0  0  0
  -29.8132  -22.5720   21.6936 C   0  0  0  0  0  0
  -28.3738  -25.1986   20.6421 C   0  0  1  0  0  0
  -27.4321  -17.3649   21.4664 C   0  0  0  0  0  0
  -32.1784  -19.8487   19.1569 C   0  0  0  0  0  0
  -29.6033  -21.5305   19.4426 C   0  0  0  0  0  0
  -29.7882  -15.6916   20.8082 N   0  0  0  0  0  0
  -29.1555  -22.6590   20.3688 N   0  3  1  0  0  0
  -31.4782  -12.5152   19.1486 H   0  0  0  0  0  0
  -30.3689  -11.3966   19.8936 H   0  0  0  0  0  0
  -29.7691  -11.7476   17.4795 H   0  0  0  0  0  0
  -29.6541  -13.4708   17.7341 H   0  0  0  0  0  0
  -27.8557  -11.2952   18.8532 H   0  0  0  0  0  0
  -27.3777  -12.5896   17.7856 H   0  0  0  0  0  0
  -27.6650  -14.2527   19.5213 H   0  0  0  0  0  0
  -28.7065  -12.0471   21.3672 H   0  0  0  0  0  0
  -28.4413  -13.7003   21.8412 H   0  0  0  0  0  0
  -25.2759   -9.5660   22.4786 H   0  0  0  0  0  0
  -23.9996   -7.4608   22.7489 H   0  0  0  0  0  0
  -21.0848   -8.8768   19.8944 H   0  0  0  0  0  0
  -22.3719  -10.9666   19.6179 H   0  0  0  0  0  0
  -21.1996   -7.6150   23.9722 H   0  0  0  0  0  0
  -21.1473   -6.0524   25.9088 H   0  0  0  0  0  0
  -22.0602   -2.7605   23.2844 H   0  0  0  0  0  0
  -22.4075  -11.9834   22.4786 H   0  0  0  0  0  0
  -21.1088  -13.1222   22.2631 H   0  0  0  0  0  0
  -24.5901  -15.7896   20.3895 H   0  0  0  0  0  0
  -26.1875  -15.5833   19.8784 H   0  0  0  0  0  0
  -26.7156  -32.5440   23.1075 H   0  0  0  0  0  0
  -25.0035  -33.9720   25.0368 H   0  0  0  0  0  0
  -22.7095  -31.2959   21.3942 H   0  0  0  0  0  0
  -23.3780  -35.9630   23.3322 H   0  0  0  0  0  0
  -24.3610  -36.8907   22.2062 H   0  0  0  0  0  0
  -23.7290  -37.6484   23.6666 H   0  0  0  0  0  0
  -26.0900  -31.5562   20.6015 H   0  0  0  0  0  0
  -26.8336  -30.8401   22.0008 H   0  0  0  0  0  0
  -28.1258  -29.0194   21.1552 H   0  0  0  0  0  0
  -26.0363  -25.9180   19.0110 H   0  0  0  0  0  0
  -23.9819  -27.2747   19.0396 H   0  0  0  0  0  0
  -23.7492  -30.5765   19.4030 H   0  0  0  0  0  0
  -22.7507  -29.2316   19.8668 H   0  0  0  0  0  0
  -25.1329  -36.1930   25.0834 H   0  0  0  0  0  0
  -20.9973  -28.3256   24.1412 H   0  0  0  0  0  0
  -20.5764  -26.2252   23.3597 H   0  0  0  0  0  0
  -21.6666  -26.7478   22.1163 H   0  0  0  0  0  0
  -19.6982  -25.6296   21.1211 H   0  0  0  0  0  0
  -19.6746  -27.3184   20.6739 H   0  0  0  0  0  0
  -17.4242  -26.6644   21.3987 H   0  0  0  0  0  0
  -18.0360  -26.0061   22.8993 H   0  0  0  0  0  0
  -19.7967  -30.7255   24.2189 H   0  0  0  0  0  0
  -17.5044  -31.6249   24.5160 H   0  0  0  0  0  0
  -15.5363  -30.2941   23.7693 H   0  0  0  0  0  0
  -15.8697  -28.0839   22.6983 H   0  0  0  0  0  0
  -24.5842  -30.7120   25.7747 H   0  0  0  0  0  0
  -24.8892  -32.2911   26.4825 H   0  0  0  0  0  0
  -25.7992  -30.8907   27.0216 H   0  0  0  0  0  0
  -26.2920  -29.6751   24.1185 H   0  0  0  0  0  0
  -27.4106  -29.7308   25.4617 H   0  0  0  0  0  0
  -27.8759  -30.4353   23.9326 H   0  0  0  0  0  0
  -27.2632  -33.3643   26.2007 H   0  0  0  0  0  0
  -28.3828  -32.6892   25.0281 H   0  0  0  0  0  0
  -28.0693  -31.8479   26.5386 H   0  0  0  0  0  0
  -28.2585  -38.0115   24.7500 H   0  0  0  0  0  0
  -28.1119  -36.2628   24.6315 H   0  0  0  0  0  0
  -27.2296  -37.1466   25.8863 H   0  0  0  0  0  0
  -20.9371  -29.8695   21.6846 H   0  0  0  0  0  0
  -26.0206  -38.2854   24.1377 H   0  0  0  0  0  0
  -27.7101  -19.8724   20.6667 H   0  0  0  0  0  0
  -31.8508  -17.2895   19.8219 H   0  0  0  0  0  0
  -29.7626  -25.4429   18.2741 H   0  0  0  0  0  0
  -30.3113  -23.7135   18.0457 H   0  0  0  0  0  0
  -29.4493  -24.6715   23.9539 H   0  0  0  0  0  0
  -27.7632  -24.6731   23.5460 H   0  0  0  0  0  0
  -27.8355  -22.5826   22.5719 H   0  0  0  0  0  0
  -29.1210  -22.4320   23.7217 H   0  0  0  0  0  0
  -30.1433  -25.4966   21.8410 H   0  0  0  0  0  0
  -28.7886  -26.4303   22.3646 H   0  0  0  0  0  0
  -30.1336  -21.5516   21.9017 H   0  0  0  0  0  0
  -30.7280  -23.1658   21.7167 H   0  0  0  0  0  0
  -27.3464  -24.8670   20.7977 H   0  0  0  0  0  0
  -27.2813  -17.8160   22.4473 H   0  0  0  0  0  0
  -27.4743  -16.2872   21.6107 H   0  0  0  0  0  0
  -26.5562  -17.5943   20.8592 H   0  0  0  0  0  0
  -33.0212  -19.1595   19.2181 H   0  0  0  0  0  0
  -32.4605  -20.7430   19.7123 H   0  0  0  0  0  0
  -32.0419  -20.1124   18.1068 H   0  0  0  0  0  0
  -28.9288  -21.5261   18.5852 H   0  0  0  0  0  0
  -30.5667  -21.8244   19.0385 H   0  0  0  0  0  0
  -28.8951  -15.3641   21.1399 H   0  0  0  0  0  0
  -28.1979  -22.4110   20.5631 H   0  0  0  0  0  0
  1 25  1  0  0  0
  1 30  2  0  0  0
  1 87  1  0  0  0
  2  3  1  0  0  0
  2 25  1  0  0  0
  2 89  1  0  0  0
  2 90  1  0  0  0
  3  4  1  0  0  0
  3 91  1  0  0  0
  3 92  1  0  0  0
  4  5  1  0  0  0
  4 93  1  0  0  0
  4 94  1  0  0  0
  5  6  1  0  0  0
  5 26  1  0  0  0
  5 95  1  0  0  0
  6 25  1  0  0  0
  6 96  1  0  0  0
  6 97  1  0  0  0
  7  8  2  0  0  0
  7 26  1  0  0  0
  7 29  1  0  0  0
  8  9  1  0  0  0
  8 22  1  0  0  0
  9 10  1  0  0  0
  9 27  2  0  0  0
 10 11  2  0  0  0
 10 15  1  0  0  0
 11 12  1  0  0  0
 11 98  1  0  0  0
 12 13  2  0  0  0
 12 99  1  0  0  0
 13 14  1  0  0  0
 13 31  1  0  0  0
 14 15  2  0  0  0
 14100  1  0  0  0
 15101  1  0  0  0
 16 17  2  0  0  0
 16 21  1  0  0  0
 16 31  1  0  0  0
 17 18  1  0  0  0
 17102  1  0  0  0
 18 19  2  0  0  0
 18103  1  0  0  0
 19 20  1  0  0  0
 19 24  1  0  0  0
 20 21  2  0  0  0
 20104  1  0  0  0
 21 23  1  0  0  0
 22 28  1  0  0  0
 22 32  2  0  0  0
 26 27  1  0  0  0
 28105  1  0  0  0
 28106  1  0  0  0
 29107  1  0  0  0
 29108  1  0  0  0
 33 34  1  0  0  0
 33 66  1  0  0  0
 33 70  2  0  0  0
 34 36  1  0  0  0
 34 59  1  0  0  0
 34109  1  0  0  0
 35 44  2  0  0  0
 35 45  1  0  0  0
 35 68  1  0  0  0
 36 56  1  0  0  0
 36110  1  0  0  0
 37 39  1  0  0  0
 37 47  1  0  0  0
 37 66  1  0  0  0
 37111  1  0  0  0
 38 43  2  0  0  0
 38 46  1  0  0  0
 38 47  1  0  0  0
 39 64  1  0  0  0
 39 67  2  0  0  0
 40 52  1  0  0  0
 40 53  2  0  0  0
 40 58  1  0  0  0
 41112  1  0  0  0
 41113  1  0  0  0
 41114  1  0  0  0
 41 48  1  0  0  0
 42 43  1  0  0  0
 42 66  1  0  0  0
 42115  1  0  0  0
 42116  1  0  0  0
 43 44  1  0  0  0
 44117  1  0  0  0
 45 46  2  0  0  0
 45118  1  0  0  0
 46119  1  0  0  0
 47120  1  0  0  0
 47121  1  0  0  0
 48 56  1  0  0  0
 48 65  1  0  0  0
 48122  1  0  0  0
 49 50  1  0  0  0
 49 53  1  0  0  0
 49 64  1  0  0  0
 49123  1  0  0  0
 50 51  1  0  0  0
 50124  1  0  0  0
 50125  1  0  0  0
 51 52  1  0  0  0
 51126  1  0  0  0
 51127  1  0  0  0
 52128  1  0  0  0
 52129  1  0  0  0
 53 54  1  0  0  0
 54 55  2  0  0  0
 54130  1  0  0  0
 55 57  1  0  0  0
 55131  1  0  0  0
 56 69  2  0  0  0
 57 58  2  0  0  0
 57132  1  0  0  0
 58133  1  0  0  0
 59 60  1  0  0  0
 59 61  1  0  0  0
 59 62  1  0  0  0
 60134  1  0  0  0
 60135  1  0  0  0
 60136  1  0  0  0
 61137  1  0  0  0
 61138  1  0  0  0
 61139  1  0  0  0
 62140  1  0  0  0
 62141  1  0  0  0
 62142  1  0  0  0
 63 65  1  0  0  0
 63143  1  0  0  0
 63144  1  0  0  0
 63145  1  0  0  0
 64146  1  0  0  0
 65147  1  0  0  0
 68 83  1  0  0  0
 71 73  2  0  0  0
 71 74  1  0  0  0
 71148  1  0  0  0
 72 75  2  0  0  0
 72 76  1  0  0  0
 72149  1  0  0  0
 73 75  1  0  0  0
 73 86  1  0  0  0
 74 76  2  0  0  0
 74 84  1  0  0  0
 75 85  1  0  0  0
 76 87  1  0  0  0
 77 78  2  0  0  0
 77 83  1  0  0  0
 77 88  1  0  0  0
 78150  1  0  0  0
 78151  1  0  0  0
 79 80  1  0  0  0
 79 81  1  0  0  0
 79152  1  0  0  0
 79153  1  0  0  0
 80 82  1  0  0  0
 80154  1  0  0  0
 80155  1  0  0  0
 81 83  1  0  0  0
 81156  1  0  0  0
 81157  1  0  0  0
 82 88  1  0  0  0
 82158  1  0  0  0
 82159  1  0  0  0
 83160  1  0  0  0
 84161  1  0  0  0
 84162  1  0  0  0
 84163  1  0  0  0
 85164  1  0  0  0
 85165  1  0  0  0
 85166  1  0  0  0
 86167  1  0  0  0
 86168  1  0  0  0
 86 88  1  0  0  0
 87169  1  0  0  0
 88170  1  0  0  0
M  CHG  1  88   1
M  ISO  4   1 100  68 101  83 101  87 100
M  END
> <chiral flag>
0

> <version>
0

> <s_m_source_file>
/data/baiqing/PycharmProjects/Reinvent-master-3.2/result/LINK_invent/BTK/process_docking_weight1_custom_product_contain_oxygen_bond_distance_aromatic_linkinvent_7_9_3/rearranged_h_0036.sdf

> <i_m_source_file_index>
97

> <r_mmod_Potential_Energy-OPLS-2005>
0.524426758289337

> <r_mmod_Stretch_Energy-OPLS-2005>
87.7062759399414

> <r_mmod_Bend_Energy-OPLS-2005>
158.838592529297

> <r_mmod_Torsional_Energy-OPLS-2005>
260.409790039062

> <r_mmod_Improper_Torsional_Energy-OPLS-2005>
5.78809309005737

> <r_mmod_Van_der_Waal_Energy-OPLS-2005>
150.731018066406

> <r_mmod_Electrostatic_Energy-OPLS-2005>
-286.834411621094

> <r_mmod_Solvation_Energy-OPLS-2005>
-418.638092041016

> <b_mmod_Minimization_Converged-OPLS-2005>
0

> <r_mmod_RMS_Derivative-OPLS-2005>
2.96121764183044

$$$$
