0
                    3D
 Structure written by MMmdl.
151159  0  0  1  0            999 V2000
  -30.6207  -14.6404   20.5017 C   0  0  0  0  0  0
  -30.4366  -12.3919   19.4535 C   0  0  0  0  0  0
  -29.5098  -12.5192   18.2233 C   0  0  0  0  0  0
  -28.0301  -12.3614   18.6287 C   0  0  0  0  0  0
  -27.6546  -13.2197   19.8662 C   0  0  2  0  0  0
  -28.6989  -13.0661   20.9954 C   0  0  0  0  0  0
  -25.2562  -13.8176   20.5677 C   0  0  0  0  0  0
  -24.1832  -13.0437   20.9184 C   0  0  0  0  0  0
  -24.6408  -11.6909   20.8734 C   0  0  0  0  0  0
  -23.9071  -10.4294   21.0403 C   0  0  0  0  0  0
  -24.3624   -9.4210   21.9184 C   0  0  0  0  0  0
  -23.6305   -8.2243   22.0754 C   0  0  0  0  0  0
  -22.4286   -8.0284   21.3541 C   0  0  0  0  0  0
  -21.9914   -9.0260   20.4646 C   0  0  0  0  0  0
  -22.7240  -10.2138   20.3055 C   0  0  0  0  0  0
  -21.6857   -6.0737   22.5278 C   0  0  0  0  0  0
  -21.4014   -6.5640   23.8212 C   0  0  0  0  0  0
  -21.3660   -5.6793   24.9175 C   0  0  0  0  0  0
  -21.6046   -4.3057   24.7221 C   0  0  0  0  0  0
  -21.8818   -3.8145   23.4342 C   0  0  0  0  0  0
  -21.9192   -4.6963   22.3399 C   0  0  0  0  0  0
  -22.7853  -13.5234   21.1843 C   0  0  0  0  0  0
  -22.1661   -4.2148   21.0977 F   0  0  0  0  0  0
  -21.5634   -3.4541   25.7733 F   0  0  0  0  0  0
  -30.0151  -13.4116   20.4353 N   0  0  0  0  0  0
  -26.2997  -12.9363   20.3319 N   0  0  0  0  0  0
  -25.9335  -11.6512   20.5749 N   0  0  0  0  0  0
  -22.0486  -12.8240   22.0403 N   0  0  0  0  0  0
  -25.4262  -15.1899   20.4079 N   0  0  0  0  0  0
  -31.7816  -14.8007   20.1137 O   0  0  0  0  0  0
  -21.6645   -6.8881   21.4242 O   0  0  0  0  0  0
  -22.3545  -14.5541   20.6689 O   0  0  0  0  0  0
  -24.6261  -31.8609   23.2045 C   0  0  0  0  0  0
  -25.9106  -32.4786   23.8370 C   0  0  1  0  0  0
  -27.2208  -27.3184   20.1168 C   0  0  0  0  0  0
  -25.5922  -33.8588   24.2296 N   0  0  0  0  0  0
  -23.4191  -30.4865   21.5481 C   0  0  2  0  0  0
  -24.8644  -28.9431   20.1147 C   0  0  0  0  0  0
  -22.7475  -29.4631   22.4947 C   0  0  0  0  0  0
  -18.0285  -28.1384   22.8493 C   0  0  0  0  0  0
  -24.1484  -36.7305   23.2639 C   0  0  0  0  0  0
  -25.9610  -30.7917   21.3754 C   0  0  0  0  0  0
  -26.0348  -29.4188   20.7191 C   0  0  0  0  0  0
  -27.2166  -28.6186   20.7108 C   0  0  0  0  0  0
  -26.0277  -26.9035   19.4793 C   0  0  0  0  0  0
  -24.8629  -27.6902   19.4870 C   0  0  0  0  0  0
  -23.6338  -29.8253   20.1625 C   0  0  0  0  0  0
  -25.4108  -36.3093   24.0334 C   0  0  1  0  0  0
  -20.5887  -28.3687   23.1297 C   0  0  2  0  0  0
  -20.6778  -26.9412   22.5417 C   0  0  0  0  0  0
  -19.5748  -26.6383   21.5224 C   0  0  0  0  0  0
  -18.1930  -26.7927   22.1635 C   0  0  0  0  0  0
  -19.1538  -28.8852   23.2889 C   0  0  0  0  0  0
  -18.9458  -30.1459   23.8898 C   0  0  0  0  0  0
  -17.6457  -30.6586   24.0566 C   0  0  0  0  0  0
  -25.9048  -34.9459   23.5116 C   0  0  0  0  0  0
  -16.5350  -29.9089   23.6324 C   0  0  0  0  0  0
  -16.7273  -28.6507   23.0345 C   0  0  0  0  0  0
  -26.4484  -31.6584   25.0734 C   0  0  0  0  0  0
  -25.3716  -31.3731   26.1462 C   0  0  0  0  0  0
  -27.0320  -30.3006   24.6178 C   0  0  0  0  0  0
  -27.6040  -32.4319   25.7509 C   0  0  0  0  0  0
  -27.5581  -37.1809   24.8464 C   0  0  0  0  0  0
  -21.4188  -29.3042   22.3692 N   0  0  0  0  0  0
  -26.4287  -37.3788   23.9414 N   0  0  0  0  0  0
  -24.6878  -31.0628   22.0996 N   0  0  0  0  0  0
  -23.4204  -28.8162   23.3016 O   0  0  0  0  0  0
  -28.3380  -26.4663   20.1474 O   0  0  0  0  0  0
  -26.5621  -34.8920   22.4686 O   0  0  0  0  0  0
  -23.5426  -32.1409   23.7376 O   0  0  0  0  0  0
  -30.9863  -17.8445   20.1353 C   0  0  0  0  0  0
  -30.9685  -19.2641   19.9932 C   0  0  0  0  0  0
  -28.7959  -17.9532   21.1125 C   0  0  0  0  0  0
  -29.8921  -17.1406   20.7028 C   0  0  0  0  0  0
  -29.8751  -20.0780   20.4000 C   0  0  0  0  0  0
  -28.7766  -19.3749   20.9706 C   0  0  0  0  0  0
  -29.2657  -23.9632   20.2182 C   0  0  0  0  0  0
  -28.0896  -25.0186   20.3689 C   0  0  0  0  0  0
  -28.9132  -22.4303   20.4994 C   0  0  0  0  0  0
  -29.8096  -15.6840   20.8721 N   0  0  0  0  0  0
  -29.9850  -21.4758   20.2123 O   0  0  0  0  0  0
  -27.6825  -20.0505   21.3985 F   0  0  0  0  0  0
  -31.4800  -12.5130   19.1578 H   0  0  0  0  0  0
  -30.3636  -11.3933   19.8877 H   0  0  0  0  0  0
  -29.7745  -11.7737   17.4721 H   0  0  0  0  0  0
  -29.6578  -13.4925   17.7514 H   0  0  0  0  0  0
  -27.8564  -11.3069   18.8449 H   0  0  0  0  0  0
  -27.3814  -12.6100   17.7878 H   0  0  0  0  0  0
  -27.6751  -14.2577   19.5349 H   0  0  0  0  0  0
  -28.7070  -12.0412   21.3704 H   0  0  0  0  0  0
  -28.4466  -13.6905   21.8533 H   0  0  0  0  0  0
  -25.2762   -9.5698   22.4766 H   0  0  0  0  0  0
  -24.0009   -7.4636   22.7478 H   0  0  0  0  0  0
  -21.0837   -8.8783   19.8964 H   0  0  0  0  0  0
  -22.3691  -10.9683   19.6175 H   0  0  0  0  0  0
  -21.2008   -7.6150   23.9716 H   0  0  0  0  0  0
  -21.1488   -6.0523   25.9081 H   0  0  0  0  0  0
  -22.0595   -2.7607   23.2840 H   0  0  0  0  0  0
  -22.4089  -11.9910   22.4815 H   0  0  0  0  0  0
  -21.1103  -13.1286   22.2588 H   0  0  0  0  0  0
  -24.6535  -15.8392   20.5078 H   0  0  0  0  0  0
  -26.2659  -15.6258   20.0488 H   0  0  0  0  0  0
  -26.7176  -32.5454   23.1120 H   0  0  0  0  0  0
  -25.0041  -33.9736   25.0421 H   0  0  0  0  0  0
  -22.7122  -31.3072   21.4089 H   0  0  0  0  0  0
  -23.3742  -35.9641   23.3296 H   0  0  0  0  0  0
  -24.3581  -36.8930   22.2055 H   0  0  0  0  0  0
  -23.7231  -37.6505   23.6659 H   0  0  0  0  0  0
  -26.0901  -31.5536   20.6055 H   0  0  0  0  0  0
  -26.8432  -30.8433   22.0018 H   0  0  0  0  0  0
  -28.1141  -28.9809   21.1926 H   0  0  0  0  0  0
  -25.9631  -25.9651   18.9527 H   0  0  0  0  0  0
  -23.9688  -27.3238   19.0015 H   0  0  0  0  0  0
  -23.7580  -30.6052   19.4102 H   0  0  0  0  0  0
  -22.7510  -29.2610   19.8558 H   0  0  0  0  0  0
  -25.1278  -36.1954   25.0826 H   0  0  0  0  0  0
  -20.9986  -28.3259   24.1416 H   0  0  0  0  0  0
  -20.5700  -26.2292   23.3614 H   0  0  0  0  0  0
  -21.6645  -26.7453   22.1199 H   0  0  0  0  0  0
  -19.6912  -25.6297   21.1248 H   0  0  0  0  0  0
  -19.6681  -27.3198   20.6759 H   0  0  0  0  0  0
  -17.4202  -26.6681   21.4034 H   0  0  0  0  0  0
  -18.0319  -26.0066   22.9030 H   0  0  0  0  0  0
  -19.7934  -30.7281   24.2258 H   0  0  0  0  0  0
  -17.5009  -31.6264   24.5173 H   0  0  0  0  0  0
  -15.5352  -30.2993   23.7638 H   0  0  0  0  0  0
  -15.8675  -28.0836   22.7043 H   0  0  0  0  0  0
  -24.5875  -30.7096   25.7793 H   0  0  0  0  0  0
  -24.8922  -32.2904   26.4894 H   0  0  0  0  0  0
  -25.8038  -30.8898   27.0234 H   0  0  0  0  0  0
  -26.2896  -29.6772   24.1177 H   0  0  0  0  0  0
  -27.3990  -29.7243   25.4681 H   0  0  0  0  0  0
  -27.8778  -30.4287   23.9419 H   0  0  0  0  0  0
  -27.2638  -33.3610   26.2096 H   0  0  0  0  0  0
  -28.3847  -32.6897   25.0339 H   0  0  0  0  0  0
  -28.0707  -31.8436   26.5420 H   0  0  0  0  0  0
  -28.2592  -38.0112   24.7515 H   0  0  0  0  0  0
  -28.1081  -36.2644   24.6274 H   0  0  0  0  0  0
  -27.2308  -37.1443   25.8869 H   0  0  0  0  0  0
  -20.9359  -29.8783   21.6922 H   0  0  0  0  0  0
  -26.0170  -38.2865   24.1414 H   0  0  0  0  0  0
  -31.8602  -17.3082   19.7940 H   0  0  0  0  0  0
  -31.8306  -19.7434   19.5523 H   0  0  0  0  0  0
  -27.9270  -17.4854   21.5514 H   0  0  0  0  0  0
  -30.0869  -24.2585   20.8705 H   0  0  0  0  0  0
  -29.6558  -24.0408   19.2037 H   0  0  0  0  0  0
  -27.6780  -24.9194   21.3744 H   0  0  0  0  0  0
  -27.3178  -24.6505   19.6997 H   0  0  0  0  0  0
  -28.0446  -22.1532   19.9005 H   0  0  0  0  0  0
  -28.6236  -22.3281   21.5461 H   0  0  0  0  0  0
  -28.9203  -15.3590   21.2197 H   0  0  0  0  0  0
  1 25  1  0  0  0
  1 30  2  0  0  0
  1 80  1  0  0  0
  2  3  1  0  0  0
  2 25  1  0  0  0
  2 83  1  0  0  0
  2 84  1  0  0  0
  3  4  1  0  0  0
  3 85  1  0  0  0
  3 86  1  0  0  0
  4  5  1  0  0  0
  4 87  1  0  0  0
  4 88  1  0  0  0
  5  6  1  0  0  0
  5 26  1  0  0  0
  5 89  1  0  0  0
  6 25  1  0  0  0
  6 90  1  0  0  0
  6 91  1  0  0  0
  7  8  2  0  0  0
  7 26  1  0  0  0
  7 29  1  0  0  0
  8  9  1  0  0  0
  8 22  1  0  0  0
  9 10  1  0  0  0
  9 27  2  0  0  0
 10 11  2  0  0  0
 10 15  1  0  0  0
 11 12  1  0  0  0
 11 92  1  0  0  0
 12 13  2  0  0  0
 12 93  1  0  0  0
 13 14  1  0  0  0
 13 31  1  0  0  0
 14 15  2  0  0  0
 14 94  1  0  0  0
 15 95  1  0  0  0
 16 17  2  0  0  0
 16 21  1  0  0  0
 16 31  1  0  0  0
 17 18  1  0  0  0
 17 96  1  0  0  0
 18 19  2  0  0  0
 18 97  1  0  0  0
 19 20  1  0  0  0
 19 24  1  0  0  0
 20 21  2  0  0  0
 20 98  1  0  0  0
 21 23  1  0  0  0
 22 28  1  0  0  0
 22 32  2  0  0  0
 26 27  1  0  0  0
 28 99  1  0  0  0
 28100  1  0  0  0
 29101  1  0  0  0
 29102  1  0  0  0
 33 34  1  0  0  0
 33 66  1  0  0  0
 33 70  2  0  0  0
 34 36  1  0  0  0
 34 59  1  0  0  0
 34103  1  0  0  0
 35 44  2  0  0  0
 35 45  1  0  0  0
 35 68  1  0  0  0
 36 56  1  0  0  0
 36104  1  0  0  0
 37 39  1  0  0  0
 37 47  1  0  0  0
 37 66  1  0  0  0
 37105  1  0  0  0
 38 43  2  0  0  0
 38 46  1  0  0  0
 38 47  1  0  0  0
 39 64  1  0  0  0
 39 67  2  0  0  0
 40 52  1  0  0  0
 40 53  2  0  0  0
 40 58  1  0  0  0
 41106  1  0  0  0
 41107  1  0  0  0
 41108  1  0  0  0
 41 48  1  0  0  0
 42 43  1  0  0  0
 42 66  1  0  0  0
 42109  1  0  0  0
 42110  1  0  0  0
 43 44  1  0  0  0
 44111  1  0  0  0
 45 46  2  0  0  0
 45112  1  0  0  0
 46113  1  0  0  0
 47114  1  0  0  0
 47115  1  0  0  0
 48 56  1  0  0  0
 48 65  1  0  0  0
 48116  1  0  0  0
 49 50  1  0  0  0
 49 53  1  0  0  0
 49 64  1  0  0  0
 49117  1  0  0  0
 50 51  1  0  0  0
 50118  1  0  0  0
 50119  1  0  0  0
 51 52  1  0  0  0
 51120  1  0  0  0
 51121  1  0  0  0
 52122  1  0  0  0
 52123  1  0  0  0
 53 54  1  0  0  0
 54 55  2  0  0  0
 54124  1  0  0  0
 55 57  1  0  0  0
 55125  1  0  0  0
 56 69  2  0  0  0
 57 58  2  0  0  0
 57126  1  0  0  0
 58127  1  0  0  0
 59 60  1  0  0  0
 59 61  1  0  0  0
 59 62  1  0  0  0
 60128  1  0  0  0
 60129  1  0  0  0
 60130  1  0  0  0
 61131  1  0  0  0
 61132  1  0  0  0
 61133  1  0  0  0
 62134  1  0  0  0
 62135  1  0  0  0
 62136  1  0  0  0
 63 65  1  0  0  0
 63137  1  0  0  0
 63138  1  0  0  0
 63139  1  0  0  0
 64140  1  0  0  0
 65141  1  0  0  0
 68 78  1  0  0  0
 71 72  2  0  0  0
 71 74  1  0  0  0
 71142  1  0  0  0
 72 75  1  0  0  0
 72143  1  0  0  0
 73 74  2  0  0  0
 73 76  1  0  0  0
 73144  1  0  0  0
 74 80  1  0  0  0
 75 76  2  0  0  0
 75 81  1  0  0  0
 76 82  1  0  0  0
 77 78  1  0  0  0
 77 79  1  0  0  0
 77145  1  0  0  0
 77146  1  0  0  0
 78147  1  0  0  0
 78148  1  0  0  0
 79 81  1  0  0  0
 79149  1  0  0  0
 79150  1  0  0  0
 80151  1  0  0  0
M  ISO  4   1 100  68 101  78 101  80 100
M  END
> <chiral flag>
0

> <version>
0

> <s_m_source_file>
/data/baiqing/PycharmProjects/Reinvent-master-3.2/result/LINK_invent/BTK/process_docking_weight1_custom_product_contain_oxygen_bond_distance_aromatic_linkinvent_7_9_3/rearranged_h_0011.sdf

> <i_m_source_file_index>
1

> <r_mmod_Potential_Energy-OPLS-2005>
74.7860946655273

> <r_mmod_Stretch_Energy-OPLS-2005>
79.5826568603516

> <r_mmod_Bend_Energy-OPLS-2005>
147.580917358398

> <r_mmod_Torsional_Energy-OPLS-2005>
214.559097290039

> <r_mmod_Improper_Torsional_Energy-OPLS-2005>
3.90157985687256

> <r_mmod_Van_der_Waal_Energy-OPLS-2005>
146.884353637695

> <r_mmod_Electrostatic_Energy-OPLS-2005>
-358.382598876953

> <r_mmod_Solvation_Energy-OPLS-2005>
-207.118133544922

> <b_mmod_Minimization_Converged-OPLS-2005>
0

> <r_mmod_RMS_Derivative-OPLS-2005>
1.06894218921661

$$$$
1
                    3D
 Structure written by MMmdl.
155164  0  0  1  0            999 V2000
  -30.5741  -14.7906   20.4502 C   0  0  0  0  0  0
  -30.4491  -12.4558   19.4841 C   0  0  0  0  0  0
  -29.5249  -12.5192   18.2452 C   0  0  0  0  0  0
  -28.0459  -12.3407   18.6472 C   0  0  0  0  0  0
  -27.6435  -13.2335   19.8517 C   0  0  2  0  0  0
  -28.6768  -13.1530   20.9924 C   0  0  0  0  0  0
  -25.2513  -13.8201   20.5683 C   0  0  0  0  0  0
  -24.1800  -13.0445   20.9180 C   0  0  0  0  0  0
  -24.6396  -11.6922   20.8721 C   0  0  0  0  0  0
  -23.9076  -10.4300   21.0394 C   0  0  0  0  0  0
  -24.3629   -9.4220   21.9177 C   0  0  0  0  0  0
  -23.6302   -8.2256   22.0753 C   0  0  0  0  0  0
  -22.4283   -8.0289   21.3546 C   0  0  0  0  0  0
  -21.9921   -9.0259   20.4647 C   0  0  0  0  0  0
  -22.7248  -10.2137   20.3052 C   0  0  0  0  0  0
  -21.6857   -6.0746   22.5283 C   0  0  0  0  0  0
  -21.4010   -6.5640   23.8219 C   0  0  0  0  0  0
  -21.3664   -5.6791   24.9180 C   0  0  0  0  0  0
  -21.6044   -4.3056   24.7225 C   0  0  0  0  0  0
  -21.8819   -3.8154   23.4345 C   0  0  0  0  0  0
  -21.9189   -4.6973   22.3402 C   0  0  0  0  0  0
  -22.7825  -13.5222   21.1855 C   0  0  0  0  0  0
  -22.1657   -4.2164   21.0977 F   0  0  0  0  0  0
  -21.5641   -3.4538   25.7736 F   0  0  0  0  0  0
  -29.9886  -13.4899   20.4339 N   0  0  0  0  0  0
  -26.2937  -12.9410   20.3243 N   0  0  0  0  0  0
  -25.9323  -11.6548   20.5705 N   0  0  0  0  0  0
  -22.0476  -12.8217   22.0419 N   0  0  0  0  0  0
  -25.4222  -15.1930   20.4156 N   0  0  0  0  0  0
  -31.7378  -14.9850   20.0877 O   0  0  0  0  0  0
  -21.6643   -6.8889   21.4245 O   0  0  0  0  0  0
  -22.3505  -14.5533   20.6710 O   0  0  0  0  0  0
  -24.6346  -31.8516   23.1937 C   0  0  0  0  0  0
  -25.9162  -32.4730   23.8300 C   0  0  1  0  0  0
  -27.2250  -27.2350   20.1361 C   0  0  0  0  0  0
  -25.5947  -33.8535   24.2223 N   0  0  0  0  0  0
  -23.4323  -30.4711   21.5377 C   0  0  2  0  0  0
  -24.8809  -28.9091   20.1110 C   0  0  0  0  0  0
  -22.7515  -29.4586   22.4905 C   0  0  0  0  0  0
  -18.0296  -28.1393   22.8490 C   0  0  0  0  0  0
  -24.1491  -36.7266   23.2634 C   0  0  0  0  0  0
  -25.9793  -30.7576   21.3752 C   0  0  0  0  0  0
  -26.0533  -29.3768   20.7181 C   0  0  0  0  0  0
  -27.2285  -28.5544   20.7124 C   0  0  0  0  0  0
  -26.0298  -26.8384   19.4993 C   0  0  0  0  0  0
  -24.8759  -27.6498   19.4892 C   0  0  0  0  0  0
  -23.6518  -29.7980   20.1562 C   0  0  0  0  0  0
  -25.4121  -36.3050   24.0316 C   0  0  1  0  0  0
  -20.5901  -28.3705   23.1268 C   0  0  2  0  0  0
  -20.6780  -26.9419   22.5412 C   0  0  0  0  0  0
  -19.5751  -26.6388   21.5218 C   0  0  0  0  0  0
  -18.1932  -26.7938   22.1628 C   0  0  0  0  0  0
  -19.1549  -28.8869   23.2870 C   0  0  0  0  0  0
  -18.9466  -30.1471   23.8885 C   0  0  0  0  0  0
  -17.6462  -30.6590   24.0569 C   0  0  0  0  0  0
  -25.9073  -34.9427   23.5076 C   0  0  0  0  0  0
  -16.5354  -29.9086   23.6338 C   0  0  0  0  0  0
  -16.7283  -28.6505   23.0360 C   0  0  0  0  0  0
  -26.4515  -31.6574   25.0709 C   0  0  0  0  0  0
  -25.3727  -31.3731   26.1423 C   0  0  0  0  0  0
  -27.0366  -30.2985   24.6223 C   0  0  0  0  0  0
  -27.6068  -32.4321   25.7485 C   0  0  0  0  0  0
  -27.5589  -37.1772   24.8447 C   0  0  0  0  0  0
  -21.4219  -29.3042   22.3650 N   0  0  0  0  0  0
  -26.4275  -37.3770   23.9430 N   0  0  0  0  0  0
  -24.7014  -31.0455   22.0922 N   0  0  0  0  0  0
  -23.4201  -28.8141   23.3029 O   0  0  0  0  0  0
  -28.3271  -26.3419   20.1822 O   0  0  0  0  0  0
  -26.5650  -34.8912   22.4648 O   0  0  0  0  0  0
  -23.5491  -32.1352   23.7219 O   0  0  0  0  0  0
  -29.2816  -19.3993   19.2846 C   0  0  0  0  0  0
  -29.4661  -17.9691   19.3759 C   0  0  0  0  0  0
  -29.5926  -19.5865   21.6246 C   0  0  0  0  0  0
  -29.3157  -20.2910   20.4076 C   0  0  0  0  0  0
  -29.7167  -17.2791   20.6009 C   0  0  0  0  0  0
  -29.7743  -18.1590   21.7222 C   0  0  0  0  0  0
  -28.4830  -23.9591   19.0316 C   0  0  0  0  0  0
  -29.0433  -24.1485   21.3738 C   0  0  0  0  0  0
  -28.3621  -22.3721   19.1894 C   0  0  0  0  0  0
  -28.8974  -22.5719   21.5461 C   0  0  0  0  0  0
  -28.1444  -24.8346   20.2899 C   0  0  0  0  0  0
  -29.1023  -21.7511   20.3232 N   0  0  0  0  0  0
  -29.6190  -15.8535   20.7615 O   0  0  0  0  0  0
  -29.9612  -17.6180   22.9510 F   0  0  0  0  0  0
  -31.4893  -12.6115   19.1919 H   0  0  0  0  0  0
  -30.4074  -11.4699   19.9497 H   0  0  0  0  0  0
  -29.8119  -11.7567   17.5203 H   0  0  0  0  0  0
  -29.6530  -13.4798   17.7441 H   0  0  0  0  0  0
  -27.8983  -11.2903   18.8997 H   0  0  0  0  0  0
  -27.3970  -12.5427   17.7944 H   0  0  0  0  0  0
  -27.6427  -14.2595   19.4821 H   0  0  0  0  0  0
  -28.6981  -12.1521   21.4264 H   0  0  0  0  0  0
  -28.4119  -13.8334   21.8033 H   0  0  0  0  0  0
  -25.2778   -9.5699   22.4746 H   0  0  0  0  0  0
  -24.0021   -7.4649   22.7472 H   0  0  0  0  0  0
  -21.0858   -8.8773   19.8945 H   0  0  0  0  0  0
  -22.3711  -10.9673   19.6159 H   0  0  0  0  0  0
  -21.1991   -7.6144   23.9729 H   0  0  0  0  0  0
  -21.1493   -6.0516   25.9083 H   0  0  0  0  0  0
  -22.0591   -2.7616   23.2838 H   0  0  0  0  0  0
  -22.4078  -11.9864   22.4786 H   0  0  0  0  0  0
  -21.1097  -13.1244   22.2631 H   0  0  0  0  0  0
  -24.6609  -15.8520   20.5399 H   0  0  0  0  0  0
  -26.2875  -15.6354   20.1308 H   0  0  0  0  0  0
  -26.7234  -32.5368   23.1047 H   0  0  0  0  0  0
  -25.0096  -33.9672   25.0371 H   0  0  0  0  0  0
  -22.7302  -31.2936   21.3860 H   0  0  0  0  0  0
  -23.3779  -35.9565   23.3229 H   0  0  0  0  0  0
  -24.3594  -36.8967   22.2062 H   0  0  0  0  0  0
  -23.7206  -37.6425   23.6714 H   0  0  0  0  0  0
  -26.1198  -31.5171   20.6048 H   0  0  0  0  0  0
  -26.8557  -30.8088   22.0096 H   0  0  0  0  0  0
  -28.1283  -28.9101   21.1951 H   0  0  0  0  0  0
  -25.9719  -25.8752   19.0141 H   0  0  0  0  0  0
  -23.9788  -27.2872   19.0065 H   0  0  0  0  0  0
  -23.7758  -30.5695   19.3957 H   0  0  0  0  0  0
  -22.7704  -29.2289   19.8552 H   0  0  0  0  0  0
  -25.1299  -36.1874   25.0802 H   0  0  0  0  0  0
  -20.9992  -28.3285   24.1387 H   0  0  0  0  0  0
  -20.5682  -26.2314   23.3621 H   0  0  0  0  0  0
  -21.6647  -26.7439   22.1200 H   0  0  0  0  0  0
  -19.6907  -25.6296   21.1252 H   0  0  0  0  0  0
  -19.6686  -27.3198   20.6749 H   0  0  0  0  0  0
  -17.4203  -26.6703   21.4025 H   0  0  0  0  0  0
  -18.0317  -26.0075   22.9017 H   0  0  0  0  0  0
  -19.7937  -30.7305   24.2235 H   0  0  0  0  0  0
  -17.5007  -31.6266   24.5177 H   0  0  0  0  0  0
  -15.5354  -30.2983   23.7661 H   0  0  0  0  0  0
  -15.8685  -28.0819   22.7082 H   0  0  0  0  0  0
  -24.5893  -30.7102   25.7733 H   0  0  0  0  0  0
  -24.8937  -32.2902   26.4857 H   0  0  0  0  0  0
  -25.8029  -30.8883   27.0197 H   0  0  0  0  0  0
  -26.2956  -29.6722   24.1244 H   0  0  0  0  0  0
  -27.4029  -29.7268   25.4761 H   0  0  0  0  0  0
  -27.8839  -30.4249   23.9481 H   0  0  0  0  0  0
  -27.2682  -33.3635   26.2038 H   0  0  0  0  0  0
  -28.3890  -32.6861   25.0319 H   0  0  0  0  0  0
  -28.0723  -31.8460   26.5421 H   0  0  0  0  0  0
  -28.2533  -38.0143   24.7608 H   0  0  0  0  0  0
  -28.1162  -36.2683   24.6126 H   0  0  0  0  0  0
  -27.2323  -37.1237   25.8846 H   0  0  0  0  0  0
  -20.9418  -29.8754   21.6837 H   0  0  0  0  0  0
  -26.0135  -38.2816   24.1515 H   0  0  0  0  0  0
  -29.0875  -19.7998   18.3008 H   0  0  0  0  0  0
  -29.3622  -17.3849   18.4730 H   0  0  0  0  0  0
  -29.6480  -20.1348   22.5514 H   0  0  0  0  0  0
  -27.8428  -24.2727   18.2067 H   0  0  0  0  0  0
  -29.4988  -24.1945   18.7120 H   0  0  0  0  0  0
  -30.0874  -24.3766   21.1554 H   0  0  0  0  0  0
  -28.8413  -24.6198   22.3360 H   0  0  0  0  0  0
  -28.6934  -21.9226   18.2538 H   0  0  0  0  0  0
  -27.3085  -22.1077   19.2911 H   0  0  0  0  0  0
  -27.9062  -22.3483   21.9448 H   0  0  0  0  0  0
  -29.6090  -22.2637   22.3115 H   0  0  0  0  0  0
  -27.1108  -24.6345   20.5756 H   0  0  0  0  0  0
  1 25  1  0  0  0
  1 30  2  0  0  0
  1 83  1  0  0  0
  2  3  1  0  0  0
  2 25  1  0  0  0
  2 85  1  0  0  0
  2 86  1  0  0  0
  3  4  1  0  0  0
  3 87  1  0  0  0
  3 88  1  0  0  0
  4  5  1  0  0  0
  4 89  1  0  0  0
  4 90  1  0  0  0
  5  6  1  0  0  0
  5 26  1  0  0  0
  5 91  1  0  0  0
  6 25  1  0  0  0
  6 92  1  0  0  0
  6 93  1  0  0  0
  7  8  2  0  0  0
  7 26  1  0  0  0
  7 29  1  0  0  0
  8  9  1  0  0  0
  8 22  1  0  0  0
  9 10  1  0  0  0
  9 27  2  0  0  0
 10 11  2  0  0  0
 10 15  1  0  0  0
 11 12  1  0  0  0
 11 94  1  0  0  0
 12 13  2  0  0  0
 12 95  1  0  0  0
 13 14  1  0  0  0
 13 31  1  0  0  0
 14 15  2  0  0  0
 14 96  1  0  0  0
 15 97  1  0  0  0
 16 17  2  0  0  0
 16 21  1  0  0  0
 16 31  1  0  0  0
 17 18  1  0  0  0
 17 98  1  0  0  0
 18 19  2  0  0  0
 18 99  1  0  0  0
 19 20  1  0  0  0
 19 24  1  0  0  0
 20 21  2  0  0  0
 20100  1  0  0  0
 21 23  1  0  0  0
 22 28  1  0  0  0
 22 32  2  0  0  0
 26 27  1  0  0  0
 28101  1  0  0  0
 28102  1  0  0  0
 29103  1  0  0  0
 29104  1  0  0  0
 33 34  1  0  0  0
 33 66  1  0  0  0
 33 70  2  0  0  0
 34 36  1  0  0  0
 34 59  1  0  0  0
 34105  1  0  0  0
 35 44  2  0  0  0
 35 45  1  0  0  0
 35 68  1  0  0  0
 36 56  1  0  0  0
 36106  1  0  0  0
 37 39  1  0  0  0
 37 47  1  0  0  0
 37 66  1  0  0  0
 37107  1  0  0  0
 38 43  2  0  0  0
 38 46  1  0  0  0
 38 47  1  0  0  0
 39 64  1  0  0  0
 39 67  2  0  0  0
 40 52  1  0  0  0
 40 53  2  0  0  0
 40 58  1  0  0  0
 41108  1  0  0  0
 41109  1  0  0  0
 41110  1  0  0  0
 41 48  1  0  0  0
 42 43  1  0  0  0
 42 66  1  0  0  0
 42111  1  0  0  0
 42112  1  0  0  0
 43 44  1  0  0  0
 44113  1  0  0  0
 45 46  2  0  0  0
 45114  1  0  0  0
 46115  1  0  0  0
 47116  1  0  0  0
 47117  1  0  0  0
 48 56  1  0  0  0
 48 65  1  0  0  0
 48118  1  0  0  0
 49 50  1  0  0  0
 49 53  1  0  0  0
 49 64  1  0  0  0
 49119  1  0  0  0
 50 51  1  0  0  0
 50120  1  0  0  0
 50121  1  0  0  0
 51 52  1  0  0  0
 51122  1  0  0  0
 51123  1  0  0  0
 52124  1  0  0  0
 52125  1  0  0  0
 53 54  1  0  0  0
 54 55  2  0  0  0
 54126  1  0  0  0
 55 57  1  0  0  0
 55127  1  0  0  0
 56 69  2  0  0  0
 57 58  2  0  0  0
 57128  1  0  0  0
 58129  1  0  0  0
 59 60  1  0  0  0
 59 61  1  0  0  0
 59 62  1  0  0  0
 60130  1  0  0  0
 60131  1  0  0  0
 60132  1  0  0  0
 61133  1  0  0  0
 61134  1  0  0  0
 61135  1  0  0  0
 62136  1  0  0  0
 62137  1  0  0  0
 62138  1  0  0  0
 63 65  1  0  0  0
 63139  1  0  0  0
 63140  1  0  0  0
 63141  1  0  0  0
 64142  1  0  0  0
 65143  1  0  0  0
 68 81  1  0  0  0
 71 72  2  0  0  0
 71 74  1  0  0  0
 71144  1  0  0  0
 72 75  1  0  0  0
 72145  1  0  0  0
 73 74  2  0  0  0
 73 76  1  0  0  0
 73146  1  0  0  0
 74 82  1  0  0  0
 75 76  2  0  0  0
 75 83  1  0  0  0
 76 84  1  0  0  0
 77 79  1  0  0  0
 77 81  1  0  0  0
 77147  1  0  0  0
 77148  1  0  0  0
 78 80  1  0  0  0
 78 81  1  0  0  0
 78149  1  0  0  0
 78150  1  0  0  0
 79 82  1  0  0  0
 79151  1  0  0  0
 79152  1  0  0  0
 80 82  1  0  0  0
 80153  1  0  0  0
 80154  1  0  0  0
 81155  1  0  0  0
M  ISO  4   1 100  68 101  81 101  83 100
M  END
> <chiral flag>
0

> <version>
0

> <s_m_source_file>
/data/baiqing/PycharmProjects/Reinvent-master-3.2/result/LINK_invent/BTK/process_docking_weight1_custom_product_contain_oxygen_bond_distance_aromatic_linkinvent_7_9_3/rearranged_h_0011.sdf

> <i_m_source_file_index>
2

> <r_mmod_Potential_Energy-OPLS-2005>
227.567932128906

> <r_mmod_Stretch_Energy-OPLS-2005>
136.668090820312

> <r_mmod_Bend_Energy-OPLS-2005>
192.250534057617

> <r_mmod_Torsional_Energy-OPLS-2005>
206.57275390625

> <r_mmod_Improper_Torsional_Energy-OPLS-2005>
8.58774471282959

> <r_mmod_Van_der_Waal_Energy-OPLS-2005>
136.458190917969

> <r_mmod_Electrostatic_Energy-OPLS-2005>
-342.928283691406

> <r_mmod_Solvation_Energy-OPLS-2005>
-210.796691894531

> <b_mmod_Minimization_Converged-OPLS-2005>
0

> <r_mmod_RMS_Derivative-OPLS-2005>
0.980177700519562

$$$$
2
                    3D
 Structure written by MMmdl.
148156  0  0  1  0            999 V2000
  -30.5089  -14.9122   20.4351 C   0  0  0  0  0  0
  -30.4555  -12.5616   19.4901 C   0  0  0  0  0  0
  -29.5264  -12.5317   18.2520 C   0  0  0  0  0  0
  -28.0565  -12.3206   18.6662 C   0  0  0  0  0  0
  -27.6389  -13.2354   19.8464 C   0  0  2  0  0  0
  -28.6835  -13.2119   20.9840 C   0  0  0  0  0  0
  -25.2500  -13.8182   20.5681 C   0  0  0  0  0  0
  -24.1806  -13.0431   20.9230 C   0  0  0  0  0  0
  -24.6402  -11.6911   20.8760 C   0  0  0  0  0  0
  -23.9076  -10.4289   21.0416 C   0  0  0  0  0  0
  -24.3624   -9.4201   21.9190 C   0  0  0  0  0  0
  -23.6294   -8.2240   22.0758 C   0  0  0  0  0  0
  -22.4276   -8.0282   21.3547 C   0  0  0  0  0  0
  -21.9915   -9.0259   20.4652 C   0  0  0  0  0  0
  -22.7249  -10.2135   20.3063 C   0  0  0  0  0  0
  -21.6853   -6.0736   22.5279 C   0  0  0  0  0  0
  -21.4015   -6.5640   23.8212 C   0  0  0  0  0  0
  -21.3659   -5.6793   24.9175 C   0  0  0  0  0  0
  -21.6044   -4.3056   24.7225 C   0  0  0  0  0  0
  -21.8818   -3.8147   23.4347 C   0  0  0  0  0  0
  -21.9192   -4.6963   22.3402 C   0  0  0  0  0  0
  -22.7826  -13.5218   21.1880 C   0  0  0  0  0  0
  -22.1661   -4.2149   21.0979 F   0  0  0  0  0  0
  -21.5626   -3.4539   25.7738 F   0  0  0  0  0  0
  -29.9682  -13.6307   20.4025 N   0  0  0  0  0  0
  -26.2925  -12.9392   20.3247 N   0  0  0  0  0  0
  -25.9332  -11.6537   20.5742 N   0  0  0  0  0  0
  -22.0465  -12.8213   22.0434 N   0  0  0  0  0  0
  -25.4162  -15.1901   20.4026 N   0  0  0  0  0  0
  -31.6970  -15.0562   20.1234 O   0  0  0  0  0  0
  -21.6639   -6.8881   21.4242 O   0  0  0  0  0  0
  -22.3518  -14.5520   20.6717 O   0  0  0  0  0  0
  -24.6422  -31.8456   23.1895 C   0  0  0  0  0  0
  -25.9199  -32.4704   23.8282 C   0  0  1  0  0  0
  -27.2214  -27.1519   20.1469 C   0  0  0  0  0  0
  -25.5952  -33.8509   24.2201 N   0  0  0  0  0  0
  -23.4453  -30.4654   21.5351 C   0  0  2  0  0  0
  -24.8953  -28.8959   20.1105 C   0  0  0  0  0  0
  -22.7562  -29.4552   22.4864 C   0  0  0  0  0  0
  -18.0305  -28.1392   22.8480 C   0  0  0  0  0  0
  -24.1492  -36.7261   23.2642 C   0  0  0  0  0  0
  -26.0006  -30.7245   21.3860 C   0  0  0  0  0  0
  -26.0728  -29.3373   20.7273 C   0  0  0  0  0  0
  -27.2369  -28.4820   20.7280 C   0  0  0  0  0  0
  -26.0152  -26.8096   19.4937 C   0  0  0  0  0  0
  -24.8787  -27.6448   19.4786 C   0  0  0  0  0  0
  -23.6712  -29.7962   20.1539 C   0  0  0  0  0  0
  -25.4122  -36.3038   24.0318 C   0  0  1  0  0  0
  -20.5917  -28.3717   23.1239 C   0  0  2  0  0  0
  -20.6789  -26.9422   22.5403 C   0  0  0  0  0  0
  -19.5760  -26.6380   21.5213 C   0  0  0  0  0  0
  -18.1944  -26.7931   22.1628 C   0  0  0  0  0  0
  -19.1562  -28.8873   23.2853 C   0  0  0  0  0  0
  -18.9477  -30.1469   23.8878 C   0  0  0  0  0  0
  -17.6473  -30.6589   24.0558 C   0  0  0  0  0  0
  -25.9071  -34.9412   23.5068 C   0  0  0  0  0  0
  -16.5365  -29.9082   23.6333 C   0  0  0  0  0  0
  -16.7289  -28.6500   23.0357 C   0  0  0  0  0  0
  -26.4522  -31.6564   25.0716 C   0  0  0  0  0  0
  -25.3712  -31.3749   26.1414 C   0  0  0  0  0  0
  -27.0385  -30.2963   24.6283 C   0  0  0  0  0  0
  -27.6053  -32.4328   25.7502 C   0  0  0  0  0  0
  -27.5575  -37.1788   24.8465 C   0  0  0  0  0  0
  -21.4255  -29.3048   22.3615 N   0  0  0  0  0  0
  -26.4286  -37.3749   23.9408 N   0  0  0  0  0  0
  -24.7158  -31.0325   22.0923 N   0  0  0  0  0  0
  -23.4210  -28.8096   23.3008 O   0  0  0  0  0  0
  -28.2796  -26.1752   20.2158 O   0  0  0  0  0  0
  -26.5655  -34.8906   22.4645 O   0  0  0  0  0  0
  -23.5543  -32.1325   23.7122 O   0  0  0  0  0  0
  -30.4979  -18.5502   20.3681 C   0  0  0  0  0  0
  -30.1918  -19.9876   20.3030 C   0  0  0  0  0  0
  -28.2013  -18.0915   20.6159 C   0  0  0  0  0  0
  -29.5058  -17.5125   20.5303 C   0  0  0  0  0  0
  -28.8604  -20.5427   20.3787 C   0  0  0  0  0  0
  -27.8953  -19.4982   20.5370 C   0  0  0  0  0  0
  -27.9814  -24.6559   20.0800 C   0  0  0  0  0  0
  -28.9666  -23.3090   20.3181 C   0  0  0  0  0  0
  -29.6181  -15.9877   20.6567 N   0  0  0  0  0  0
  -28.3436  -21.9122   20.2867 O   0  0  0  0  0  0
  -26.5907  -19.8568   20.6201 F   0  0  0  0  0  0
  -31.4867  -12.7370   19.1791 H   0  0  0  0  0  0
  -30.4561  -11.5962   19.9987 H   0  0  0  0  0  0
  -29.8377  -11.7454   17.5632 H   0  0  0  0  0  0
  -29.6191  -13.4710   17.7045 H   0  0  0  0  0  0
  -27.9424  -11.2750   18.9545 H   0  0  0  0  0  0
  -27.3955  -12.4747   17.8124 H   0  0  0  0  0  0
  -27.6160  -14.2467   19.4405 H   0  0  0  0  0  0
  -28.7608  -12.2155   21.4218 H   0  0  0  0  0  0
  -28.3869  -13.8773   21.7964 H   0  0  0  0  0  0
  -25.2769   -9.5672   22.4767 H   0  0  0  0  0  0
  -24.0000   -7.4629   22.7477 H   0  0  0  0  0  0
  -21.0844   -8.8784   19.8957 H   0  0  0  0  0  0
  -22.3712  -10.9678   19.6174 H   0  0  0  0  0  0
  -21.2010   -7.6149   23.9716 H   0  0  0  0  0  0
  -21.1480   -6.0523   25.9077 H   0  0  0  0  0  0
  -22.0597   -2.7608   23.2848 H   0  0  0  0  0  0
  -22.4083  -11.9878   22.4830 H   0  0  0  0  0  0
  -21.1084  -13.1242   22.2641 H   0  0  0  0  0  0
  -24.6295  -15.8261   20.4770 H   0  0  0  0  0  0
  -26.2182  -15.6066   19.9499 H   0  0  0  0  0  0
  -26.7265  -32.5316   23.1014 H   0  0  0  0  0  0
  -25.0077  -33.9626   25.0333 H   0  0  0  0  0  0
  -22.7472  -31.2910   21.3818 H   0  0  0  0  0  0
  -23.3757  -35.9590   23.3292 H   0  0  0  0  0  0
  -24.3578  -36.8903   22.2059 H   0  0  0  0  0  0
  -23.7245  -37.6454   23.6684 H   0  0  0  0  0  0
  -26.1536  -31.4794   20.6136 H   0  0  0  0  0  0
  -26.8721  -30.7754   22.0269 H   0  0  0  0  0  0
  -28.1335  -28.8156   21.2313 H   0  0  0  0  0  0
  -25.9102  -25.8553   19.0018 H   0  0  0  0  0  0
  -23.9801  -27.3016   18.9846 H   0  0  0  0  0  0
  -23.8070  -30.5716   19.3992 H   0  0  0  0  0  0
  -22.7864  -29.2380   19.8427 H   0  0  0  0  0  0
  -25.1309  -36.1869   25.0810 H   0  0  0  0  0  0
  -21.0010  -28.3306   24.1360 H   0  0  0  0  0  0
  -20.5685  -26.2330   23.3621 H   0  0  0  0  0  0
  -21.6654  -26.7429   22.1199 H   0  0  0  0  0  0
  -19.6921  -25.6286   21.1255 H   0  0  0  0  0  0
  -19.6694  -27.3179   20.6734 H   0  0  0  0  0  0
  -17.4210  -26.6673   21.4035 H   0  0  0  0  0  0
  -18.0346  -26.0078   22.9030 H   0  0  0  0  0  0
  -19.7952  -30.7291   24.2241 H   0  0  0  0  0  0
  -17.5025  -31.6268   24.5163 H   0  0  0  0  0  0
  -15.5364  -30.2977   23.7663 H   0  0  0  0  0  0
  -15.8691  -28.0808   22.7085 H   0  0  0  0  0  0
  -24.5894  -30.7094   25.7734 H   0  0  0  0  0  0
  -24.8898  -32.2930   26.4792 H   0  0  0  0  0  0
  -25.7998  -30.8952   27.0222 H   0  0  0  0  0  0
  -26.2998  -29.6690   24.1281 H   0  0  0  0  0  0
  -27.3997  -29.7256   25.4848 H   0  0  0  0  0  0
  -27.8906  -30.4204   23.9597 H   0  0  0  0  0  0
  -27.2645  -33.3646   26.2028 H   0  0  0  0  0  0
  -28.3892  -32.6860   25.0352 H   0  0  0  0  0  0
  -28.0689  -31.8488   26.5463 H   0  0  0  0  0  0
  -28.2585  -38.0091   24.7510 H   0  0  0  0  0  0
  -28.1079  -36.2622   24.6295 H   0  0  0  0  0  0
  -27.2293  -37.1437   25.8868 H   0  0  0  0  0  0
  -20.9461  -29.8768   21.6802 H   0  0  0  0  0  0
  -26.0155  -38.2818   24.1409 H   0  0  0  0  0  0
  -31.5349  -18.2525   20.2974 H   0  0  0  0  0  0
  -31.0171  -20.6732   20.1773 H   0  0  0  0  0  0
  -27.3590  -17.4297   20.7477 H   0  0  0  0  0  0
  -27.1214  -24.4889   20.7294 H   0  0  0  0  0  0
  -27.6025  -24.5258   19.0670 H   0  0  0  0  0  0
  -29.4518  -23.4117   21.2888 H   0  0  0  0  0  0
  -29.7707  -23.3307   19.5826 H   0  0  0  0  0  0
  -28.7268  -15.5824   20.8973 H   0  0  0  0  0  0
  1 25  1  0  0  0
  1 30  2  0  0  0
  1 79  1  0  0  0
  2  3  1  0  0  0
  2 25  1  0  0  0
  2 82  1  0  0  0
  2 83  1  0  0  0
  3  4  1  0  0  0
  3 84  1  0  0  0
  3 85  1  0  0  0
  4  5  1  0  0  0
  4 86  1  0  0  0
  4 87  1  0  0  0
  5  6  1  0  0  0
  5 26  1  0  0  0
  5 88  1  0  0  0
  6 25  1  0  0  0
  6 89  1  0  0  0
  6 90  1  0  0  0
  7  8  2  0  0  0
  7 26  1  0  0  0
  7 29  1  0  0  0
  8  9  1  0  0  0
  8 22  1  0  0  0
  9 10  1  0  0  0
  9 27  2  0  0  0
 10 11  2  0  0  0
 10 15  1  0  0  0
 11 12  1  0  0  0
 11 91  1  0  0  0
 12 13  2  0  0  0
 12 92  1  0  0  0
 13 14  1  0  0  0
 13 31  1  0  0  0
 14 15  2  0  0  0
 14 93  1  0  0  0
 15 94  1  0  0  0
 16 17  2  0  0  0
 16 21  1  0  0  0
 16 31  1  0  0  0
 17 18  1  0  0  0
 17 95  1  0  0  0
 18 19  2  0  0  0
 18 96  1  0  0  0
 19 20  1  0  0  0
 19 24  1  0  0  0
 20 21  2  0  0  0
 20 97  1  0  0  0
 21 23  1  0  0  0
 22 28  1  0  0  0
 22 32  2  0  0  0
 26 27  1  0  0  0
 28 98  1  0  0  0
 28 99  1  0  0  0
 29100  1  0  0  0
 29101  1  0  0  0
 33 34  1  0  0  0
 33 66  1  0  0  0
 33 70  2  0  0  0
 34 36  1  0  0  0
 34 59  1  0  0  0
 34102  1  0  0  0
 35 44  2  0  0  0
 35 45  1  0  0  0
 35 68  1  0  0  0
 36 56  1  0  0  0
 36103  1  0  0  0
 37 39  1  0  0  0
 37 47  1  0  0  0
 37 66  1  0  0  0
 37104  1  0  0  0
 38 43  2  0  0  0
 38 46  1  0  0  0
 38 47  1  0  0  0
 39 64  1  0  0  0
 39 67  2  0  0  0
 40 52  1  0  0  0
 40 53  2  0  0  0
 40 58  1  0  0  0
 41105  1  0  0  0
 41106  1  0  0  0
 41107  1  0  0  0
 41 48  1  0  0  0
 42 43  1  0  0  0
 42 66  1  0  0  0
 42108  1  0  0  0
 42109  1  0  0  0
 43 44  1  0  0  0
 44110  1  0  0  0
 45 46  2  0  0  0
 45111  1  0  0  0
 46112  1  0  0  0
 47113  1  0  0  0
 47114  1  0  0  0
 48 56  1  0  0  0
 48 65  1  0  0  0
 48115  1  0  0  0
 49 50  1  0  0  0
 49 53  1  0  0  0
 49 64  1  0  0  0
 49116  1  0  0  0
 50 51  1  0  0  0
 50117  1  0  0  0
 50118  1  0  0  0
 51 52  1  0  0  0
 51119  1  0  0  0
 51120  1  0  0  0
 52121  1  0  0  0
 52122  1  0  0  0
 53 54  1  0  0  0
 54 55  2  0  0  0
 54123  1  0  0  0
 55 57  1  0  0  0
 55124  1  0  0  0
 56 69  2  0  0  0
 57 58  2  0  0  0
 57125  1  0  0  0
 58126  1  0  0  0
 59 60  1  0  0  0
 59 61  1  0  0  0
 59 62  1  0  0  0
 60127  1  0  0  0
 60128  1  0  0  0
 60129  1  0  0  0
 61130  1  0  0  0
 61131  1  0  0  0
 61132  1  0  0  0
 62133  1  0  0  0
 62134  1  0  0  0
 62135  1  0  0  0
 63 65  1  0  0  0
 63136  1  0  0  0
 63137  1  0  0  0
 63138  1  0  0  0
 64139  1  0  0  0
 65140  1  0  0  0
 68 77  1  0  0  0
 71 72  2  0  0  0
 71 74  1  0  0  0
 71141  1  0  0  0
 72 75  1  0  0  0
 72142  1  0  0  0
 73 74  2  0  0  0
 73 76  1  0  0  0
 73143  1  0  0  0
 74 79  1  0  0  0
 75 76  2  0  0  0
 75 80  1  0  0  0
 76 81  1  0  0  0
 77 78  1  0  0  0
 77144  1  0  0  0
 77145  1  0  0  0
 78 80  1  0  0  0
 78146  1  0  0  0
 78147  1  0  0  0
 79148  1  0  0  0
M  ISO  4   1 100  68 101  77 101  79 100
M  END
> <chiral flag>
0

> <version>
0

> <s_m_source_file>
/data/baiqing/PycharmProjects/Reinvent-master-3.2/result/LINK_invent/BTK/process_docking_weight1_custom_product_contain_oxygen_bond_distance_aromatic_linkinvent_7_9_3/rearranged_h_0011.sdf

> <i_m_source_file_index>
3

> <r_mmod_Potential_Energy-OPLS-2005>
491.091247558594

> <r_mmod_Stretch_Energy-OPLS-2005>
216.953765869141

> <r_mmod_Bend_Energy-OPLS-2005>
302.484619140625

> <r_mmod_Torsional_Energy-OPLS-2005>
212.021713256836

> <r_mmod_Improper_Torsional_Energy-OPLS-2005>
4.76716709136963

> <r_mmod_Van_der_Waal_Energy-OPLS-2005>
130.573699951172

> <r_mmod_Electrostatic_Energy-OPLS-2005>
-337.487060546875

> <r_mmod_Solvation_Energy-OPLS-2005>
-212.451721191406

> <b_mmod_Minimization_Converged-OPLS-2005>
0

> <r_mmod_RMS_Derivative-OPLS-2005>
0.366873770952225

$$$$
3
                    3D
 Structure written by MMmdl.
153162  0  0  1  0            999 V2000
  -30.5011  -14.9501   20.4203 C   0  0  0  0  0  0
  -30.4530  -12.5884   19.4893 C   0  0  0  0  0  0
  -29.5251  -12.5277   18.2517 C   0  0  0  0  0  0
  -28.0575  -12.3110   18.6714 C   0  0  0  0  0  0
  -27.6331  -13.2385   19.8397 C   0  0  2  0  0  0
  -28.6776  -13.2460   20.9761 C   0  0  0  0  0  0
  -25.2477  -13.8187   20.5677 C   0  0  0  0  0  0
  -24.1791  -13.0427   20.9230 C   0  0  0  0  0  0
  -24.6398  -11.6911   20.8769 C   0  0  0  0  0  0
  -23.9076  -10.4287   21.0422 C   0  0  0  0  0  0
  -24.3628   -9.4201   21.9197 C   0  0  0  0  0  0
  -23.6300   -8.2239   22.0761 C   0  0  0  0  0  0
  -22.4281   -8.0283   21.3548 C   0  0  0  0  0  0
  -21.9920   -9.0255   20.4648 C   0  0  0  0  0  0
  -22.7253  -10.2132   20.3065 C   0  0  0  0  0  0
  -21.6850   -6.0743   22.5281 C   0  0  0  0  0  0
  -21.4010   -6.5646   23.8215 C   0  0  0  0  0  0
  -21.3659   -5.6795   24.9173 C   0  0  0  0  0  0
  -21.6042   -4.3058   24.7219 C   0  0  0  0  0  0
  -21.8820   -3.8151   23.4342 C   0  0  0  0  0  0
  -21.9191   -4.6971   22.3401 C   0  0  0  0  0  0
  -22.7810  -13.5208   21.1884 C   0  0  0  0  0  0
  -22.1661   -4.2158   21.0980 F   0  0  0  0  0  0
  -21.5629   -3.4540   25.7732 F   0  0  0  0  0  0
  -29.9521  -13.6702   20.3811 N   0  0  0  0  0  0
  -26.2901  -12.9402   20.3235 N   0  0  0  0  0  0
  -25.9327  -11.6542   20.5746 N   0  0  0  0  0  0
  -22.0455  -12.8198   22.0431 N   0  0  0  0  0  0
  -25.4114  -15.1914   20.4036 N   0  0  0  0  0  0
  -31.7072  -15.0665   20.1732 O   0  0  0  0  0  0
  -21.6642   -6.8885   21.4244 O   0  0  0  0  0  0
  -22.3504  -14.5521   20.6734 O   0  0  0  0  0  0
  -24.6432  -31.8435   23.1855 C   0  0  0  0  0  0
  -25.9197  -32.4696   23.8254 C   0  0  1  0  0  0
  -27.2229  -27.1404   20.1613 C   0  0  0  0  0  0
  -25.5949  -33.8501   24.2183 N   0  0  0  0  0  0
  -23.4469  -30.4603   21.5316 C   0  0  2  0  0  0
  -24.8964  -28.8774   20.1176 C   0  0  0  0  0  0
  -22.7559  -29.4548   22.4862 C   0  0  0  0  0  0
  -18.0299  -28.1400   22.8484 C   0  0  0  0  0  0
  -24.1489  -36.7251   23.2640 C   0  0  0  0  0  0
  -26.0008  -30.7199   21.3795 C   0  0  0  0  0  0
  -26.0737  -29.3282   20.7284 C   0  0  0  0  0  0
  -27.2411  -28.4780   20.7251 C   0  0  0  0  0  0
  -26.0180  -26.7780   19.5255 C   0  0  0  0  0  0
  -24.8797  -27.6154   19.5013 C   0  0  0  0  0  0
  -23.6729  -29.7806   20.1544 C   0  0  0  0  0  0
  -25.4120  -36.3033   24.0317 C   0  0  1  0  0  0
  -20.5916  -28.3722   23.1243 C   0  0  2  0  0  0
  -20.6787  -26.9423   22.5409 C   0  0  0  0  0  0
  -19.5760  -26.6387   21.5218 C   0  0  0  0  0  0
  -18.1940  -26.7944   22.1626 C   0  0  0  0  0  0
  -19.1557  -28.8878   23.2861 C   0  0  0  0  0  0
  -18.9477  -30.1476   23.8884 C   0  0  0  0  0  0
  -17.6474  -30.6600   24.0565 C   0  0  0  0  0  0
  -25.9068  -34.9408   23.5059 C   0  0  0  0  0  0
  -16.5361  -29.9097   23.6339 C   0  0  0  0  0  0
  -16.7283  -28.6512   23.0362 C   0  0  0  0  0  0
  -26.4508  -31.6559   25.0697 C   0  0  0  0  0  0
  -25.3698  -31.3813   26.1415 C   0  0  0  0  0  0
  -27.0303  -30.2927   24.6268 C   0  0  0  0  0  0
  -27.6084  -32.4275   25.7463 C   0  0  0  0  0  0
  -27.5576  -37.1780   24.8465 C   0  0  0  0  0  0
  -21.4251  -29.3050   22.3614 N   0  0  0  0  0  0
  -26.4283  -37.3748   23.9414 N   0  0  0  0  0  0
  -24.7170  -31.0295   22.0881 N   0  0  0  0  0  0
  -23.4200  -28.8098   23.3017 O   0  0  0  0  0  0
  -28.3026  -26.1907   20.1578 O   0  0  0  0  0  0
  -26.5654  -34.8910   22.4638 O   0  0  0  0  0  0
  -23.5549  -32.1295   23.7082 O   0  0  0  0  0  0
  -30.1427  -19.9397   21.3229 C   0  0  0  0  0  0
  -28.5452  -19.7942   19.6124 C   0  0  0  0  0  0
  -30.3499  -18.4954   21.2873 C   0  0  0  0  0  0
  -28.7245  -18.3453   19.5989 C   0  0  0  0  0  0
  -29.2234  -20.6946   20.5007 C   0  0  0  0  0  0
  -29.6367  -17.5955   20.4284 C   0  0  0  0  0  0
  -29.1146  -24.3827   21.7327 C   0  0  0  0  0  0
  -29.1946  -22.8331   21.9267 C   0  0  0  0  0  0
  -28.4721  -23.3054   19.7362 C   0  0  0  0  0  0
  -28.1508  -24.6972   20.5732 C   0  0  2  0  0  0
  -29.0037  -22.1726   20.6318 N   0  0  0  0  0  0
  -29.6152  -16.0593   20.5055 N   0  0  0  0  0  0
  -31.4814  -12.7721   19.1743 H   0  0  0  0  0  0
  -30.4663  -11.6321   20.0142 H   0  0  0  0  0  0
  -29.8446  -11.7305   17.5790 H   0  0  0  0  0  0
  -29.6087  -13.4565   17.6854 H   0  0  0  0  0  0
  -27.9547  -11.2689   18.9764 H   0  0  0  0  0  0
  -27.3923  -12.4445   17.8173 H   0  0  0  0  0  0
  -27.6001  -14.2428   19.4174 H   0  0  0  0  0  0
  -28.7672  -12.2606   21.4366 H   0  0  0  0  0  0
  -28.3766  -13.9301   21.7718 H   0  0  0  0  0  0
  -25.2772   -9.5677   22.4773 H   0  0  0  0  0  0
  -24.0006   -7.4627   22.7478 H   0  0  0  0  0  0
  -21.0852   -8.8776   19.8948 H   0  0  0  0  0  0
  -22.3718  -10.9675   19.6173 H   0  0  0  0  0  0
  -21.2002   -7.6155   23.9720 H   0  0  0  0  0  0
  -21.1479   -6.0525   25.9076 H   0  0  0  0  0  0
  -22.0600   -2.7613   23.2835 H   0  0  0  0  0  0
  -22.4068  -11.9851   22.4808 H   0  0  0  0  0  0
  -21.1071  -13.1225   22.2634 H   0  0  0  0  0  0
  -24.6289  -15.8305   20.4959 H   0  0  0  0  0  0
  -26.2282  -15.6289   19.9990 H   0  0  0  0  0  0
  -26.7269  -32.5304   23.0989 H   0  0  0  0  0  0
  -25.0087  -33.9612   25.0328 H   0  0  0  0  0  0
  -22.7506  -31.2867   21.3731 H   0  0  0  0  0  0
  -23.3773  -35.9559   23.3256 H   0  0  0  0  0  0
  -24.3585  -36.8916   22.2062 H   0  0  0  0  0  0
  -23.7205  -37.6422   23.6692 H   0  0  0  0  0  0
  -26.1490  -31.4697   20.6011 H   0  0  0  0  0  0
  -26.8747  -30.7783   22.0165 H   0  0  0  0  0  0
  -28.1466  -28.8255   21.2021 H   0  0  0  0  0  0
  -25.9483  -25.8090   19.0513 H   0  0  0  0  0  0
  -23.9782  -27.2644   19.0178 H   0  0  0  0  0  0
  -23.8097  -30.5496   19.3934 H   0  0  0  0  0  0
  -22.7882  -29.2198   19.8469 H   0  0  0  0  0  0
  -25.1305  -36.1857   25.0808 H   0  0  0  0  0  0
  -21.0011  -28.3307   24.1363 H   0  0  0  0  0  0
  -20.5673  -26.2333   23.3628 H   0  0  0  0  0  0
  -21.6650  -26.7427   22.1208 H   0  0  0  0  0  0
  -19.6922  -25.6294   21.1251 H   0  0  0  0  0  0
  -19.6703  -27.3199   20.6751 H   0  0  0  0  0  0
  -17.4208  -26.6684   21.4030 H   0  0  0  0  0  0
  -18.0342  -26.0094   22.9031 H   0  0  0  0  0  0
  -19.7951  -30.7300   24.2239 H   0  0  0  0  0  0
  -17.5028  -31.6280   24.5170 H   0  0  0  0  0  0
  -15.5363  -30.3000   23.7677 H   0  0  0  0  0  0
  -15.8678  -28.0830   22.7090 H   0  0  0  0  0  0
  -24.5830  -30.7208   25.7754 H   0  0  0  0  0  0
  -24.8957  -32.3036   26.4786 H   0  0  0  0  0  0
  -25.7969  -30.9002   27.0224 H   0  0  0  0  0  0
  -26.2874  -29.6698   24.1275 H   0  0  0  0  0  0
  -27.3884  -29.7193   25.4828 H   0  0  0  0  0  0
  -27.8816  -30.4116   23.9566 H   0  0  0  0  0  0
  -27.2774  -33.3700   26.1836 H   0  0  0  0  0  0
  -28.4015  -32.6591   25.0342 H   0  0  0  0  0  0
  -28.0583  -31.8481   26.5534 H   0  0  0  0  0  0
  -28.2586  -38.0084   24.7515 H   0  0  0  0  0  0
  -28.1075  -36.2612   24.6280 H   0  0  0  0  0  0
  -27.2300  -37.1416   25.8869 H   0  0  0  0  0  0
  -20.9453  -29.8756   21.6792 H   0  0  0  0  0  0
  -26.0148  -38.2812   24.1433 H   0  0  0  0  0  0
  -30.7354  -20.4797   22.0459 H   0  0  0  0  0  0
  -27.8115  -20.2111   18.9372 H   0  0  0  0  0  0
  -31.0500  -18.0717   21.9936 H   0  0  0  0  0  0
  -28.0961  -17.7890   18.9180 H   0  0  0  0  0  0
  -30.1064  -24.7516   21.4683 H   0  0  0  0  0  0
  -28.8263  -24.8931   22.6526 H   0  0  0  0  0  0
  -28.4038  -22.5049   22.6032 H   0  0  0  0  0  0
  -30.1454  -22.5639   22.3871 H   0  0  0  0  0  0
  -29.2327  -23.5138   18.9827 H   0  0  0  0  0  0
  -27.5843  -22.9767   19.1936 H   0  0  0  0  0  0
  -27.1394  -24.5886   20.9679 H   0  0  0  0  0  0
  -28.6724  -15.7064   20.5518 H   0  0  0  0  0  0
  1 25  1  0  0  0
  1 30  2  0  0  0
  1 82  1  0  0  0
  2  3  1  0  0  0
  2 25  1  0  0  0
  2 83  1  0  0  0
  2 84  1  0  0  0
  3  4  1  0  0  0
  3 85  1  0  0  0
  3 86  1  0  0  0
  4  5  1  0  0  0
  4 87  1  0  0  0
  4 88  1  0  0  0
  5  6  1  0  0  0
  5 26  1  0  0  0
  5 89  1  0  0  0
  6 25  1  0  0  0
  6 90  1  0  0  0
  6 91  1  0  0  0
  7  8  2  0  0  0
  7 26  1  0  0  0
  7 29  1  0  0  0
  8  9  1  0  0  0
  8 22  1  0  0  0
  9 10  1  0  0  0
  9 27  2  0  0  0
 10 11  2  0  0  0
 10 15  1  0  0  0
 11 12  1  0  0  0
 11 92  1  0  0  0
 12 13  2  0  0  0
 12 93  1  0  0  0
 13 14  1  0  0  0
 13 31  1  0  0  0
 14 15  2  0  0  0
 14 94  1  0  0  0
 15 95  1  0  0  0
 16 17  2  0  0  0
 16 21  1  0  0  0
 16 31  1  0  0  0
 17 18  1  0  0  0
 17 96  1  0  0  0
 18 19  2  0  0  0
 18 97  1  0  0  0
 19 20  1  0  0  0
 19 24  1  0  0  0
 20 21  2  0  0  0
 20 98  1  0  0  0
 21 23  1  0  0  0
 22 28  1  0  0  0
 22 32  2  0  0  0
 26 27  1  0  0  0
 28 99  1  0  0  0
 28100  1  0  0  0
 29101  1  0  0  0
 29102  1  0  0  0
 33 34  1  0  0  0
 33 66  1  0  0  0
 33 70  2  0  0  0
 34 36  1  0  0  0
 34 59  1  0  0  0
 34103  1  0  0  0
 35 44  2  0  0  0
 35 45  1  0  0  0
 35 68  1  0  0  0
 36 56  1  0  0  0
 36104  1  0  0  0
 37 39  1  0  0  0
 37 47  1  0  0  0
 37 66  1  0  0  0
 37105  1  0  0  0
 38 43  2  0  0  0
 38 46  1  0  0  0
 38 47  1  0  0  0
 39 64  1  0  0  0
 39 67  2  0  0  0
 40 52  1  0  0  0
 40 53  2  0  0  0
 40 58  1  0  0  0
 41106  1  0  0  0
 41107  1  0  0  0
 41108  1  0  0  0
 41 48  1  0  0  0
 42 43  1  0  0  0
 42 66  1  0  0  0
 42109  1  0  0  0
 42110  1  0  0  0
 43 44  1  0  0  0
 44111  1  0  0  0
 45 46  2  0  0  0
 45112  1  0  0  0
 46113  1  0  0  0
 47114  1  0  0  0
 47115  1  0  0  0
 48 56  1  0  0  0
 48 65  1  0  0  0
 48116  1  0  0  0
 49 50  1  0  0  0
 49 53  1  0  0  0
 49 64  1  0  0  0
 49117  1  0  0  0
 50 51  1  0  0  0
 50118  1  0  0  0
 50119  1  0  0  0
 51 52  1  0  0  0
 51120  1  0  0  0
 51121  1  0  0  0
 52122  1  0  0  0
 52123  1  0  0  0
 53 54  1  0  0  0
 54 55  2  0  0  0
 54124  1  0  0  0
 55 57  1  0  0  0
 55125  1  0  0  0
 56 69  2  0  0  0
 57 58  2  0  0  0
 57126  1  0  0  0
 58127  1  0  0  0
 59 60  1  0  0  0
 59 61  1  0  0  0
 59 62  1  0  0  0
 60128  1  0  0  0
 60129  1  0  0  0
 60130  1  0  0  0
 61131  1  0  0  0
 61132  1  0  0  0
 61133  1  0  0  0
 62134  1  0  0  0
 62135  1  0  0  0
 62136  1  0  0  0
 63 65  1  0  0  0
 63137  1  0  0  0
 63138  1  0  0  0
 63139  1  0  0  0
 64140  1  0  0  0
 65141  1  0  0  0
 68 80  1  0  0  0
 71 73  2  0  0  0
 71 75  1  0  0  0
 71142  1  0  0  0
 72 74  1  0  0  0
 72 75  2  0  0  0
 72143  1  0  0  0
 73 76  1  0  0  0
 73144  1  0  0  0
 74 76  2  0  0  0
 74145  1  0  0  0
 75 81  1  0  0  0
 76 82  1  0  0  0
 77 78  1  0  0  0
 77 80  1  0  0  0
 77146  1  0  0  0
 77147  1  0  0  0
 78 81  1  0  0  0
 78148  1  0  0  0
 78149  1  0  0  0
 79 80  1  0  0  0
 79 81  1  0  0  0
 79150  1  0  0  0
 79151  1  0  0  0
 80152  1  0  0  0
 82153  1  0  0  0
M  ISO  4   1 100  68 101  80 101  82 100
M  END
> <chiral flag>
0

> <version>
0

> <s_m_source_file>
/data/baiqing/PycharmProjects/Reinvent-master-3.2/result/LINK_invent/BTK/process_docking_weight1_custom_product_contain_oxygen_bond_distance_aromatic_linkinvent_7_9_3/rearranged_h_0011.sdf

> <i_m_source_file_index>
4

> <r_mmod_Potential_Energy-OPLS-2005>
525.946105957031

> <r_mmod_Stretch_Energy-OPLS-2005>
213.858779907227

> <r_mmod_Bend_Energy-OPLS-2005>
307.925323486328

> <r_mmod_Torsional_Energy-OPLS-2005>
299.310577392578

> <r_mmod_Improper_Torsional_Energy-OPLS-2005>
7.30253410339355

> <r_mmod_Van_der_Waal_Energy-OPLS-2005>
124.300971984863

> <r_mmod_Electrostatic_Energy-OPLS-2005>
-383.096618652344

> <r_mmod_Solvation_Energy-OPLS-2005>
-232.282287597656

> <b_mmod_Minimization_Converged-OPLS-2005>
0

> <r_mmod_RMS_Derivative-OPLS-2005>
0.949168264865875

$$$$
4
                    3D
 Structure written by MMmdl.
153162  0  0  1  0            999 V2000
  -30.5041  -14.9487   20.4277 C   0  0  0  0  0  0
  -30.4546  -12.5902   19.4880 C   0  0  0  0  0  0
  -29.5250  -12.5287   18.2517 C   0  0  0  0  0  0
  -28.0582  -12.3085   18.6739 C   0  0  0  0  0  0
  -27.6339  -13.2393   19.8399 C   0  0  2  0  0  0
  -28.6783  -13.2464   20.9767 C   0  0  0  0  0  0
  -25.2496  -13.8204   20.5718 C   0  0  0  0  0  0
  -24.1801  -13.0435   20.9234 C   0  0  0  0  0  0
  -24.6400  -11.6915   20.8762 C   0  0  0  0  0  0
  -23.9078  -10.4289   21.0417 C   0  0  0  0  0  0
  -24.3627   -9.4204   21.9189 C   0  0  0  0  0  0
  -23.6299   -8.2241   22.0758 C   0  0  0  0  0  0
  -22.4280   -8.0284   21.3547 C   0  0  0  0  0  0
  -21.9918   -9.0258   20.4646 C   0  0  0  0  0  0
  -22.7253  -10.2133   20.3058 C   0  0  0  0  0  0
  -21.6852   -6.0742   22.5281 C   0  0  0  0  0  0
  -21.4013   -6.5643   23.8215 C   0  0  0  0  0  0
  -21.3659   -5.6793   24.9174 C   0  0  0  0  0  0
  -21.6043   -4.3057   24.7221 C   0  0  0  0  0  0
  -21.8819   -3.8149   23.4342 C   0  0  0  0  0  0
  -21.9192   -4.6969   22.3402 C   0  0  0  0  0  0
  -22.7816  -13.5211   21.1889 C   0  0  0  0  0  0
  -22.1658   -4.2157   21.0981 F   0  0  0  0  0  0
  -21.5629   -3.4539   25.7733 F   0  0  0  0  0  0
  -29.9540  -13.6702   20.3818 N   0  0  0  0  0  0
  -26.2908  -12.9410   20.3238 N   0  0  0  0  0  0
  -25.9330  -11.6549   20.5738 N   0  0  0  0  0  0
  -22.0458  -12.8197   22.0434 N   0  0  0  0  0  0
  -25.4149  -15.1943   20.4162 N   0  0  0  0  0  0
  -31.7096  -15.0666   20.1789 O   0  0  0  0  0  0
  -21.6640   -6.8886   21.4242 O   0  0  0  0  0  0
  -22.3499  -14.5522   20.6739 O   0  0  0  0  0  0
  -24.6432  -31.8427   23.1850 C   0  0  0  0  0  0
  -25.9197  -32.4697   23.8249 C   0  0  1  0  0  0
  -27.2259  -27.1367   20.1660 C   0  0  0  0  0  0
  -25.5945  -33.8500   24.2180 N   0  0  0  0  0  0
  -23.4479  -30.4591   21.5304 C   0  0  2  0  0  0
  -24.8984  -28.8748   20.1182 C   0  0  0  0  0  0
  -22.7566  -29.4542   22.4858 C   0  0  0  0  0  0
  -18.0300  -28.1404   22.8483 C   0  0  0  0  0  0
  -24.1480  -36.7244   23.2642 C   0  0  0  0  0  0
  -26.0014  -30.7197   21.3784 C   0  0  0  0  0  0
  -26.0754  -29.3263   20.7290 C   0  0  0  0  0  0
  -27.2427  -28.4757   20.7276 C   0  0  0  0  0  0
  -26.0215  -26.7733   19.5305 C   0  0  0  0  0  0
  -24.8829  -27.6117   19.5033 C   0  0  0  0  0  0
  -23.6752  -29.7783   20.1534 C   0  0  0  0  0  0
  -25.4111  -36.3028   24.0319 C   0  0  1  0  0  0
  -20.5915  -28.3722   23.1240 C   0  0  2  0  0  0
  -20.6783  -26.9425   22.5405 C   0  0  0  0  0  0
  -19.5754  -26.6387   21.5216 C   0  0  0  0  0  0
  -18.1935  -26.7946   22.1625 C   0  0  0  0  0  0
  -19.1558  -28.8879   23.2857 C   0  0  0  0  0  0
  -18.9481  -30.1477   23.8882 C   0  0  0  0  0  0
  -17.6479  -30.6603   24.0566 C   0  0  0  0  0  0
  -25.9068  -34.9410   23.5059 C   0  0  0  0  0  0
  -16.5367  -29.9101   23.6342 C   0  0  0  0  0  0
  -16.7285  -28.6518   23.0363 C   0  0  0  0  0  0
  -26.4524  -31.6563   25.0689 C   0  0  0  0  0  0
  -25.3722  -31.3760   26.1398 C   0  0  0  0  0  0
  -27.0376  -30.2964   24.6237 C   0  0  0  0  0  0
  -27.6060  -32.4319   25.7476 C   0  0  0  0  0  0
  -27.5572  -37.1764   24.8460 C   0  0  0  0  0  0
  -21.4258  -29.3055   22.3613 N   0  0  0  0  0  0
  -26.4267  -37.3751   23.9432 N   0  0  0  0  0  0
  -24.7178  -31.0284   22.0876 N   0  0  0  0  0  0
  -23.4207  -28.8095   23.3016 O   0  0  0  0  0  0
  -28.3080  -26.1877   20.1615 O   0  0  0  0  0  0
  -26.5656  -34.8913   22.4638 O   0  0  0  0  0  0
  -23.5550  -32.1284   23.7075 O   0  0  0  0  0  0
  -30.2724  -19.9540   21.1842 C   0  0  0  0  0  0
  -30.4759  -18.5089   21.1566 C   0  0  0  0  0  0
  -28.4171  -19.7578   19.7614 C   0  0  0  0  0  0
  -29.2301  -20.6841   20.4977 C   0  0  0  0  0  0
  -29.6301  -17.5898   20.4517 C   0  0  0  0  0  0
  -28.5875  -18.3078   19.7625 C   0  0  0  0  0  0
  -29.2036  -24.3813   21.6978 C   0  0  0  0  0  0
  -29.2786  -22.8317   21.9033 C   0  0  0  0  0  0
  -28.4313  -23.2906   19.7547 C   0  0  0  0  0  0
  -28.1731  -24.6957   20.5955 C   0  0  2  0  0  0
  -29.0260  -22.1660   20.6225 N   0  0  0  0  0  0
  -29.6201  -16.0545   20.5264 N   0  0  0  0  0  0
  -27.6779  -17.5666   19.0837 F   0  0  0  0  0  0
  -31.4824  -12.7750   19.1718 H   0  0  0  0  0  0
  -30.4699  -11.6337   20.0126 H   0  0  0  0  0  0
  -29.8448  -11.7327   17.5778 H   0  0  0  0  0  0
  -29.6054  -13.4584   17.6865 H   0  0  0  0  0  0
  -27.9592  -11.2672   18.9830 H   0  0  0  0  0  0
  -27.3916  -12.4364   17.8201 H   0  0  0  0  0  0
  -27.6001  -14.2432   19.4162 H   0  0  0  0  0  0
  -28.7685  -12.2610   21.4366 H   0  0  0  0  0  0
  -28.3779  -13.9302   21.7728 H   0  0  0  0  0  0
  -25.2775   -9.5681   22.4761 H   0  0  0  0  0  0
  -24.0007   -7.4633   22.7479 H   0  0  0  0  0  0
  -21.0850   -8.8780   19.8949 H   0  0  0  0  0  0
  -22.3720  -10.9673   19.6164 H   0  0  0  0  0  0
  -21.2003   -7.6151   23.9722 H   0  0  0  0  0  0
  -21.1480   -6.0521   25.9079 H   0  0  0  0  0  0
  -22.0599   -2.7611   23.2838 H   0  0  0  0  0  0
  -22.4066  -11.9845   22.4809 H   0  0  0  0  0  0
  -21.1074  -13.1221   22.2641 H   0  0  0  0  0  0
  -24.6406  -15.8370   20.5432 H   0  0  0  0  0  0
  -26.2372  -15.6466   20.0374 H   0  0  0  0  0  0
  -26.7264  -32.5309   23.0978 H   0  0  0  0  0  0
  -25.0088  -33.9609   25.0330 H   0  0  0  0  0  0
  -22.7514  -31.2845   21.3702 H   0  0  0  0  0  0
  -23.3760  -35.9558   23.3274 H   0  0  0  0  0  0
  -24.3570  -36.8896   22.2061 H   0  0  0  0  0  0
  -23.7203  -37.6424   23.6686 H   0  0  0  0  0  0
  -26.1457  -31.4684   20.5980 H   0  0  0  0  0  0
  -26.8771  -30.7813   22.0130 H   0  0  0  0  0  0
  -28.1477  -28.8247   21.2046 H   0  0  0  0  0  0
  -25.9524  -25.8025   19.0594 H   0  0  0  0  0  0
  -23.9827  -27.2592   19.0189 H   0  0  0  0  0  0
  -23.8138  -30.5472   19.3925 H   0  0  0  0  0  0
  -22.7910  -29.2178   19.8442 H   0  0  0  0  0  0
  -25.1292  -36.1846   25.0810 H   0  0  0  0  0  0
  -21.0006  -28.3305   24.1361 H   0  0  0  0  0  0
  -20.5671  -26.2338   23.3626 H   0  0  0  0  0  0
  -21.6647  -26.7426   22.1200 H   0  0  0  0  0  0
  -19.6915  -25.6295   21.1250 H   0  0  0  0  0  0
  -19.6694  -27.3197   20.6747 H   0  0  0  0  0  0
  -17.4205  -26.6696   21.4028 H   0  0  0  0  0  0
  -18.0329  -26.0097   22.9026 H   0  0  0  0  0  0
  -19.7960  -30.7299   24.2240 H   0  0  0  0  0  0
  -17.5038  -31.6284   24.5167 H   0  0  0  0  0  0
  -15.5369  -30.3004   23.7684 H   0  0  0  0  0  0
  -15.8680  -28.0836   22.7093 H   0  0  0  0  0  0
  -24.5904  -30.7097   25.7730 H   0  0  0  0  0  0
  -24.8917  -32.2953   26.4757 H   0  0  0  0  0  0
  -25.8021  -30.8982   27.0210 H   0  0  0  0  0  0
  -26.2974  -29.6698   24.1247 H   0  0  0  0  0  0
  -27.4017  -29.7241   25.4780 H   0  0  0  0  0  0
  -27.8868  -30.4213   23.9515 H   0  0  0  0  0  0
  -27.2669  -33.3665   26.1953 H   0  0  0  0  0  0
  -28.3934  -32.6790   25.0344 H   0  0  0  0  0  0
  -28.0651  -31.8498   26.5475 H   0  0  0  0  0  0
  -28.2545  -38.0106   24.7564 H   0  0  0  0  0  0
  -28.1109  -36.2635   24.6205 H   0  0  0  0  0  0
  -27.2306  -37.1310   25.8866 H   0  0  0  0  0  0
  -20.9464  -29.8775   21.6799 H   0  0  0  0  0  0
  -26.0126  -38.2803   24.1496 H   0  0  0  0  0  0
  -30.9723  -20.5185   21.7831 H   0  0  0  0  0  0
  -31.2846  -18.1031   21.7470 H   0  0  0  0  0  0
  -27.5822  -20.1552   19.2042 H   0  0  0  0  0  0
  -30.1810  -24.7370   21.3703 H   0  0  0  0  0  0
  -28.9774  -24.9026   22.6282 H   0  0  0  0  0  0
  -28.5104  -22.5178   22.6114 H   0  0  0  0  0  0
  -30.2415  -22.5510   22.3301 H   0  0  0  0  0  0
  -29.1354  -23.4884   18.9457 H   0  0  0  0  0  0
  -27.5066  -22.9572   19.2810 H   0  0  0  0  0  0
  -27.1868  -24.6017   21.0531 H   0  0  0  0  0  0
  -28.6743  -15.7065   20.5422 H   0  0  0  0  0  0
  1 25  1  0  0  0
  1 30  2  0  0  0
  1 82  1  0  0  0
  2  3  1  0  0  0
  2 25  1  0  0  0
  2 84  1  0  0  0
  2 85  1  0  0  0
  3  4  1  0  0  0
  3 86  1  0  0  0
  3 87  1  0  0  0
  4  5  1  0  0  0
  4 88  1  0  0  0
  4 89  1  0  0  0
  5  6  1  0  0  0
  5 26  1  0  0  0
  5 90  1  0  0  0
  6 25  1  0  0  0
  6 91  1  0  0  0
  6 92  1  0  0  0
  7  8  2  0  0  0
  7 26  1  0  0  0
  7 29  1  0  0  0
  8  9  1  0  0  0
  8 22  1  0  0  0
  9 10  1  0  0  0
  9 27  2  0  0  0
 10 11  2  0  0  0
 10 15  1  0  0  0
 11 12  1  0  0  0
 11 93  1  0  0  0
 12 13  2  0  0  0
 12 94  1  0  0  0
 13 14  1  0  0  0
 13 31  1  0  0  0
 14 15  2  0  0  0
 14 95  1  0  0  0
 15 96  1  0  0  0
 16 17  2  0  0  0
 16 21  1  0  0  0
 16 31  1  0  0  0
 17 18  1  0  0  0
 17 97  1  0  0  0
 18 19  2  0  0  0
 18 98  1  0  0  0
 19 20  1  0  0  0
 19 24  1  0  0  0
 20 21  2  0  0  0
 20 99  1  0  0  0
 21 23  1  0  0  0
 22 28  1  0  0  0
 22 32  2  0  0  0
 26 27  1  0  0  0
 28100  1  0  0  0
 28101  1  0  0  0
 29102  1  0  0  0
 29103  1  0  0  0
 33 34  1  0  0  0
 33 66  1  0  0  0
 33 70  2  0  0  0
 34 36  1  0  0  0
 34 59  1  0  0  0
 34104  1  0  0  0
 35 44  2  0  0  0
 35 45  1  0  0  0
 35 68  1  0  0  0
 36 56  1  0  0  0
 36105  1  0  0  0
 37 39  1  0  0  0
 37 47  1  0  0  0
 37 66  1  0  0  0
 37106  1  0  0  0
 38 43  2  0  0  0
 38 46  1  0  0  0
 38 47  1  0  0  0
 39 64  1  0  0  0
 39 67  2  0  0  0
 40 52  1  0  0  0
 40 53  2  0  0  0
 40 58  1  0  0  0
 41107  1  0  0  0
 41108  1  0  0  0
 41109  1  0  0  0
 41 48  1  0  0  0
 42 43  1  0  0  0
 42 66  1  0  0  0
 42110  1  0  0  0
 42111  1  0  0  0
 43 44  1  0  0  0
 44112  1  0  0  0
 45 46  2  0  0  0
 45113  1  0  0  0
 46114  1  0  0  0
 47115  1  0  0  0
 47116  1  0  0  0
 48 56  1  0  0  0
 48 65  1  0  0  0
 48117  1  0  0  0
 49 50  1  0  0  0
 49 53  1  0  0  0
 49 64  1  0  0  0
 49118  1  0  0  0
 50 51  1  0  0  0
 50119  1  0  0  0
 50120  1  0  0  0
 51 52  1  0  0  0
 51121  1  0  0  0
 51122  1  0  0  0
 52123  1  0  0  0
 52124  1  0  0  0
 53 54  1  0  0  0
 54 55  2  0  0  0
 54125  1  0  0  0
 55 57  1  0  0  0
 55126  1  0  0  0
 56 69  2  0  0  0
 57 58  2  0  0  0
 57127  1  0  0  0
 58128  1  0  0  0
 59 60  1  0  0  0
 59 61  1  0  0  0
 59 62  1  0  0  0
 60129  1  0  0  0
 60130  1  0  0  0
 60131  1  0  0  0
 61132  1  0  0  0
 61133  1  0  0  0
 61134  1  0  0  0
 62135  1  0  0  0
 62136  1  0  0  0
 62137  1  0  0  0
 63 65  1  0  0  0
 63138  1  0  0  0
 63139  1  0  0  0
 63140  1  0  0  0
 64141  1  0  0  0
 65142  1  0  0  0
 68 80  1  0  0  0
 71 72  2  0  0  0
 71 74  1  0  0  0
 71143  1  0  0  0
 72 75  1  0  0  0
 72144  1  0  0  0
 73 74  2  0  0  0
 73 76  1  0  0  0
 73145  1  0  0  0
 74 81  1  0  0  0
 75 76  2  0  0  0
 75 82  1  0  0  0
 76 83  1  0  0  0
 77 78  1  0  0  0
 77 80  1  0  0  0
 77146  1  0  0  0
 77147  1  0  0  0
 78 81  1  0  0  0
 78148  1  0  0  0
 78149  1  0  0  0
 79 80  1  0  0  0
 79 81  1  0  0  0
 79150  1  0  0  0
 79151  1  0  0  0
 80152  1  0  0  0
 82153  1  0  0  0
M  ISO  4   1 100  68 101  80 101  82 100
M  END
> <chiral flag>
0

> <version>
0

> <s_m_source_file>
/data/baiqing/PycharmProjects/Reinvent-master-3.2/result/LINK_invent/BTK/process_docking_weight1_custom_product_contain_oxygen_bond_distance_aromatic_linkinvent_7_9_3/rearranged_h_0011.sdf

> <i_m_source_file_index>
5

> <r_mmod_Potential_Energy-OPLS-2005>
511.134216308594

> <r_mmod_Stretch_Energy-OPLS-2005>
215.138229370117

> <r_mmod_Bend_Energy-OPLS-2005>
311.854766845703

> <r_mmod_Torsional_Energy-OPLS-2005>
297.146484375

> <r_mmod_Improper_Torsional_Energy-OPLS-2005>
6.74517917633057

> <r_mmod_Van_der_Waal_Energy-OPLS-2005>
122.15104675293

> <r_mmod_Electrostatic_Energy-OPLS-2005>
-410.138092041016

> <r_mmod_Solvation_Energy-OPLS-2005>
-221.11376953125

> <b_mmod_Minimization_Converged-OPLS-2005>
0

> <r_mmod_RMS_Derivative-OPLS-2005>
0.983909428119659

$$$$
5
                    3D
 Structure written by MMmdl.
151159  0  0  1  0            999 V2000
  -30.5694  -14.6346   20.4636 C   0  0  0  0  0  0
  -30.4375  -12.3747   19.4542 C   0  0  0  0  0  0
  -29.5034  -12.4882   18.2269 C   0  0  0  0  0  0
  -28.0206  -12.3476   18.6293 C   0  0  0  0  0  0
  -27.6466  -13.2095   19.8617 C   0  0  2  0  0  0
  -28.6883  -13.0347   20.9889 C   0  0  0  0  0  0
  -25.2482  -13.8115   20.5805 C   0  0  0  0  0  0
  -24.1780  -13.0368   20.9247 C   0  0  0  0  0  0
  -24.6330  -11.6829   20.8724 C   0  0  0  0  0  0
  -23.9007  -10.4242   21.0371 C   0  0  0  0  0  0
  -24.3580   -9.4176   21.9152 C   0  0  0  0  0  0
  -23.6269   -8.2208   22.0714 C   0  0  0  0  0  0
  -22.4250   -8.0239   21.3505 C   0  0  0  0  0  0
  -21.9878   -9.0199   20.4601 C   0  0  0  0  0  0
  -22.7190  -10.2069   20.3005 C   0  0  0  0  0  0
  -21.6840   -6.0697   22.5271 C   0  0  0  0  0  0
  -21.4011   -6.5601   23.8209 C   0  0  0  0  0  0
  -21.3639   -5.6749   24.9170 C   0  0  0  0  0  0
  -21.6057   -4.3019   24.7231 C   0  0  0  0  0  0
  -21.8837   -3.8099   23.4356 C   0  0  0  0  0  0
  -21.9214   -4.6923   22.3407 C   0  0  0  0  0  0
  -22.7798  -13.5147   21.1939 C   0  0  0  0  0  0
  -22.1678   -4.2104   21.0990 F   0  0  0  0  0  0
  -21.5632   -3.4523   25.7754 F   0  0  0  0  0  0
  -30.0054  -13.3882   20.4344 N   0  0  0  0  0  0
  -26.2916  -12.9320   20.3285 N   0  0  0  0  0  0
  -25.9251  -11.6454   20.5682 N   0  0  0  0  0  0
  -22.0432  -12.8121   22.0442 N   0  0  0  0  0  0
  -25.3975  -15.1883   20.4464 N   0  0  0  0  0  0
  -31.7313  -14.8276   20.0909 O   0  0  0  0  0  0
  -21.6613   -6.8837   21.4218 O   0  0  0  0  0  0
  -22.3481  -14.5460   20.6784 O   0  0  0  0  0  0
  -24.6285  -31.8629   23.2024 C   0  0  0  0  0  0
  -25.9139  -32.4787   23.8373 C   0  0  1  0  0  0
  -27.2137  -27.3100   20.1007 C   0  0  0  0  0  0
  -25.5976  -33.8597   24.2301 N   0  0  0  0  0  0
  -23.4203  -30.4892   21.5454 C   0  0  2  0  0  0
  -24.8637  -28.9427   20.1087 C   0  0  0  0  0  0
  -22.7474  -29.4696   22.4962 C   0  0  0  0  0  0
  -18.0308  -28.1248   22.8629 C   0  0  0  0  0  0
  -24.1490  -36.7259   23.2647 C   0  0  0  0  0  0
  -25.9651  -30.7818   21.3832 C   0  0  0  0  0  0
  -26.0340  -29.4114   20.7175 C   0  0  0  0  0  0
  -27.2149  -28.6064   20.7044 C   0  0  0  0  0  0
  -26.0253  -26.9014   19.4588 C   0  0  0  0  0  0
  -24.8628  -27.6954   19.4652 C   0  0  0  0  0  0
  -23.6349  -29.8256   20.1604 C   0  0  0  0  0  0
  -25.4122  -36.3088   24.0351 C   0  0  1  0  0  0
  -20.5932  -28.3679   23.1222 C   0  0  2  0  0  0
  -20.6887  -26.9508   22.5064 C   0  0  0  0  0  0
  -19.5590  -26.6285   21.5187 C   0  0  0  0  0  0
  -18.1963  -26.7679   22.1963 C   0  0  0  0  0  0
  -19.1573  -28.8809   23.2871 C   0  0  0  0  0  0
  -18.9461  -30.1479   23.8762 C   0  0  0  0  0  0
  -17.6458  -30.6606   24.0375 C   0  0  0  0  0  0
  -25.9063  -34.9459   23.5117 C   0  0  0  0  0  0
  -16.5373  -29.9038   23.6248 C   0  0  0  0  0  0
  -16.7298  -28.6355   23.0459 C   0  0  0  0  0  0
  -26.4511  -31.6604   25.0747 C   0  0  0  0  0  0
  -25.3713  -31.3748   26.1438 C   0  0  0  0  0  0
  -27.0381  -30.3025   24.6259 C   0  0  0  0  0  0
  -27.6115  -32.4310   25.7479 C   0  0  0  0  0  0
  -27.5580  -37.1808   24.8484 C   0  0  0  0  0  0
  -21.4187  -29.3152   22.3744 N   0  0  0  0  0  0
  -26.4304  -37.3778   23.9403 N   0  0  0  0  0  0
  -24.6900  -31.0616   22.0994 N   0  0  0  0  0  0
  -23.4217  -28.8182   23.2988 O   0  0  0  0  0  0
  -28.3253  -26.4520   20.0917 O   0  0  0  0  0  0
  -26.5605  -34.8913   22.4669 O   0  0  0  0  0  0
  -23.5450  -32.1452   23.7340 O   0  0  0  0  0  0
  -30.6058  -18.0277   20.5970 C   0  0  0  0  0  0
  -28.2069  -18.8986   19.4724 C   0  0  0  0  0  0
  -29.6223  -17.0407   20.3359 C   0  0  0  0  0  0
  -29.1403  -19.9147   19.8249 C   0  0  0  0  0  0
  -30.3694  -19.4232   20.3653 C   0  0  0  0  0  0
  -28.4266  -17.5135   19.7366 C   0  0  0  0  0  0
  -29.0604  -23.9215   19.7337 C   0  0  0  0  0  0
  -28.1321  -25.0142   20.4414 C   0  0  0  0  0  0
  -29.2747  -22.4355   20.3354 C   0  0  0  0  0  0
  -29.7082  -15.6466   20.7821 N   0  0  0  0  0  0
  -28.8024  -21.2736   19.5527 O   0  0  0  0  0  0
  -31.3692  -20.2841   20.6595 F   0  0  0  0  0  0
  -27.4566  -16.6269   19.4151 F   0  0  0  0  0  0
  -31.4730  -12.5241   19.1477 H   0  0  0  0  0  0
  -30.3957  -11.3772   19.8918 H   0  0  0  0  0  0
  -29.7553  -11.7248   17.4898 H   0  0  0  0  0  0
  -29.6578  -13.4505   17.7354 H   0  0  0  0  0  0
  -27.8379  -11.2939   18.8441 H   0  0  0  0  0  0
  -27.3722  -12.5986   17.7873 H   0  0  0  0  0  0
  -27.6639  -14.2459   19.5281 H   0  0  0  0  0  0
  -28.6892  -12.0028   21.3442 H   0  0  0  0  0  0
  -28.4279  -13.6451   21.8543 H   0  0  0  0  0  0
  -25.2725   -9.5681   22.4714 H   0  0  0  0  0  0
  -23.9995   -7.4608   22.7437 H   0  0  0  0  0  0
  -21.0804   -8.8689   19.8922 H   0  0  0  0  0  0
  -22.3651  -10.9588   19.6103 H   0  0  0  0  0  0
  -21.1970   -7.6103   23.9712 H   0  0  0  0  0  0
  -21.1441   -6.0459   25.9074 H   0  0  0  0  0  0
  -22.0637   -2.7564   23.2869 H   0  0  0  0  0  0
  -22.4102  -11.9799   22.4840 H   0  0  0  0  0  0
  -21.0997  -13.1005   22.2624 H   0  0  0  0  0  0
  -24.6094  -15.8101   20.6039 H   0  0  0  0  0  0
  -26.2187  -15.6712   20.0929 H   0  0  0  0  0  0
  -26.7234  -32.5420   23.1148 H   0  0  0  0  0  0
  -25.0217  -33.9762   25.0508 H   0  0  0  0  0  0
  -22.7166  -31.3125   21.4010 H   0  0  0  0  0  0
  -23.3774  -35.9578   23.3348 H   0  0  0  0  0  0
  -24.3556  -36.8794   22.2048 H   0  0  0  0  0  0
  -23.7202  -37.6471   23.6599 H   0  0  0  0  0  0
  -26.1139  -31.5508   20.6256 H   0  0  0  0  0  0
  -26.8416  -30.8144   22.0183 H   0  0  0  0  0  0
  -28.1130  -28.9684   21.1886 H   0  0  0  0  0  0
  -25.9819  -25.9585   18.9364 H   0  0  0  0  0  0
  -23.9744  -27.3392   18.9596 H   0  0  0  0  0  0
  -23.7532  -30.6013   19.4049 H   0  0  0  0  0  0
  -22.7532  -29.2564   19.8610 H   0  0  0  0  0  0
  -25.1299  -36.1983   25.0851 H   0  0  0  0  0  0
  -21.0077  -28.3091   24.1320 H   0  0  0  0  0  0
  -21.6603  -26.7843   22.0408 H   0  0  0  0  0  0
  -20.6403  -26.2323   23.3285 H   0  0  0  0  0  0
  -19.6734  -25.6154   21.1311 H   0  0  0  0  0  0
  -19.6162  -27.3022   20.6627 H   0  0  0  0  0  0
  -18.0852  -25.9972   22.9615 H   0  0  0  0  0  0
  -17.4004  -26.6003   21.4677 H   0  0  0  0  0  0
  -19.7923  -30.7360   24.2036 H   0  0  0  0  0  0
  -17.4956  -31.6344   24.4800 H   0  0  0  0  0  0
  -15.5364  -30.2950   23.7530 H   0  0  0  0  0  0
  -15.8689  -28.0575   22.7378 H   0  0  0  0  0  0
  -24.5901  -30.7107   25.7692 H   0  0  0  0  0  0
  -24.8915  -32.2938   26.4830 H   0  0  0  0  0  0
  -25.8008  -30.8895   27.0220 H   0  0  0  0  0  0
  -26.3013  -29.6717   24.1279 H   0  0  0  0  0  0
  -27.4056  -29.7312   25.4795 H   0  0  0  0  0  0
  -27.8865  -30.4280   23.9529 H   0  0  0  0  0  0
  -27.2814  -33.3619   26.2096 H   0  0  0  0  0  0
  -28.3909  -32.6861   25.0278 H   0  0  0  0  0  0
  -28.0837  -31.8413   26.5349 H   0  0  0  0  0  0
  -28.2670  -38.0039   24.7488 H   0  0  0  0  0  0
  -28.1034  -36.2590   24.6416 H   0  0  0  0  0  0
  -27.2295  -37.1545   25.8887 H   0  0  0  0  0  0
  -20.9322  -29.9001   21.7082 H   0  0  0  0  0  0
  -26.0203  -38.2869   24.1373 H   0  0  0  0  0  0
  -31.5509  -17.7198   21.0162 H   0  0  0  0  0  0
  -27.2756  -19.1808   19.0055 H   0  0  0  0  0  0
  -30.0428  -24.3913   19.7473 H   0  0  0  0  0  0
  -28.8063  -23.8528   18.6740 H   0  0  0  0  0  0
  -27.0954  -24.6996   20.3392 H   0  0  0  0  0  0
  -28.3207  -24.9651   21.5138 H   0  0  0  0  0  0
  -28.8169  -22.3814   21.3218 H   0  0  0  0  0  0
  -30.3461  -22.3338   20.5237 H   0  0  0  0  0  0
  -28.8304  -15.2850   21.1241 H   0  0  0  0  0  0
  1 25  1  0  0  0
  1 30  2  0  0  0
  1 80  1  0  0  0
  2  3  1  0  0  0
  2 25  1  0  0  0
  2 84  1  0  0  0
  2 85  1  0  0  0
  3  4  1  0  0  0
  3 86  1  0  0  0
  3 87  1  0  0  0
  4  5  1  0  0  0
  4 88  1  0  0  0
  4 89  1  0  0  0
  5  6  1  0  0  0
  5 26  1  0  0  0
  5 90  1  0  0  0
  6 25  1  0  0  0
  6 91  1  0  0  0
  6 92  1  0  0  0
  7  8  2  0  0  0
  7 26  1  0  0  0
  7 29  1  0  0  0
  8  9  1  0  0  0
  8 22  1  0  0  0
  9 10  1  0  0  0
  9 27  2  0  0  0
 10 11  2  0  0  0
 10 15  1  0  0  0
 11 12  1  0  0  0
 11 93  1  0  0  0
 12 13  2  0  0  0
 12 94  1  0  0  0
 13 14  1  0  0  0
 13 31  1  0  0  0
 14 15  2  0  0  0
 14 95  1  0  0  0
 15 96  1  0  0  0
 16 17  2  0  0  0
 16 21  1  0  0  0
 16 31  1  0  0  0
 17 18  1  0  0  0
 17 97  1  0  0  0
 18 19  2  0  0  0
 18 98  1  0  0  0
 19 20  1  0  0  0
 19 24  1  0  0  0
 20 21  2  0  0  0
 20 99  1  0  0  0
 21 23  1  0  0  0
 22 28  1  0  0  0
 22 32  2  0  0  0
 26 27  1  0  0  0
 28100  1  0  0  0
 28101  1  0  0  0
 29102  1  0  0  0
 29103  1  0  0  0
 33 34  1  0  0  0
 33 66  1  0  0  0
 33 70  2  0  0  0
 34 36  1  0  0  0
 34 59  1  0  0  0
 34104  1  0  0  0
 35 44  2  0  0  0
 35 45  1  0  0  0
 35 68  1  0  0  0
 36 56  1  0  0  0
 36105  1  0  0  0
 37 39  1  0  0  0
 37 47  1  0  0  0
 37 66  1  0  0  0
 37106  1  0  0  0
 38 43  2  0  0  0
 38 46  1  0  0  0
 38 47  1  0  0  0
 39 64  1  0  0  0
 39 67  2  0  0  0
 40 52  1  0  0  0
 40 53  2  0  0  0
 40 58  1  0  0  0
 41107  1  0  0  0
 41108  1  0  0  0
 41109  1  0  0  0
 41 48  1  0  0  0
 42 43  1  0  0  0
 42 66  1  0  0  0
 42110  1  0  0  0
 42111  1  0  0  0
 43 44  1  0  0  0
 44112  1  0  0  0
 45 46  2  0  0  0
 45113  1  0  0  0
 46114  1  0  0  0
 47115  1  0  0  0
 47116  1  0  0  0
 48 56  1  0  0  0
 48 65  1  0  0  0
 48117  1  0  0  0
 49 50  1  0  0  0
 49 53  1  0  0  0
 49 64  1  0  0  0
 49118  1  0  0  0
 50 51  1  0  0  0
 50119  1  0  0  0
 50120  1  0  0  0
 51 52  1  0  0  0
 51121  1  0  0  0
 51122  1  0  0  0
 52123  1  0  0  0
 52124  1  0  0  0
 53 54  1  0  0  0
 54 55  2  0  0  0
 54125  1  0  0  0
 55 57  1  0  0  0
 55126  1  0  0  0
 56 69  2  0  0  0
 57 58  2  0  0  0
 57127  1  0  0  0
 58128  1  0  0  0
 59 60  1  0  0  0
 59 61  1  0  0  0
 59 62  1  0  0  0
 60129  1  0  0  0
 60130  1  0  0  0
 60131  1  0  0  0
 61132  1  0  0  0
 61133  1  0  0  0
 61134  1  0  0  0
 62135  1  0  0  0
 62136  1  0  0  0
 62137  1  0  0  0
 63 65  1  0  0  0
 63138  1  0  0  0
 63139  1  0  0  0
 63140  1  0  0  0
 64141  1  0  0  0
 65142  1  0  0  0
 68 78  1  0  0  0
 71 73  2  0  0  0
 71 75  1  0  0  0
 71143  1  0  0  0
 72 74  1  0  0  0
 72 76  2  0  0  0
 72144  1  0  0  0
 73 76  1  0  0  0
 73 80  1  0  0  0
 74 75  2  0  0  0
 74 81  1  0  0  0
 75 82  1  0  0  0
 76 83  1  0  0  0
 77 78  1  0  0  0
 77 79  1  0  0  0
 77145  1  0  0  0
 77146  1  0  0  0
 78147  1  0  0  0
 78148  1  0  0  0
 79 81  1  0  0  0
 79149  1  0  0  0
 79150  1  0  0  0
 80151  1  0  0  0
M  ISO  4   1 100  68 101  78 101  80 100
M  END
> <chiral flag>
0

> <version>
0

> <s_m_source_file>
/data/baiqing/PycharmProjects/Reinvent-master-3.2/result/LINK_invent/BTK/process_docking_weight1_custom_product_contain_oxygen_bond_distance_aromatic_linkinvent_7_9_3/rearranged_h_0011.sdf

> <i_m_source_file_index>
6

> <r_mmod_Potential_Energy-OPLS-2005>
102.17041015625

> <r_mmod_Stretch_Energy-OPLS-2005>
90.379280090332

> <r_mmod_Bend_Energy-OPLS-2005>
159.205230712891

> <r_mmod_Torsional_Energy-OPLS-2005>
268.782775878906

> <r_mmod_Improper_Torsional_Energy-OPLS-2005>
5.80839776992798

> <r_mmod_Van_der_Waal_Energy-OPLS-2005>
144.05290222168

> <r_mmod_Electrostatic_Energy-OPLS-2005>
-418.21044921875

> <r_mmod_Solvation_Energy-OPLS-2005>
-199.910629272461

> <b_mmod_Minimization_Converged-OPLS-2005>
0

> <r_mmod_RMS_Derivative-OPLS-2005>
7.06093120574951

$$$$
6
                    3D
 Structure written by MMmdl.
169178  0  0  1  0            999 V2000
  -30.7685  -14.4016   20.6747 C   0  0  0  0  0  0
  -30.4150  -12.3100   19.4127 C   0  0  0  0  0  0
  -29.4884  -12.5296   18.2030 C   0  0  0  0  0  0
  -28.0150  -12.3583   18.6139 C   0  0  0  0  0  0
  -27.6576  -13.1977   19.8667 C   0  0  2  0  0  0
  -28.6954  -12.9740   20.9934 C   0  0  0  0  0  0
  -25.2556  -13.8145   20.5638 C   0  0  0  0  0  0
  -24.1805  -13.0441   20.9184 C   0  0  0  0  0  0
  -24.6336  -11.6911   20.8725 C   0  0  0  0  0  0
  -23.8990  -10.4308   21.0405 C   0  0  0  0  0  0
  -24.3563   -9.4237   21.9169 C   0  0  0  0  0  0
  -23.6271   -8.2256   22.0734 C   0  0  0  0  0  0
  -22.4253   -8.0269   21.3542 C   0  0  0  0  0  0
  -21.9873   -9.0237   20.4643 C   0  0  0  0  0  0
  -22.7164  -10.2134   20.3047 C   0  0  0  0  0  0
  -21.6855   -6.0718   22.5272 C   0  0  0  0  0  0
  -21.4015   -6.5621   23.8212 C   0  0  0  0  0  0
  -21.3680   -5.6771   24.9164 C   0  0  0  0  0  0
  -21.6059   -4.3033   24.7213 C   0  0  0  0  0  0
  -21.8819   -3.8121   23.4335 C   0  0  0  0  0  0
  -21.9200   -4.6950   22.3397 C   0  0  0  0  0  0
  -22.7829  -13.5257   21.1864 C   0  0  0  0  0  0
  -22.1674   -4.2137   21.0977 F   0  0  0  0  0  0
  -21.5645   -3.4522   25.7736 F   0  0  0  0  0  0
  -30.0366  -13.2714   20.4614 N   0  0  0  0  0  0
  -26.2971  -12.9288   20.3268 N   0  0  0  0  0  0
  -25.9259  -11.6469   20.5707 N   0  0  0  0  0  0
  -22.0453  -12.8275   22.0424 N   0  0  0  0  0  0
  -25.4271  -15.1855   20.4019 N   0  0  0  0  0  0
  -31.8280  -14.6212   20.0765 O   0  0  0  0  0  0
  -21.6628   -6.8863   21.4239 O   0  0  0  0  0  0
  -22.3530  -14.5569   20.6686 O   0  0  0  0  0  0
  -24.6069  -31.8716   23.2131 C   0  0  0  0  0  0
  -25.8988  -32.4841   23.8419 C   0  0  1  0  0  0
  -27.2484  -27.4834   20.1043 C   0  0  0  0  0  0
  -25.5867  -33.8633   24.2355 N   0  0  0  0  0  0
  -23.3944  -30.4941   21.5487 C   0  0  2  0  0  0
  -24.8473  -28.9632   20.1149 C   0  0  0  0  0  0
  -22.7375  -29.4676   22.4983 C   0  0  0  0  0  0
  -18.0270  -28.1394   22.8488 C   0  0  0  0  0  0
  -24.1474  -36.7304   23.2644 C   0  0  0  0  0  0
  -25.9163  -30.8531   21.3607 C   0  0  0  0  0  0
  -25.9977  -29.4899   20.7139 C   0  0  0  0  0  0
  -27.1994  -28.7565   20.7121 C   0  0  0  0  0  0
  -26.0912  -26.9663   19.4878 C   0  0  0  0  0  0
  -24.8857  -27.6970   19.5012 C   0  0  0  0  0  0
  -23.6047  -29.8228   20.1634 C   0  0  0  0  0  0
  -25.4090  -36.3115   24.0357 C   0  0  1  0  0  0
  -20.5860  -28.3662   23.1337 C   0  0  2  0  0  0
  -20.6750  -26.9394   22.5448 C   0  0  0  0  0  0
  -19.5740  -26.6395   21.5224 C   0  0  0  0  0  0
  -18.1913  -26.7947   22.1615 C   0  0  0  0  0  0
  -19.1520  -28.8841   23.2916 C   0  0  0  0  0  0
  -18.9456  -30.1451   23.8915 C   0  0  0  0  0  0
  -17.6461  -30.6595   24.0578 C   0  0  0  0  0  0
  -25.9013  -34.9484   23.5153 C   0  0  0  0  0  0
  -16.5346  -29.9105   23.6332 C   0  0  0  0  0  0
  -16.7264  -28.6533   23.0333 C   0  0  0  0  0  0
  -26.4450  -31.6614   25.0728 C   0  0  0  0  0  0
  -25.3745  -31.3747   26.1508 C   0  0  0  0  0  0
  -27.0270  -30.3052   24.6096 C   0  0  0  0  0  0
  -27.6045  -32.4334   25.7464 C   0  0  0  0  0  0
  -27.5591  -37.1790   24.8454 C   0  0  0  0  0  0
  -21.4108  -29.3033   22.3732 N   0  0  0  0  0  0
  -26.4278  -37.3801   23.9434 N   0  0  0  0  0  0
  -24.6564  -31.0873   22.0996 N   0  0  0  0  0  0
  -23.4170  -28.8229   23.3016 O   0  0  0  0  0  0
  -28.3943  -26.7279   20.1019 O   0  0  0  0  0  0
  -26.5573  -34.8933   22.4710 O   0  0  0  0  0  0
  -23.5272  -32.1436   23.7553 O   0  0  0  0  0  0
  -30.1457  -17.4714   19.4963 C   0  0  0  0  0  0
  -29.5641  -18.7035   21.5055 C   0  0  0  0  0  0
  -30.5235  -18.6718   18.8667 C   0  0  0  0  0  0
  -29.9193  -19.9082   20.8649 C   0  0  0  0  0  0
  -29.6739  -17.4740   20.8256 C   0  0  0  0  0  0
  -30.4028  -19.9152   19.5339 C   0  0  0  0  0  0
  -30.4381  -23.2824   20.2401 C   0  0  0  0  0  0
  -31.2732  -22.6129   17.1252 C   0  0  0  0  0  0
  -29.9629  -23.0665   17.7620 C   0  0  0  0  0  0
  -31.3628  -21.1580   17.5756 C   0  0  0  0  0  0
  -29.9394  -22.3412   19.1231 C   0  0  1  0  0  0
  -31.3883  -15.6836   22.6384 C   0  0  0  0  0  0
  -29.2763  -16.1702   21.5134 C   0  0  0  0  0  0
  -30.0548  -25.4596   21.3569 C   0  0  0  0  0  0
  -28.9377  -26.5095   21.4067 C   0  0  0  0  0  0
  -30.7454  -21.1317   18.9005 N   0  0  0  0  0  0
  -29.6738  -24.3457   20.5010 N   0  0  0  0  0  0
  -30.3777  -15.2079   21.6898 N   0  0  0  0  0  0
  -31.4995  -23.0708   20.8320 O   0  0  0  0  0  0
  -31.4587  -12.4039   19.1105 H   0  0  0  0  0  0
  -30.3120  -11.2934   19.7938 H   0  0  0  0  0  0
  -29.7419  -11.8345   17.4024 H   0  0  0  0  0  0
  -29.6420  -13.5338   17.8028 H   0  0  0  0  0  0
  -27.8469  -11.2994   18.8175 H   0  0  0  0  0  0
  -27.3552  -12.6165   17.7840 H   0  0  0  0  0  0
  -27.6992  -14.2378   19.5493 H   0  0  0  0  0  0
  -28.6656  -11.9380   21.3333 H   0  0  0  0  0  0
  -28.4441  -13.5652   21.8744 H   0  0  0  0  0  0
  -25.2730   -9.5746   22.4700 H   0  0  0  0  0  0
  -24.0035   -7.4650   22.7428 H   0  0  0  0  0  0
  -21.0812   -8.8697   19.8947 H   0  0  0  0  0  0
  -22.3595  -10.9634   19.6124 H   0  0  0  0  0  0
  -21.1982   -7.6129   23.9704 H   0  0  0  0  0  0
  -21.1518   -6.0495   25.9071 H   0  0  0  0  0  0
  -22.0580   -2.7583   23.2810 H   0  0  0  0  0  0
  -22.4060  -11.9983   22.4902 H   0  0  0  0  0  0
  -21.1055  -13.1302   22.2574 H   0  0  0  0  0  0
  -24.6516  -15.8325   20.4948 H   0  0  0  0  0  0
  -26.2632  -15.6188   20.0310 H   0  0  0  0  0  0
  -26.7057  -32.5593   23.1190 H   0  0  0  0  0  0
  -25.0031  -33.9800   25.0508 H   0  0  0  0  0  0
  -22.6805  -31.3082   21.4091 H   0  0  0  0  0  0
  -23.3745  -35.9629   23.3296 H   0  0  0  0  0  0
  -24.3587  -36.8912   22.2065 H   0  0  0  0  0  0
  -23.7204  -37.6502   23.6642 H   0  0  0  0  0  0
  -26.0281  -31.6222   20.5945 H   0  0  0  0  0  0
  -26.8032  -30.9047   21.9800 H   0  0  0  0  0  0
  -28.0833  -29.1776   21.1698 H   0  0  0  0  0  0
  -26.1203  -25.9943   19.0144 H   0  0  0  0  0  0
  -24.0004  -27.2852   19.0372 H   0  0  0  0  0  0
  -23.7093  -30.5955   19.3998 H   0  0  0  0  0  0
  -22.7316  -29.2376   19.8699 H   0  0  0  0  0  0
  -25.1260  -36.1981   25.0848 H   0  0  0  0  0  0
  -20.9978  -28.3240   24.1450 H   0  0  0  0  0  0
  -20.5630  -26.2276   23.3641 H   0  0  0  0  0  0
  -21.6626  -26.7428   22.1266 H   0  0  0  0  0  0
  -19.6894  -25.6306   21.1258 H   0  0  0  0  0  0
  -19.6710  -27.3210   20.6760 H   0  0  0  0  0  0
  -17.4205  -26.6717   21.3991 H   0  0  0  0  0  0
  -18.0283  -26.0092   22.9006 H   0  0  0  0  0  0
  -19.7929  -30.7261   24.2288 H   0  0  0  0  0  0
  -17.5020  -31.6269   24.5192 H   0  0  0  0  0  0
  -15.5348  -30.3012   23.7648 H   0  0  0  0  0  0
  -15.8666  -28.0876   22.7010 H   0  0  0  0  0  0
  -24.5895  -30.7094   25.7894 H   0  0  0  0  0  0
  -24.8953  -32.2919   26.4947 H   0  0  0  0  0  0
  -25.8128  -30.8949   27.0267 H   0  0  0  0  0  0
  -26.2806  -29.6827   24.1144 H   0  0  0  0  0  0
  -27.4031  -29.7282   25.4556 H   0  0  0  0  0  0
  -27.8649  -30.4373   23.9244 H   0  0  0  0  0  0
  -27.2674  -33.3617   26.2090 H   0  0  0  0  0  0
  -28.3809  -32.6929   25.0254 H   0  0  0  0  0  0
  -28.0759  -31.8435   26.5334 H   0  0  0  0  0  0
  -28.2590  -38.0108   24.7535 H   0  0  0  0  0  0
  -28.1099  -36.2644   24.6199 H   0  0  0  0  0  0
  -27.2338  -37.1360   25.8864 H   0  0  0  0  0  0
  -20.9251  -29.8751   21.6965 H   0  0  0  0  0  0
  -26.0170  -38.2875   24.1462 H   0  0  0  0  0  0
  -30.2244  -16.5469   18.9441 H   0  0  0  0  0  0
  -29.2054  -18.7326   22.5257 H   0  0  0  0  0  0
  -30.8914  -18.6037   17.8542 H   0  0  0  0  0  0
  -29.8263  -20.8273   21.4235 H   0  0  0  0  0  0
  -32.1069  -23.1895   17.5296 H   0  0  0  0  0  0
  -31.2841  -22.7279   16.0410 H   0  0  0  0  0  0
  -29.1243  -22.7272   17.1535 H   0  0  0  0  0  0
  -29.8890  -24.1538   17.8244 H   0  0  0  0  0  0
  -32.3969  -20.8099   17.5990 H   0  0  0  0  0  0
  -30.8064  -20.5378   16.8704 H   0  0  0  0  0  0
  -28.9092  -22.0636   19.3575 H   0  0  0  0  0  0
  -30.9295  -16.1210   23.5279 H   0  0  0  0  0  0
  -32.0298  -16.4382   22.1803 H   0  0  0  0  0  0
  -32.0277  -14.8649   22.9735 H   0  0  0  0  0  0
  -28.4626  -15.7364   20.9384 H   0  0  0  0  0  0
  -28.8441  -16.3874   22.4909 H   0  0  0  0  0  0
  -30.2852  -25.1108   22.3647 H   0  0  0  0  0  0
  -30.9649  -25.9112   20.9594 H   0  0  0  0  0  0
  -29.3372  -27.4322   21.8288 H   0  0  0  0  0  0
  -28.1489  -26.1665   22.0797 H   0  0  0  0  0  0
  -28.8221  -24.4663   19.9688 H   0  0  0  0  0  0
  1 25  1  0  0  0
  1 30  2  0  0  0
  1 88  1  0  0  0
  2  3  1  0  0  0
  2 25  1  0  0  0
  2 90  1  0  0  0
  2 91  1  0  0  0
  3  4  1  0  0  0
  3 92  1  0  0  0
  3 93  1  0  0  0
  4  5  1  0  0  0
  4 94  1  0  0  0
  4 95  1  0  0  0
  5  6  1  0  0  0
  5 26  1  0  0  0
  5 96  1  0  0  0
  6 25  1  0  0  0
  6 97  1  0  0  0
  6 98  1  0  0  0
  7  8  2  0  0  0
  7 26  1  0  0  0
  7 29  1  0  0  0
  8  9  1  0  0  0
  8 22  1  0  0  0
  9 10  1  0  0  0
  9 27  2  0  0  0
 10 11  2  0  0  0
 10 15  1  0  0  0
 11 12  1  0  0  0
 11 99  1  0  0  0
 12 13  2  0  0  0
 12100  1  0  0  0
 13 14  1  0  0  0
 13 31  1  0  0  0
 14 15  2  0  0  0
 14101  1  0  0  0
 15102  1  0  0  0
 16 17  2  0  0  0
 16 21  1  0  0  0
 16 31  1  0  0  0
 17 18  1  0  0  0
 17103  1  0  0  0
 18 19  2  0  0  0
 18104  1  0  0  0
 19 20  1  0  0  0
 19 24  1  0  0  0
 20 21  2  0  0  0
 20105  1  0  0  0
 21 23  1  0  0  0
 22 28  1  0  0  0
 22 32  2  0  0  0
 26 27  1  0  0  0
 28106  1  0  0  0
 28107  1  0  0  0
 29108  1  0  0  0
 29109  1  0  0  0
 33 34  1  0  0  0
 33 66  1  0  0  0
 33 70  2  0  0  0
 34 36  1  0  0  0
 34 59  1  0  0  0
 34110  1  0  0  0
 35 44  2  0  0  0
 35 45  1  0  0  0
 35 68  1  0  0  0
 36 56  1  0  0  0
 36111  1  0  0  0
 37 39  1  0  0  0
 37 47  1  0  0  0
 37 66  1  0  0  0
 37112  1  0  0  0
 38 43  2  0  0  0
 38 46  1  0  0  0
 38 47  1  0  0  0
 39 64  1  0  0  0
 39 67  2  0  0  0
 40 52  1  0  0  0
 40 53  2  0  0  0
 40 58  1  0  0  0
 41113  1  0  0  0
 41114  1  0  0  0
 41115  1  0  0  0
 41 48  1  0  0  0
 42 43  1  0  0  0
 42 66  1  0  0  0
 42116  1  0  0  0
 42117  1  0  0  0
 43 44  1  0  0  0
 44118  1  0  0  0
 45 46  2  0  0  0
 45119  1  0  0  0
 46120  1  0  0  0
 47121  1  0  0  0
 47122  1  0  0  0
 48 56  1  0  0  0
 48 65  1  0  0  0
 48123  1  0  0  0
 49 50  1  0  0  0
 49 53  1  0  0  0
 49 64  1  0  0  0
 49124  1  0  0  0
 50 51  1  0  0  0
 50125  1  0  0  0
 50126  1  0  0  0
 51 52  1  0  0  0
 51127  1  0  0  0
 51128  1  0  0  0
 52129  1  0  0  0
 52130  1  0  0  0
 53 54  1  0  0  0
 54 55  2  0  0  0
 54131  1  0  0  0
 55 57  1  0  0  0
 55132  1  0  0  0
 56 69  2  0  0  0
 57 58  2  0  0  0
 57133  1  0  0  0
 58134  1  0  0  0
 59 60  1  0  0  0
 59 61  1  0  0  0
 59 62  1  0  0  0
 60135  1  0  0  0
 60136  1  0  0  0
 60137  1  0  0  0
 61138  1  0  0  0
 61139  1  0  0  0
 61140  1  0  0  0
 62141  1  0  0  0
 62142  1  0  0  0
 62143  1  0  0  0
 63 65  1  0  0  0
 63144  1  0  0  0
 63145  1  0  0  0
 63146  1  0  0  0
 64147  1  0  0  0
 65148  1  0  0  0
 68 85  1  0  0  0
 71 73  2  0  0  0
 71 75  1  0  0  0
 71149  1  0  0  0
 72 74  1  0  0  0
 72 75  2  0  0  0
 72150  1  0  0  0
 73 76  1  0  0  0
 73151  1  0  0  0
 74 76  2  0  0  0
 74152  1  0  0  0
 75 83  1  0  0  0
 76 86  1  0  0  0
 77 87  1  0  0  0
 77 89  2  0  0  0
 77 81  1  0  0  0
 78 79  1  0  0  0
 78 80  1  0  0  0
 78153  1  0  0  0
 78154  1  0  0  0
 79 81  1  0  0  0
 79155  1  0  0  0
 79156  1  0  0  0
 80 86  1  0  0  0
 80157  1  0  0  0
 80158  1  0  0  0
 81 86  1  0  0  0
 81159  1  0  0  0
 82 88  1  0  0  0
 82160  1  0  0  0
 82161  1  0  0  0
 82162  1  0  0  0
 83 88  1  0  0  0
 83163  1  0  0  0
 83164  1  0  0  0
 84 85  1  0  0  0
 84 87  1  0  0  0
 84165  1  0  0  0
 84166  1  0  0  0
 85167  1  0  0  0
 85168  1  0  0  0
 87169  1  0  0  0
M  ISO  4   1 100  68 101  85 101  88 100
M  END
> <chiral flag>
0

> <version>
0

> <s_m_source_file>
/data/baiqing/PycharmProjects/Reinvent-master-3.2/result/LINK_invent/BTK/process_docking_weight1_custom_product_contain_oxygen_bond_distance_aromatic_linkinvent_7_9_3/rearranged_h_0011.sdf

> <i_m_source_file_index>
7

> <r_mmod_Potential_Energy-OPLS-2005>
60.0401802062988

> <r_mmod_Stretch_Energy-OPLS-2005>
36.2654457092285

> <r_mmod_Bend_Energy-OPLS-2005>
131.471282958984

> <r_mmod_Torsional_Energy-OPLS-2005>
335.81103515625

> <r_mmod_Improper_Torsional_Energy-OPLS-2005>
8.65111446380615

> <r_mmod_Van_der_Waal_Energy-OPLS-2005>
158.748077392578

> <r_mmod_Electrostatic_Energy-OPLS-2005>
-378.678314208984

> <r_mmod_Solvation_Energy-OPLS-2005>
-240.492309570312

> <b_mmod_Minimization_Converged-OPLS-2005>
0

> <r_mmod_RMS_Derivative-OPLS-2005>
2.74108219146729

$$$$
7
                    3D
 Structure written by MMmdl.
156165  0  0  1  0            999 V2000
  -30.6793  -14.6290   20.4784 C   0  0  0  0  0  0
  -30.4156  -12.3839   19.4639 C   0  0  0  0  0  0
  -29.4987  -12.4901   18.2275 C   0  0  0  0  0  0
  -28.0233  -12.3385   18.6413 C   0  0  0  0  0  0
  -27.6450  -13.2285   19.8565 C   0  0  2  0  0  0
  -28.6901  -13.1351   20.9910 C   0  0  0  0  0  0
  -25.2519  -13.8192   20.5710 C   0  0  0  0  0  0
  -24.1803  -13.0437   20.9210 C   0  0  0  0  0  0
  -24.6391  -11.6916   20.8750 C   0  0  0  0  0  0
  -23.9065  -10.4296   21.0404 C   0  0  0  0  0  0
  -24.3614   -9.4214   21.9179 C   0  0  0  0  0  0
  -23.6295   -8.2247   22.0745 C   0  0  0  0  0  0
  -22.4274   -8.0282   21.3541 C   0  0  0  0  0  0
  -21.9911   -9.0253   20.4641 C   0  0  0  0  0  0
  -22.7238  -10.2135   20.3050 C   0  0  0  0  0  0
  -21.6855   -6.0738   22.5281 C   0  0  0  0  0  0
  -21.4012   -6.5639   23.8216 C   0  0  0  0  0  0
  -21.3664   -5.6793   24.9181 C   0  0  0  0  0  0
  -21.6049   -4.3056   24.7231 C   0  0  0  0  0  0
  -21.8820   -3.8145   23.4352 C   0  0  0  0  0  0
  -21.9191   -4.6963   22.3408 C   0  0  0  0  0  0
  -22.7826  -13.5218   21.1870 C   0  0  0  0  0  0
  -22.1656   -4.2144   21.0988 F   0  0  0  0  0  0
  -21.5632   -3.4546   25.7747 F   0  0  0  0  0  0
  -30.0015  -13.4418   20.4098 N   0  0  0  0  0  0
  -26.2951  -12.9400   20.3313 N   0  0  0  0  0  0
  -25.9324  -11.6545   20.5781 N   0  0  0  0  0  0
  -22.0474  -12.8212   22.0433 N   0  0  0  0  0  0
  -25.4212  -15.1915   20.4142 N   0  0  0  0  0  0
  -31.8643  -14.6913   20.1426 O   0  0  0  0  0  0
  -21.6638   -6.8879   21.4238 O   0  0  0  0  0  0
  -22.3518  -14.5527   20.6719 O   0  0  0  0  0  0
  -24.6242  -31.8609   23.2035 C   0  0  0  0  0  0
  -25.9097  -32.4785   23.8360 C   0  0  1  0  0  0
  -27.2174  -27.3288   20.1254 C   0  0  0  0  0  0
  -25.5917  -33.8588   24.2286 N   0  0  0  0  0  0
  -23.4177  -30.4846   21.5457 C   0  0  2  0  0  0
  -24.8643  -28.9412   20.1105 C   0  0  0  0  0  0
  -22.7466  -29.4630   22.4941 C   0  0  0  0  0  0
  -18.0287  -28.1383   22.8487 C   0  0  0  0  0  0
  -24.1489  -36.7297   23.2639 C   0  0  0  0  0  0
  -25.9578  -30.7950   21.3733 C   0  0  0  0  0  0
  -26.0323  -29.4233   20.7165 C   0  0  0  0  0  0
  -27.2158  -28.6290   20.7125 C   0  0  0  0  0  0
  -26.0355  -26.9015   19.4832 C   0  0  0  0  0  0
  -24.8673  -27.6856   19.4836 C   0  0  0  0  0  0
  -23.6315  -29.8195   20.1607 C   0  0  0  0  0  0
  -25.4113  -36.3091   24.0331 C   0  0  1  0  0  0
  -20.5886  -28.3686   23.1287 C   0  0  2  0  0  0
  -20.6776  -26.9411   22.5411 C   0  0  0  0  0  0
  -19.5753  -26.6382   21.5213 C   0  0  0  0  0  0
  -18.1932  -26.7926   22.1624 C   0  0  0  0  0  0
  -19.1537  -28.8852   23.2883 C   0  0  0  0  0  0
  -18.9461  -30.1453   23.8901 C   0  0  0  0  0  0
  -17.6461  -30.6587   24.0563 C   0  0  0  0  0  0
  -25.9048  -34.9457   23.5110 C   0  0  0  0  0  0
  -16.5354  -29.9085   23.6329 C   0  0  0  0  0  0
  -16.7272  -28.6502   23.0354 C   0  0  0  0  0  0
  -26.4485  -31.6592   25.0727 C   0  0  0  0  0  0
  -25.3720  -31.3727   26.1456 C   0  0  0  0  0  0
  -27.0323  -30.3015   24.6173 C   0  0  0  0  0  0
  -27.6052  -32.4320   25.7491 C   0  0  0  0  0  0
  -27.5580  -37.1804   24.8464 C   0  0  0  0  0  0
  -21.4181  -29.3041   22.3682 N   0  0  0  0  0  0
  -26.4294  -37.3781   23.9407 N   0  0  0  0  0  0
  -24.6854  -31.0632   22.0978 N   0  0  0  0  0  0
  -23.4198  -28.8173   23.3016 O   0  0  0  0  0  0
  -28.3205  -26.4694   20.1582 O   0  0  0  0  0  0
  -26.5618  -34.8922   22.4677 O   0  0  0  0  0  0
  -23.5409  -32.1404   23.7370 O   0  0  0  0  0  0
  -29.6973  -19.3677   19.4230 C   0  0  0  0  0  0
  -29.5617  -19.1027   21.8061 C   0  0  0  0  0  0
  -29.3167  -20.7401   19.5407 C   0  0  0  0  0  0
  -29.1832  -20.4736   21.9209 C   0  0  0  0  0  0
  -29.8639  -18.5187   20.5525 C   0  0  0  0  0  0
  -29.0821  -21.3507   20.8000 C   0  0  0  0  0  0
  -28.6262  -24.8985   22.0558 C   0  0  0  0  0  0
  -28.6703  -23.3708   22.2762 C   0  0  0  0  0  0
  -28.7127  -23.8282   19.9311 C   0  0  0  0  0  0
  -28.0793  -25.0885   20.6391 C   0  0  2  0  0  0
  -30.6027  -17.1376   20.4223 C   0  0  0  0  0  0
  -28.7781  -22.7523   20.9557 N   0  0  0  0  0  0
  -29.9830  -15.7930   20.6882 N   0  0  0  0  0  0
  -31.4613  -12.4705   19.1639 H   0  0  0  0  0  0
  -30.3222  -11.4022   19.9310 H   0  0  0  0  0  0
  -29.7601  -11.7255   17.4946 H   0  0  0  0  0  0
  -29.6487  -13.4523   17.7348 H   0  0  0  0  0  0
  -27.8600  -11.2891   18.8878 H   0  0  0  0  0  0
  -27.3669  -12.5535   17.7975 H   0  0  0  0  0  0
  -27.6502  -14.2562   19.4935 H   0  0  0  0  0  0
  -28.6985  -12.1376   21.4328 H   0  0  0  0  0  0
  -28.4473  -13.8256   21.8003 H   0  0  0  0  0  0
  -25.2751   -9.5701   22.4763 H   0  0  0  0  0  0
  -24.0011   -7.4638   22.7459 H   0  0  0  0  0  0
  -21.0844   -8.8773   19.8947 H   0  0  0  0  0  0
  -22.3684  -10.9675   19.6172 H   0  0  0  0  0  0
  -21.1998   -7.6147   23.9725 H   0  0  0  0  0  0
  -21.1482   -6.0518   25.9087 H   0  0  0  0  0  0
  -22.0591   -2.7603   23.2852 H   0  0  0  0  0  0
  -22.4092  -11.9877   22.4825 H   0  0  0  0  0  0
  -21.1092  -13.1234   22.2639 H   0  0  0  0  0  0
  -24.6532  -15.8446   20.5257 H   0  0  0  0  0  0
  -26.2759  -15.6363   20.1036 H   0  0  0  0  0  0
  -26.7165  -32.5460   23.1113 H   0  0  0  0  0  0
  -25.0055  -33.9732   25.0424 H   0  0  0  0  0  0
  -22.7109  -31.3047   21.4034 H   0  0  0  0  0  0
  -23.3751  -35.9630   23.3306 H   0  0  0  0  0  0
  -24.3580  -36.8912   22.2052 H   0  0  0  0  0  0
  -23.7242  -37.6501   23.6656 H   0  0  0  0  0  0
  -26.0879  -31.5590   20.6053 H   0  0  0  0  0  0
  -26.8387  -30.8437   22.0022 H   0  0  0  0  0  0
  -28.1128  -28.9915   21.1953 H   0  0  0  0  0  0
  -26.0049  -25.9409   18.9887 H   0  0  0  0  0  0
  -23.9742  -27.3139   19.0001 H   0  0  0  0  0  0
  -23.7482  -30.5957   19.4036 H   0  0  0  0  0  0
  -22.7520  -29.2470   19.8599 H   0  0  0  0  0  0
  -25.1294  -36.1946   25.0824 H   0  0  0  0  0  0
  -20.9979  -28.3259   24.1407 H   0  0  0  0  0  0
  -20.5678  -26.2295   23.3608 H   0  0  0  0  0  0
  -21.6644  -26.7442   22.1204 H   0  0  0  0  0  0
  -19.6915  -25.6293   21.1242 H   0  0  0  0  0  0
  -19.6691  -27.3192   20.6743 H   0  0  0  0  0  0
  -17.4201  -26.6674   21.4028 H   0  0  0  0  0  0
  -18.0336  -26.0068   22.9021 H   0  0  0  0  0  0
  -19.7938  -30.7266   24.2276 H   0  0  0  0  0  0
  -17.5017  -31.6269   24.5160 H   0  0  0  0  0  0
  -15.5354  -30.2990   23.7651 H   0  0  0  0  0  0
  -15.8672  -28.0820   22.7072 H   0  0  0  0  0  0
  -24.5894  -30.7079   25.7782 H   0  0  0  0  0  0
  -24.8910  -32.2892   26.4885 H   0  0  0  0  0  0
  -25.8042  -30.8899   27.0229 H   0  0  0  0  0  0
  -26.2895  -29.6774   24.1190 H   0  0  0  0  0  0
  -27.4013  -29.7263   25.4675 H   0  0  0  0  0  0
  -27.8769  -30.4302   23.9401 H   0  0  0  0  0  0
  -27.2671  -33.3617   26.2081 H   0  0  0  0  0  0
  -28.3854  -32.6886   25.0313 H   0  0  0  0  0  0
  -28.0732  -31.8439   26.5396 H   0  0  0  0  0  0
  -28.2603  -38.0097   24.7509 H   0  0  0  0  0  0
  -28.1073  -36.2629   24.6296 H   0  0  0  0  0  0
  -27.2299  -37.1460   25.8868 H   0  0  0  0  0  0
  -20.9359  -29.8758   21.6887 H   0  0  0  0  0  0
  -26.0179  -38.2859   24.1403 H   0  0  0  0  0  0
  -29.9285  -18.9858   18.4382 H   0  0  0  0  0  0
  -29.6895  -18.5188   22.7071 H   0  0  0  0  0  0
  -29.2455  -21.3332   18.6400 H   0  0  0  0  0  0
  -29.0082  -20.8494   22.9182 H   0  0  0  0  0  0
  -29.6383  -25.3018   22.1108 H   0  0  0  0  0  0
  -28.0275  -25.4117   22.8091 H   0  0  0  0  0  0
  -27.7531  -23.0291   22.7578 H   0  0  0  0  0  0
  -29.5077  -23.1002   22.9214 H   0  0  0  0  0  0
  -29.7243  -24.0512   19.5882 H   0  0  0  0  0  0
  -28.1264  -23.5246   19.0628 H   0  0  0  0  0  0
  -27.0095  -24.8879   20.7072 H   0  0  0  0  0  0
  -31.4758  -17.2111   21.0735 H   0  0  0  0  0  0
  -31.0158  -17.1024   19.4124 H   0  0  0  0  0  0
  -29.0002  -15.7460   20.9086 H   0  0  0  0  0  0
  1 25  1  0  0  0
  1 30  2  0  0  0
  1 83  1  0  0  0
  2  3  1  0  0  0
  2 25  1  0  0  0
  2 84  1  0  0  0
  2 85  1  0  0  0
  3  4  1  0  0  0
  3 86  1  0  0  0
  3 87  1  0  0  0
  4  5  1  0  0  0
  4 88  1  0  0  0
  4 89  1  0  0  0
  5  6  1  0  0  0
  5 26  1  0  0  0
  5 90  1  0  0  0
  6 25  1  0  0  0
  6 91  1  0  0  0
  6 92  1  0  0  0
  7  8  2  0  0  0
  7 26  1  0  0  0
  7 29  1  0  0  0
  8  9  1  0  0  0
  8 22  1  0  0  0
  9 10  1  0  0  0
  9 27  2  0  0  0
 10 11  2  0  0  0
 10 15  1  0  0  0
 11 12  1  0  0  0
 11 93  1  0  0  0
 12 13  2  0  0  0
 12 94  1  0  0  0
 13 14  1  0  0  0
 13 31  1  0  0  0
 14 15  2  0  0  0
 14 95  1  0  0  0
 15 96  1  0  0  0
 16 17  2  0  0  0
 16 21  1  0  0  0
 16 31  1  0  0  0
 17 18  1  0  0  0
 17 97  1  0  0  0
 18 19  2  0  0  0
 18 98  1  0  0  0
 19 20  1  0  0  0
 19 24  1  0  0  0
 20 21  2  0  0  0
 20 99  1  0  0  0
 21 23  1  0  0  0
 22 28  1  0  0  0
 22 32  2  0  0  0
 26 27  1  0  0  0
 28100  1  0  0  0
 28101  1  0  0  0
 29102  1  0  0  0
 29103  1  0  0  0
 33 34  1  0  0  0
 33 66  1  0  0  0
 33 70  2  0  0  0
 34 36  1  0  0  0
 34 59  1  0  0  0
 34104  1  0  0  0
 35 44  2  0  0  0
 35 45  1  0  0  0
 35 68  1  0  0  0
 36 56  1  0  0  0
 36105  1  0  0  0
 37 39  1  0  0  0
 37 47  1  0  0  0
 37 66  1  0  0  0
 37106  1  0  0  0
 38 43  2  0  0  0
 38 46  1  0  0  0
 38 47  1  0  0  0
 39 64  1  0  0  0
 39 67  2  0  0  0
 40 52  1  0  0  0
 40 53  2  0  0  0
 40 58  1  0  0  0
 41107  1  0  0  0
 41108  1  0  0  0
 41109  1  0  0  0
 41 48  1  0  0  0
 42 43  1  0  0  0
 42 66  1  0  0  0
 42110  1  0  0  0
 42111  1  0  0  0
 43 44  1  0  0  0
 44112  1  0  0  0
 45 46  2  0  0  0
 45113  1  0  0  0
 46114  1  0  0  0
 47115  1  0  0  0
 47116  1  0  0  0
 48 56  1  0  0  0
 48 65  1  0  0  0
 48117  1  0  0  0
 49 50  1  0  0  0
 49 53  1  0  0  0
 49 64  1  0  0  0
 49118  1  0  0  0
 50 51  1  0  0  0
 50119  1  0  0  0
 50120  1  0  0  0
 51 52  1  0  0  0
 51121  1  0  0  0
 51122  1  0  0  0
 52123  1  0  0  0
 52124  1  0  0  0
 53 54  1  0  0  0
 54 55  2  0  0  0
 54125  1  0  0  0
 55 57  1  0  0  0
 55126  1  0  0  0
 56 69  2  0  0  0
 57 58  2  0  0  0
 57127  1  0  0  0
 58128  1  0  0  0
 59 60  1  0  0  0
 59 61  1  0  0  0
 59 62  1  0  0  0
 60129  1  0  0  0
 60130  1  0  0  0
 60131  1  0  0  0
 61132  1  0  0  0
 61133  1  0  0  0
 61134  1  0  0  0
 62135  1  0  0  0
 62136  1  0  0  0
 62137  1  0  0  0
 63 65  1  0  0  0
 63138  1  0  0  0
 63139  1  0  0  0
 63140  1  0  0  0
 64141  1  0  0  0
 65142  1  0  0  0
 68 80  1  0  0  0
 71 73  2  0  0  0
 71 75  1  0  0  0
 71143  1  0  0  0
 72 74  1  0  0  0
 72 75  2  0  0  0
 72144  1  0  0  0
 73 76  1  0  0  0
 73145  1  0  0  0
 74 76  2  0  0  0
 74146  1  0  0  0
 75 81  1  0  0  0
 76 82  1  0  0  0
 77 78  1  0  0  0
 77 80  1  0  0  0
 77147  1  0  0  0
 77148  1  0  0  0
 78 82  1  0  0  0
 78149  1  0  0  0
 78150  1  0  0  0
 79 80  1  0  0  0
 79 82  1  0  0  0
 79151  1  0  0  0
 79152  1  0  0  0
 80153  1  0  0  0
 81 83  1  0  0  0
 81154  1  0  0  0
 81155  1  0  0  0
 83156  1  0  0  0
M  ISO  4   1 100  68 101  80 101  83 100
M  END
> <chiral flag>
0

> <version>
0

> <s_m_source_file>
/data/baiqing/PycharmProjects/Reinvent-master-3.2/result/LINK_invent/BTK/process_docking_weight1_custom_product_contain_oxygen_bond_distance_aromatic_linkinvent_7_9_3/rearranged_h_0011.sdf

> <i_m_source_file_index>
8

> <r_mmod_Potential_Energy-OPLS-2005>
89.702507019043

> <r_mmod_Stretch_Energy-OPLS-2005>
71.9470138549805

> <r_mmod_Bend_Energy-OPLS-2005>
187.573608398438

> <r_mmod_Torsional_Energy-OPLS-2005>
269.157104492188

> <r_mmod_Improper_Torsional_Energy-OPLS-2005>
7.257483959198

> <r_mmod_Van_der_Waal_Energy-OPLS-2005>
145.179733276367

> <r_mmod_Electrostatic_Energy-OPLS-2005>
-414.925689697266

> <r_mmod_Solvation_Energy-OPLS-2005>
-225.944763183594

> <b_mmod_Minimization_Converged-OPLS-2005>
0

> <r_mmod_RMS_Derivative-OPLS-2005>
0.888412415981293

$$$$
8
                    3D
 Structure written by MMmdl.
145152  0  0  1  0            999 V2000
  -30.2614  -15.6153   20.2990 C   0  0  0  0  0  0
  -30.4279  -13.0534   19.5469 C   0  0  0  0  0  0
  -29.5543  -12.6705   18.3157 C   0  0  0  0  0  0
  -28.1324  -12.2957   18.7591 C   0  0  0  0  0  0
  -27.5974  -13.3028   19.8023 C   0  0  2  0  0  0
  -28.6054  -13.6283   20.9253 C   0  0  0  0  0  0
  -25.2378  -13.8266   20.5753 C   0  0  0  0  0  0
  -24.1751  -13.0437   20.9228 C   0  0  0  0  0  0
  -24.6435  -11.6933   20.8707 C   0  0  0  0  0  0
  -23.9128  -10.4287   21.0376 C   0  0  0  0  0  0
  -24.3670   -9.4224   21.9180 C   0  0  0  0  0  0
  -23.6315   -8.2269   22.0780 C   0  0  0  0  0  0
  -22.4301   -8.0301   21.3559 C   0  0  0  0  0  0
  -21.9947   -9.0262   20.4652 C   0  0  0  0  0  0
  -22.7296  -10.2128   20.3039 C   0  0  0  0  0  0
  -21.6869   -6.0753   22.5283 C   0  0  0  0  0  0
  -21.4030   -6.5642   23.8224 C   0  0  0  0  0  0
  -21.3675   -5.6794   24.9170 C   0  0  0  0  0  0
  -21.6049   -4.3053   24.7223 C   0  0  0  0  0  0
  -21.8813   -3.8154   23.4334 C   0  0  0  0  0  0
  -21.9201   -4.6973   22.3404 C   0  0  0  0  0  0
  -22.7775  -13.5180   21.1863 C   0  0  0  0  0  0
  -22.1669   -4.2163   21.0978 F   0  0  0  0  0  0
  -21.5631   -3.4539   25.7734 F   0  0  0  0  0  0
  -29.8011  -14.2289   20.2969 N   0  0  0  0  0  0
  -26.2791  -12.9578   20.3135 N   0  0  0  0  0  0
  -25.9374  -11.6658   20.5595 N   0  0  0  0  0  0
  -22.0444  -12.8174   22.0424 N   0  0  0  0  0  0
  -25.4022  -15.2001   20.4275 N   0  0  0  0  0  0
  -31.4943  -15.5839   20.1105 O   0  0  0  0  0  0
  -21.6661   -6.8898   21.4256 O   0  0  0  0  0  0
  -22.3464  -14.5503   20.6712 O   0  0  0  0  0  0
  -24.6813  -31.8016   23.1511 C   0  0  0  0  0  0
  -25.9417  -32.4479   23.8047 C   0  0  1  0  0  0
  -27.2169  -26.7132   20.2116 C   0  0  0  0  0  0
  -25.5993  -33.8300   24.1944 N   0  0  0  0  0  0
  -23.5046  -30.4053   21.5054 C   0  0  2  0  0  0
  -24.9578  -28.7442   20.1208 C   0  0  0  0  0  0
  -22.7746  -29.4357   22.4727 C   0  0  0  0  0  0
  -18.0339  -28.1428   22.8450 C   0  0  0  0  0  0
  -24.1502  -36.7184   23.2643 C   0  0  0  0  0  0
  -26.0835  -30.5413   21.4065 C   0  0  0  0  0  0
  -26.1500  -29.1037   20.7619 C   0  0  0  0  0  0
  -27.2652  -28.1161   20.7741 C   0  0  0  0  0  0
  -25.9925  -26.5604   19.5140 C   0  0  0  0  0  0
  -24.9146  -27.4959   19.4771 C   0  0  0  0  0  0
  -23.7542  -29.6992   20.1423 C   0  0  0  0  0  0
  -25.4144  -36.2915   24.0282 C   0  0  1  0  0  0
  -20.5973  -28.3785   23.1133 C   0  0  2  0  0  0
  -20.6803  -26.9448   22.5391 C   0  0  0  0  0  0
  -19.5800  -26.6380   21.5195 C   0  0  0  0  0  0
  -18.1977  -26.7955   22.1606 C   0  0  0  0  0  0
  -19.1603  -28.8928   23.2779 C   0  0  0  0  0  0
  -18.9519  -30.1507   23.8833 C   0  0  0  0  0  0
  -17.6513  -30.6601   24.0563 C   0  0  0  0  0  0
  -25.9121  -34.9295   23.4944 C   0  0  0  0  0  0
  -16.5399  -29.9084   23.6363 C   0  0  0  0  0  0
  -16.7328  -28.6518   23.0360 C   0  0  0  0  0  0
  -26.4600  -31.6490   25.0640 C   0  0  0  0  0  0
  -25.3674  -31.3799   26.1253 C   0  0  0  0  0  0
  -27.0495  -30.2837   24.6467 C   0  0  0  0  0  0
  -27.6079  -32.4295   25.7466 C   0  0  0  0  0  0
  -27.5583  -37.1746   24.8459 C   0  0  0  0  0  0
  -21.4397  -29.3045   22.3463 N   0  0  0  0  0  0
  -26.4285  -37.3673   23.9403 N   0  0  0  0  0  0
  -24.7811  -30.9475   22.0753 N   0  0  0  0  0  0
  -23.4205  -28.7970   23.3077 O   0  0  0  0  0  0
  -28.1774  -25.4991   20.2734 O   0  0  0  0  0  0
  -26.5769  -34.8869   22.4569 O   0  0  0  0  0  0
  -23.5839  -32.1084   23.6495 O   0  0  0  0  0  0
  -28.9491  -22.2360   20.2809 C   0  0  0  0  0  0
  -27.3105  -20.3411   20.0477 C   0  0  0  0  0  0
  -29.3542  -17.2564   20.3657 C   0  0  0  0  0  0
  -27.8936  -23.7700   20.1919 C   0  0  0  0  0  0
  -29.6408  -19.1735   20.2960 C   0  0  0  0  0  0
  -28.7148  -20.6920   20.2410 N   0  0  0  0  0  0
  -30.1422  -22.5268   20.4066 O   0  0  0  0  0  0
  -31.4303  -13.3104   19.2045 H   0  0  0  0  0  0
  -30.5551  -12.1930   20.2066 H   0  0  0  0  0  0
  -30.0074  -11.8498   17.7553 H   0  0  0  0  0  0
  -29.5096  -13.5181   17.6280 H   0  0  0  0  0  0
  -28.1750  -11.2972   19.1997 H   0  0  0  0  0  0
  -27.4653  -12.2332   17.8981 H   0  0  0  0  0  0
  -27.4612  -14.2260   19.2350 H   0  0  0  0  0  0
  -28.8505  -12.7467   21.5207 H   0  0  0  0  0  0
  -28.1701  -14.3576   21.6128 H   0  0  0  0  0  0
  -25.2827   -9.5696   22.4746 H   0  0  0  0  0  0
  -24.0022   -7.4680   22.7515 H   0  0  0  0  0  0
  -21.0895   -8.8770   19.8945 H   0  0  0  0  0  0
  -22.3775  -10.9647   19.6119 H   0  0  0  0  0  0
  -21.2028   -7.6154   23.9723 H   0  0  0  0  0  0
  -21.1509   -6.0525   25.9076 H   0  0  0  0  0  0
  -22.0579   -2.7614   23.2831 H   0  0  0  0  0  0
  -22.4093  -11.9832   22.4787 H   0  0  0  0  0  0
  -21.1062  -13.1172   22.2616 H   0  0  0  0  0  0
  -24.6372  -15.8526   20.5546 H   0  0  0  0  0  0
  -26.2559  -15.6435   20.1167 H   0  0  0  0  0  0
  -26.7484  -32.4959   23.0745 H   0  0  0  0  0  0
  -25.0045  -33.9337   25.0029 H   0  0  0  0  0  0
  -22.8307  -31.2432   21.3159 H   0  0  0  0  0  0
  -23.3784  -35.9493   23.3229 H   0  0  0  0  0  0
  -24.3599  -36.8922   22.2081 H   0  0  0  0  0  0
  -23.7244  -37.6334   23.6764 H   0  0  0  0  0  0
  -26.2624  -31.2639   20.6092 H   0  0  0  0  0  0
  -26.9448  -30.6272   22.0585 H   0  0  0  0  0  0
  -28.1614  -28.3976   21.3061 H   0  0  0  0  0  0
  -25.8251  -25.6157   19.0172 H   0  0  0  0  0  0
  -24.0088  -27.2069   18.9594 H   0  0  0  0  0  0
  -23.9293  -30.4557   19.3763 H   0  0  0  0  0  0
  -22.8580  -29.1615   19.8260 H   0  0  0  0  0  0
  -25.1353  -36.1685   25.0778 H   0  0  0  0  0  0
  -21.0054  -28.3406   24.1269 H   0  0  0  0  0  0
  -20.5632  -26.2430   23.3655 H   0  0  0  0  0  0
  -21.6667  -26.7388   22.1238 H   0  0  0  0  0  0
  -19.6945  -25.6269   21.1282 H   0  0  0  0  0  0
  -19.6721  -27.3145   20.6690 H   0  0  0  0  0  0
  -17.4232  -26.6696   21.4012 H   0  0  0  0  0  0
  -18.0388  -26.0103   22.9021 H   0  0  0  0  0  0
  -19.7992  -30.7341   24.2163 H   0  0  0  0  0  0
  -17.5065  -31.6272   24.5179 H   0  0  0  0  0  0
  -15.5396  -30.2968   23.7708 H   0  0  0  0  0  0
  -15.8746  -28.0815   22.7095 H   0  0  0  0  0  0
  -24.5933  -30.7053   25.7576 H   0  0  0  0  0  0
  -24.8762  -32.3000   26.4418 H   0  0  0  0  0  0
  -25.7854  -30.9170   27.0201 H   0  0  0  0  0  0
  -26.3177  -29.6483   24.1465 H   0  0  0  0  0  0
  -27.3974  -29.7244   25.5165 H   0  0  0  0  0  0
  -27.9140  -30.3982   23.9929 H   0  0  0  0  0  0
  -27.2685  -33.3698   26.1819 H   0  0  0  0  0  0
  -28.4026  -32.6665   25.0381 H   0  0  0  0  0  0
  -28.0579  -31.8538   26.5565 H   0  0  0  0  0  0
  -28.2536  -38.0104   24.7547 H   0  0  0  0  0  0
  -28.1143  -36.2629   24.6222 H   0  0  0  0  0  0
  -27.2313  -37.1309   25.8864 H   0  0  0  0  0  0
  -20.9687  -29.8718   21.6551 H   0  0  0  0  0  0
  -26.0115  -38.2723   24.1417 H   0  0  0  0  0  0
  -27.0842  -20.2576   18.9838 H   0  0  0  0  0  0
  -26.6370  -21.0842   20.4814 H   0  0  0  0  0  0
  -27.0757  -19.3824   20.5085 H   0  0  0  0  0  0
  -28.6170  -17.0975   19.5766 H   0  0  0  0  0  0
  -28.7706  -17.1281   21.2760 H   0  0  0  0  0  0
  -27.1603  -23.5978   20.9795 H   0  0  0  0  0  0
  -27.3158  -23.6439   19.2775 H   0  0  0  0  0  0
  -30.3046  -19.2951   19.4400 H   0  0  0  0  0  0
  -30.2873  -19.3552   21.1545 H   0  0  0  0  0  0
  1 25  1  0  0  0
  1 30  2  0  0  0
  1 73  1  0  0  0
  2  3  1  0  0  0
  2 25  1  0  0  0
  2 78  1  0  0  0
  2 79  1  0  0  0
  3  4  1  0  0  0
  3 80  1  0  0  0
  3 81  1  0  0  0
  4  5  1  0  0  0
  4 82  1  0  0  0
  4 83  1  0  0  0
  5  6  1  0  0  0
  5 26  1  0  0  0
  5 84  1  0  0  0
  6 25  1  0  0  0
  6 85  1  0  0  0
  6 86  1  0  0  0
  7  8  2  0  0  0
  7 26  1  0  0  0
  7 29  1  0  0  0
  8  9  1  0  0  0
  8 22  1  0  0  0
  9 10  1  0  0  0
  9 27  2  0  0  0
 10 11  2  0  0  0
 10 15  1  0  0  0
 11 12  1  0  0  0
 11 87  1  0  0  0
 12 13  2  0  0  0
 12 88  1  0  0  0
 13 14  1  0  0  0
 13 31  1  0  0  0
 14 15  2  0  0  0
 14 89  1  0  0  0
 15 90  1  0  0  0
 16 17  2  0  0  0
 16 21  1  0  0  0
 16 31  1  0  0  0
 17 18  1  0  0  0
 17 91  1  0  0  0
 18 19  2  0  0  0
 18 92  1  0  0  0
 19 20  1  0  0  0
 19 24  1  0  0  0
 20 21  2  0  0  0
 20 93  1  0  0  0
 21 23  1  0  0  0
 22 28  1  0  0  0
 22 32  2  0  0  0
 26 27  1  0  0  0
 28 94  1  0  0  0
 28 95  1  0  0  0
 29 96  1  0  0  0
 29 97  1  0  0  0
 33 34  1  0  0  0
 33 66  1  0  0  0
 33 70  2  0  0  0
 34 36  1  0  0  0
 34 59  1  0  0  0
 34 98  1  0  0  0
 35 44  2  0  0  0
 35 45  1  0  0  0
 35 68  1  0  0  0
 36 56  1  0  0  0
 36 99  1  0  0  0
 37 39  1  0  0  0
 37 47  1  0  0  0
 37 66  1  0  0  0
 37100  1  0  0  0
 38 43  2  0  0  0
 38 46  1  0  0  0
 38 47  1  0  0  0
 39 64  1  0  0  0
 39 67  2  0  0  0
 40 52  1  0  0  0
 40 53  2  0  0  0
 40 58  1  0  0  0
 41101  1  0  0  0
 41102  1  0  0  0
 41103  1  0  0  0
 41 48  1  0  0  0
 42 43  1  0  0  0
 42 66  1  0  0  0
 42104  1  0  0  0
 42105  1  0  0  0
 43 44  1  0  0  0
 44106  1  0  0  0
 45 46  2  0  0  0
 45107  1  0  0  0
 46108  1  0  0  0
 47109  1  0  0  0
 47110  1  0  0  0
 48 56  1  0  0  0
 48 65  1  0  0  0
 48111  1  0  0  0
 49 50  1  0  0  0
 49 53  1  0  0  0
 49 64  1  0  0  0
 49112  1  0  0  0
 50 51  1  0  0  0
 50113  1  0  0  0
 50114  1  0  0  0
 51 52  1  0  0  0
 51115  1  0  0  0
 51116  1  0  0  0
 52117  1  0  0  0
 52118  1  0  0  0
 53 54  1  0  0  0
 54 55  2  0  0  0
 54119  1  0  0  0
 55 57  1  0  0  0
 55120  1  0  0  0
 56 69  2  0  0  0
 57 58  2  0  0  0
 57121  1  0  0  0
 58122  1  0  0  0
 59 60  1  0  0  0
 59 61  1  0  0  0
 59 62  1  0  0  0
 60123  1  0  0  0
 60124  1  0  0  0
 60125  1  0  0  0
 61126  1  0  0  0
 61127  1  0  0  0
 61128  1  0  0  0
 62129  1  0  0  0
 62130  1  0  0  0
 62131  1  0  0  0
 63 65  1  0  0  0
 63132  1  0  0  0
 63133  1  0  0  0
 63134  1  0  0  0
 64135  1  0  0  0
 65136  1  0  0  0
 68 74  1  0  0  0
 71 74  1  0  0  0
 71 76  1  0  0  0
 71 77  2  0  0  0
 72 76  1  0  0  0
 72137  1  0  0  0
 72138  1  0  0  0
 72139  1  0  0  0
 73 75  1  0  0  0
 73140  1  0  0  0
 73141  1  0  0  0
 74142  1  0  0  0
 74143  1  0  0  0
 75 76  1  0  0  0
 75144  1  0  0  0
 75145  1  0  0  0
M  ISO  4   1 100  68 101  73 100  74 101
M  END
> <chiral flag>
0

> <version>
0

> <s_m_source_file>
/data/baiqing/PycharmProjects/Reinvent-master-3.2/result/LINK_invent/BTK/process_docking_weight1_custom_product_contain_oxygen_bond_distance_aromatic_linkinvent_7_9_3/rearranged_h_0011.sdf

> <i_m_source_file_index>
9

> <r_mmod_Potential_Energy-OPLS-2005>
2401.71044921875

> <r_mmod_Stretch_Energy-OPLS-2005>
1121.98571777344

> <r_mmod_Bend_Energy-OPLS-2005>
601.274475097656

> <r_mmod_Torsional_Energy-OPLS-2005>
213.833404541016

> <r_mmod_Improper_Torsional_Energy-OPLS-2005>
2.78256916999817

> <r_mmod_Van_der_Waal_Energy-OPLS-2005>
107.334243774414

> <r_mmod_Electrostatic_Energy-OPLS-2005>
-281.175384521484

> <r_mmod_Solvation_Energy-OPLS-2005>
-244.536071777344

> <b_mmod_Minimization_Converged-OPLS-2005>
0

> <r_mmod_RMS_Derivative-OPLS-2005>
3.85551071166992

$$$$
9
                    3D
 Structure written by MMmdl.
151159  0  0  1  0            999 V2000
  -30.6215  -14.6467   20.4927 C   0  0  0  0  0  0
  -30.4407  -12.3957   19.4503 C   0  0  0  0  0  0
  -29.5080  -12.5074   18.2234 C   0  0  0  0  0  0
  -28.0310  -12.3448   18.6369 C   0  0  0  0  0  0
  -27.6531  -13.2179   19.8634 C   0  0  2  0  0  0
  -28.7004  -13.0767   20.9916 C   0  0  0  0  0  0
  -25.2552  -13.8167   20.5692 C   0  0  0  0  0  0
  -24.1817  -13.0425   20.9166 C   0  0  0  0  0  0
  -24.6396  -11.6902   20.8726 C   0  0  0  0  0  0
  -23.9065  -10.4286   21.0398 C   0  0  0  0  0  0
  -24.3615   -9.4205   21.9181 C   0  0  0  0  0  0
  -23.6291   -8.2241   22.0754 C   0  0  0  0  0  0
  -22.4273   -8.0278   21.3545 C   0  0  0  0  0  0
  -21.9906   -9.0250   20.4646 C   0  0  0  0  0  0
  -22.7236  -10.2128   20.3050 C   0  0  0  0  0  0
  -21.6852   -6.0733   22.5280 C   0  0  0  0  0  0
  -21.4013   -6.5637   23.8213 C   0  0  0  0  0  0
  -21.3660   -5.6791   24.9175 C   0  0  0  0  0  0
  -21.6045   -4.3053   24.7225 C   0  0  0  0  0  0
  -21.8819   -3.8144   23.4346 C   0  0  0  0  0  0
  -21.9192   -4.6961   22.3403 C   0  0  0  0  0  0
  -22.7841  -13.5220   21.1842 C   0  0  0  0  0  0
  -22.1662   -4.2147   21.0981 F   0  0  0  0  0  0
  -21.5630   -3.4537   25.7739 F   0  0  0  0  0  0
  -30.0151  -13.4189   20.4251 N   0  0  0  0  0  0
  -26.2995  -12.9359   20.3338 N   0  0  0  0  0  0
  -25.9330  -11.6508   20.5761 N   0  0  0  0  0  0
  -22.0489  -12.8217   22.0407 N   0  0  0  0  0  0
  -25.4214  -15.1896   20.4180 N   0  0  0  0  0  0
  -31.7915  -14.8056   20.1326 O   0  0  0  0  0  0
  -21.6637   -6.8876   21.4242 O   0  0  0  0  0  0
  -22.3520  -14.5528   20.6698 O   0  0  0  0  0  0
  -24.6266  -31.8601   23.2031 C   0  0  0  0  0  0
  -25.9113  -32.4780   23.8358 C   0  0  1  0  0  0
  -27.2236  -27.3176   20.1118 C   0  0  0  0  0  0
  -25.5926  -33.8581   24.2283 N   0  0  0  0  0  0
  -23.4199  -30.4850   21.5463 C   0  0  2  0  0  0
  -24.8656  -28.9422   20.1113 C   0  0  0  0  0  0
  -22.7476  -29.4628   22.4939 C   0  0  0  0  0  0
  -18.0286  -28.1384   22.8487 C   0  0  0  0  0  0
  -24.1489  -36.7296   23.2639 C   0  0  0  0  0  0
  -25.9621  -30.7907   21.3744 C   0  0  0  0  0  0
  -26.0362  -29.4188   20.7147 C   0  0  0  0  0  0
  -27.2183  -28.6189   20.7045 C   0  0  0  0  0  0
  -26.0260  -26.8968   19.4857 C   0  0  0  0  0  0
  -24.8626  -27.6866   19.4884 C   0  0  0  0  0  0
  -23.6342  -29.8222   20.1610 C   0  0  0  0  0  0
  -25.4113  -36.3085   24.0330 C   0  0  1  0  0  0
  -20.5886  -28.3689   23.1283 C   0  0  2  0  0  0
  -20.6775  -26.9414   22.5408 C   0  0  0  0  0  0
  -19.5750  -26.6385   21.5212 C   0  0  0  0  0  0
  -18.1931  -26.7926   22.1626 C   0  0  0  0  0  0
  -19.1538  -28.8853   23.2880 C   0  0  0  0  0  0
  -18.9460  -30.1455   23.8897 C   0  0  0  0  0  0
  -17.6461  -30.6587   24.0563 C   0  0  0  0  0  0
  -25.9051  -34.9454   23.5107 C   0  0  0  0  0  0
  -16.5352  -29.9086   23.6329 C   0  0  0  0  0  0
  -16.7273  -28.6503   23.0352 C   0  0  0  0  0  0
  -26.4494  -31.6587   25.0728 C   0  0  0  0  0  0
  -25.3727  -31.3725   26.1454 C   0  0  0  0  0  0
  -27.0334  -30.3010   24.6182 C   0  0  0  0  0  0
  -27.6054  -32.4320   25.7498 C   0  0  0  0  0  0
  -27.5580  -37.1804   24.8465 C   0  0  0  0  0  0
  -21.4189  -29.3045   22.3680 N   0  0  0  0  0  0
  -26.4293  -37.3779   23.9407 N   0  0  0  0  0  0
  -24.6885  -31.0614   22.0981 N   0  0  0  0  0  0
  -23.4201  -28.8163   23.3014 O   0  0  0  0  0  0
  -28.3403  -26.4633   20.1602 O   0  0  0  0  0  0
  -26.5620  -34.8919   22.4674 O   0  0  0  0  0  0
  -23.5429  -32.1399   23.7358 O   0  0  0  0  0  0
  -31.1180  -17.8849   20.6034 C   0  0  0  0  0  0
  -31.1123  -19.3107   20.5262 C   0  0  0  0  0  0
  -28.7106  -19.3389   20.5192 C   0  0  0  0  0  0
  -29.9083  -17.1463   20.6525 C   0  0  0  0  0  0
  -29.9190  -20.0843   20.4854 C   0  0  0  0  0  0
  -28.7114  -17.9126   20.6067 C   0  0  0  0  0  0
  -29.2528  -23.9564   20.3436 C   0  0  0  0  0  0
  -28.1015  -25.0048   20.0220 C   0  0  0  0  0  0
  -28.8904  -22.3990   20.2827 C   0  0  0  0  0  0
  -29.7931  -15.6941   20.7921 N   0  0  0  0  0  0
  -30.0305  -21.4919   20.4337 O   0  0  0  0  0  0
  -27.5271  -17.2553   20.6481 F   0  0  0  0  0  0
  -31.4812  -12.5238   19.1468 H   0  0  0  0  0  0
  -30.3783  -11.4007   19.8940 H   0  0  0  0  0  0
  -29.7724  -11.7555   17.4787 H   0  0  0  0  0  0
  -29.6485  -13.4764   17.7417 H   0  0  0  0  0  0
  -27.8691  -11.2920   18.8707 H   0  0  0  0  0  0
  -27.3755  -12.5722   17.7955 H   0  0  0  0  0  0
  -27.6666  -14.2522   19.5190 H   0  0  0  0  0  0
  -28.7131  -12.0565   21.3781 H   0  0  0  0  0  0
  -28.4480  -13.7124   21.8419 H   0  0  0  0  0  0
  -25.2760   -9.5683   22.4755 H   0  0  0  0  0  0
  -23.9999   -7.4633   22.7474 H   0  0  0  0  0  0
  -21.0836   -8.8767   19.8954 H   0  0  0  0  0  0
  -22.3693  -10.9665   19.6157 H   0  0  0  0  0  0
  -21.2003   -7.6146   23.9716 H   0  0  0  0  0  0
  -21.1485   -6.0521   25.9079 H   0  0  0  0  0  0
  -22.0598   -2.7606   23.2846 H   0  0  0  0  0  0
  -22.4103  -11.9877   22.4793 H   0  0  0  0  0  0
  -21.1112  -13.1253   22.2622 H   0  0  0  0  0  0
  -24.6550  -15.8367   20.5619 H   0  0  0  0  0  0
  -26.2902  -15.6637   20.1983 H   0  0  0  0  0  0
  -26.7180  -32.5450   23.1107 H   0  0  0  0  0  0
  -25.0065  -33.9725   25.0423 H   0  0  0  0  0  0
  -22.7139  -31.3059   21.4047 H   0  0  0  0  0  0
  -23.3749  -35.9632   23.3306 H   0  0  0  0  0  0
  -24.3580  -36.8912   22.2052 H   0  0  0  0  0  0
  -23.7246  -37.6502   23.6657 H   0  0  0  0  0  0
  -26.0942  -31.5552   20.6075 H   0  0  0  0  0  0
  -26.8423  -30.8379   22.0041 H   0  0  0  0  0  0
  -28.1158  -28.9808   21.1864 H   0  0  0  0  0  0
  -25.9527  -25.9397   18.9927 H   0  0  0  0  0  0
  -23.9657  -27.3159   19.0113 H   0  0  0  0  0  0
  -23.7534  -30.5997   19.4055 H   0  0  0  0  0  0
  -22.7537  -29.2525   19.8581 H   0  0  0  0  0  0
  -25.1293  -36.1940   25.0823 H   0  0  0  0  0  0
  -20.9979  -28.3261   24.1404 H   0  0  0  0  0  0
  -20.5679  -26.2299   23.3607 H   0  0  0  0  0  0
  -21.6643  -26.7445   22.1199 H   0  0  0  0  0  0
  -19.6913  -25.6296   21.1242 H   0  0  0  0  0  0
  -19.6686  -27.3195   20.6741 H   0  0  0  0  0  0
  -17.4200  -26.6671   21.4030 H   0  0  0  0  0  0
  -18.0335  -26.0069   22.9023 H   0  0  0  0  0  0
  -19.7937  -30.7270   24.2269 H   0  0  0  0  0  0
  -17.5016  -31.6267   24.5164 H   0  0  0  0  0  0
  -15.5352  -30.2988   23.7651 H   0  0  0  0  0  0
  -15.8672  -28.0822   22.7068 H   0  0  0  0  0  0
  -24.5898  -30.7080   25.7780 H   0  0  0  0  0  0
  -24.8923  -32.2892   26.4885 H   0  0  0  0  0  0
  -25.8050  -30.8895   27.0226 H   0  0  0  0  0  0
  -26.2907  -29.6762   24.1207 H   0  0  0  0  0  0
  -27.4029  -29.7264   25.4687 H   0  0  0  0  0  0
  -27.8779  -30.4291   23.9407 H   0  0  0  0  0  0
  -27.2666  -33.3618   26.2077 H   0  0  0  0  0  0
  -28.3864  -32.6881   25.0327 H   0  0  0  0  0  0
  -28.0722  -31.8443   26.5414 H   0  0  0  0  0  0
  -28.2599  -38.0100   24.7509 H   0  0  0  0  0  0
  -28.1073  -36.2631   24.6294 H   0  0  0  0  0  0
  -27.2298  -37.1456   25.8868 H   0  0  0  0  0  0
  -20.9367  -29.8773   21.6895 H   0  0  0  0  0  0
  -26.0176  -38.2855   24.1401 H   0  0  0  0  0  0
  -32.0671  -17.3700   20.6429 H   0  0  0  0  0  0
  -32.0626  -19.8258   20.5039 H   0  0  0  0  0  0
  -27.7601  -19.8494   20.4918 H   0  0  0  0  0  0
  -29.6470  -24.1729   21.3364 H   0  0  0  0  0  0
  -30.0761  -24.1424   19.6539 H   0  0  0  0  0  0
  -27.2506  -24.7435   20.6531 H   0  0  0  0  0  0
  -27.7948  -24.8125   18.9934 H   0  0  0  0  0  0
  -28.4094  -22.1808   19.3285 H   0  0  0  0  0  0
  -28.1566  -22.1770   21.0583 H   0  0  0  0  0  0
  -28.8555  -15.3945   21.0126 H   0  0  0  0  0  0
  1 25  1  0  0  0
  1 30  2  0  0  0
  1 80  1  0  0  0
  2  3  1  0  0  0
  2 25  1  0  0  0
  2 83  1  0  0  0
  2 84  1  0  0  0
  3  4  1  0  0  0
  3 85  1  0  0  0
  3 86  1  0  0  0
  4  5  1  0  0  0
  4 87  1  0  0  0
  4 88  1  0  0  0
  5  6  1  0  0  0
  5 26  1  0  0  0
  5 89  1  0  0  0
  6 25  1  0  0  0
  6 90  1  0  0  0
  6 91  1  0  0  0
  7  8  2  0  0  0
  7 26  1  0  0  0
  7 29  1  0  0  0
  8  9  1  0  0  0
  8 22  1  0  0  0
  9 10  1  0  0  0
  9 27  2  0  0  0
 10 11  2  0  0  0
 10 15  1  0  0  0
 11 12  1  0  0  0
 11 92  1  0  0  0
 12 13  2  0  0  0
 12 93  1  0  0  0
 13 14  1  0  0  0
 13 31  1  0  0  0
 14 15  2  0  0  0
 14 94  1  0  0  0
 15 95  1  0  0  0
 16 17  2  0  0  0
 16 21  1  0  0  0
 16 31  1  0  0  0
 17 18  1  0  0  0
 17 96  1  0  0  0
 18 19  2  0  0  0
 18 97  1  0  0  0
 19 20  1  0  0  0
 19 24  1  0  0  0
 20 21  2  0  0  0
 20 98  1  0  0  0
 21 23  1  0  0  0
 22 28  1  0  0  0
 22 32  2  0  0  0
 26 27  1  0  0  0
 28 99  1  0  0  0
 28100  1  0  0  0
 29101  1  0  0  0
 29102  1  0  0  0
 33 34  1  0  0  0
 33 66  1  0  0  0
 33 70  2  0  0  0
 34 36  1  0  0  0
 34 59  1  0  0  0
 34103  1  0  0  0
 35 44  2  0  0  0
 35 45  1  0  0  0
 35 68  1  0  0  0
 36 56  1  0  0  0
 36104  1  0  0  0
 37 39  1  0  0  0
 37 47  1  0  0  0
 37 66  1  0  0  0
 37105  1  0  0  0
 38 43  2  0  0  0
 38 46  1  0  0  0
 38 47  1  0  0  0
 39 64  1  0  0  0
 39 67  2  0  0  0
 40 52  1  0  0  0
 40 53  2  0  0  0
 40 58  1  0  0  0
 41106  1  0  0  0
 41107  1  0  0  0
 41108  1  0  0  0
 41 48  1  0  0  0
 42 43  1  0  0  0
 42 66  1  0  0  0
 42109  1  0  0  0
 42110  1  0  0  0
 43 44  1  0  0  0
 44111  1  0  0  0
 45 46  2  0  0  0
 45112  1  0  0  0
 46113  1  0  0  0
 47114  1  0  0  0
 47115  1  0  0  0
 48 56  1  0  0  0
 48 65  1  0  0  0
 48116  1  0  0  0
 49 50  1  0  0  0
 49 53  1  0  0  0
 49 64  1  0  0  0
 49117  1  0  0  0
 50 51  1  0  0  0
 50118  1  0  0  0
 50119  1  0  0  0
 51 52  1  0  0  0
 51120  1  0  0  0
 51121  1  0  0  0
 52122  1  0  0  0
 52123  1  0  0  0
 53 54  1  0  0  0
 54 55  2  0  0  0
 54124  1  0  0  0
 55 57  1  0  0  0
 55125  1  0  0  0
 56 69  2  0  0  0
 57 58  2  0  0  0
 57126  1  0  0  0
 58127  1  0  0  0
 59 60  1  0  0  0
 59 61  1  0  0  0
 59 62  1  0  0  0
 60128  1  0  0  0
 60129  1  0  0  0
 60130  1  0  0  0
 61131  1  0  0  0
 61132  1  0  0  0
 61133  1  0  0  0
 62134  1  0  0  0
 62135  1  0  0  0
 62136  1  0  0  0
 63 65  1  0  0  0
 63137  1  0  0  0
 63138  1  0  0  0
 63139  1  0  0  0
 64140  1  0  0  0
 65141  1  0  0  0
 68 78  1  0  0  0
 71 72  2  0  0  0
 71 74  1  0  0  0
 71142  1  0  0  0
 72 75  1  0  0  0
 72143  1  0  0  0
 73 75  2  0  0  0
 73 76  1  0  0  0
 73144  1  0  0  0
 74 76  2  0  0  0
 74 80  1  0  0  0
 75 81  1  0  0  0
 76 82  1  0  0  0
 77 78  1  0  0  0
 77 79  1  0  0  0
 77145  1  0  0  0
 77146  1  0  0  0
 78147  1  0  0  0
 78148  1  0  0  0
 79 81  1  0  0  0
 79149  1  0  0  0
 79150  1  0  0  0
 80151  1  0  0  0
M  ISO  4   1 100  68 101  78 101  80 100
M  END
> <chiral flag>
0

> <version>
0

> <s_m_source_file>
/data/baiqing/PycharmProjects/Reinvent-master-3.2/result/LINK_invent/BTK/process_docking_weight1_custom_product_contain_oxygen_bond_distance_aromatic_linkinvent_7_9_3/rearranged_h_0011.sdf

> <i_m_source_file_index>
10

> <r_mmod_Potential_Energy-OPLS-2005>
8.48562717437744

> <r_mmod_Stretch_Energy-OPLS-2005>
78.0414810180664

> <r_mmod_Bend_Energy-OPLS-2005>
145.352081298828

> <r_mmod_Torsional_Energy-OPLS-2005>
209.226409912109

> <r_mmod_Improper_Torsional_Energy-OPLS-2005>
4.5839262008667

> <r_mmod_Van_der_Waal_Energy-OPLS-2005>
144.377670288086

> <r_mmod_Electrostatic_Energy-OPLS-2005>
-422.268218994141

> <r_mmod_Solvation_Energy-OPLS-2005>
-201.274765014648

> <b_mmod_Minimization_Converged-OPLS-2005>
0

> <r_mmod_RMS_Derivative-OPLS-2005>
0.238112762570381

$$$$
10
                    3D
 Structure written by MMmdl.
143150  0  0  1  0            999 V2000
  -30.1636  -16.0165   20.2837 C   0  0  0  0  0  0
  -30.4021  -13.3807   19.5097 C   0  0  0  0  0  0
  -29.5672  -12.7447   18.3499 C   0  0  0  0  0  0
  -28.1808  -12.2975   18.8321 C   0  0  0  0  0  0
  -27.5888  -13.3376   19.8001 C   0  0  2  0  0  0
  -28.5861  -13.8471   20.8777 C   0  0  0  0  0  0
  -25.2337  -13.8308   20.5832 C   0  0  0  0  0  0
  -24.1745  -13.0427   20.9297 C   0  0  0  0  0  0
  -24.6485  -11.6955   20.8763 C   0  0  0  0  0  0
  -23.9183  -10.4297   21.0405 C   0  0  0  0  0  0
  -24.3690   -9.4205   21.9200 C   0  0  0  0  0  0
  -23.6323   -8.2263   22.0773 C   0  0  0  0  0  0
  -22.4301   -8.0322   21.3557 C   0  0  0  0  0  0
  -21.9971   -9.0311   20.4658 C   0  0  0  0  0  0
  -22.7347  -10.2160   20.3056 C   0  0  0  0  0  0
  -21.6865   -6.0767   22.5277 C   0  0  0  0  0  0
  -21.4023   -6.5660   23.8211 C   0  0  0  0  0  0
  -21.3650   -5.6801   24.9170 C   0  0  0  0  0  0
  -21.6034   -4.3069   24.7210 C   0  0  0  0  0  0
  -21.8818   -3.8167   23.4328 C   0  0  0  0  0  0
  -21.9194   -4.6989   22.3390 C   0  0  0  0  0  0
  -22.7748  -13.5156   21.1899 C   0  0  0  0  0  0
  -22.1667   -4.2180   21.0968 F   0  0  0  0  0  0
  -21.5617   -3.4544   25.7721 F   0  0  0  0  0  0
  -29.6793  -14.5908   20.1704 N   0  0  0  0  0  0
  -26.2827  -12.9698   20.3296 N   0  0  0  0  0  0
  -25.9450  -11.6736   20.5678 N   0  0  0  0  0  0
  -22.0376  -12.8144   22.0431 N   0  0  0  0  0  0
  -25.3914  -15.2038   20.4227 N   0  0  0  0  0  0
  -31.4110  -15.8730   20.3150 O   0  0  0  0  0  0
  -21.6650   -6.8922   21.4243 O   0  0  0  0  0  0
  -22.3446  -14.5464   20.6738 O   0  0  0  0  0  0
  -24.7056  -31.7721   23.1279 C   0  0  0  0  0  0
  -25.9532  -32.4316   23.7901 C   0  0  1  0  0  0
  -27.2397  -26.4470   20.2423 C   0  0  0  0  0  0
  -25.6018  -33.8158   24.1777 N   0  0  0  0  0  0
  -23.5424  -30.3631   21.4905 C   0  0  2  0  0  0
  -25.0002  -28.6446   20.1351 C   0  0  0  0  0  0
  -22.7854  -29.4187   22.4644 C   0  0  0  0  0  0
  -18.0371  -28.1416   22.8423 C   0  0  0  0  0  0
  -24.1517  -36.7085   23.2660 C   0  0  0  0  0  0
  -26.1337  -30.4200   21.4327 C   0  0  0  0  0  0
  -26.1981  -28.9547   20.7902 C   0  0  0  0  0  0
  -27.2916  -27.8963   20.7967 C   0  0  0  0  0  0
  -26.0015  -26.4115   19.5305 C   0  0  0  0  0  0
  -24.9557  -27.3989   19.4822 C   0  0  0  0  0  0
  -23.8105  -29.6337   20.1397 C   0  0  0  0  0  0
  -25.4171  -36.2793   24.0256 C   0  0  1  0  0  0
  -20.6014  -28.3800   23.1070 C   0  0  2  0  0  0
  -20.6839  -26.9442   22.5381 C   0  0  0  0  0  0
  -19.5827  -26.6358   21.5191 C   0  0  0  0  0  0
  -18.2003  -26.7940   22.1583 C   0  0  0  0  0  0
  -19.1638  -28.8931   23.2716 C   0  0  0  0  0  0
  -18.9548  -30.1508   23.8772 C   0  0  0  0  0  0
  -17.6539  -30.6592   24.0541 C   0  0  0  0  0  0
  -25.9163  -34.9196   23.4875 C   0  0  0  0  0  0
  -16.5425  -29.9075   23.6350 C   0  0  0  0  0  0
  -16.7348  -28.6498   23.0359 C   0  0  0  0  0  0
  -26.4636  -31.6450   25.0620 C   0  0  0  0  0  0
  -25.3610  -31.3840   26.1159 C   0  0  0  0  0  0
  -27.0610  -30.2754   24.6715 C   0  0  0  0  0  0
  -27.6057  -32.4362   25.7419 C   0  0  0  0  0  0
  -27.5566  -37.1691   24.8469 C   0  0  0  0  0  0
  -21.4482  -29.3015   22.3371 N   0  0  0  0  0  0
  -26.4271  -37.3581   23.9410 N   0  0  0  0  0  0
  -24.8204  -30.8911   22.0685 N   0  0  0  0  0  0
  -23.4189  -28.7845   23.3110 O   0  0  0  0  0  0
  -28.2103  -25.1382   20.2091 O   0  0  0  0  0  0
  -26.5834  -34.8827   22.4520 O   0  0  0  0  0  0
  -23.6030  -32.0923   23.6086 O   0  0  0  0  0  0
  -28.1464  -17.3478   19.4672 C   0  0  0  0  0  0
  -28.8124  -21.3013   19.9737 C   0  0  0  0  0  0
  -29.3809  -19.3622   20.5689 C   0  0  0  0  0  0
  -28.2518  -23.2636   20.5080 C   0  0  0  0  0  0
  -29.4090  -17.4905   20.1879 N   0  0  0  0  0  0
  -31.3491  -13.7206   19.0871 H   0  0  0  0  0  0
  -30.6891  -12.6298   20.2484 H   0  0  0  0  0  0
  -30.1007  -11.9032   17.9056 H   0  0  0  0  0  0
  -29.4507  -13.4882   17.5599 H   0  0  0  0  0  0
  -28.2969  -11.3475   19.3561 H   0  0  0  0  0  0
  -27.5119  -12.1116   17.9905 H   0  0  0  0  0  0
  -27.3888  -14.1854   19.1460 H   0  0  0  0  0  0
  -28.9521  -13.0395   21.5131 H   0  0  0  0  0  0
  -28.0824  -14.5461   21.5462 H   0  0  0  0  0  0
  -25.2818   -9.5670   22.4811 H   0  0  0  0  0  0
  -24.0006   -7.4646   22.7503 H   0  0  0  0  0  0
  -21.0901   -8.8859   19.8964 H   0  0  0  0  0  0
  -22.3825  -10.9720   19.6176 H   0  0  0  0  0  0
  -21.2033   -7.6171   23.9723 H   0  0  0  0  0  0
  -21.1463   -6.0535   25.9069 H   0  0  0  0  0  0
  -22.0599   -2.7631   23.2819 H   0  0  0  0  0  0
  -22.3953  -11.9803   22.4832 H   0  0  0  0  0  0
  -21.0994  -13.1198   22.2586 H   0  0  0  0  0  0
  -24.6180  -15.8537   20.5135 H   0  0  0  0  0  0
  -26.2365  -15.6377   20.0778 H   0  0  0  0  0  0
  -26.7628  -32.4715   23.0604 H   0  0  0  0  0  0
  -25.0022  -33.9142   24.9835 H   0  0  0  0  0  0
  -22.8827  -31.2078   21.2796 H   0  0  0  0  0  0
  -23.3793  -35.9400   23.3237 H   0  0  0  0  0  0
  -24.3589  -36.8852   22.2098 H   0  0  0  0  0  0
  -23.7284  -37.6231   23.6819 H   0  0  0  0  0  0
  -26.3696  -31.1317   20.6405 H   0  0  0  0  0  0
  -26.9701  -30.4928   22.1139 H   0  0  0  0  0  0
  -28.1969  -28.1645   21.3228 H   0  0  0  0  0  0
  -25.7942  -25.4939   18.9988 H   0  0  0  0  0  0
  -24.0597  -27.1443   18.9321 H   0  0  0  0  0  0
  -24.0068  -30.3831   19.3723 H   0  0  0  0  0  0
  -22.9079  -29.1151   19.8100 H   0  0  0  0  0  0
  -25.1403  -36.1503   25.0741 H   0  0  0  0  0  0
  -21.0074  -28.3462   24.1202 H   0  0  0  0  0  0
  -20.5710  -26.2429   23.3662 H   0  0  0  0  0  0
  -21.6702  -26.7377   22.1213 H   0  0  0  0  0  0
  -19.7002  -25.6243   21.1297 H   0  0  0  0  0  0
  -19.6788  -27.3096   20.6667 H   0  0  0  0  0  0
  -17.4282  -26.6659   21.3976 H   0  0  0  0  0  0
  -18.0400  -26.0087   22.8982 H   0  0  0  0  0  0
  -19.8041  -30.7337   24.2090 H   0  0  0  0  0  0
  -17.5110  -31.6270   24.5154 H   0  0  0  0  0  0
  -15.5426  -30.2945   23.7749 H   0  0  0  0  0  0
  -15.8745  -28.0788   22.7127 H   0  0  0  0  0  0
  -24.5835  -30.7168   25.7404 H   0  0  0  0  0  0
  -24.8745  -32.3083   26.4274 H   0  0  0  0  0  0
  -25.7670  -30.9167   27.0138 H   0  0  0  0  0  0
  -26.3378  -29.6279   24.1734 H   0  0  0  0  0  0
  -27.3964  -29.7306   25.5554 H   0  0  0  0  0  0
  -27.9394  -30.3809   24.0341 H   0  0  0  0  0  0
  -27.2609  -33.3796   26.1651 H   0  0  0  0  0  0
  -28.4001  -32.6704   25.0320 H   0  0  0  0  0  0
  -28.0563  -31.8717   26.5586 H   0  0  0  0  0  0
  -28.2518  -38.0043   24.7519 H   0  0  0  0  0  0
  -28.1127  -36.2561   24.6293 H   0  0  0  0  0  0
  -27.2274  -37.1305   25.8866 H   0  0  0  0  0  0
  -20.9828  -29.8607   21.6350 H   0  0  0  0  0  0
  -26.0066  -38.2612   24.1440 H   0  0  0  0  0  0
  -28.1011  -18.0711   18.6522 H   0  0  0  0  0  0
  -27.3084  -17.5390   20.1372 H   0  0  0  0  0  0
  -28.0019  -16.3666   19.0140 H   0  0  0  0  0  0
  -28.0363  -21.0683   19.2450 H   0  0  0  0  0  0
  -29.6673  -21.5348   19.3396 H   0  0  0  0  0  0
  -28.8748  -19.3113   21.5346 H   0  0  0  0  0  0
  -30.4241  -19.5134   20.8524 H   0  0  0  0  0  0
  -27.2187  -23.1099   20.8199 H   0  0  0  0  0  0
  -28.7962  -23.3194   21.4512 H   0  0  0  0  0  0
  1 25  1  0  0  0
  1 30  2  0  0  0
  1 75  1  0  0  0
  2  3  1  0  0  0
  2 25  1  0  0  0
  2 76  1  0  0  0
  2 77  1  0  0  0
  3  4  1  0  0  0
  3 78  1  0  0  0
  3 79  1  0  0  0
  4  5  1  0  0  0
  4 80  1  0  0  0
  4 81  1  0  0  0
  5  6  1  0  0  0
  5 26  1  0  0  0
  5 82  1  0  0  0
  6 25  1  0  0  0
  6 83  1  0  0  0
  6 84  1  0  0  0
  7  8  2  0  0  0
  7 26  1  0  0  0
  7 29  1  0  0  0
  8  9  1  0  0  0
  8 22  1  0  0  0
  9 10  1  0  0  0
  9 27  2  0  0  0
 10 11  2  0  0  0
 10 15  1  0  0  0
 11 12  1  0  0  0
 11 85  1  0  0  0
 12 13  2  0  0  0
 12 86  1  0  0  0
 13 14  1  0  0  0
 13 31  1  0  0  0
 14 15  2  0  0  0
 14 87  1  0  0  0
 15 88  1  0  0  0
 16 17  2  0  0  0
 16 21  1  0  0  0
 16 31  1  0  0  0
 17 18  1  0  0  0
 17 89  1  0  0  0
 18 19  2  0  0  0
 18 90  1  0  0  0
 19 20  1  0  0  0
 19 24  1  0  0  0
 20 21  2  0  0  0
 20 91  1  0  0  0
 21 23  1  0  0  0
 22 28  1  0  0  0
 22 32  2  0  0  0
 26 27  1  0  0  0
 28 92  1  0  0  0
 28 93  1  0  0  0
 29 94  1  0  0  0
 29 95  1  0  0  0
 33 34  1  0  0  0
 33 66  1  0  0  0
 33 70  2  0  0  0
 34 36  1  0  0  0
 34 59  1  0  0  0
 34 96  1  0  0  0
 35 44  2  0  0  0
 35 45  1  0  0  0
 35 68  1  0  0  0
 36 56  1  0  0  0
 36 97  1  0  0  0
 37 39  1  0  0  0
 37 47  1  0  0  0
 37 66  1  0  0  0
 37 98  1  0  0  0
 38 43  2  0  0  0
 38 46  1  0  0  0
 38 47  1  0  0  0
 39 64  1  0  0  0
 39 67  2  0  0  0
 40 52  1  0  0  0
 40 53  2  0  0  0
 40 58  1  0  0  0
 41 99  1  0  0  0
 41100  1  0  0  0
 41101  1  0  0  0
 41 48  1  0  0  0
 42 43  1  0  0  0
 42 66  1  0  0  0
 42102  1  0  0  0
 42103  1  0  0  0
 43 44  1  0  0  0
 44104  1  0  0  0
 45 46  2  0  0  0
 45105  1  0  0  0
 46106  1  0  0  0
 47107  1  0  0  0
 47108  1  0  0  0
 48 56  1  0  0  0
 48 65  1  0  0  0
 48109  1  0  0  0
 49 50  1  0  0  0
 49 53  1  0  0  0
 49 64  1  0  0  0
 49110  1  0  0  0
 50 51  1  0  0  0
 50111  1  0  0  0
 50112  1  0  0  0
 51 52  1  0  0  0
 51113  1  0  0  0
 51114  1  0  0  0
 52115  1  0  0  0
 52116  1  0  0  0
 53 54  1  0  0  0
 54 55  2  0  0  0
 54117  1  0  0  0
 55 57  1  0  0  0
 55118  1  0  0  0
 56 69  2  0  0  0
 57 58  2  0  0  0
 57119  1  0  0  0
 58120  1  0  0  0
 59 60  1  0  0  0
 59 61  1  0  0  0
 59 62  1  0  0  0
 60121  1  0  0  0
 60122  1  0  0  0
 60123  1  0  0  0
 61124  1  0  0  0
 61125  1  0  0  0
 61126  1  0  0  0
 62127  1  0  0  0
 62128  1  0  0  0
 62129  1  0  0  0
 63 65  1  0  0  0
 63130  1  0  0  0
 63131  1  0  0  0
 63132  1  0  0  0
 64133  1  0  0  0
 65134  1  0  0  0
 68 74  1  0  0  0
 71 75  1  0  0  0
 71135  1  0  0  0
 71136  1  0  0  0
 71137  1  0  0  0
 72 73  1  0  0  0
 72 74  1  0  0  0
 72138  1  0  0  0
 72139  1  0  0  0
 73 75  1  0  0  0
 73140  1  0  0  0
 73141  1  0  0  0
 74142  1  0  0  0
 74143  1  0  0  0
M  ISO  4   1 100  68 101  74 101  75 100
M  END
> <chiral flag>
0

> <version>
0

> <s_m_source_file>
/data/baiqing/PycharmProjects/Reinvent-master-3.2/result/LINK_invent/BTK/process_docking_weight1_custom_product_contain_oxygen_bond_distance_aromatic_linkinvent_7_9_3/rearranged_h_0011.sdf

> <i_m_source_file_index>
11

> <r_mmod_Potential_Energy-OPLS-2005>
4303.49072265625

> <r_mmod_Stretch_Energy-OPLS-2005>
1937.3203125

> <r_mmod_Bend_Energy-OPLS-2005>
891.069641113281

> <r_mmod_Torsional_Energy-OPLS-2005>
308.0107421875

> <r_mmod_Improper_Torsional_Energy-OPLS-2005>
4.89766931533813

> <r_mmod_Van_der_Waal_Energy-OPLS-2005>
112.25927734375

> <r_mmod_Electrostatic_Energy-OPLS-2005>
-274.442291259766

> <r_mmod_Solvation_Energy-OPLS-2005>
-215.008483886719

> <b_mmod_Minimization_Converged-OPLS-2005>
0

> <r_mmod_RMS_Derivative-OPLS-2005>
2.3036835193634

$$$$
11
                    3D
 Structure written by MMmdl.
151159  0  0  1  0            999 V2000
  -30.6183  -14.6884   20.5139 C   0  0  0  0  0  0
  -30.4359  -12.4337   19.4638 C   0  0  0  0  0  0
  -29.5135  -12.5566   18.2311 C   0  0  0  0  0  0
  -28.0372  -12.3840   18.6297 C   0  0  0  0  0  0
  -27.6555  -13.2329   19.8715 C   0  0  2  0  0  0
  -28.6981  -13.0967   21.0054 C   0  0  0  0  0  0
  -25.2556  -13.8210   20.5713 C   0  0  0  0  0  0
  -24.1819  -13.0449   20.9188 C   0  0  0  0  0  0
  -24.6435  -11.6934   20.8744 C   0  0  0  0  0  0
  -23.9092  -10.4291   21.0363 C   0  0  0  0  0  0
  -24.3651   -9.4206   21.9131 C   0  0  0  0  0  0
  -23.6309   -8.2257   22.0720 C   0  0  0  0  0  0
  -22.4288   -8.0293   21.3541 C   0  0  0  0  0  0
  -21.9934   -9.0258   20.4628 C   0  0  0  0  0  0
  -22.7273  -10.2129   20.3016 C   0  0  0  0  0  0
  -21.6874   -6.0737   22.5277 C   0  0  0  0  0  0
  -21.4030   -6.5634   23.8203 C   0  0  0  0  0  0
  -21.3679   -5.6772   24.9165 C   0  0  0  0  0  0
  -21.6040   -4.3054   24.7207 C   0  0  0  0  0  0
  -21.8837   -3.8139   23.4323 C   0  0  0  0  0  0
  -21.9204   -4.6962   22.3389 C   0  0  0  0  0  0
  -22.7831  -13.5241   21.1808 C   0  0  0  0  0  0
  -22.1651   -4.2152   21.0969 F   0  0  0  0  0  0
  -21.5636   -3.4527   25.7714 F   0  0  0  0  0  0
  -30.0159  -13.4528   20.4529 N   0  0  0  0  0  0
  -26.3007  -12.9411   20.3353 N   0  0  0  0  0  0
  -25.9377  -11.6563   20.5761 N   0  0  0  0  0  0
  -22.0454  -12.8264   22.0419 N   0  0  0  0  0  0
  -25.4261  -15.1926   20.4188 N   0  0  0  0  0  0
  -31.7466  -14.8581   20.0396 O   0  0  0  0  0  0
  -21.6664   -6.8882   21.4224 O   0  0  0  0  0  0
  -22.3495  -14.5516   20.6631 O   0  0  0  0  0  0
  -24.6263  -31.8598   23.1996 C   0  0  0  0  0  0
  -25.9118  -32.4779   23.8327 C   0  0  1  0  0  0
  -27.2440  -27.3066   20.1323 C   0  0  0  0  0  0
  -25.5949  -33.8587   24.2276 N   0  0  0  0  0  0
  -23.4204  -30.4782   21.5458 C   0  0  2  0  0  0
  -24.8716  -28.9196   20.1219 C   0  0  0  0  0  0
  -22.7472  -29.4642   22.4998 C   0  0  0  0  0  0
  -18.0303  -28.1373   22.8479 C   0  0  0  0  0  0
  -24.1504  -36.7279   23.2632 C   0  0  0  0  0  0
  -25.9629  -30.7810   21.3774 C   0  0  0  0  0  0
  -26.0393  -29.4068   20.7226 C   0  0  0  0  0  0
  -27.2260  -28.6130   20.7158 C   0  0  0  0  0  0
  -26.0486  -26.8692   19.5151 C   0  0  0  0  0  0
  -24.8787  -27.6550   19.5111 C   0  0  0  0  0  0
  -23.6351  -29.7970   20.1681 C   0  0  0  0  0  0
  -25.4137  -36.3092   24.0332 C   0  0  1  0  0  0
  -20.5892  -28.3685   23.1288 C   0  0  2  0  0  0
  -20.6825  -26.9422   22.5401 C   0  0  0  0  0  0
  -19.5800  -26.6366   21.5226 C   0  0  0  0  0  0
  -18.1971  -26.7919   22.1604 C   0  0  0  0  0  0
  -19.1543  -28.8850   23.2867 C   0  0  0  0  0  0
  -18.9471  -30.1464   23.8859 C   0  0  0  0  0  0
  -17.6464  -30.6574   24.0553 C   0  0  0  0  0  0
  -25.9078  -34.9468   23.5103 C   0  0  0  0  0  0
  -16.5364  -29.9063   23.6332 C   0  0  0  0  0  0
  -16.7285  -28.6480   23.0351 C   0  0  0  0  0  0
  -26.4481  -31.6589   25.0709 C   0  0  0  0  0  0
  -25.3699  -31.3732   26.1424 C   0  0  0  0  0  0
  -27.0354  -30.3025   24.6179 C   0  0  0  0  0  0
  -27.6045  -32.4320   25.7470 C   0  0  0  0  0  0
  -27.5609  -37.1794   24.8455 C   0  0  0  0  0  0
  -21.4202  -29.3019   22.3689 N   0  0  0  0  0  0
  -26.4304  -37.3797   23.9413 N   0  0  0  0  0  0
  -24.6886  -31.0584   22.0967 N   0  0  0  0  0  0
  -23.4166  -28.8224   23.3136 O   0  0  0  0  0  0
  -28.3839  -26.4785   20.1614 O   0  0  0  0  0  0
  -26.5641  -34.8918   22.4668 O   0  0  0  0  0  0
  -23.5438  -32.1430   23.7307 O   0  0  0  0  0  0
  -30.3063  -17.7857   19.5591 C   0  0  0  0  0  0
  -29.3834  -18.0960   21.7608 C   0  0  0  0  0  0
  -30.1503  -19.1846   19.3131 C   0  0  0  0  0  0
  -29.2632  -19.5058   21.5264 C   0  0  0  0  0  0
  -29.9033  -17.1873   20.7885 C   0  0  0  0  0  0
  -29.6223  -20.0930   20.2781 C   0  0  0  0  0  0
  -29.4960  -24.0739   20.3620 C   0  0  0  0  0  0
  -29.4037  -22.5508   20.8796 C   0  0  0  0  0  0
  -28.2090  -25.0020   20.2058 C   0  0  0  0  0  0
  -29.8978  -15.7332   21.0433 N   0  0  0  0  0  0
  -29.4531  -21.4503   19.9079 O   0  0  0  0  0  0
  -31.4753  -12.5568   19.1615 H   0  0  0  0  0  0
  -30.3658  -11.4324   19.8887 H   0  0  0  0  0  0
  -29.7913  -11.8247   17.4695 H   0  0  0  0  0  0
  -29.6525  -13.5380   17.7753 H   0  0  0  0  0  0
  -27.8735  -11.3263   18.8296 H   0  0  0  0  0  0
  -27.3910  -12.6356   17.7882 H   0  0  0  0  0  0
  -27.6693  -14.2727   19.5484 H   0  0  0  0  0  0
  -28.7155  -12.0734   21.3863 H   0  0  0  0  0  0
  -28.4291  -13.7289   21.8511 H   0  0  0  0  0  0
  -25.2775   -9.5720   22.4711 H   0  0  0  0  0  0
  -24.0047   -7.4666   22.7467 H   0  0  0  0  0  0
  -21.0850   -8.8770   19.8950 H   0  0  0  0  0  0
  -22.3685  -10.9673   19.6153 H   0  0  0  0  0  0
  -21.2008   -7.6126   23.9721 H   0  0  0  0  0  0
  -21.1483   -6.0488   25.9079 H   0  0  0  0  0  0
  -22.0594   -2.7597   23.2816 H   0  0  0  0  0  0
  -22.4062  -11.9965   22.4895 H   0  0  0  0  0  0
  -21.1051  -13.1241   22.2523 H   0  0  0  0  0  0
  -24.6665  -15.8532   20.5436 H   0  0  0  0  0  0
  -26.2856  -15.6363   20.1247 H   0  0  0  0  0  0
  -26.7180  -32.5417   23.1067 H   0  0  0  0  0  0
  -25.0177  -33.9724   25.0473 H   0  0  0  0  0  0
  -22.7144  -31.2989   21.3978 H   0  0  0  0  0  0
  -23.3803  -35.9568   23.3274 H   0  0  0  0  0  0
  -24.3602  -36.8921   22.2046 H   0  0  0  0  0  0
  -23.7201  -37.6453   23.6661 H   0  0  0  0  0  0
  -26.1067  -31.5404   20.6075 H   0  0  0  0  0  0
  -26.8363  -30.8237   22.0166 H   0  0  0  0  0  0
  -28.1177  -28.9868   21.2001 H   0  0  0  0  0  0
  -25.9934  -25.9038   19.0360 H   0  0  0  0  0  0
  -23.9843  -27.2690   19.0415 H   0  0  0  0  0  0
  -23.7403  -30.5632   19.4004 H   0  0  0  0  0  0
  -22.7556  -29.2188   19.8770 H   0  0  0  0  0  0
  -25.1316  -36.1953   25.0827 H   0  0  0  0  0  0
  -20.9965  -28.3272   24.1415 H   0  0  0  0  0  0
  -20.5799  -26.2308   23.3595 H   0  0  0  0  0  0
  -21.6692  -26.7520   22.1159 H   0  0  0  0  0  0
  -19.6998  -25.6281   21.1261 H   0  0  0  0  0  0
  -19.6737  -27.3157   20.6745 H   0  0  0  0  0  0
  -17.4273  -26.6667   21.3983 H   0  0  0  0  0  0
  -18.0346  -26.0029   22.8950 H   0  0  0  0  0  0
  -19.7957  -30.7303   24.2150 H   0  0  0  0  0  0
  -17.5032  -31.6249   24.5162 H   0  0  0  0  0  0
  -15.5365  -30.2946   23.7697 H   0  0  0  0  0  0
  -15.8687  -28.0785   22.7088 H   0  0  0  0  0  0
  -24.5841  -30.7139   25.7725 H   0  0  0  0  0  0
  -24.8923  -32.2906   26.4872 H   0  0  0  0  0  0
  -25.7975  -30.8855   27.0188 H   0  0  0  0  0  0
  -26.2957  -29.6747   24.1210 H   0  0  0  0  0  0
  -27.4094  -29.7292   25.4666 H   0  0  0  0  0  0
  -27.8785  -30.4337   23.9399 H   0  0  0  0  0  0
  -27.2672  -33.3616   26.2050 H   0  0  0  0  0  0
  -28.3834  -32.6889   25.0286 H   0  0  0  0  0  0
  -28.0734  -31.8453   26.5370 H   0  0  0  0  0  0
  -28.2593  -38.0129   24.7612 H   0  0  0  0  0  0
  -28.1151  -36.2687   24.6170 H   0  0  0  0  0  0
  -27.2338  -37.1292   25.8850 H   0  0  0  0  0  0
  -20.9436  -29.8639   21.6781 H   0  0  0  0  0  0
  -26.0207  -38.2871   24.1430 H   0  0  0  0  0  0
  -30.7036  -17.1789   18.7545 H   0  0  0  0  0  0
  -29.0400  -17.7192   22.7203 H   0  0  0  0  0  0
  -30.4406  -19.5683   18.3432 H   0  0  0  0  0  0
  -28.8440  -20.1135   22.3196 H   0  0  0  0  0  0
  -30.0759  -24.0950   19.4386 H   0  0  0  0  0  0
  -30.1279  -24.5954   21.0820 H   0  0  0  0  0  0
  -28.5720  -22.4378   21.5775 H   0  0  0  0  0  0
  -30.3014  -22.3971   21.4825 H   0  0  0  0  0  0
  -27.5390  -24.7864   21.0384 H   0  0  0  0  0  0
  -27.7049  -24.6696   19.3012 H   0  0  0  0  0  0
  -29.1493  -15.4223   21.6469 H   0  0  0  0  0  0
  1 25  1  0  0  0
  1 30  2  0  0  0
  1 80  1  0  0  0
  2  3  1  0  0  0
  2 25  1  0  0  0
  2 82  1  0  0  0
  2 83  1  0  0  0
  3  4  1  0  0  0
  3 84  1  0  0  0
  3 85  1  0  0  0
  4  5  1  0  0  0
  4 86  1  0  0  0
  4 87  1  0  0  0
  5  6  1  0  0  0
  5 26  1  0  0  0
  5 88  1  0  0  0
  6 25  1  0  0  0
  6 89  1  0  0  0
  6 90  1  0  0  0
  7  8  2  0  0  0
  7 26  1  0  0  0
  7 29  1  0  0  0
  8  9  1  0  0  0
  8 22  1  0  0  0
  9 10  1  0  0  0
  9 27  2  0  0  0
 10 11  2  0  0  0
 10 15  1  0  0  0
 11 12  1  0  0  0
 11 91  1  0  0  0
 12 13  2  0  0  0
 12 92  1  0  0  0
 13 14  1  0  0  0
 13 31  1  0  0  0
 14 15  2  0  0  0
 14 93  1  0  0  0
 15 94  1  0  0  0
 16 17  2  0  0  0
 16 21  1  0  0  0
 16 31  1  0  0  0
 17 18  1  0  0  0
 17 95  1  0  0  0
 18 19  2  0  0  0
 18 96  1  0  0  0
 19 20  1  0  0  0
 19 24  1  0  0  0
 20 21  2  0  0  0
 20 97  1  0  0  0
 21 23  1  0  0  0
 22 28  1  0  0  0
 22 32  2  0  0  0
 26 27  1  0  0  0
 28 98  1  0  0  0
 28 99  1  0  0  0
 29100  1  0  0  0
 29101  1  0  0  0
 33 34  1  0  0  0
 33 66  1  0  0  0
 33 70  2  0  0  0
 34 36  1  0  0  0
 34 59  1  0  0  0
 34102  1  0  0  0
 35 44  2  0  0  0
 35 45  1  0  0  0
 35 68  1  0  0  0
 36 56  1  0  0  0
 36103  1  0  0  0
 37 39  1  0  0  0
 37 47  1  0  0  0
 37 66  1  0  0  0
 37104  1  0  0  0
 38 43  2  0  0  0
 38 46  1  0  0  0
 38 47  1  0  0  0
 39 64  1  0  0  0
 39 67  2  0  0  0
 40 52  1  0  0  0
 40 53  2  0  0  0
 40 58  1  0  0  0
 41105  1  0  0  0
 41106  1  0  0  0
 41107  1  0  0  0
 41 48  1  0  0  0
 42 43  1  0  0  0
 42 66  1  0  0  0
 42108  1  0  0  0
 42109  1  0  0  0
 43 44  1  0  0  0
 44110  1  0  0  0
 45 46  2  0  0  0
 45111  1  0  0  0
 46112  1  0  0  0
 47113  1  0  0  0
 47114  1  0  0  0
 48 56  1  0  0  0
 48 65  1  0  0  0
 48115  1  0  0  0
 49 50  1  0  0  0
 49 53  1  0  0  0
 49 64  1  0  0  0
 49116  1  0  0  0
 50 51  1  0  0  0
 50117  1  0  0  0
 50118  1  0  0  0
 51 52  1  0  0  0
 51119  1  0  0  0
 51120  1  0  0  0
 52121  1  0  0  0
 52122  1  0  0  0
 53 54  1  0  0  0
 54 55  2  0  0  0
 54123  1  0  0  0
 55 57  1  0  0  0
 55124  1  0  0  0
 56 69  2  0  0  0
 57 58  2  0  0  0
 57125  1  0  0  0
 58126  1  0  0  0
 59 60  1  0  0  0
 59 61  1  0  0  0
 59 62  1  0  0  0
 60127  1  0  0  0
 60128  1  0  0  0
 60129  1  0  0  0
 61130  1  0  0  0
 61131  1  0  0  0
 61132  1  0  0  0
 62133  1  0  0  0
 62134  1  0  0  0
 62135  1  0  0  0
 63 65  1  0  0  0
 63136  1  0  0  0
 63137  1  0  0  0
 63138  1  0  0  0
 64139  1  0  0  0
 65140  1  0  0  0
 68 79  1  0  0  0
 71 73  2  0  0  0
 71 75  1  0  0  0
 71141  1  0  0  0
 72 74  1  0  0  0
 72 75  2  0  0  0
 72142  1  0  0  0
 73 76  1  0  0  0
 73143  1  0  0  0
 74 76  2  0  0  0
 74144  1  0  0  0
 75 80  1  0  0  0
 76 81  1  0  0  0
 77 78  1  0  0  0
 77 79  1  0  0  0
 77145  1  0  0  0
 77146  1  0  0  0
 78 81  1  0  0  0
 78147  1  0  0  0
 78148  1  0  0  0
 79149  1  0  0  0
 79150  1  0  0  0
 80151  1  0  0  0
M  ISO  4   1 100  68 101  79 101  80 100
M  END
> <chiral flag>
0

> <version>
0

> <s_m_source_file>
/data/baiqing/PycharmProjects/Reinvent-master-3.2/result/LINK_invent/BTK/process_docking_weight1_custom_product_contain_oxygen_bond_distance_aromatic_linkinvent_7_9_3/rearranged_h_0011.sdf

> <i_m_source_file_index>
12

> <r_mmod_Potential_Energy-OPLS-2005>
87.3086853027344

> <r_mmod_Stretch_Energy-OPLS-2005>
91.08984375

> <r_mmod_Bend_Energy-OPLS-2005>
159.319290161133

> <r_mmod_Torsional_Energy-OPLS-2005>
236.013916015625

> <r_mmod_Improper_Torsional_Energy-OPLS-2005>
3.05807876586914

> <r_mmod_Van_der_Waal_Energy-OPLS-2005>
138.714782714844

> <r_mmod_Electrostatic_Energy-OPLS-2005>
-383.976654052734

> <r_mmod_Solvation_Energy-OPLS-2005>
-214.270523071289

> <b_mmod_Minimization_Converged-OPLS-2005>
0

> <r_mmod_RMS_Derivative-OPLS-2005>
5.72391843795776

$$$$
12
                    3D
 Structure written by MMmdl.
151159  0  0  1  0            999 V2000
  -30.6215  -14.6467   20.4927 C   0  0  0  0  0  0
  -30.4407  -12.3957   19.4503 C   0  0  0  0  0  0
  -29.5080  -12.5074   18.2234 C   0  0  0  0  0  0
  -28.0310  -12.3448   18.6369 C   0  0  0  0  0  0
  -27.6531  -13.2179   19.8634 C   0  0  2  0  0  0
  -28.7004  -13.0767   20.9916 C   0  0  0  0  0  0
  -25.2552  -13.8167   20.5692 C   0  0  0  0  0  0
  -24.1817  -13.0425   20.9166 C   0  0  0  0  0  0
  -24.6396  -11.6902   20.8726 C   0  0  0  0  0  0
  -23.9065  -10.4286   21.0398 C   0  0  0  0  0  0
  -24.3615   -9.4205   21.9181 C   0  0  0  0  0  0
  -23.6291   -8.2241   22.0754 C   0  0  0  0  0  0
  -22.4273   -8.0278   21.3545 C   0  0  0  0  0  0
  -21.9906   -9.0250   20.4646 C   0  0  0  0  0  0
  -22.7236  -10.2128   20.3050 C   0  0  0  0  0  0
  -21.6852   -6.0733   22.5280 C   0  0  0  0  0  0
  -21.4013   -6.5637   23.8213 C   0  0  0  0  0  0
  -21.3660   -5.6791   24.9175 C   0  0  0  0  0  0
  -21.6045   -4.3053   24.7225 C   0  0  0  0  0  0
  -21.8819   -3.8144   23.4346 C   0  0  0  0  0  0
  -21.9192   -4.6961   22.3403 C   0  0  0  0  0  0
  -22.7841  -13.5220   21.1842 C   0  0  0  0  0  0
  -22.1662   -4.2147   21.0981 F   0  0  0  0  0  0
  -21.5630   -3.4537   25.7739 F   0  0  0  0  0  0
  -30.0151  -13.4189   20.4251 N   0  0  0  0  0  0
  -26.2995  -12.9359   20.3338 N   0  0  0  0  0  0
  -25.9330  -11.6508   20.5761 N   0  0  0  0  0  0
  -22.0489  -12.8217   22.0407 N   0  0  0  0  0  0
  -25.4214  -15.1896   20.4180 N   0  0  0  0  0  0
  -31.7915  -14.8056   20.1326 O   0  0  0  0  0  0
  -21.6637   -6.8876   21.4242 O   0  0  0  0  0  0
  -22.3520  -14.5528   20.6698 O   0  0  0  0  0  0
  -24.6266  -31.8601   23.2031 C   0  0  0  0  0  0
  -25.9113  -32.4780   23.8358 C   0  0  1  0  0  0
  -27.2236  -27.3176   20.1118 C   0  0  0  0  0  0
  -25.5926  -33.8581   24.2283 N   0  0  0  0  0  0
  -23.4199  -30.4850   21.5463 C   0  0  2  0  0  0
  -24.8656  -28.9422   20.1113 C   0  0  0  0  0  0
  -22.7476  -29.4628   22.4939 C   0  0  0  0  0  0
  -18.0286  -28.1384   22.8487 C   0  0  0  0  0  0
  -24.1489  -36.7296   23.2639 C   0  0  0  0  0  0
  -25.9621  -30.7907   21.3744 C   0  0  0  0  0  0
  -26.0362  -29.4188   20.7147 C   0  0  0  0  0  0
  -27.2183  -28.6189   20.7045 C   0  0  0  0  0  0
  -26.0260  -26.8968   19.4857 C   0  0  0  0  0  0
  -24.8626  -27.6866   19.4884 C   0  0  0  0  0  0
  -23.6342  -29.8222   20.1610 C   0  0  0  0  0  0
  -25.4113  -36.3085   24.0330 C   0  0  1  0  0  0
  -20.5886  -28.3689   23.1283 C   0  0  2  0  0  0
  -20.6775  -26.9414   22.5408 C   0  0  0  0  0  0
  -19.5750  -26.6385   21.5212 C   0  0  0  0  0  0
  -18.1931  -26.7926   22.1626 C   0  0  0  0  0  0
  -19.1538  -28.8853   23.2880 C   0  0  0  0  0  0
  -18.9460  -30.1455   23.8897 C   0  0  0  0  0  0
  -17.6461  -30.6587   24.0563 C   0  0  0  0  0  0
  -25.9051  -34.9454   23.5107 C   0  0  0  0  0  0
  -16.5352  -29.9086   23.6329 C   0  0  0  0  0  0
  -16.7273  -28.6503   23.0352 C   0  0  0  0  0  0
  -26.4494  -31.6587   25.0728 C   0  0  0  0  0  0
  -25.3727  -31.3725   26.1454 C   0  0  0  0  0  0
  -27.0334  -30.3010   24.6182 C   0  0  0  0  0  0
  -27.6054  -32.4320   25.7498 C   0  0  0  0  0  0
  -27.5580  -37.1804   24.8465 C   0  0  0  0  0  0
  -21.4189  -29.3045   22.3680 N   0  0  0  0  0  0
  -26.4293  -37.3779   23.9407 N   0  0  0  0  0  0
  -24.6885  -31.0614   22.0981 N   0  0  0  0  0  0
  -23.4201  -28.8163   23.3014 O   0  0  0  0  0  0
  -28.3403  -26.4633   20.1602 O   0  0  0  0  0  0
  -26.5620  -34.8919   22.4674 O   0  0  0  0  0  0
  -23.5429  -32.1399   23.7358 O   0  0  0  0  0  0
  -31.1180  -17.8849   20.6034 C   0  0  0  0  0  0
  -31.1123  -19.3107   20.5262 C   0  0  0  0  0  0
  -28.7106  -19.3389   20.5192 C   0  0  0  0  0  0
  -29.9083  -17.1463   20.6525 C   0  0  0  0  0  0
  -29.9190  -20.0843   20.4854 C   0  0  0  0  0  0
  -28.7114  -17.9126   20.6067 C   0  0  0  0  0  0
  -29.2528  -23.9564   20.3436 C   0  0  0  0  0  0
  -28.1015  -25.0048   20.0220 C   0  0  0  0  0  0
  -28.8904  -22.3990   20.2827 C   0  0  0  0  0  0
  -29.7931  -15.6941   20.7921 N   0  0  0  0  0  0
  -30.0305  -21.4919   20.4337 O   0  0  0  0  0  0
  -27.5271  -17.2553   20.6481 F   0  0  0  0  0  0
  -31.4812  -12.5238   19.1468 H   0  0  0  0  0  0
  -30.3783  -11.4007   19.8940 H   0  0  0  0  0  0
  -29.7724  -11.7555   17.4787 H   0  0  0  0  0  0
  -29.6485  -13.4764   17.7417 H   0  0  0  0  0  0
  -27.8691  -11.2920   18.8707 H   0  0  0  0  0  0
  -27.3755  -12.5722   17.7955 H   0  0  0  0  0  0
  -27.6666  -14.2522   19.5190 H   0  0  0  0  0  0
  -28.7131  -12.0565   21.3781 H   0  0  0  0  0  0
  -28.4480  -13.7124   21.8419 H   0  0  0  0  0  0
  -25.2760   -9.5683   22.4755 H   0  0  0  0  0  0
  -23.9999   -7.4633   22.7474 H   0  0  0  0  0  0
  -21.0836   -8.8767   19.8954 H   0  0  0  0  0  0
  -22.3693  -10.9665   19.6157 H   0  0  0  0  0  0
  -21.2003   -7.6146   23.9716 H   0  0  0  0  0  0
  -21.1485   -6.0521   25.9079 H   0  0  0  0  0  0
  -22.0598   -2.7606   23.2846 H   0  0  0  0  0  0
  -22.4103  -11.9877   22.4793 H   0  0  0  0  0  0
  -21.1112  -13.1253   22.2622 H   0  0  0  0  0  0
  -24.6550  -15.8367   20.5619 H   0  0  0  0  0  0
  -26.2902  -15.6637   20.1983 H   0  0  0  0  0  0
  -26.7180  -32.5450   23.1107 H   0  0  0  0  0  0
  -25.0065  -33.9725   25.0423 H   0  0  0  0  0  0
  -22.7139  -31.3059   21.4047 H   0  0  0  0  0  0
  -23.3749  -35.9632   23.3306 H   0  0  0  0  0  0
  -24.3580  -36.8912   22.2052 H   0  0  0  0  0  0
  -23.7246  -37.6502   23.6657 H   0  0  0  0  0  0
  -26.0942  -31.5552   20.6075 H   0  0  0  0  0  0
  -26.8423  -30.8379   22.0041 H   0  0  0  0  0  0
  -28.1158  -28.9808   21.1864 H   0  0  0  0  0  0
  -25.9527  -25.9397   18.9927 H   0  0  0  0  0  0
  -23.9657  -27.3159   19.0113 H   0  0  0  0  0  0
  -23.7534  -30.5997   19.4055 H   0  0  0  0  0  0
  -22.7537  -29.2525   19.8581 H   0  0  0  0  0  0
  -25.1293  -36.1940   25.0823 H   0  0  0  0  0  0
  -20.9979  -28.3261   24.1404 H   0  0  0  0  0  0
  -20.5679  -26.2299   23.3607 H   0  0  0  0  0  0
  -21.6643  -26.7445   22.1199 H   0  0  0  0  0  0
  -19.6913  -25.6296   21.1242 H   0  0  0  0  0  0
  -19.6686  -27.3195   20.6741 H   0  0  0  0  0  0
  -17.4200  -26.6671   21.4030 H   0  0  0  0  0  0
  -18.0335  -26.0069   22.9023 H   0  0  0  0  0  0
  -19.7937  -30.7270   24.2269 H   0  0  0  0  0  0
  -17.5016  -31.6267   24.5164 H   0  0  0  0  0  0
  -15.5352  -30.2988   23.7651 H   0  0  0  0  0  0
  -15.8672  -28.0822   22.7068 H   0  0  0  0  0  0
  -24.5898  -30.7080   25.7780 H   0  0  0  0  0  0
  -24.8923  -32.2892   26.4885 H   0  0  0  0  0  0
  -25.8050  -30.8895   27.0226 H   0  0  0  0  0  0
  -26.2907  -29.6762   24.1207 H   0  0  0  0  0  0
  -27.4029  -29.7264   25.4687 H   0  0  0  0  0  0
  -27.8779  -30.4291   23.9407 H   0  0  0  0  0  0
  -27.2666  -33.3618   26.2077 H   0  0  0  0  0  0
  -28.3864  -32.6881   25.0327 H   0  0  0  0  0  0
  -28.0722  -31.8443   26.5414 H   0  0  0  0  0  0
  -28.2599  -38.0100   24.7509 H   0  0  0  0  0  0
  -28.1073  -36.2631   24.6294 H   0  0  0  0  0  0
  -27.2298  -37.1456   25.8868 H   0  0  0  0  0  0
  -20.9367  -29.8773   21.6895 H   0  0  0  0  0  0
  -26.0176  -38.2855   24.1401 H   0  0  0  0  0  0
  -32.0671  -17.3700   20.6429 H   0  0  0  0  0  0
  -32.0626  -19.8258   20.5039 H   0  0  0  0  0  0
  -27.7601  -19.8494   20.4918 H   0  0  0  0  0  0
  -29.6470  -24.1729   21.3364 H   0  0  0  0  0  0
  -30.0761  -24.1424   19.6539 H   0  0  0  0  0  0
  -27.2506  -24.7435   20.6531 H   0  0  0  0  0  0
  -27.7948  -24.8125   18.9934 H   0  0  0  0  0  0
  -28.4094  -22.1808   19.3285 H   0  0  0  0  0  0
  -28.1566  -22.1770   21.0583 H   0  0  0  0  0  0
  -28.8555  -15.3945   21.0126 H   0  0  0  0  0  0
  1 25  1  0  0  0
  1 30  2  0  0  0
  1 80  1  0  0  0
  2  3  1  0  0  0
  2 25  1  0  0  0
  2 83  1  0  0  0
  2 84  1  0  0  0
  3  4  1  0  0  0
  3 85  1  0  0  0
  3 86  1  0  0  0
  4  5  1  0  0  0
  4 87  1  0  0  0
  4 88  1  0  0  0
  5  6  1  0  0  0
  5 26  1  0  0  0
  5 89  1  0  0  0
  6 25  1  0  0  0
  6 90  1  0  0  0
  6 91  1  0  0  0
  7  8  2  0  0  0
  7 26  1  0  0  0
  7 29  1  0  0  0
  8  9  1  0  0  0
  8 22  1  0  0  0
  9 10  1  0  0  0
  9 27  2  0  0  0
 10 11  2  0  0  0
 10 15  1  0  0  0
 11 12  1  0  0  0
 11 92  1  0  0  0
 12 13  2  0  0  0
 12 93  1  0  0  0
 13 14  1  0  0  0
 13 31  1  0  0  0
 14 15  2  0  0  0
 14 94  1  0  0  0
 15 95  1  0  0  0
 16 17  2  0  0  0
 16 21  1  0  0  0
 16 31  1  0  0  0
 17 18  1  0  0  0
 17 96  1  0  0  0
 18 19  2  0  0  0
 18 97  1  0  0  0
 19 20  1  0  0  0
 19 24  1  0  0  0
 20 21  2  0  0  0
 20 98  1  0  0  0
 21 23  1  0  0  0
 22 28  1  0  0  0
 22 32  2  0  0  0
 26 27  1  0  0  0
 28 99  1  0  0  0
 28100  1  0  0  0
 29101  1  0  0  0
 29102  1  0  0  0
 33 34  1  0  0  0
 33 66  1  0  0  0
 33 70  2  0  0  0
 34 36  1  0  0  0
 34 59  1  0  0  0
 34103  1  0  0  0
 35 44  2  0  0  0
 35 45  1  0  0  0
 35 68  1  0  0  0
 36 56  1  0  0  0
 36104  1  0  0  0
 37 39  1  0  0  0
 37 47  1  0  0  0
 37 66  1  0  0  0
 37105  1  0  0  0
 38 43  2  0  0  0
 38 46  1  0  0  0
 38 47  1  0  0  0
 39 64  1  0  0  0
 39 67  2  0  0  0
 40 52  1  0  0  0
 40 53  2  0  0  0
 40 58  1  0  0  0
 41106  1  0  0  0
 41107  1  0  0  0
 41108  1  0  0  0
 41 48  1  0  0  0
 42 43  1  0  0  0
 42 66  1  0  0  0
 42109  1  0  0  0
 42110  1  0  0  0
 43 44  1  0  0  0
 44111  1  0  0  0
 45 46  2  0  0  0
 45112  1  0  0  0
 46113  1  0  0  0
 47114  1  0  0  0
 47115  1  0  0  0
 48 56  1  0  0  0
 48 65  1  0  0  0
 48116  1  0  0  0
 49 50  1  0  0  0
 49 53  1  0  0  0
 49 64  1  0  0  0
 49117  1  0  0  0
 50 51  1  0  0  0
 50118  1  0  0  0
 50119  1  0  0  0
 51 52  1  0  0  0
 51120  1  0  0  0
 51121  1  0  0  0
 52122  1  0  0  0
 52123  1  0  0  0
 53 54  1  0  0  0
 54 55  2  0  0  0
 54124  1  0  0  0
 55 57  1  0  0  0
 55125  1  0  0  0
 56 69  2  0  0  0
 57 58  2  0  0  0
 57126  1  0  0  0
 58127  1  0  0  0
 59 60  1  0  0  0
 59 61  1  0  0  0
 59 62  1  0  0  0
 60128  1  0  0  0
 60129  1  0  0  0
 60130  1  0  0  0
 61131  1  0  0  0
 61132  1  0  0  0
 61133  1  0  0  0
 62134  1  0  0  0
 62135  1  0  0  0
 62136  1  0  0  0
 63 65  1  0  0  0
 63137  1  0  0  0
 63138  1  0  0  0
 63139  1  0  0  0
 64140  1  0  0  0
 65141  1  0  0  0
 68 78  1  0  0  0
 71 72  2  0  0  0
 71 74  1  0  0  0
 71142  1  0  0  0
 72 75  1  0  0  0
 72143  1  0  0  0
 73 75  2  0  0  0
 73 76  1  0  0  0
 73144  1  0  0  0
 74 76  2  0  0  0
 74 80  1  0  0  0
 75 81  1  0  0  0
 76 82  1  0  0  0
 77 78  1  0  0  0
 77 79  1  0  0  0
 77145  1  0  0  0
 77146  1  0  0  0
 78147  1  0  0  0
 78148  1  0  0  0
 79 81  1  0  0  0
 79149  1  0  0  0
 79150  1  0  0  0
 80151  1  0  0  0
M  ISO  4   1 100  68 101  78 101  80 100
M  END
> <chiral flag>
0

> <version>
0

> <s_m_source_file>
/data/baiqing/PycharmProjects/Reinvent-master-3.2/result/LINK_invent/BTK/process_docking_weight1_custom_product_contain_oxygen_bond_distance_aromatic_linkinvent_7_9_3/rearranged_h_0011.sdf

> <i_m_source_file_index>
13

> <r_mmod_Potential_Energy-OPLS-2005>
8.48562717437744

> <r_mmod_Stretch_Energy-OPLS-2005>
78.0414810180664

> <r_mmod_Bend_Energy-OPLS-2005>
145.352081298828

> <r_mmod_Torsional_Energy-OPLS-2005>
209.226409912109

> <r_mmod_Improper_Torsional_Energy-OPLS-2005>
4.5839262008667

> <r_mmod_Van_der_Waal_Energy-OPLS-2005>
144.377670288086

> <r_mmod_Electrostatic_Energy-OPLS-2005>
-422.268218994141

> <r_mmod_Solvation_Energy-OPLS-2005>
-201.274765014648

> <b_mmod_Minimization_Converged-OPLS-2005>
0

> <r_mmod_RMS_Derivative-OPLS-2005>
0.238112762570381

$$$$
13
                    3D
 Structure written by MMmdl.
167176  0  0  1  0            999 V2000
  -31.2423  -14.2913   20.7744 C   0  0  0  0  0  0
  -31.3270  -12.7791   18.8598 C   0  0  0  0  0  0
  -29.7459  -13.1544   17.1578 C   0  0  0  0  0  0
  -27.6728  -13.5769   18.1141 C   0  0  0  0  0  0
  -27.2016  -13.5944   20.3210 C   0  0  2  0  0  0
  -28.9612  -13.2119   21.7029 C   0  0  0  0  0  0
  -24.9107  -13.8535   20.5789 C   0  0  0  0  0  0
  -23.9367  -13.0145   20.9317 C   0  0  0  0  0  0
  -24.4862  -11.6947   20.9259 C   0  0  0  0  0  0
  -23.8358  -10.4098   21.0606 C   0  0  0  0  0  0
  -24.3242   -9.4127   21.9295 C   0  0  0  0  0  0
  -23.6143   -8.2047   22.0742 C   0  0  0  0  0  0
  -22.4147   -8.0019   21.3493 C   0  0  0  0  0  0
  -21.9646   -8.9881   20.4563 C   0  0  0  0  0  0
  -22.6730  -10.1847   20.3078 C   0  0  0  0  0  0
  -21.6821   -6.0602   22.5272 C   0  0  0  0  0  0
  -21.3987   -6.5570   23.8181 C   0  0  0  0  0  0
  -21.3648   -5.6758   24.9172 C   0  0  0  0  0  0
  -21.6055   -4.3019   24.7254 C   0  0  0  0  0  0
  -21.8829   -3.8066   23.4390 C   0  0  0  0  0  0
  -21.9197   -4.6849   22.3426 C   0  0  0  0  0  0
  -22.5636  -13.4748   21.1956 C   0  0  0  0  0  0
  -22.1677   -4.2035   21.1007 F   0  0  0  0  0  0
  -21.5642   -3.4528   25.7790 F   0  0  0  0  0  0
  -30.7250  -13.0935   20.7256 N   0  0  0  0  0  0
  -25.9924  -13.0473   20.5624 N   0  0  0  0  0  0
  -25.7818  -11.7321   20.7329 N   0  0  0  0  0  0
  -21.8703  -12.7808   22.0753 N   0  0  0  0  0  0
  -24.9719  -15.2286   20.3146 N   0  0  0  0  0  0
  -32.4008  -14.6253   20.6164 O   0  0  0  0  0  0
  -21.6563   -6.8628   21.4194 O   0  0  0  0  0  0
  -22.1451  -14.5201   20.6994 O   0  0  0  0  0  0
  -24.6602  -31.8285   23.1819 C   0  0  0  0  0  0
  -25.9309  -32.4607   23.8235 C   0  0  1  0  0  0
  -27.1591  -26.9860   20.0423 C   0  0  0  0  0  0
  -25.6009  -33.8432   24.2137 N   0  0  0  0  0  0
  -23.4659  -30.4543   21.5350 C   0  0  2  0  0  0
  -24.8992  -28.8702   20.0967 C   0  0  0  0  0  0
  -22.7630  -29.4475   22.4823 C   0  0  0  0  0  0
  -18.0313  -28.1388   22.8472 C   0  0  0  0  0  0
  -24.1496  -36.7224   23.2644 C   0  0  0  0  0  0
  -26.0399  -30.6300   21.4155 C   0  0  0  0  0  0
  -26.0906  -29.2361   20.7357 C   0  0  0  0  0  0
  -27.2183  -28.3024   20.7095 C   0  0  0  0  0  0
  -25.9471  -26.7876   19.3506 C   0  0  0  0  0  0
  -24.8484  -27.6639   19.3942 C   0  0  0  0  0  0
  -23.6944  -29.7987   20.1512 C   0  0  0  0  0  0
  -25.4132  -36.2993   24.0305 C   0  0  1  0  0  0
  -20.5930  -28.3731   23.1207 C   0  0  2  0  0  0
  -20.6791  -26.9422   22.5399 C   0  0  0  0  0  0
  -19.5763  -26.6369   21.5211 C   0  0  0  0  0  0
  -18.1948  -26.7923   22.1622 C   0  0  0  0  0  0
  -19.1571  -28.8880   23.2827 C   0  0  0  0  0  0
  -18.9486  -30.1470   23.8864 C   0  0  0  0  0  0
  -17.6480  -30.6585   24.0553 C   0  0  0  0  0  0
  -25.9096  -34.9366   23.5032 C   0  0  0  0  0  0
  -16.5371  -29.9076   23.6332 C   0  0  0  0  0  0
  -16.7297  -28.6490   23.0366 C   0  0  0  0  0  0
  -26.4567  -31.6551   25.0761 C   0  0  0  0  0  0
  -25.3711  -31.3810   26.1438 C   0  0  0  0  0  0
  -27.0440  -30.2909   24.6496 C   0  0  0  0  0  0
  -27.6065  -32.4356   25.7550 C   0  0  0  0  0  0
  -27.5574  -37.1772   24.8464 C   0  0  0  0  0  0
  -21.4307  -29.3046   22.3576 N   0  0  0  0  0  0
  -26.4285  -37.3721   23.9410 N   0  0  0  0  0  0
  -24.7450  -30.9957   22.0964 N   0  0  0  0  0  0
  -23.4217  -28.7992   23.2992 O   0  0  0  0  0  0
  -28.1035  -25.8511   20.0227 O   0  0  0  0  0  0
  -26.5681  -34.8882   22.4613 O   0  0  0  0  0  0
  -23.5683  -32.1274   23.6927 O   0  0  0  0  0  0
  -28.2773  -22.8948   19.5325 C   0  0  0  0  0  0
  -28.5034  -21.6272   19.4766 C   0  0  0  0  0  0
  -28.7906  -12.1361   19.7489 C   0  0  0  0  0  0
  -29.1980  -12.0697   18.9906 C   0  0  0  0  0  0
  -28.1863  -16.1282   19.7252 C   0  0  0  0  0  0
  -29.1572  -14.6025   19.8530 C   0  0  1  0  0  0
  -29.7839  -14.5246   18.9576 C   0  0  2  0  0  0
  -29.0387  -17.2735   19.0710 C   0  0  1  0  0  0
  -29.4702  -16.0721   18.0354 C   0  0  1  0  0  0
  -31.2115  -17.8053   15.5179 C   0  0  0  0  0  0
  -32.2579  -15.5949   16.1270 C   0  0  0  0  0  0
  -27.6761  -24.4102   19.4207 C   0  0  0  0  0  0
  -28.9144  -20.0542   19.6543 C   0  0  0  0  0  0
  -30.9768  -16.4345   16.1467 C   0  0  0  0  0  0
  -30.4179  -15.0005   20.0917 N   0  0  0  0  0  0
  -28.5260  -18.7679   18.8024 O   0  0  0  0  0  0
  -30.6498  -16.6872   17.5015 O   0  0  0  0  0  0
  -32.2380  -13.3292   18.6124 H   0  0  0  0  0  0
  -31.7767  -11.7819   18.8019 H   0  0  0  0  0  0
  -29.7174  -12.3001   16.4817 H   0  0  0  0  0  0
  -30.0316  -13.9340   16.4623 H   0  0  0  0  0  0
  -26.9855  -12.8475   17.6721 H   0  0  0  0  0  0
  -27.2241  -14.4577   17.6587 H   0  0  0  0  0  0
  -27.0396  -14.5273   20.8264 H   0  0  0  0  0  0
  -28.8062  -12.3037   22.2902 H   0  0  0  0  0  0
  -29.0267  -13.9577   22.4959 H   0  0  0  0  0  0
  -25.2279   -9.5871   22.4978 H   0  0  0  0  0  0
  -23.9919   -7.4482   22.7483 H   0  0  0  0  0  0
  -21.0599   -8.8281   19.8864 H   0  0  0  0  0  0
  -22.3049  -10.9417   19.6286 H   0  0  0  0  0  0
  -21.1955   -7.6079   23.9625 H   0  0  0  0  0  0
  -21.1470   -6.0524   25.9062 H   0  0  0  0  0  0
  -22.0623   -2.7524   23.2926 H   0  0  0  0  0  0
  -22.2525  -11.9618   22.5245 H   0  0  0  0  0  0
  -20.9324  -13.0792   22.2950 H   0  0  0  0  0  0
  -24.1222  -15.7753   20.2095 H   0  0  0  0  0  0
  -25.7951  -15.6777   19.9377 H   0  0  0  0  0  0
  -26.7367  -32.5117   23.0923 H   0  0  0  0  0  0
  -25.0149  -33.9537   25.0291 H   0  0  0  0  0  0
  -22.7786  -31.2888   21.3824 H   0  0  0  0  0  0
  -23.3769  -35.9545   23.3277 H   0  0  0  0  0  0
  -24.3582  -36.8893   22.2066 H   0  0  0  0  0  0
  -23.7238  -37.6402   23.6708 H   0  0  0  0  0  0
  -26.2280  -31.3782   20.6455 H   0  0  0  0  0  0
  -26.8988  -30.6687   22.0720 H   0  0  0  0  0  0
  -28.1146  -28.5552   21.2595 H   0  0  0  0  0  0
  -25.7881  -25.9060   18.7504 H   0  0  0  0  0  0
  -23.9530  -27.3973   18.8514 H   0  0  0  0  0  0
  -23.8569  -30.5812   19.4090 H   0  0  0  0  0  0
  -22.7981  -29.2673   19.8233 H   0  0  0  0  0  0
  -25.1323  -36.1804   25.0797 H   0  0  0  0  0  0
  -21.0021  -28.3321   24.1327 H   0  0  0  0  0  0
  -20.5675  -26.2346   23.3628 H   0  0  0  0  0  0
  -21.6656  -26.7403   22.1200 H   0  0  0  0  0  0
  -19.6923  -25.6272   21.1260 H   0  0  0  0  0  0
  -19.6694  -27.3161   20.6726 H   0  0  0  0  0  0
  -17.4213  -26.6669   21.4029 H   0  0  0  0  0  0
  -18.0346  -26.0070   22.9024 H   0  0  0  0  0  0
  -19.7966  -30.7290   24.2225 H   0  0  0  0  0  0
  -17.5037  -31.6264   24.5155 H   0  0  0  0  0  0
  -15.5371  -30.2970   23.7673 H   0  0  0  0  0  0
  -15.8698  -28.0794   22.7111 H   0  0  0  0  0  0
  -24.5901  -30.7129   25.7786 H   0  0  0  0  0  0
  -24.8889  -32.3015   26.4744 H   0  0  0  0  0  0
  -25.7974  -30.9083   27.0297 H   0  0  0  0  0  0
  -26.3096  -29.6595   24.1480 H   0  0  0  0  0  0
  -27.3929  -29.7265   25.5154 H   0  0  0  0  0  0
  -27.9072  -30.4076   23.9937 H   0  0  0  0  0  0
  -27.2631  -33.3684   26.2029 H   0  0  0  0  0  0
  -28.3925  -32.6867   25.0420 H   0  0  0  0  0  0
  -28.0675  -31.8555   26.5552 H   0  0  0  0  0  0
  -28.2572  -38.0085   24.7511 H   0  0  0  0  0  0
  -28.1087  -36.2611   24.6287 H   0  0  0  0  0  0
  -27.2293  -37.1411   25.8867 H   0  0  0  0  0  0
  -20.9540  -29.8811   21.6785 H   0  0  0  0  0  0
  -26.0135  -38.2780   24.1424 H   0  0  0  0  0  0
  -29.1909  -11.3916   20.4817 H   0  0  0  0  0  0
  -27.8437  -11.5757   19.7328 H   0  0  0  0  0  0
  -28.6257  -11.5350   18.1853 H   0  0  0  0  0  0
  -29.8599  -11.1795   18.8784 H   0  0  0  0  0  0
  -27.8133  -16.5521   20.6701 H   0  0  0  0  0  0
  -27.2822  -16.0114   19.1282 H   0  0  0  0  0  0
  -28.9980  -15.1307   20.8372 H   0  0  0  0  0  0
  -30.7052  -14.7688   18.3668 H   0  0  0  0  0  0
  -29.8975  -17.4614   19.7144 H   0  0  0  0  0  0
  -28.7309  -15.9482   17.2431 H   0  0  0  0  0  0
  -31.4894  -17.7105   14.4685 H   0  0  0  0  0  0
  -32.0144  -18.3332   16.0324 H   0  0  0  0  0  0
  -30.3147  -18.4274   15.5772 H   0  0  0  0  0  0
  -32.5824  -15.3824   15.1080 H   0  0  0  0  0  0
  -32.1390  -14.6338   16.6223 H   0  0  0  0  0  0
  -33.0601  -16.1230   16.6405 H   0  0  0  0  0  0
  -26.6567  -24.2329   19.7629 H   0  0  0  0  0  0
  -27.5945  -24.5648   18.3423 H   0  0  0  0  0  0
  -28.6055  -19.8153   20.6714 H   0  0  0  0  0  0
  -30.0046  -20.0635   19.6957 H   0  0  0  0  0  0
  -30.1758  -15.9388   15.5980 H   0  0  0  0  0  0
  1 25  1  0  0  0
  1 30  2  0  0  0
  1 85  1  0  0  0
  2  3  1  0  0  0
  2 25  1  0  0  0
  2 88  1  0  0  0
  2 89  1  0  0  0
  3  4  1  0  0  0
  3 90  1  0  0  0
  3 91  1  0  0  0
  4  5  1  0  0  0
  4 92  1  0  0  0
  4 93  1  0  0  0
  5  6  1  0  0  0
  5 26  1  0  0  0
  5 94  1  0  0  0
  6 25  1  0  0  0
  6 95  1  0  0  0
  6 96  1  0  0  0
  7  8  2  0  0  0
  7 26  1  0  0  0
  7 29  1  0  0  0
  8  9  1  0  0  0
  8 22  1  0  0  0
  9 10  1  0  0  0
  9 27  2  0  0  0
 10 11  2  0  0  0
 10 15  1  0  0  0
 11 12  1  0  0  0
 11 97  1  0  0  0
 12 13  2  0  0  0
 12 98  1  0  0  0
 13 14  1  0  0  0
 13 31  1  0  0  0
 14 15  2  0  0  0
 14 99  1  0  0  0
 15100  1  0  0  0
 16 17  2  0  0  0
 16 21  1  0  0  0
 16 31  1  0  0  0
 17 18  1  0  0  0
 17101  1  0  0  0
 18 19  2  0  0  0
 18102  1  0  0  0
 19 20  1  0  0  0
 19 24  1  0  0  0
 20 21  2  0  0  0
 20103  1  0  0  0
 21 23  1  0  0  0
 22 28  1  0  0  0
 22 32  2  0  0  0
 26 27  1  0  0  0
 28104  1  0  0  0
 28105  1  0  0  0
 29106  1  0  0  0
 29107  1  0  0  0
 33 34  1  0  0  0
 33 66  1  0  0  0
 33 70  2  0  0  0
 34 36  1  0  0  0
 34 59  1  0  0  0
 34108  1  0  0  0
 35 44  2  0  0  0
 35 45  1  0  0  0
 35 68  1  0  0  0
 36 56  1  0  0  0
 36109  1  0  0  0
 37 39  1  0  0  0
 37 47  1  0  0  0
 37 66  1  0  0  0
 37110  1  0  0  0
 38 43  2  0  0  0
 38 46  1  0  0  0
 38 47  1  0  0  0
 39 64  1  0  0  0
 39 67  2  0  0  0
 40 52  1  0  0  0
 40 53  2  0  0  0
 40 58  1  0  0  0
 41111  1  0  0  0
 41112  1  0  0  0
 41113  1  0  0  0
 41 48  1  0  0  0
 42 43  1  0  0  0
 42 66  1  0  0  0
 42114  1  0  0  0
 42115  1  0  0  0
 43 44  1  0  0  0
 44116  1  0  0  0
 45 46  2  0  0  0
 45117  1  0  0  0
 46118  1  0  0  0
 47119  1  0  0  0
 47120  1  0  0  0
 48 56  1  0  0  0
 48 65  1  0  0  0
 48121  1  0  0  0
 49 50  1  0  0  0
 49 53  1  0  0  0
 49 64  1  0  0  0
 49122  1  0  0  0
 50 51  1  0  0  0
 50123  1  0  0  0
 50124  1  0  0  0
 51 52  1  0  0  0
 51125  1  0  0  0
 51126  1  0  0  0
 52127  1  0  0  0
 52128  1  0  0  0
 53 54  1  0  0  0
 54 55  2  0  0  0
 54129  1  0  0  0
 55 57  1  0  0  0
 55130  1  0  0  0
 56 69  2  0  0  0
 57 58  2  0  0  0
 57131  1  0  0  0
 58132  1  0  0  0
 59 60  1  0  0  0
 59 61  1  0  0  0
 59 62  1  0  0  0
 60133  1  0  0  0
 60134  1  0  0  0
 60135  1  0  0  0
 61136  1  0  0  0
 61137  1  0  0  0
 61138  1  0  0  0
 62139  1  0  0  0
 62140  1  0  0  0
 62141  1  0  0  0
 63 65  1  0  0  0
 63142  1  0  0  0
 63143  1  0  0  0
 63144  1  0  0  0
 64145  1  0  0  0
 65146  1  0  0  0
 68 82  1  0  0  0
 71 72  3  0  0  0
 71 82  1  0  0  0
 72 83  1  0  0  0
 73 74  1  0  0  0
 73147  1  0  0  0
 73148  1  0  0  0
 73 76  1  0  0  0
 74149  1  0  0  0
 74150  1  0  0  0
 74 77  1  0  0  0
 75 76  1  0  0  0
 75 78  1  0  0  0
 75151  1  0  0  0
 75152  1  0  0  0
 76 85  1  0  0  0
 76153  1  0  0  0
 77 79  1  0  0  0
 77 85  1  0  0  0
 77154  1  0  0  0
 78 79  1  0  0  0
 78 86  1  0  0  0
 78155  1  0  0  0
 79 87  1  0  0  0
 79156  1  0  0  0
 80157  1  0  0  0
 80158  1  0  0  0
 80159  1  0  0  0
 80 84  1  0  0  0
 81 84  1  0  0  0
 81160  1  0  0  0
 81161  1  0  0  0
 81162  1  0  0  0
 82163  1  0  0  0
 82164  1  0  0  0
 83 86  1  0  0  0
 83165  1  0  0  0
 83166  1  0  0  0
 84 87  1  0  0  0
 84167  1  0  0  0
M  ISO  4   1 100  68 101  82 101  85 100
M  END
> <chiral flag>
0

> <version>
0

> <s_m_source_file>
/data/baiqing/PycharmProjects/Reinvent-master-3.2/result/LINK_invent/BTK/process_docking_weight1_custom_product_contain_oxygen_bond_distance_aromatic_linkinvent_7_9_3/rearranged_h_0011.sdf

> <i_m_source_file_index>
14

> <r_mmod_Potential_Energy-OPLS-2005>
12157.0029296875

> <r_mmod_Stretch_Energy-OPLS-2005>
6793.0419921875

> <r_mmod_Bend_Energy-OPLS-2005>
1461.41723632812

> <r_mmod_Torsional_Energy-OPLS-2005>
503.784454345703

> <r_mmod_Improper_Torsional_Energy-OPLS-2005>
43.7803039550781

> <r_mmod_Van_der_Waal_Energy-OPLS-2005>
2882.83129882812

> <r_mmod_Electrostatic_Energy-OPLS-2005>
-285.709350585938

> <r_mmod_Solvation_Energy-OPLS-2005>
-222.106262207031

> <b_mmod_Minimization_Converged-OPLS-2005>
0

> <r_mmod_RMS_Derivative-OPLS-2005>
7.15317249298096

$$$$
14
                    3D
 Structure written by MMmdl.
156165  0  0  1  0            999 V2000
  -30.5503  -14.7830   20.4544 C   0  0  0  0  0  0
  -30.4509  -12.4779   19.4684 C   0  0  0  0  0  0
  -29.5171  -12.5169   18.2357 C   0  0  0  0  0  0
  -28.0428  -12.3289   18.6495 C   0  0  0  0  0  0
  -27.6446  -13.2227   19.8530 C   0  0  2  0  0  0
  -28.6916  -13.1389   20.9859 C   0  0  0  0  0  0
  -25.2526  -13.8165   20.5686 C   0  0  0  0  0  0
  -24.1811  -13.0423   20.9207 C   0  0  0  0  0  0
  -24.6395  -11.6900   20.8748 C   0  0  0  0  0  0
  -23.9068  -10.4284   21.0411 C   0  0  0  0  0  0
  -24.3618   -9.4200   21.9187 C   0  0  0  0  0  0
  -23.6291   -8.2238   22.0756 C   0  0  0  0  0  0
  -22.4272   -8.0279   21.3547 C   0  0  0  0  0  0
  -21.9909   -9.0254   20.4650 C   0  0  0  0  0  0
  -22.7241  -10.2131   20.3059 C   0  0  0  0  0  0
  -21.6850   -6.0736   22.5280 C   0  0  0  0  0  0
  -21.4013   -6.5640   23.8214 C   0  0  0  0  0  0
  -21.3658   -5.6792   24.9175 C   0  0  0  0  0  0
  -21.6043   -4.3055   24.7225 C   0  0  0  0  0  0
  -21.8819   -3.8147   23.4346 C   0  0  0  0  0  0
  -21.9191   -4.6963   22.3402 C   0  0  0  0  0  0
  -22.7835  -13.5215   21.1866 C   0  0  0  0  0  0
  -22.1660   -4.2150   21.0979 F   0  0  0  0  0  0
  -21.5631   -3.4540   25.7739 F   0  0  0  0  0  0
  -29.9898  -13.5227   20.4108 N   0  0  0  0  0  0
  -26.2949  -12.9354   20.3280 N   0  0  0  0  0  0
  -25.9322  -11.6507   20.5746 N   0  0  0  0  0  0
  -22.0477  -12.8210   22.0423 N   0  0  0  0  0  0
  -25.4199  -15.1890   20.4090 N   0  0  0  0  0  0
  -31.7364  -14.9436   20.1470 O   0  0  0  0  0  0
  -21.6636   -6.8878   21.4242 O   0  0  0  0  0  0
  -22.3522  -14.5521   20.6712 O   0  0  0  0  0  0
  -24.6338  -31.8519   23.1948 C   0  0  0  0  0  0
  -25.9152  -32.4738   23.8305 C   0  0  1  0  0  0
  -27.2270  -27.2411   20.1369 C   0  0  0  0  0  0
  -25.5933  -33.8540   24.2227 N   0  0  0  0  0  0
  -23.4318  -30.4723   21.5386 C   0  0  2  0  0  0
  -24.8800  -28.9098   20.1138 C   0  0  0  0  0  0
  -22.7513  -29.4586   22.4904 C   0  0  0  0  0  0
  -18.0294  -28.1391   22.8487 C   0  0  0  0  0  0
  -24.1489  -36.7276   23.2641 C   0  0  0  0  0  0
  -25.9785  -30.7606   21.3750 C   0  0  0  0  0  0
  -26.0529  -29.3801   20.7180 C   0  0  0  0  0  0
  -27.2300  -28.5617   20.7088 C   0  0  0  0  0  0
  -26.0267  -26.8342   19.5174 C   0  0  0  0  0  0
  -24.8732  -27.6461   19.5012 C   0  0  0  0  0  0
  -23.6516  -29.8000   20.1572 C   0  0  0  0  0  0
  -25.4119  -36.3058   24.0319 C   0  0  1  0  0  0
  -20.5899  -28.3703   23.1268 C   0  0  2  0  0  0
  -20.6780  -26.9418   22.5410 C   0  0  0  0  0  0
  -19.5753  -26.6384   21.5217 C   0  0  0  0  0  0
  -18.1934  -26.7932   22.1628 C   0  0  0  0  0  0
  -19.1549  -28.8865   23.2869 C   0  0  0  0  0  0
  -18.9467  -30.1468   23.8885 C   0  0  0  0  0  0
  -17.6465  -30.6589   24.0566 C   0  0  0  0  0  0
  -25.9062  -34.9432   23.5079 C   0  0  0  0  0  0
  -16.5357  -29.9085   23.6335 C   0  0  0  0  0  0
  -16.7282  -28.6505   23.0353 C   0  0  0  0  0  0
  -26.4508  -31.6578   25.0712 C   0  0  0  0  0  0
  -25.3721  -31.3735   26.1426 C   0  0  0  0  0  0
  -27.0365  -30.2993   24.6222 C   0  0  0  0  0  0
  -27.6052  -32.4331   25.7490 C   0  0  0  0  0  0
  -27.5578  -37.1793   24.8464 C   0  0  0  0  0  0
  -21.4217  -29.3043   22.3650 N   0  0  0  0  0  0
  -26.4290  -37.3763   23.9408 N   0  0  0  0  0  0
  -24.7006  -31.0468   22.0927 N   0  0  0  0  0  0
  -23.4201  -28.8136   23.3021 O   0  0  0  0  0  0
  -28.3389  -26.3615   20.1656 O   0  0  0  0  0  0
  -26.5638  -34.8916   22.4652 O   0  0  0  0  0  0
  -23.5485  -32.1346   23.7237 O   0  0  0  0  0  0
  -28.3775  -19.3736   19.7321 C   0  0  0  0  0  0
  -30.3917  -19.6879   20.9493 C   0  0  0  0  0  0
  -28.5522  -17.9499   19.8262 C   0  0  0  0  0  0
  -30.5848  -18.2555   21.0227 C   0  0  0  0  0  0
  -29.2786  -20.3220   20.3030 C   0  0  0  0  0  0
  -29.6604  -17.3200   20.4676 C   0  0  0  0  0  0
  -28.1524  -23.9373   19.0805 C   0  0  0  0  0  0
  -29.3478  -24.1978   21.1674 C   0  0  0  0  0  0
  -28.0354  -22.3708   19.3556 C   0  0  0  0  0  0
  -29.2672  -22.6265   21.4223 C   0  0  0  0  0  0
  -28.1830  -24.8612   20.3486 C   0  0  0  0  0  0
  -29.0915  -21.7782   20.2174 N   0  0  0  0  0  0
  -29.6620  -15.8363   20.6522 N   0  0  0  0  0  0
  -31.4861  -12.6369   19.1615 H   0  0  0  0  0  0
  -30.4249  -11.4966   19.9447 H   0  0  0  0  0  0
  -29.8048  -11.7470   17.5184 H   0  0  0  0  0  0
  -29.6316  -13.4717   17.7201 H   0  0  0  0  0  0
  -27.9053  -11.2787   18.9098 H   0  0  0  0  0  0
  -27.3842  -12.5199   17.8015 H   0  0  0  0  0  0
  -27.6389  -14.2452   19.4756 H   0  0  0  0  0  0
  -28.7388  -12.1287   21.3952 H   0  0  0  0  0  0
  -28.4196  -13.7887   21.8193 H   0  0  0  0  0  0
  -25.2764   -9.5673   22.4760 H   0  0  0  0  0  0
  -24.0001   -7.4627   22.7474 H   0  0  0  0  0  0
  -21.0843   -8.8774   19.8952 H   0  0  0  0  0  0
  -22.3705  -10.9672   19.6168 H   0  0  0  0  0  0
  -21.2004   -7.6148   23.9718 H   0  0  0  0  0  0
  -21.1482   -6.0523   25.9079 H   0  0  0  0  0  0
  -22.0598   -2.7609   23.2849 H   0  0  0  0  0  0
  -22.4092  -11.9871   22.4810 H   0  0  0  0  0  0
  -21.1097  -13.1241   22.2631 H   0  0  0  0  0  0
  -24.6454  -15.8355   20.5140 H   0  0  0  0  0  0
  -26.2531  -15.6298   20.0448 H   0  0  0  0  0  0
  -26.7220  -32.5380   23.1046 H   0  0  0  0  0  0
  -25.0074  -33.9669   25.0368 H   0  0  0  0  0  0
  -22.7298  -31.2951   21.3882 H   0  0  0  0  0  0
  -23.3756  -35.9603   23.3298 H   0  0  0  0  0  0
  -24.3576  -36.8911   22.2056 H   0  0  0  0  0  0
  -23.7239  -37.6470   23.6679 H   0  0  0  0  0  0
  -26.1188  -31.5205   20.6050 H   0  0  0  0  0  0
  -26.8550  -30.8105   22.0096 H   0  0  0  0  0  0
  -28.1321  -28.9218   21.1835 H   0  0  0  0  0  0
  -25.9621  -25.8645   19.0494 H   0  0  0  0  0  0
  -23.9742  -27.2782   19.0258 H   0  0  0  0  0  0
  -23.7777  -30.5729   19.3982 H   0  0  0  0  0  0
  -22.7696  -29.2331   19.8537 H   0  0  0  0  0  0
  -25.1305  -36.1896   25.0811 H   0  0  0  0  0  0
  -20.9992  -28.3286   24.1389 H   0  0  0  0  0  0
  -20.5684  -26.2313   23.3617 H   0  0  0  0  0  0
  -21.6647  -26.7437   22.1204 H   0  0  0  0  0  0
  -19.6913  -25.6294   21.1250 H   0  0  0  0  0  0
  -19.6692  -27.3193   20.6746 H   0  0  0  0  0  0
  -17.4203  -26.6688   21.4029 H   0  0  0  0  0  0
  -18.0328  -26.0074   22.9025 H   0  0  0  0  0  0
  -19.7942  -30.7292   24.2243 H   0  0  0  0  0  0
  -17.5016  -31.6266   24.5173 H   0  0  0  0  0  0
  -15.5356  -30.2982   23.7663 H   0  0  0  0  0  0
  -15.8684  -28.0822   22.7069 H   0  0  0  0  0  0
  -24.5899  -30.7084   25.7748 H   0  0  0  0  0  0
  -24.8912  -32.2908   26.4834 H   0  0  0  0  0  0
  -25.8027  -30.8919   27.0215 H   0  0  0  0  0  0
  -26.2958  -29.6728   24.1239 H   0  0  0  0  0  0
  -27.4029  -29.7271   25.4755 H   0  0  0  0  0  0
  -27.8841  -30.4262   23.9483 H   0  0  0  0  0  0
  -27.2651  -33.3639   26.2041 H   0  0  0  0  0  0
  -28.3874  -32.6879   25.0327 H   0  0  0  0  0  0
  -28.0710  -31.8477   26.5428 H   0  0  0  0  0  0
  -28.2588  -38.0096   24.7516 H   0  0  0  0  0  0
  -28.1080  -36.2627   24.6285 H   0  0  0  0  0  0
  -27.2294  -37.1433   25.8865 H   0  0  0  0  0  0
  -20.9408  -29.8752   21.6840 H   0  0  0  0  0  0
  -26.0163  -38.2831   24.1420 H   0  0  0  0  0  0
  -27.4959  -19.7267   19.2181 H   0  0  0  0  0  0
  -31.1435  -20.3122   21.4093 H   0  0  0  0  0  0
  -27.7849  -17.3273   19.3897 H   0  0  0  0  0  0
  -31.4465  -17.8811   21.5568 H   0  0  0  0  0  0
  -27.3260  -24.2326   18.4355 H   0  0  0  0  0  0
  -29.0521  -24.1202   18.4916 H   0  0  0  0  0  0
  -30.2903  -24.4145   20.6631 H   0  0  0  0  0  0
  -29.4191  -24.6983   22.1337 H   0  0  0  0  0  0
  -28.0374  -21.8543   18.3948 H   0  0  0  0  0  0
  -27.0646  -22.1620   19.8084 H   0  0  0  0  0  0
  -28.4359  -22.4227   22.0994 H   0  0  0  0  0  0
  -30.1666  -22.3158   21.9549 H   0  0  0  0  0  0
  -27.2609  -24.6981   20.9086 H   0  0  0  0  0  0
  -28.7375  -15.4653   20.8059 H   0  0  0  0  0  0
  1 25  1  0  0  0
  1 30  2  0  0  0
  1 83  1  0  0  0
  2  3  1  0  0  0
  2 25  1  0  0  0
  2 84  1  0  0  0
  2 85  1  0  0  0
  3  4  1  0  0  0
  3 86  1  0  0  0
  3 87  1  0  0  0
  4  5  1  0  0  0
  4 88  1  0  0  0
  4 89  1  0  0  0
  5  6  1  0  0  0
  5 26  1  0  0  0
  5 90  1  0  0  0
  6 25  1  0  0  0
  6 91  1  0  0  0
  6 92  1  0  0  0
  7  8  2  0  0  0
  7 26  1  0  0  0
  7 29  1  0  0  0
  8  9  1  0  0  0
  8 22  1  0  0  0
  9 10  1  0  0  0
  9 27  2  0  0  0
 10 11  2  0  0  0
 10 15  1  0  0  0
 11 12  1  0  0  0
 11 93  1  0  0  0
 12 13  2  0  0  0
 12 94  1  0  0  0
 13 14  1  0  0  0
 13 31  1  0  0  0
 14 15  2  0  0  0
 14 95  1  0  0  0
 15 96  1  0  0  0
 16 17  2  0  0  0
 16 21  1  0  0  0
 16 31  1  0  0  0
 17 18  1  0  0  0
 17 97  1  0  0  0
 18 19  2  0  0  0
 18 98  1  0  0  0
 19 20  1  0  0  0
 19 24  1  0  0  0
 20 21  2  0  0  0
 20 99  1  0  0  0
 21 23  1  0  0  0
 22 28  1  0  0  0
 22 32  2  0  0  0
 26 27  1  0  0  0
 28100  1  0  0  0
 28101  1  0  0  0
 29102  1  0  0  0
 29103  1  0  0  0
 33 34  1  0  0  0
 33 66  1  0  0  0
 33 70  2  0  0  0
 34 36  1  0  0  0
 34 59  1  0  0  0
 34104  1  0  0  0
 35 44  2  0  0  0
 35 45  1  0  0  0
 35 68  1  0  0  0
 36 56  1  0  0  0
 36105  1  0  0  0
 37 39  1  0  0  0
 37 47  1  0  0  0
 37 66  1  0  0  0
 37106  1  0  0  0
 38 43  2  0  0  0
 38 46  1  0  0  0
 38 47  1  0  0  0
 39 64  1  0  0  0
 39 67  2  0  0  0
 40 52  1  0  0  0
 40 53  2  0  0  0
 40 58  1  0  0  0
 41107  1  0  0  0
 41108  1  0  0  0
 41109  1  0  0  0
 41 48  1  0  0  0
 42 43  1  0  0  0
 42 66  1  0  0  0
 42110  1  0  0  0
 42111  1  0  0  0
 43 44  1  0  0  0
 44112  1  0  0  0
 45 46  2  0  0  0
 45113  1  0  0  0
 46114  1  0  0  0
 47115  1  0  0  0
 47116  1  0  0  0
 48 56  1  0  0  0
 48 65  1  0  0  0
 48117  1  0  0  0
 49 50  1  0  0  0
 49 53  1  0  0  0
 49 64  1  0  0  0
 49118  1  0  0  0
 50 51  1  0  0  0
 50119  1  0  0  0
 50120  1  0  0  0
 51 52  1  0  0  0
 51121  1  0  0  0
 51122  1  0  0  0
 52123  1  0  0  0
 52124  1  0  0  0
 53 54  1  0  0  0
 54 55  2  0  0  0
 54125  1  0  0  0
 55 57  1  0  0  0
 55126  1  0  0  0
 56 69  2  0  0  0
 57 58  2  0  0  0
 57127  1  0  0  0
 58128  1  0  0  0
 59 60  1  0  0  0
 59 61  1  0  0  0
 59 62  1  0  0  0
 60129  1  0  0  0
 60130  1  0  0  0
 60131  1  0  0  0
 61132  1  0  0  0
 61133  1  0  0  0
 61134  1  0  0  0
 62135  1  0  0  0
 62136  1  0  0  0
 62137  1  0  0  0
 63 65  1  0  0  0
 63138  1  0  0  0
 63139  1  0  0  0
 63140  1  0  0  0
 64141  1  0  0  0
 65142  1  0  0  0
 68 81  1  0  0  0
 71 73  2  0  0  0
 71 75  1  0  0  0
 71143  1  0  0  0
 72 74  1  0  0  0
 72 75  2  0  0  0
 72144  1  0  0  0
 73 76  1  0  0  0
 73145  1  0  0  0
 74 76  2  0  0  0
 74146  1  0  0  0
 75 82  1  0  0  0
 76 83  1  0  0  0
 77 79  1  0  0  0
 77 81  1  0  0  0
 77147  1  0  0  0
 77148  1  0  0  0
 78 80  1  0  0  0
 78 81  1  0  0  0
 78149  1  0  0  0
 78150  1  0  0  0
 79 82  1  0  0  0
 79151  1  0  0  0
 79152  1  0  0  0
 80 82  1  0  0  0
 80153  1  0  0  0
 80154  1  0  0  0
 81155  1  0  0  0
 83156  1  0  0  0
M  ISO  4   1 100  68 101  81 101  83 100
M  END
> <chiral flag>
0

> <version>
0

> <s_m_source_file>
/data/baiqing/PycharmProjects/Reinvent-master-3.2/result/LINK_invent/BTK/process_docking_weight1_custom_product_contain_oxygen_bond_distance_aromatic_linkinvent_7_9_3/rearranged_h_0011.sdf

> <i_m_source_file_index>
15

> <r_mmod_Potential_Energy-OPLS-2005>
190.801544189453

> <r_mmod_Stretch_Energy-OPLS-2005>
124.130180358887

> <r_mmod_Bend_Energy-OPLS-2005>
190.531784057617

> <r_mmod_Torsional_Energy-OPLS-2005>
259.040710449219

> <r_mmod_Improper_Torsional_Energy-OPLS-2005>
9.05308055877686

> <r_mmod_Van_der_Waal_Energy-OPLS-2005>
136.684219360352

> <r_mmod_Electrostatic_Energy-OPLS-2005>
-396.944183349609

> <r_mmod_Solvation_Energy-OPLS-2005>
-230.249862670898

> <b_mmod_Minimization_Converged-OPLS-2005>
0

> <r_mmod_RMS_Derivative-OPLS-2005>
0.348706066608429

$$$$
15
                    3D
 Structure written by MMmdl.
159168  0  0  1  0            999 V2000
  -30.6880  -14.6503   20.5184 C   0  0  0  0  0  0
  -30.4164  -12.4109   19.4621 C   0  0  0  0  0  0
  -29.4984  -12.5093   18.2271 C   0  0  0  0  0  0
  -28.0255  -12.3432   18.6426 C   0  0  0  0  0  0
  -27.6438  -13.2317   19.8567 C   0  0  2  0  0  0
  -28.6883  -13.1428   20.9914 C   0  0  0  0  0  0
  -25.2504  -13.8201   20.5698 C   0  0  0  0  0  0
  -24.1798  -13.0443   20.9211 C   0  0  0  0  0  0
  -24.6393  -11.6923   20.8754 C   0  0  0  0  0  0
  -23.9072  -10.4296   21.0409 C   0  0  0  0  0  0
  -24.3621   -9.4210   21.9186 C   0  0  0  0  0  0
  -23.6296   -8.2245   22.0754 C   0  0  0  0  0  0
  -22.4279   -8.0282   21.3545 C   0  0  0  0  0  0
  -21.9916   -9.0256   20.4646 C   0  0  0  0  0  0
  -22.7244  -10.2136   20.3057 C   0  0  0  0  0  0
  -21.6855   -6.0736   22.5278 C   0  0  0  0  0  0
  -21.4015   -6.5639   23.8211 C   0  0  0  0  0  0
  -21.3660   -5.6792   24.9173 C   0  0  0  0  0  0
  -21.6044   -4.3055   24.7224 C   0  0  0  0  0  0
  -21.8819   -3.8146   23.4346 C   0  0  0  0  0  0
  -21.9193   -4.6963   22.3402 C   0  0  0  0  0  0
  -22.7818  -13.5222   21.1865 C   0  0  0  0  0  0
  -22.1661   -4.2148   21.0980 F   0  0  0  0  0  0
  -21.5629   -3.4538   25.7738 F   0  0  0  0  0  0
  -30.0007  -13.4644   20.4160 N   0  0  0  0  0  0
  -26.2945  -12.9417   20.3318 N   0  0  0  0  0  0
  -25.9327  -11.6556   20.5774 N   0  0  0  0  0  0
  -22.0465  -12.8210   22.0421 N   0  0  0  0  0  0
  -25.4171  -15.1922   20.4089 N   0  0  0  0  0  0
  -31.8451  -14.7298   20.0939 O   0  0  0  0  0  0
  -21.6642   -6.8879   21.4241 O   0  0  0  0  0  0
  -22.3501  -14.5525   20.6710 O   0  0  0  0  0  0
  -24.6277  -31.8589   23.2036 C   0  0  0  0  0  0
  -25.9123  -32.4773   23.8359 C   0  0  1  0  0  0
  -27.2123  -27.2947   20.1164 C   0  0  0  0  0  0
  -25.5937  -33.8576   24.2281 N   0  0  0  0  0  0
  -23.4217  -30.4851   21.5462 C   0  0  2  0  0  0
  -24.8665  -28.9439   20.1064 C   0  0  0  0  0  0
  -22.7483  -29.4620   22.4925 C   0  0  0  0  0  0
  -18.0287  -28.1388   22.8488 C   0  0  0  0  0  0
  -24.1488  -36.7284   23.2638 C   0  0  0  0  0  0
  -25.9661  -30.7803   21.3818 C   0  0  0  0  0  0
  -26.0361  -29.4080   20.7205 C   0  0  0  0  0  0
  -27.2095  -28.5929   20.7214 C   0  0  0  0  0  0
  -26.0255  -26.9080   19.4494 C   0  0  0  0  0  0
  -24.8649  -27.7007   19.4608 C   0  0  0  0  0  0
  -23.6367  -29.8263   20.1591 C   0  0  0  0  0  0
  -25.4115  -36.3079   24.0330 C   0  0  1  0  0  0
  -20.5889  -28.3691   23.1277 C   0  0  2  0  0  0
  -20.6772  -26.9413   22.5406 C   0  0  0  0  0  0
  -19.5747  -26.6389   21.5208 C   0  0  0  0  0  0
  -18.1930  -26.7932   22.1625 C   0  0  0  0  0  0
  -19.1542  -28.8857   23.2878 C   0  0  0  0  0  0
  -18.9465  -30.1458   23.8896 C   0  0  0  0  0  0
  -17.6465  -30.6589   24.0567 C   0  0  0  0  0  0
  -25.9055  -34.9449   23.5103 C   0  0  0  0  0  0
  -16.5355  -29.9090   23.6335 C   0  0  0  0  0  0
  -16.7275  -28.6508   23.0355 C   0  0  0  0  0  0
  -26.4500  -31.6589   25.0737 C   0  0  0  0  0  0
  -25.3731  -31.3734   26.1462 C   0  0  0  0  0  0
  -27.0343  -30.3007   24.6212 C   0  0  0  0  0  0
  -27.6057  -32.4325   25.7508 C   0  0  0  0  0  0
  -27.5576  -37.1799   24.8469 C   0  0  0  0  0  0
  -21.4195  -29.3044   22.3669 N   0  0  0  0  0  0
  -26.4290  -37.3775   23.9412 N   0  0  0  0  0  0
  -24.6906  -31.0584   22.1001 N   0  0  0  0  0  0
  -23.4204  -28.8151   23.3002 O   0  0  0  0  0  0
  -28.3117  -26.4154   20.2062 O   0  0  0  0  0  0
  -26.5621  -34.8916   22.4667 O   0  0  0  0  0  0
  -23.5438  -32.1399   23.7353 O   0  0  0  0  0  0
  -28.8421  -20.5803   21.2634 C   0  0  0  0  0  0
  -29.6199  -20.3318   19.0175 C   0  0  0  0  0  0
  -29.3001  -18.2731   20.3826 C   0  0  0  0  0  0
  -29.1716  -21.2216   20.0362 C   0  0  0  0  0  0
  -28.8844  -19.1539   21.4264 C   0  0  0  0  0  0
  -29.6888  -18.9169   19.1802 C   0  0  0  0  0  0
  -28.5677  -24.6359   18.4813 C   0  0  0  0  0  0
  -28.7199  -23.1024   18.4243 C   0  0  0  0  0  0
  -28.8772  -23.8043   20.7032 C   0  0  0  0  0  0
  -28.1320  -24.9611   19.9121 C   0  0  1  0  0  0
  -30.8822  -16.4124   22.1699 C   0  0  0  0  0  0
  -29.1362  -16.6923   20.4369 C   0  0  0  0  0  0
  -29.0396  -22.6435   19.7763 N   0  0  0  0  0  0
  -30.1076  -15.7538   21.1158 N   0  0  0  0  0  0
  -28.4602  -18.6268   22.6003 F   0  0  0  0  0  0
  -30.0896  -18.1619   18.1283 F   0  0  0  0  0  0
  -31.4607  -12.5029   19.1589 H   0  0  0  0  0  0
  -30.3318  -11.4274   19.9271 H   0  0  0  0  0  0
  -29.7677  -11.7482   17.4935 H   0  0  0  0  0  0
  -29.6386  -13.4735   17.7358 H   0  0  0  0  0  0
  -27.8714  -11.2926   18.8909 H   0  0  0  0  0  0
  -27.3681  -12.5545   17.7985 H   0  0  0  0  0  0
  -27.6455  -14.2579   19.4910 H   0  0  0  0  0  0
  -28.7026  -12.1435   21.4290 H   0  0  0  0  0  0
  -28.4311  -13.8268   21.8019 H   0  0  0  0  0  0
  -25.2765   -9.5686   22.4762 H   0  0  0  0  0  0
  -24.0004   -7.4637   22.7475 H   0  0  0  0  0  0
  -21.0846   -8.8775   19.8953 H   0  0  0  0  0  0
  -22.3702  -10.9674   19.6166 H   0  0  0  0  0  0
  -21.2008   -7.6148   23.9714 H   0  0  0  0  0  0
  -21.1482   -6.0522   25.9076 H   0  0  0  0  0  0
  -22.0598   -2.7609   23.2846 H   0  0  0  0  0  0
  -22.4084  -11.9874   22.4810 H   0  0  0  0  0  0
  -21.1081  -13.1230   22.2624 H   0  0  0  0  0  0
  -24.6463  -15.8425   20.5170 H   0  0  0  0  0  0
  -26.2599  -15.6319   20.0652 H   0  0  0  0  0  0
  -26.7187  -32.5430   23.1101 H   0  0  0  0  0  0
  -25.0091  -33.9723   25.0431 H   0  0  0  0  0  0
  -22.7163  -31.3068   21.4059 H   0  0  0  0  0  0
  -23.3752  -35.9615   23.3308 H   0  0  0  0  0  0
  -24.3576  -36.8895   22.2050 H   0  0  0  0  0  0
  -23.7241  -37.6488   23.6653 H   0  0  0  0  0  0
  -26.1053  -31.5448   20.6162 H   0  0  0  0  0  0
  -26.8440  -30.8239   22.0146 H   0  0  0  0  0  0
  -28.1008  -28.9385   21.2259 H   0  0  0  0  0  0
  -25.9519  -25.9765   18.9104 H   0  0  0  0  0  0
  -23.9738  -27.3467   18.9608 H   0  0  0  0  0  0
  -23.7588  -30.6064   19.4068 H   0  0  0  0  0  0
  -22.7558  -29.2593   19.8530 H   0  0  0  0  0  0
  -25.1296  -36.1926   25.0823 H   0  0  0  0  0  0
  -20.9985  -28.3261   24.1396 H   0  0  0  0  0  0
  -20.5672  -26.2300   23.3604 H   0  0  0  0  0  0
  -21.6640  -26.7440   22.1198 H   0  0  0  0  0  0
  -19.6909  -25.6303   21.1231 H   0  0  0  0  0  0
  -19.6681  -27.3205   20.6743 H   0  0  0  0  0  0
  -17.4195  -26.6680   21.4030 H   0  0  0  0  0  0
  -18.0333  -26.0073   22.9022 H   0  0  0  0  0  0
  -19.7941  -30.7275   24.2262 H   0  0  0  0  0  0
  -17.5022  -31.6270   24.5169 H   0  0  0  0  0  0
  -15.5357  -30.2993   23.7660 H   0  0  0  0  0  0
  -15.8673  -28.0829   22.7071 H   0  0  0  0  0  0
  -24.5913  -30.7074   25.7794 H   0  0  0  0  0  0
  -24.8915  -32.2901   26.4875 H   0  0  0  0  0  0
  -25.8054  -30.8925   27.0245 H   0  0  0  0  0  0
  -26.2927  -29.6764   24.1214 H   0  0  0  0  0  0
  -27.4002  -29.7259   25.4731 H   0  0  0  0  0  0
  -27.8817  -30.4282   23.9472 H   0  0  0  0  0  0
  -27.2667  -33.3626   26.2085 H   0  0  0  0  0  0
  -28.3868  -32.6883   25.0338 H   0  0  0  0  0  0
  -28.0724  -31.8452   26.5427 H   0  0  0  0  0  0
  -28.2602  -38.0088   24.7505 H   0  0  0  0  0  0
  -28.1062  -36.2618   24.6307 H   0  0  0  0  0  0
  -27.2292  -37.1463   25.8872 H   0  0  0  0  0  0
  -20.9369  -29.8775   21.6890 H   0  0  0  0  0  0
  -26.0168  -38.2849   24.1413 H   0  0  0  0  0  0
  -28.4912  -21.1758   22.0928 H   0  0  0  0  0  0
  -29.9115  -20.7206   18.0545 H   0  0  0  0  0  0
  -27.8726  -25.0110   17.7299 H   0  0  0  0  0  0
  -29.5354  -25.1008   18.2880 H   0  0  0  0  0  0
  -29.4901  -22.8290   17.7023 H   0  0  0  0  0  0
  -27.7837  -22.6419   18.1035 H   0  0  0  0  0  0
  -28.3299  -23.5299   21.6061 H   0  0  0  0  0  0
  -29.8677  -24.1412   21.0119 H   0  0  0  0  0  0
  -27.0877  -24.6798   20.0366 H   0  0  0  0  0  0
  -30.2233  -16.9002   22.8870 H   0  0  0  0  0  0
  -31.5544  -17.1611   21.7484 H   0  0  0  0  0  0
  -31.4887  -15.6999   22.7328 H   0  0  0  0  0  0
  -29.0045  -16.3474   19.4101 H   0  0  0  0  0  0
  -28.1710  -16.5074   20.9085 H   0  0  0  0  0  0
  1 25  1  0  0  0
  1 30  2  0  0  0
  1 84  1  0  0  0
  2  3  1  0  0  0
  2 25  1  0  0  0
  2 87  1  0  0  0
  2 88  1  0  0  0
  3  4  1  0  0  0
  3 89  1  0  0  0
  3 90  1  0  0  0
  4  5  1  0  0  0
  4 91  1  0  0  0
  4 92  1  0  0  0
  5  6  1  0  0  0
  5 26  1  0  0  0
  5 93  1  0  0  0
  6 25  1  0  0  0
  6 94  1  0  0  0
  6 95  1  0  0  0
  7  8  2  0  0  0
  7 26  1  0  0  0
  7 29  1  0  0  0
  8  9  1  0  0  0
  8 22  1  0  0  0
  9 10  1  0  0  0
  9 27  2  0  0  0
 10 11  2  0  0  0
 10 15  1  0  0  0
 11 12  1  0  0  0
 11 96  1  0  0  0
 12 13  2  0  0  0
 12 97  1  0  0  0
 13 14  1  0  0  0
 13 31  1  0  0  0
 14 15  2  0  0  0
 14 98  1  0  0  0
 15 99  1  0  0  0
 16 17  2  0  0  0
 16 21  1  0  0  0
 16 31  1  0  0  0
 17 18  1  0  0  0
 17100  1  0  0  0
 18 19  2  0  0  0
 18101  1  0  0  0
 19 20  1  0  0  0
 19 24  1  0  0  0
 20 21  2  0  0  0
 20102  1  0  0  0
 21 23  1  0  0  0
 22 28  1  0  0  0
 22 32  2  0  0  0
 26 27  1  0  0  0
 28103  1  0  0  0
 28104  1  0  0  0
 29105  1  0  0  0
 29106  1  0  0  0
 33 34  1  0  0  0
 33 66  1  0  0  0
 33 70  2  0  0  0
 34 36  1  0  0  0
 34 59  1  0  0  0
 34107  1  0  0  0
 35 44  2  0  0  0
 35 45  1  0  0  0
 35 68  1  0  0  0
 36 56  1  0  0  0
 36108  1  0  0  0
 37 39  1  0  0  0
 37 47  1  0  0  0
 37 66  1  0  0  0
 37109  1  0  0  0
 38 43  2  0  0  0
 38 46  1  0  0  0
 38 47  1  0  0  0
 39 64  1  0  0  0
 39 67  2  0  0  0
 40 52  1  0  0  0
 40 53  2  0  0  0
 40 58  1  0  0  0
 41110  1  0  0  0
 41111  1  0  0  0
 41112  1  0  0  0
 41 48  1  0  0  0
 42 43  1  0  0  0
 42 66  1  0  0  0
 42113  1  0  0  0
 42114  1  0  0  0
 43 44  1  0  0  0
 44115  1  0  0  0
 45 46  2  0  0  0
 45116  1  0  0  0
 46117  1  0  0  0
 47118  1  0  0  0
 47119  1  0  0  0
 48 56  1  0  0  0
 48 65  1  0  0  0
 48120  1  0  0  0
 49 50  1  0  0  0
 49 53  1  0  0  0
 49 64  1  0  0  0
 49121  1  0  0  0
 50 51  1  0  0  0
 50122  1  0  0  0
 50123  1  0  0  0
 51 52  1  0  0  0
 51124  1  0  0  0
 51125  1  0  0  0
 52126  1  0  0  0
 52127  1  0  0  0
 53 54  1  0  0  0
 54 55  2  0  0  0
 54128  1  0  0  0
 55 57  1  0  0  0
 55129  1  0  0  0
 56 69  2  0  0  0
 57 58  2  0  0  0
 57130  1  0  0  0
 58131  1  0  0  0
 59 60  1  0  0  0
 59 61  1  0  0  0
 59 62  1  0  0  0
 60132  1  0  0  0
 60133  1  0  0  0
 60134  1  0  0  0
 61135  1  0  0  0
 61136  1  0  0  0
 61137  1  0  0  0
 62138  1  0  0  0
 62139  1  0  0  0
 62140  1  0  0  0
 63 65  1  0  0  0
 63141  1  0  0  0
 63142  1  0  0  0
 63143  1  0  0  0
 64144  1  0  0  0
 65145  1  0  0  0
 68 80  1  0  0  0
 71 74  2  0  0  0
 71 75  1  0  0  0
 71146  1  0  0  0
 72 74  1  0  0  0
 72 76  2  0  0  0
 72147  1  0  0  0
 73 75  2  0  0  0
 73 76  1  0  0  0
 73 82  1  0  0  0
 74 83  1  0  0  0
 75 85  1  0  0  0
 76 86  1  0  0  0
 77 78  1  0  0  0
 77 80  1  0  0  0
 77148  1  0  0  0
 77149  1  0  0  0
 78 83  1  0  0  0
 78150  1  0  0  0
 78151  1  0  0  0
 79 80  1  0  0  0
 79 83  1  0  0  0
 79152  1  0  0  0
 79153  1  0  0  0
 80154  1  0  0  0
 81 84  1  0  0  0
 81155  1  0  0  0
 81156  1  0  0  0
 81157  1  0  0  0
 82 84  1  0  0  0
 82158  1  0  0  0
 82159  1  0  0  0
M  ISO  4   1 100  68 101  80 101  84 100
M  END
> <chiral flag>
0

> <version>
0

> <s_m_source_file>
/data/baiqing/PycharmProjects/Reinvent-master-3.2/result/LINK_invent/BTK/process_docking_weight1_custom_product_contain_oxygen_bond_distance_aromatic_linkinvent_7_9_3/rearranged_h_0011.sdf

> <i_m_source_file_index>
16

> <r_mmod_Potential_Energy-OPLS-2005>
329.930633544922

> <r_mmod_Stretch_Energy-OPLS-2005>
91.3080444335938

> <r_mmod_Bend_Energy-OPLS-2005>
206.688491821289

> <r_mmod_Torsional_Energy-OPLS-2005>
324.333557128906

> <r_mmod_Improper_Torsional_Energy-OPLS-2005>
5.53928232192993

> <r_mmod_Van_der_Waal_Energy-OPLS-2005>
143.44059753418

> <r_mmod_Electrostatic_Energy-OPLS-2005>
-290.607269287109

> <r_mmod_Solvation_Energy-OPLS-2005>
-210.345565795898

> <b_mmod_Minimization_Converged-OPLS-2005>
0

> <r_mmod_RMS_Derivative-OPLS-2005>
0.304988771677017

$$$$
16
                    3D
 Structure written by MMmdl.
152160  0  0  1  0            999 V2000
  -30.6493  -14.6606   20.4945 C   0  0  0  0  0  0
  -30.4246  -12.4107   19.4514 C   0  0  0  0  0  0
  -29.4996  -12.4989   18.2197 C   0  0  0  0  0  0
  -28.0249  -12.3364   18.6369 C   0  0  0  0  0  0
  -27.6430  -13.2255   19.8510 C   0  0  2  0  0  0
  -28.6890  -13.1264   20.9814 C   0  0  0  0  0  0
  -25.2514  -13.8189   20.5681 C   0  0  0  0  0  0
  -24.1801  -13.0441   20.9200 C   0  0  0  0  0  0
  -24.6386  -11.6916   20.8746 C   0  0  0  0  0  0
  -23.9064  -10.4291   21.0408 C   0  0  0  0  0  0
  -24.3616   -9.4207   21.9185 C   0  0  0  0  0  0
  -23.6292   -8.2242   22.0754 C   0  0  0  0  0  0
  -22.4275   -8.0278   21.3544 C   0  0  0  0  0  0
  -21.9910   -9.0251   20.4646 C   0  0  0  0  0  0
  -22.7236  -10.2132   20.3057 C   0  0  0  0  0  0
  -21.6854   -6.0733   22.5277 C   0  0  0  0  0  0
  -21.4014   -6.5637   23.8209 C   0  0  0  0  0  0
  -21.3660   -5.6791   24.9173 C   0  0  0  0  0  0
  -21.6046   -4.3053   24.7224 C   0  0  0  0  0  0
  -21.8819   -3.8144   23.4346 C   0  0  0  0  0  0
  -21.9193   -4.6961   22.3401 C   0  0  0  0  0  0
  -22.7823  -13.5225   21.1865 C   0  0  0  0  0  0
  -22.1661   -4.2144   21.0980 F   0  0  0  0  0  0
  -21.5632   -3.4538   25.7739 F   0  0  0  0  0  0
  -29.9936  -13.4603   20.3979 N   0  0  0  0  0  0
  -26.2938  -12.9386   20.3281 N   0  0  0  0  0  0
  -25.9314  -11.6534   20.5751 N   0  0  0  0  0  0
  -22.0475  -12.8210   22.0422 N   0  0  0  0  0  0
  -25.4206  -15.1911   20.4079 N   0  0  0  0  0  0
  -31.8354  -14.7519   20.1689 O   0  0  0  0  0  0
  -21.6640   -6.8874   21.4239 O   0  0  0  0  0  0
  -22.3506  -14.5532   20.6716 O   0  0  0  0  0  0
  -24.6261  -31.8588   23.2004 C   0  0  0  0  0  0
  -25.9105  -32.4774   23.8341 C   0  0  1  0  0  0
  -27.2245  -27.3179   20.1278 C   0  0  0  0  0  0
  -25.5923  -33.8574   24.2272 N   0  0  0  0  0  0
  -23.4203  -30.4801   21.5429 C   0  0  2  0  0  0
  -24.8670  -28.9256   20.1172 C   0  0  0  0  0  0
  -22.7473  -29.4620   22.4939 C   0  0  0  0  0  0
  -18.0286  -28.1394   22.8491 C   0  0  0  0  0  0
  -24.1486  -36.7290   23.2641 C   0  0  0  0  0  0
  -25.9596  -30.7903   21.3685 C   0  0  0  0  0  0
  -26.0354  -29.4144   20.7169 C   0  0  0  0  0  0
  -27.2215  -28.6234   20.7070 C   0  0  0  0  0  0
  -26.0366  -26.8695   19.5177 C   0  0  0  0  0  0
  -24.8687  -27.6588   19.5083 C   0  0  0  0  0  0
  -23.6356  -29.8083   20.1608 C   0  0  0  0  0  0
  -25.4112  -36.3081   24.0330 C   0  0  1  0  0  0
  -20.5887  -28.3693   23.1291 C   0  0  2  0  0  0
  -20.6776  -26.9417   22.5415 C   0  0  0  0  0  0
  -19.5750  -26.6393   21.5218 C   0  0  0  0  0  0
  -18.1930  -26.7937   22.1630 C   0  0  0  0  0  0
  -19.1539  -28.8861   23.2888 C   0  0  0  0  0  0
  -18.9462  -30.1465   23.8899 C   0  0  0  0  0  0
  -17.6461  -30.6595   24.0570 C   0  0  0  0  0  0
  -25.9050  -34.9450   23.5104 C   0  0  0  0  0  0
  -16.5353  -29.9094   23.6336 C   0  0  0  0  0  0
  -16.7274  -28.6516   23.0351 C   0  0  0  0  0  0
  -26.4493  -31.6585   25.0710 C   0  0  0  0  0  0
  -25.3729  -31.3720   26.1440 C   0  0  0  0  0  0
  -27.0336  -30.3013   24.6154 C   0  0  0  0  0  0
  -27.6053  -32.4317   25.7482 C   0  0  0  0  0  0
  -27.5577  -37.1803   24.8467 C   0  0  0  0  0  0
  -21.4187  -29.3043   22.3679 N   0  0  0  0  0  0
  -26.4289  -37.3776   23.9410 N   0  0  0  0  0  0
  -24.6876  -31.0603   22.0946 N   0  0  0  0  0  0
  -23.4194  -28.8171   23.3029 O   0  0  0  0  0  0
  -28.3440  -26.4807   20.1114 O   0  0  0  0  0  0
  -26.5619  -34.8920   22.4670 O   0  0  0  0  0  0
  -23.5425  -32.1378   23.7338 O   0  0  0  0  0  0
  -28.7360  -19.1166   20.9649 C   0  0  0  0  0  0
  -31.0018  -19.4483   20.2542 C   0  0  0  0  0  0
  -28.4748  -20.5207   20.7753 C   0  0  0  0  0  0
  -30.7474  -20.8370   20.0821 C   0  0  0  0  0  0
  -30.0234  -18.5443   20.7403 C   0  0  0  0  0  0
  -29.4937  -21.4321   20.3690 C   0  0  0  0  0  0
  -30.4966  -17.1145   21.2294 C   0  0  0  0  0  0
  -28.2290  -23.7675   20.0806 C   0  0  0  0  0  0
  -28.2645  -25.1877   20.8266 C   0  0  0  0  0  0
  -29.4064  -22.8683   20.2987 N   0  0  0  0  0  0
  -29.9223  -15.7872   20.8039 N   0  0  0  0  0  0
  -31.4664  -12.5243   19.1470 H   0  0  0  0  0  0
  -30.3552  -11.4269   19.9184 H   0  0  0  0  0  0
  -29.7673  -11.7339   17.4896 H   0  0  0  0  0  0
  -29.6376  -13.4598   17.7213 H   0  0  0  0  0  0
  -27.8691  -11.2860   18.8856 H   0  0  0  0  0  0
  -27.3675  -12.5480   17.7926 H   0  0  0  0  0  0
  -27.6481  -14.2533   19.4877 H   0  0  0  0  0  0
  -28.7092  -12.1210   21.4044 H   0  0  0  0  0  0
  -28.4364  -13.7971   21.8043 H   0  0  0  0  0  0
  -25.2763   -9.5683   22.4756 H   0  0  0  0  0  0
  -24.0002   -7.4634   22.7473 H   0  0  0  0  0  0
  -21.0841   -8.8770   19.8951 H   0  0  0  0  0  0
  -22.3695  -10.9670   19.6163 H   0  0  0  0  0  0
  -21.2005   -7.6145   23.9710 H   0  0  0  0  0  0
  -21.1484   -6.0523   25.9075 H   0  0  0  0  0  0
  -22.0598   -2.7606   23.2848 H   0  0  0  0  0  0
  -22.4098  -11.9870   22.4803 H   0  0  0  0  0  0
  -21.1094  -13.1230   22.2638 H   0  0  0  0  0  0
  -24.6514  -15.8435   20.5126 H   0  0  0  0  0  0
  -26.2635  -15.6290   20.0588 H   0  0  0  0  0  0
  -26.7173  -32.5447   23.1092 H   0  0  0  0  0  0
  -25.0066  -33.9713   25.0416 H   0  0  0  0  0  0
  -22.7144  -31.3004   21.3971 H   0  0  0  0  0  0
  -23.3746  -35.9626   23.3308 H   0  0  0  0  0  0
  -24.3576  -36.8905   22.2055 H   0  0  0  0  0  0
  -23.7237  -37.6494   23.6656 H   0  0  0  0  0  0
  -26.0864  -31.5498   20.5960 H   0  0  0  0  0  0
  -26.8418  -30.8448   21.9945 H   0  0  0  0  0  0
  -28.1240  -28.9973   21.1701 H   0  0  0  0  0  0
  -26.0118  -25.8950   19.0507 H   0  0  0  0  0  0
  -23.9721  -27.2787   19.0379 H   0  0  0  0  0  0
  -23.7567  -30.5810   19.4007 H   0  0  0  0  0  0
  -22.7551  -29.2377   19.8601 H   0  0  0  0  0  0
  -25.1293  -36.1933   25.0821 H   0  0  0  0  0  0
  -20.9985  -28.3271   24.1410 H   0  0  0  0  0  0
  -20.5689  -26.2302   23.3613 H   0  0  0  0  0  0
  -21.6646  -26.7455   22.1202 H   0  0  0  0  0  0
  -19.6909  -25.6304   21.1247 H   0  0  0  0  0  0
  -19.6689  -27.3207   20.6751 H   0  0  0  0  0  0
  -17.4202  -26.6693   21.4027 H   0  0  0  0  0  0
  -18.0328  -26.0080   22.9028 H   0  0  0  0  0  0
  -19.7934  -30.7290   24.2264 H   0  0  0  0  0  0
  -17.5012  -31.6273   24.5177 H   0  0  0  0  0  0
  -15.5352  -30.2998   23.7656 H   0  0  0  0  0  0
  -15.8675  -28.0839   22.7056 H   0  0  0  0  0  0
  -24.5901  -30.7071   25.7769 H   0  0  0  0  0  0
  -24.8921  -32.2886   26.4869 H   0  0  0  0  0  0
  -25.8056  -30.8894   27.0212 H   0  0  0  0  0  0
  -26.2905  -29.6762   24.1184 H   0  0  0  0  0  0
  -27.4051  -29.7268   25.4651 H   0  0  0  0  0  0
  -27.8767  -30.4309   23.9361 H   0  0  0  0  0  0
  -27.2664  -33.3615   26.2064 H   0  0  0  0  0  0
  -28.3861  -32.6883   25.0310 H   0  0  0  0  0  0
  -28.0722  -31.8437   26.5393 H   0  0  0  0  0  0
  -28.2603  -38.0092   24.7511 H   0  0  0  0  0  0
  -28.1064  -36.2625   24.6299 H   0  0  0  0  0  0
  -27.2297  -37.1462   25.8871 H   0  0  0  0  0  0
  -20.9368  -29.8751   21.6875 H   0  0  0  0  0  0
  -26.0171  -38.2851   24.1407 H   0  0  0  0  0  0
  -27.9472  -18.4921   21.3606 H   0  0  0  0  0  0
  -32.0071  -19.0934   20.0753 H   0  0  0  0  0  0
  -27.4911  -20.8984   21.0147 H   0  0  0  0  0  0
  -31.5699  -21.4607   19.7601 H   0  0  0  0  0  0
  -30.3855  -17.1352   22.3143 H   0  0  0  0  0  0
  -31.5775  -17.0775   21.0843 H   0  0  0  0  0  0
  -28.1131  -23.9332   19.0088 H   0  0  0  0  0  0
  -27.3292  -23.2355   20.3921 H   0  0  0  0  0  0
  -29.1096  -25.1825   21.5157 H   0  0  0  0  0  0
  -27.3970  -25.2245   21.4881 H   0  0  0  0  0  0
  -30.2922  -23.3330   20.1129 H   0  0  0  0  0  0
  -28.9353  -15.6543   20.9601 H   0  0  0  0  0  0
  1 25  1  0  0  0
  1 30  2  0  0  0
  1 81  1  0  0  0
  2  3  1  0  0  0
  2 25  1  0  0  0
  2 82  1  0  0  0
  2 83  1  0  0  0
  3  4  1  0  0  0
  3 84  1  0  0  0
  3 85  1  0  0  0
  4  5  1  0  0  0
  4 86  1  0  0  0
  4 87  1  0  0  0
  5  6  1  0  0  0
  5 26  1  0  0  0
  5 88  1  0  0  0
  6 25  1  0  0  0
  6 89  1  0  0  0
  6 90  1  0  0  0
  7  8  2  0  0  0
  7 26  1  0  0  0
  7 29  1  0  0  0
  8  9  1  0  0  0
  8 22  1  0  0  0
  9 10  1  0  0  0
  9 27  2  0  0  0
 10 11  2  0  0  0
 10 15  1  0  0  0
 11 12  1  0  0  0
 11 91  1  0  0  0
 12 13  2  0  0  0
 12 92  1  0  0  0
 13 14  1  0  0  0
 13 31  1  0  0  0
 14 15  2  0  0  0
 14 93  1  0  0  0
 15 94  1  0  0  0
 16 17  2  0  0  0
 16 21  1  0  0  0
 16 31  1  0  0  0
 17 18  1  0  0  0
 17 95  1  0  0  0
 18 19  2  0  0  0
 18 96  1  0  0  0
 19 20  1  0  0  0
 19 24  1  0  0  0
 20 21  2  0  0  0
 20 97  1  0  0  0
 21 23  1  0  0  0
 22 28  1  0  0  0
 22 32  2  0  0  0
 26 27  1  0  0  0
 28 98  1  0  0  0
 28 99  1  0  0  0
 29100  1  0  0  0
 29101  1  0  0  0
 33 34  1  0  0  0
 33 66  1  0  0  0
 33 70  2  0  0  0
 34 36  1  0  0  0
 34 59  1  0  0  0
 34102  1  0  0  0
 35 44  2  0  0  0
 35 45  1  0  0  0
 35 68  1  0  0  0
 36 56  1  0  0  0
 36103  1  0  0  0
 37 39  1  0  0  0
 37 47  1  0  0  0
 37 66  1  0  0  0
 37104  1  0  0  0
 38 43  2  0  0  0
 38 46  1  0  0  0
 38 47  1  0  0  0
 39 64  1  0  0  0
 39 67  2  0  0  0
 40 52  1  0  0  0
 40 53  2  0  0  0
 40 58  1  0  0  0
 41105  1  0  0  0
 41106  1  0  0  0
 41107  1  0  0  0
 41 48  1  0  0  0
 42 43  1  0  0  0
 42 66  1  0  0  0
 42108  1  0  0  0
 42109  1  0  0  0
 43 44  1  0  0  0
 44110  1  0  0  0
 45 46  2  0  0  0
 45111  1  0  0  0
 46112  1  0  0  0
 47113  1  0  0  0
 47114  1  0  0  0
 48 56  1  0  0  0
 48 65  1  0  0  0
 48115  1  0  0  0
 49 50  1  0  0  0
 49 53  1  0  0  0
 49 64  1  0  0  0
 49116  1  0  0  0
 50 51  1  0  0  0
 50117  1  0  0  0
 50118  1  0  0  0
 51 52  1  0  0  0
 51119  1  0  0  0
 51120  1  0  0  0
 52121  1  0  0  0
 52122  1  0  0  0
 53 54  1  0  0  0
 54 55  2  0  0  0
 54123  1  0  0  0
 55 57  1  0  0  0
 55124  1  0  0  0
 56 69  2  0  0  0
 57 58  2  0  0  0
 57125  1  0  0  0
 58126  1  0  0  0
 59 60  1  0  0  0
 59 61  1  0  0  0
 59 62  1  0  0  0
 60127  1  0  0  0
 60128  1  0  0  0
 60129  1  0  0  0
 61130  1  0  0  0
 61131  1  0  0  0
 61132  1  0  0  0
 62133  1  0  0  0
 62134  1  0  0  0
 62135  1  0  0  0
 63 65  1  0  0  0
 63136  1  0  0  0
 63137  1  0  0  0
 63138  1  0  0  0
 64139  1  0  0  0
 65140  1  0  0  0
 68 79  1  0  0  0
 71 73  2  0  0  0
 71 75  1  0  0  0
 71141  1  0  0  0
 72 74  1  0  0  0
 72 75  2  0  0  0
 72142  1  0  0  0
 73 76  1  0  0  0
 73143  1  0  0  0
 74 76  2  0  0  0
 74144  1  0  0  0
 75 77  1  0  0  0
 76 80  1  0  0  0
 77 81  1  0  0  0
 77145  1  0  0  0
 77146  1  0  0  0
 78 79  1  0  0  0
 78 80  1  0  0  0
 78147  1  0  0  0
 78148  1  0  0  0
 79149  1  0  0  0
 79150  1  0  0  0
 80151  1  0  0  0
 81152  1  0  0  0
M  ISO  4   1 100  68 101  79 101  81 100
M  END
> <chiral flag>
0

> <version>
0

> <s_m_source_file>
/data/baiqing/PycharmProjects/Reinvent-master-3.2/result/LINK_invent/BTK/process_docking_weight1_custom_product_contain_oxygen_bond_distance_aromatic_linkinvent_7_9_3/rearranged_h_0011.sdf

> <i_m_source_file_index>
17

> <r_mmod_Potential_Energy-OPLS-2005>
63.0585403442383

> <r_mmod_Stretch_Energy-OPLS-2005>
81.1610641479492

> <r_mmod_Bend_Energy-OPLS-2005>
174.89680480957

> <r_mmod_Torsional_Energy-OPLS-2005>
241.982162475586

> <r_mmod_Improper_Torsional_Energy-OPLS-2005>
6.58746862411499

> <r_mmod_Van_der_Waal_Energy-OPLS-2005>
138.201919555664

> <r_mmod_Electrostatic_Energy-OPLS-2005>
-409.924652099609

> <r_mmod_Solvation_Energy-OPLS-2005>
-222.65576171875

> <b_mmod_Minimization_Converged-OPLS-2005>
0

> <r_mmod_RMS_Derivative-OPLS-2005>
0.500587821006775

$$$$
17
                    3D
 Structure written by MMmdl.
148156  0  0  1  0            999 V2000
  -30.5214  -14.9152   20.4322 C   0  0  0  0  0  0
  -30.4560  -12.5613   19.4932 C   0  0  0  0  0  0
  -29.5263  -12.5225   18.2560 C   0  0  0  0  0  0
  -28.0560  -12.3176   18.6734 C   0  0  0  0  0  0
  -27.6385  -13.2396   19.8491 C   0  0  2  0  0  0
  -28.6855  -13.2218   20.9846 C   0  0  0  0  0  0
  -25.2459  -13.8158   20.5697 C   0  0  0  0  0  0
  -24.1765  -13.0390   20.9179 C   0  0  0  0  0  0
  -24.6393  -11.6885   20.8728 C   0  0  0  0  0  0
  -23.9070  -10.4267   21.0393 C   0  0  0  0  0  0
  -24.3618   -9.4189   21.9177 C   0  0  0  0  0  0
  -23.6287   -8.2227   22.0750 C   0  0  0  0  0  0
  -22.4268   -8.0269   21.3541 C   0  0  0  0  0  0
  -21.9903   -9.0243   20.4647 C   0  0  0  0  0  0
  -22.7235  -10.2117   20.3050 C   0  0  0  0  0  0
  -21.6852   -6.0726   22.5279 C   0  0  0  0  0  0
  -21.4012   -6.5629   23.8210 C   0  0  0  0  0  0
  -21.3659   -5.6784   24.9173 C   0  0  0  0  0  0
  -21.6046   -4.3046   24.7225 C   0  0  0  0  0  0
  -21.8819   -3.8139   23.4345 C   0  0  0  0  0  0
  -21.9194   -4.6956   22.3402 C   0  0  0  0  0  0
  -22.7791  -13.5179   21.1863 C   0  0  0  0  0  0
  -22.1663   -4.2144   21.0979 F   0  0  0  0  0  0
  -21.5632   -3.4530   25.7737 F   0  0  0  0  0  0
  -29.9702  -13.6372   20.3996 N   0  0  0  0  0  0
  -26.2930  -12.9409   20.3303 N   0  0  0  0  0  0
  -25.9337  -11.6539   20.5759 N   0  0  0  0  0  0
  -22.0457  -12.8183   22.0447 N   0  0  0  0  0  0
  -25.4009  -15.1882   20.4184 N   0  0  0  0  0  0
  -31.7098  -15.0488   20.1197 O   0  0  0  0  0  0
  -21.6633   -6.8868   21.4238 O   0  0  0  0  0  0
  -22.3464  -14.5487   20.6720 O   0  0  0  0  0  0
  -24.6417  -31.8452   23.1899 C   0  0  0  0  0  0
  -25.9199  -32.4701   23.8276 C   0  0  1  0  0  0
  -27.2222  -27.1526   20.1448 C   0  0  0  0  0  0
  -25.5963  -33.8506   24.2202 N   0  0  0  0  0  0
  -23.4442  -30.4662   21.5348 C   0  0  2  0  0  0
  -24.8945  -28.8965   20.1100 C   0  0  0  0  0  0
  -22.7558  -29.4553   22.4857 C   0  0  0  0  0  0
  -18.0310  -28.1394   22.8468 C   0  0  0  0  0  0
  -24.1494  -36.7248   23.2642 C   0  0  0  0  0  0
  -25.9996  -30.7246   21.3863 C   0  0  0  0  0  0
  -26.0726  -29.3379   20.7264 C   0  0  0  0  0  0
  -27.2371  -28.4831   20.7255 C   0  0  0  0  0  0
  -26.0147  -26.8095   19.4943 C   0  0  0  0  0  0
  -24.8785  -27.6452   19.4787 C   0  0  0  0  0  0
  -23.6702  -29.7971   20.1536 C   0  0  0  0  0  0
  -25.4127  -36.3035   24.0318 C   0  0  1  0  0  0
  -20.5917  -28.3714   23.1234 C   0  0  2  0  0  0
  -20.6791  -26.9415   22.5409 C   0  0  0  0  0  0
  -19.5773  -26.6381   21.5204 C   0  0  0  0  0  0
  -18.1953  -26.7936   22.1610 C   0  0  0  0  0  0
  -19.1564  -28.8872   23.2845 C   0  0  0  0  0  0
  -18.9482  -30.1470   23.8868 C   0  0  0  0  0  0
  -17.6479  -30.6588   24.0559 C   0  0  0  0  0  0
  -25.9072  -34.9408   23.5067 C   0  0  0  0  0  0
  -16.5370  -29.9079   23.6341 C   0  0  0  0  0  0
  -16.7295  -28.6502   23.0351 C   0  0  0  0  0  0
  -26.4528  -31.6562   25.0707 C   0  0  0  0  0  0
  -25.3724  -31.3763   26.1419 C   0  0  0  0  0  0
  -27.0377  -30.2957   24.6274 C   0  0  0  0  0  0
  -27.6085  -32.4306   25.7471 C   0  0  0  0  0  0
  -27.5583  -37.1777   24.8465 C   0  0  0  0  0  0
  -21.4253  -29.3042   22.3607 N   0  0  0  0  0  0
  -26.4289  -37.3751   23.9413 N   0  0  0  0  0  0
  -24.7147  -31.0326   22.0924 N   0  0  0  0  0  0
  -23.4214  -28.8101   23.2998 O   0  0  0  0  0  0
  -28.2831  -26.1774   20.2081 O   0  0  0  0  0  0
  -26.5645  -34.8904   22.4637 O   0  0  0  0  0  0
  -23.5543  -32.1321   23.7134 O   0  0  0  0  0  0
  -30.5390  -18.5592   20.3119 C   0  0  0  0  0  0
  -30.2281  -19.9961   20.2516 C   0  0  0  0  0  0
  -27.9577  -19.5005   20.6233 C   0  0  0  0  0  0
  -29.5558  -17.5246   20.5374 C   0  0  0  0  0  0
  -28.9022  -20.5492   20.4006 C   0  0  0  0  0  0
  -28.2572  -18.0929   20.6946 C   0  0  0  0  0  0
  -27.9882  -24.6555   20.0887 C   0  0  0  0  0  0
  -28.9899  -23.3140   20.2894 C   0  0  0  0  0  0
  -29.6477  -16.0010   20.6557 N   0  0  0  0  0  0
  -28.3721  -21.9139   20.3335 O   0  0  0  0  0  0
  -27.2334  -17.2380   20.9233 F   0  0  0  0  0  0
  -31.4877  -12.7311   19.1805 H   0  0  0  0  0  0
  -30.4555  -11.5990   20.0081 H   0  0  0  0  0  0
  -29.8357  -11.7251   17.5785 H   0  0  0  0  0  0
  -29.6217  -13.4538   17.6962 H   0  0  0  0  0  0
  -27.9448  -11.2745   18.9718 H   0  0  0  0  0  0
  -27.3927  -12.4619   17.8198 H   0  0  0  0  0  0
  -27.6113  -14.2499   19.4400 H   0  0  0  0  0  0
  -28.7627  -12.2279   21.4282 H   0  0  0  0  0  0
  -28.3905  -13.8918   21.7938 H   0  0  0  0  0  0
  -25.2762   -9.5668   22.4749 H   0  0  0  0  0  0
  -23.9997   -7.4619   22.7465 H   0  0  0  0  0  0
  -21.0833   -8.8763   19.8957 H   0  0  0  0  0  0
  -22.3691  -10.9656   19.6162 H   0  0  0  0  0  0
  -21.2000   -7.6137   23.9710 H   0  0  0  0  0  0
  -21.1484   -6.0514   25.9077 H   0  0  0  0  0  0
  -22.0601   -2.7602   23.2845 H   0  0  0  0  0  0
  -22.4080  -11.9854   22.4844 H   0  0  0  0  0  0
  -21.1086  -13.1224   22.2682 H   0  0  0  0  0  0
  -24.6307  -15.8255   20.5832 H   0  0  0  0  0  0
  -26.2721  -15.6785   20.2515 H   0  0  0  0  0  0
  -26.7256  -32.5313   23.0995 H   0  0  0  0  0  0
  -25.0120  -33.9624   25.0359 H   0  0  0  0  0  0
  -22.7457  -31.2916   21.3825 H   0  0  0  0  0  0
  -23.3764  -35.9569   23.3295 H   0  0  0  0  0  0
  -24.3583  -36.8891   22.2059 H   0  0  0  0  0  0
  -23.7234  -37.6438   23.6676 H   0  0  0  0  0  0
  -26.1548  -31.4813   20.6161 H   0  0  0  0  0  0
  -26.8698  -30.7733   22.0286 H   0  0  0  0  0  0
  -28.1339  -28.8182   21.2272 H   0  0  0  0  0  0
  -25.9091  -25.8553   19.0022 H   0  0  0  0  0  0
  -23.9799  -27.3022   18.9846 H   0  0  0  0  0  0
  -23.8050  -30.5726   19.3985 H   0  0  0  0  0  0
  -22.7852  -29.2385   19.8435 H   0  0  0  0  0  0
  -25.1315  -36.1864   25.0809 H   0  0  0  0  0  0
  -21.0014  -28.3306   24.1352 H   0  0  0  0  0  0
  -20.5663  -26.2325   23.3628 H   0  0  0  0  0  0
  -21.6662  -26.7413   22.1223 H   0  0  0  0  0  0
  -19.6932  -25.6283   21.1254 H   0  0  0  0  0  0
  -19.6724  -27.3171   20.6718 H   0  0  0  0  0  0
  -17.4226  -26.6676   21.4011 H   0  0  0  0  0  0
  -18.0354  -26.0083   22.9012 H   0  0  0  0  0  0
  -19.7958  -30.7294   24.2221 H   0  0  0  0  0  0
  -17.5034  -31.6265   24.5168 H   0  0  0  0  0  0
  -15.5369  -30.2970   23.7682 H   0  0  0  0  0  0
  -15.8697  -28.0816   22.7070 H   0  0  0  0  0  0
  -24.5924  -30.7070   25.7768 H   0  0  0  0  0  0
  -24.8877  -32.2943   26.4751 H   0  0  0  0  0  0
  -25.8032  -30.9027   27.0250 H   0  0  0  0  0  0
  -26.2980  -29.6682   24.1288 H   0  0  0  0  0  0
  -27.4006  -29.7261   25.4840 H   0  0  0  0  0  0
  -27.8891  -30.4196   23.9575 H   0  0  0  0  0  0
  -27.2716  -33.3639   26.1992 H   0  0  0  0  0  0
  -28.3918  -32.6809   25.0300 H   0  0  0  0  0  0
  -28.0715  -31.8450   26.5425 H   0  0  0  0  0  0
  -28.2603  -38.0072   24.7516 H   0  0  0  0  0  0
  -28.1080  -36.2606   24.6286 H   0  0  0  0  0  0
  -27.2304  -37.1424   25.8870 H   0  0  0  0  0  0
  -20.9449  -29.8759   21.6797 H   0  0  0  0  0  0
  -26.0160  -38.2818   24.1433 H   0  0  0  0  0  0
  -31.5690  -18.2594   20.1836 H   0  0  0  0  0  0
  -31.0442  -20.6817   20.0723 H   0  0  0  0  0  0
  -26.9238  -19.7840   20.7511 H   0  0  0  0  0  0
  -27.1559  -24.4881   20.7736 H   0  0  0  0  0  0
  -27.5690  -24.5159   19.0932 H   0  0  0  0  0  0
  -29.5433  -23.4398   21.2200 H   0  0  0  0  0  0
  -29.7405  -23.3184   19.4988 H   0  0  0  0  0  0
  -28.7399  -15.6306   20.8942 H   0  0  0  0  0  0
  1 25  1  0  0  0
  1 30  2  0  0  0
  1 79  1  0  0  0
  2  3  1  0  0  0
  2 25  1  0  0  0
  2 82  1  0  0  0
  2 83  1  0  0  0
  3  4  1  0  0  0
  3 84  1  0  0  0
  3 85  1  0  0  0
  4  5  1  0  0  0
  4 86  1  0  0  0
  4 87  1  0  0  0
  5  6  1  0  0  0
  5 26  1  0  0  0
  5 88  1  0  0  0
  6 25  1  0  0  0
  6 89  1  0  0  0
  6 90  1  0  0  0
  7  8  2  0  0  0
  7 26  1  0  0  0
  7 29  1  0  0  0
  8  9  1  0  0  0
  8 22  1  0  0  0
  9 10  1  0  0  0
  9 27  2  0  0  0
 10 11  2  0  0  0
 10 15  1  0  0  0
 11 12  1  0  0  0
 11 91  1  0  0  0
 12 13  2  0  0  0
 12 92  1  0  0  0
 13 14  1  0  0  0
 13 31  1  0  0  0
 14 15  2  0  0  0
 14 93  1  0  0  0
 15 94  1  0  0  0
 16 17  2  0  0  0
 16 21  1  0  0  0
 16 31  1  0  0  0
 17 18  1  0  0  0
 17 95  1  0  0  0
 18 19  2  0  0  0
 18 96  1  0  0  0
 19 20  1  0  0  0
 19 24  1  0  0  0
 20 21  2  0  0  0
 20 97  1  0  0  0
 21 23  1  0  0  0
 22 28  1  0  0  0
 22 32  2  0  0  0
 26 27  1  0  0  0
 28 98  1  0  0  0
 28 99  1  0  0  0
 29100  1  0  0  0
 29101  1  0  0  0
 33 34  1  0  0  0
 33 66  1  0  0  0
 33 70  2  0  0  0
 34 36  1  0  0  0
 34 59  1  0  0  0
 34102  1  0  0  0
 35 44  2  0  0  0
 35 45  1  0  0  0
 35 68  1  0  0  0
 36 56  1  0  0  0
 36103  1  0  0  0
 37 39  1  0  0  0
 37 47  1  0  0  0
 37 66  1  0  0  0
 37104  1  0  0  0
 38 43  2  0  0  0
 38 46  1  0  0  0
 38 47  1  0  0  0
 39 64  1  0  0  0
 39 67  2  0  0  0
 40 52  1  0  0  0
 40 53  2  0  0  0
 40 58  1  0  0  0
 41105  1  0  0  0
 41106  1  0  0  0
 41107  1  0  0  0
 41 48  1  0  0  0
 42 43  1  0  0  0
 42 66  1  0  0  0
 42108  1  0  0  0
 42109  1  0  0  0
 43 44  1  0  0  0
 44110  1  0  0  0
 45 46  2  0  0  0
 45111  1  0  0  0
 46112  1  0  0  0
 47113  1  0  0  0
 47114  1  0  0  0
 48 56  1  0  0  0
 48 65  1  0  0  0
 48115  1  0  0  0
 49 50  1  0  0  0
 49 53  1  0  0  0
 49 64  1  0  0  0
 49116  1  0  0  0
 50 51  1  0  0  0
 50117  1  0  0  0
 50118  1  0  0  0
 51 52  1  0  0  0
 51119  1  0  0  0
 51120  1  0  0  0
 52121  1  0  0  0
 52122  1  0  0  0
 53 54  1  0  0  0
 54 55  2  0  0  0
 54123  1  0  0  0
 55 57  1  0  0  0
 55124  1  0  0  0
 56 69  2  0  0  0
 57 58  2  0  0  0
 57125  1  0  0  0
 58126  1  0  0  0
 59 60  1  0  0  0
 59 61  1  0  0  0
 59 62  1  0  0  0
 60127  1  0  0  0
 60128  1  0  0  0
 60129  1  0  0  0
 61130  1  0  0  0
 61131  1  0  0  0
 61132  1  0  0  0
 62133  1  0  0  0
 62134  1  0  0  0
 62135  1  0  0  0
 63 65  1  0  0  0
 63136  1  0  0  0
 63137  1  0  0  0
 63138  1  0  0  0
 64139  1  0  0  0
 65140  1  0  0  0
 68 77  1  0  0  0
 71 72  2  0  0  0
 71 74  1  0  0  0
 71141  1  0  0  0
 72 75  1  0  0  0
 72142  1  0  0  0
 73 75  2  0  0  0
 73 76  1  0  0  0
 73143  1  0  0  0
 74 76  2  0  0  0
 74 79  1  0  0  0
 75 80  1  0  0  0
 76 81  1  0  0  0
 77 78  1  0  0  0
 77144  1  0  0  0
 77145  1  0  0  0
 78 80  1  0  0  0
 78146  1  0  0  0
 78147  1  0  0  0
 79148  1  0  0  0
M  ISO  4   1 100  68 101  77 101  79 100
M  END
> <chiral flag>
0

> <version>
0

> <s_m_source_file>
/data/baiqing/PycharmProjects/Reinvent-master-3.2/result/LINK_invent/BTK/process_docking_weight1_custom_product_contain_oxygen_bond_distance_aromatic_linkinvent_7_9_3/rearranged_h_0011.sdf

> <i_m_source_file_index>
18

> <r_mmod_Potential_Energy-OPLS-2005>
429.317779541016

> <r_mmod_Stretch_Energy-OPLS-2005>
215.171890258789

> <r_mmod_Bend_Energy-OPLS-2005>
307.654571533203

> <r_mmod_Torsional_Energy-OPLS-2005>
210.088012695312

> <r_mmod_Improper_Torsional_Energy-OPLS-2005>
3.85878729820251

> <r_mmod_Van_der_Waal_Energy-OPLS-2005>
133.190078735352

> <r_mmod_Electrostatic_Energy-OPLS-2005>
-411.460144042969

> <r_mmod_Solvation_Energy-OPLS-2005>
-203.061370849609

> <b_mmod_Minimization_Converged-OPLS-2005>
0

> <r_mmod_RMS_Derivative-OPLS-2005>
0.840658664703369

$$$$
18
                    3D
 Structure written by MMmdl.
175185  0  0  1  0            999 V2000
  -30.7150  -14.5217   20.4151 C   0  0  0  0  0  0
  -30.4249  -12.3107   19.4092 C   0  0  0  0  0  0
  -29.4868  -12.4579   18.1940 C   0  0  0  0  0  0
  -28.0100  -12.3412   18.6181 C   0  0  0  0  0  0
  -27.6577  -13.2118   19.8573 C   0  0  2  0  0  0
  -28.7193  -13.0661   20.9710 C   0  0  0  0  0  0
  -25.2615  -13.8173   20.5736 C   0  0  0  0  0  0
  -24.1877  -13.0469   20.9186 C   0  0  0  0  0  0
  -24.6408  -11.6910   20.8757 C   0  0  0  0  0  0
  -23.9060  -10.4326   21.0417 C   0  0  0  0  0  0
  -24.3607   -9.4246   21.9194 C   0  0  0  0  0  0
  -23.6271   -8.2298   22.0778 C   0  0  0  0  0  0
  -22.4243   -8.0329   21.3581 C   0  0  0  0  0  0
  -21.9900   -9.0290   20.4658 C   0  0  0  0  0  0
  -22.7242  -10.2156   20.3059 C   0  0  0  0  0  0
  -21.6841   -6.0733   22.5259 C   0  0  0  0  0  0
  -21.4003   -6.5618   23.8194 C   0  0  0  0  0  0
  -21.3655   -5.6776   24.9147 C   0  0  0  0  0  0
  -21.6038   -4.3043   24.7199 C   0  0  0  0  0  0
  -21.8813   -3.8136   23.4314 C   0  0  0  0  0  0
  -21.9190   -4.6961   22.3377 C   0  0  0  0  0  0
  -22.7902  -13.5286   21.1804 C   0  0  0  0  0  0
  -22.1675   -4.2157   21.0961 F   0  0  0  0  0  0
  -21.5635   -3.4524   25.7713 F   0  0  0  0  0  0
  -30.0259  -13.3487   20.3698 N   0  0  0  0  0  0
  -26.3064  -12.9352   20.3391 N   0  0  0  0  0  0
  -25.9340  -11.6500   20.5795 N   0  0  0  0  0  0
  -22.0522  -12.8270   22.0321 N   0  0  0  0  0  0
  -25.4283  -15.1901   20.4107 N   0  0  0  0  0  0
  -31.9445  -14.5424   20.3274 O   0  0  0  0  0  0
  -21.6629   -6.8894   21.4240 O   0  0  0  0  0  0
  -22.3583  -14.5596   20.6609 O   0  0  0  0  0  0
  -24.6108  -31.8714   23.2144 C   0  0  0  0  0  0
  -25.8977  -32.4852   23.8457 C   0  0  1  0  0  0
  -27.2438  -27.4736   20.0847 C   0  0  0  0  0  0
  -25.5872  -33.8657   24.2369 N   0  0  0  0  0  0
  -23.4013  -30.4894   21.5568 C   0  0  2  0  0  0
  -24.8490  -28.9605   20.1212 C   0  0  0  0  0  0
  -22.7420  -29.4619   22.5054 C   0  0  0  0  0  0
  -18.0247  -28.1365   22.8462 C   0  0  0  0  0  0
  -24.1485  -36.7341   23.2644 C   0  0  0  0  0  0
  -25.9242  -30.8520   21.3594 C   0  0  0  0  0  0
  -26.0101  -29.4871   20.7055 C   0  0  0  0  0  0
  -27.2142  -28.7501   20.6925 C   0  0  0  0  0  0
  -26.0662  -26.9519   19.5180 C   0  0  0  0  0  0
  -24.8671  -27.6861   19.5296 C   0  0  0  0  0  0
  -23.6102  -29.8223   20.1699 C   0  0  0  0  0  0
  -25.4111  -36.3176   24.0353 C   0  0  1  0  0  0
  -20.5830  -28.3634   23.1325 C   0  0  2  0  0  0
  -20.6727  -26.9372   22.5420 C   0  0  0  0  0  0
  -19.5718  -26.6352   21.5206 C   0  0  0  0  0  0
  -18.1883  -26.7907   22.1603 C   0  0  0  0  0  0
  -19.1496  -28.8814   23.2877 C   0  0  0  0  0  0
  -18.9439  -30.1414   23.8909 C   0  0  0  0  0  0
  -17.6455  -30.6581   24.0541 C   0  0  0  0  0  0
  -25.9038  -34.9505   23.5162 C   0  0  0  0  0  0
  -16.5336  -29.9092   23.6317 C   0  0  0  0  0  0
  -16.7243  -28.6495   23.0352 C   0  0  0  0  0  0
  -26.4420  -31.6645   25.0771 C   0  0  0  0  0  0
  -25.3704  -31.3732   26.1541 C   0  0  0  0  0  0
  -27.0195  -30.3096   24.6064 C   0  0  0  0  0  0
  -27.6009  -32.4349   25.7512 C   0  0  0  0  0  0
  -27.5583  -37.1836   24.8452 C   0  0  0  0  0  0
  -21.4157  -29.3007   22.3774 N   0  0  0  0  0  0
  -26.4306  -37.3837   23.9392 N   0  0  0  0  0  0
  -24.6637  -31.0842   22.1030 N   0  0  0  0  0  0
  -23.4194  -28.8144   23.3082 O   0  0  0  0  0  0
  -28.3417  -26.6527   20.0296 O   0  0  0  0  0  0
  -26.5600  -34.8934   22.4723 O   0  0  0  0  0  0
  -23.5311  -32.1398   23.7566 O   0  0  0  0  0  0
  -28.7721  -22.5768   19.5494 C   0  0  0  0  0  0
  -28.1877  -21.4157   20.1106 C   0  0  0  0  0  0
  -30.8824  -21.9933   20.5751 C   0  0  0  0  0  0
  -30.1454  -22.8402   19.7276 C   0  0  0  0  0  0
  -28.9471  -20.4907   20.8782 C   0  0  0  0  0  0
  -30.3005  -20.8469   21.1538 C   0  0  0  0  0  0
  -29.9119  -17.3444   21.6286 C   0  0  0  0  0  0
  -28.4149  -17.5062   19.6020 C   0  0  0  0  0  0
  -30.4329  -26.9039   21.1830 C   0  0  0  0  0  0
  -28.9857  -18.3934   22.3009 C   0  0  0  0  0  0
  -27.5319  -18.5082   20.3662 C   0  0  0  0  0  0
  -30.8494  -25.4433   20.9803 C   0  0  0  0  0  0
  -30.3152  -26.3791   18.8298 C   0  0  0  0  0  0
  -29.1616  -16.5163   20.5527 C   0  0  0  0  0  0
  -29.6376  -27.2155   19.9169 C   0  0  1  0  0  0
  -30.6119  -16.0788   18.5598 C   0  0  0  0  0  0
  -30.8763  -23.9218   18.9241 C   0  0  0  0  0  0
  -28.3417  -19.2747   21.3201 N   0  0  0  0  0  0
  -30.0546  -15.5656   19.8320 N   0  0  0  0  0  0
  -31.0391  -25.2801   19.5195 N   0  3  2  0  0  0
  -31.1004  -20.0869   21.9392 F   0  0  0  0  0  0
  -31.4632  -12.4211   19.0855 H   0  0  0  0  0  0
  -30.3486  -11.3134   19.8525 H   0  0  0  0  0  0
  -29.7225  -11.6929   17.4534 H   0  0  0  0  0  0
  -29.6544  -13.4186   17.7072 H   0  0  0  0  0  0
  -27.8056  -11.2926   18.8334 H   0  0  0  0  0  0
  -27.3612  -12.6048   17.7814 H   0  0  0  0  0  0
  -27.6681  -14.2461   19.5157 H   0  0  0  0  0  0
  -28.7171  -12.0553   21.3720 H   0  0  0  0  0  0
  -28.5181  -13.7343   21.8093 H   0  0  0  0  0  0
  -25.2752   -9.5710   22.4755 H   0  0  0  0  0  0
  -23.9973   -7.4675   22.7461 H   0  0  0  0  0  0
  -21.0881   -8.8808   19.8917 H   0  0  0  0  0  0
  -22.3741  -10.9704   19.6159 H   0  0  0  0  0  0
  -21.1989   -7.6115   23.9707 H   0  0  0  0  0  0
  -21.1480   -6.0492   25.9054 H   0  0  0  0  0  0
  -22.0578   -2.7594   23.2794 H   0  0  0  0  0  0
  -22.4085  -11.9934   22.4780 H   0  0  0  0  0  0
  -21.1112  -13.1261   22.2422 H   0  0  0  0  0  0
  -24.6511  -15.8285   20.5139 H   0  0  0  0  0  0
  -26.2717  -15.6361   20.0813 H   0  0  0  0  0  0
  -26.7099  -32.5589   23.1286 H   0  0  0  0  0  0
  -25.0021  -33.9858   25.0510 H   0  0  0  0  0  0
  -22.6858  -31.3033   21.4174 H   0  0  0  0  0  0
  -23.3778  -35.9636   23.3308 H   0  0  0  0  0  0
  -24.3603  -36.8955   22.2063 H   0  0  0  0  0  0
  -23.7194  -37.6518   23.6658 H   0  0  0  0  0  0
  -26.0289  -31.6247   20.5973 H   0  0  0  0  0  0
  -26.8135  -30.9096   21.9758 H   0  0  0  0  0  0
  -28.0953  -29.1592   21.1642 H   0  0  0  0  0  0
  -26.0830  -25.9717   19.0623 H   0  0  0  0  0  0
  -23.9742  -27.2586   19.0949 H   0  0  0  0  0  0
  -23.7193  -30.5973   19.4105 H   0  0  0  0  0  0
  -22.7362  -29.2414   19.8728 H   0  0  0  0  0  0
  -25.1299  -36.2088   25.0846 H   0  0  0  0  0  0
  -20.9872  -28.3182   24.1472 H   0  0  0  0  0  0
  -20.5618  -26.2251   23.3608 H   0  0  0  0  0  0
  -21.6606  -26.7410   22.1232 H   0  0  0  0  0  0
  -19.6897  -25.6264   21.1244 H   0  0  0  0  0  0
  -19.6681  -27.3140   20.6710 H   0  0  0  0  0  0
  -17.4156  -26.6604   21.3998 H   0  0  0  0  0  0
  -18.0284  -26.0054   22.9006 H   0  0  0  0  0  0
  -19.7925  -30.7165   24.2335 H   0  0  0  0  0  0
  -17.5027  -31.6269   24.5136 H   0  0  0  0  0  0
  -15.5350  -30.3017   23.7650 H   0  0  0  0  0  0
  -15.8602  -28.0834   22.7115 H   0  0  0  0  0  0
  -24.5846  -30.7118   25.7873 H   0  0  0  0  0  0
  -24.8930  -32.2883   26.5061 H   0  0  0  0  0  0
  -25.8068  -30.8841   27.0263 H   0  0  0  0  0  0
  -26.2672  -29.6954   24.1087 H   0  0  0  0  0  0
  -27.3945  -29.7262   25.4483 H   0  0  0  0  0  0
  -27.8554  -30.4441   23.9180 H   0  0  0  0  0  0
  -27.2653  -33.3686   26.2037 H   0  0  0  0  0  0
  -28.3833  -32.6846   25.0334 H   0  0  0  0  0  0
  -28.0635  -31.8489   26.5466 H   0  0  0  0  0  0
  -28.2621  -38.0120   24.7566 H   0  0  0  0  0  0
  -28.1088  -36.2681   24.6259 H   0  0  0  0  0  0
  -27.2308  -37.1460   25.8850 H   0  0  0  0  0  0
  -20.9342  -29.8807   21.7056 H   0  0  0  0  0  0
  -26.0241  -38.2911   24.1420 H   0  0  0  0  0  0
  -28.1698  -23.2358   18.9393 H   0  0  0  0  0  0
  -27.1398  -21.2339   19.9136 H   0  0  0  0  0  0
  -31.9301  -22.1864   20.7524 H   0  0  0  0  0  0
  -30.3179  -16.6896   22.4018 H   0  0  0  0  0  0
  -30.7716  -17.8420   21.1797 H   0  0  0  0  0  0
  -29.1184  -18.1032   19.0202 H   0  0  0  0  0  0
  -27.8128  -16.9546   18.8779 H   0  0  0  0  0  0
  -31.3133  -27.5425   21.2274 H   0  0  0  0  0  0
  -29.8547  -27.0549   22.0962 H   0  0  0  0  0  0
  -29.4934  -18.9520   23.0871 H   0  0  0  0  0  0
  -28.1947  -17.8540   22.8225 H   0  0  0  0  0  0
  -26.7653  -17.9673   20.9222 H   0  0  0  0  0  0
  -26.9975  -19.1396   19.6582 H   0  0  0  0  0  0
  -30.0469  -24.8129   21.3546 H   0  0  0  0  0  0
  -31.7577  -25.1887   21.5269 H   0  0  0  0  0  0
  -31.0529  -26.9871   18.3030 H   0  0  0  0  0  0
  -29.5931  -26.0329   18.0878 H   0  0  0  0  0  0
  -28.4073  -15.9255   21.0679 H   0  0  0  0  0  0
  -29.6336  -28.2758   19.6553 H   0  0  0  0  0  0
  -29.8309  -16.1862   17.8085 H   0  0  0  0  0  0
  -31.3548  -15.4189   18.1046 H   0  0  0  0  0  0
  -31.0951  -17.0462   18.7017 H   0  0  0  0  0  0
  -30.4450  -23.9805   17.9236 H   0  0  0  0  0  0
  -31.8869  -23.5467   18.7550 H   0  0  0  0  0  0
  -32.0127  -25.4927   19.3522 H   0  0  0  0  0  0
  1 25  1  0  0  0
  1 30  2  0  0  0
  1 89  1  0  0  0
  2  3  1  0  0  0
  2 25  1  0  0  0
  2 92  1  0  0  0
  2 93  1  0  0  0
  3  4  1  0  0  0
  3 94  1  0  0  0
  3 95  1  0  0  0
  4  5  1  0  0  0
  4 96  1  0  0  0
  4 97  1  0  0  0
  5  6  1  0  0  0
  5 26  1  0  0  0
  5 98  1  0  0  0
  6 25  1  0  0  0
  6 99  1  0  0  0
  6100  1  0  0  0
  7  8  2  0  0  0
  7 26  1  0  0  0
  7 29  1  0  0  0
  8  9  1  0  0  0
  8 22  1  0  0  0
  9 10  1  0  0  0
  9 27  2  0  0  0
 10 11  2  0  0  0
 10 15  1  0  0  0
 11 12  1  0  0  0
 11101  1  0  0  0
 12 13  2  0  0  0
 12102  1  0  0  0
 13 14  1  0  0  0
 13 31  1  0  0  0
 14 15  2  0  0  0
 14103  1  0  0  0
 15104  1  0  0  0
 16 17  2  0  0  0
 16 21  1  0  0  0
 16 31  1  0  0  0
 17 18  1  0  0  0
 17105  1  0  0  0
 18 19  2  0  0  0
 18106  1  0  0  0
 19 20  1  0  0  0
 19 24  1  0  0  0
 20 21  2  0  0  0
 20107  1  0  0  0
 21 23  1  0  0  0
 22 28  1  0  0  0
 22 32  2  0  0  0
 26 27  1  0  0  0
 28108  1  0  0  0
 28109  1  0  0  0
 29110  1  0  0  0
 29111  1  0  0  0
 33 34  1  0  0  0
 33 66  1  0  0  0
 33 70  2  0  0  0
 34 36  1  0  0  0
 34 59  1  0  0  0
 34112  1  0  0  0
 35 44  2  0  0  0
 35 45  1  0  0  0
 35 68  1  0  0  0
 36 56  1  0  0  0
 36113  1  0  0  0
 37 39  1  0  0  0
 37 47  1  0  0  0
 37 66  1  0  0  0
 37114  1  0  0  0
 38 43  2  0  0  0
 38 46  1  0  0  0
 38 47  1  0  0  0
 39 64  1  0  0  0
 39 67  2  0  0  0
 40 52  1  0  0  0
 40 53  2  0  0  0
 40 58  1  0  0  0
 41115  1  0  0  0
 41116  1  0  0  0
 41117  1  0  0  0
 41 48  1  0  0  0
 42 43  1  0  0  0
 42 66  1  0  0  0
 42118  1  0  0  0
 42119  1  0  0  0
 43 44  1  0  0  0
 44120  1  0  0  0
 45 46  2  0  0  0
 45121  1  0  0  0
 46122  1  0  0  0
 47123  1  0  0  0
 47124  1  0  0  0
 48 56  1  0  0  0
 48 65  1  0  0  0
 48125  1  0  0  0
 49 50  1  0  0  0
 49 53  1  0  0  0
 49 64  1  0  0  0
 49126  1  0  0  0
 50 51  1  0  0  0
 50127  1  0  0  0
 50128  1  0  0  0
 51 52  1  0  0  0
 51129  1  0  0  0
 51130  1  0  0  0
 52131  1  0  0  0
 52132  1  0  0  0
 53 54  1  0  0  0
 54 55  2  0  0  0
 54133  1  0  0  0
 55 57  1  0  0  0
 55134  1  0  0  0
 56 69  2  0  0  0
 57 58  2  0  0  0
 57135  1  0  0  0
 58136  1  0  0  0
 59 60  1  0  0  0
 59 61  1  0  0  0
 59 62  1  0  0  0
 60137  1  0  0  0
 60138  1  0  0  0
 60139  1  0  0  0
 61140  1  0  0  0
 61141  1  0  0  0
 61142  1  0  0  0
 62143  1  0  0  0
 62144  1  0  0  0
 62145  1  0  0  0
 63 65  1  0  0  0
 63146  1  0  0  0
 63147  1  0  0  0
 63148  1  0  0  0
 64149  1  0  0  0
 65150  1  0  0  0
 68 85  1  0  0  0
 71 72  2  0  0  0
 71 74  1  0  0  0
 71151  1  0  0  0
 72 75  1  0  0  0
 72152  1  0  0  0
 73 74  2  0  0  0
 73 76  1  0  0  0
 73153  1  0  0  0
 74 87  1  0  0  0
 75 76  2  0  0  0
 75 88  1  0  0  0
 76 91  1  0  0  0
 77 80  1  0  0  0
 77 84  1  0  0  0
 77154  1  0  0  0
 77155  1  0  0  0
 78 81  1  0  0  0
 78 84  1  0  0  0
 78156  1  0  0  0
 78157  1  0  0  0
 79 82  1  0  0  0
 79 85  1  0  0  0
 79158  1  0  0  0
 79159  1  0  0  0
 80 88  1  0  0  0
 80160  1  0  0  0
 80161  1  0  0  0
 81 88  1  0  0  0
 81162  1  0  0  0
 81163  1  0  0  0
 82 90  1  0  0  0
 82164  1  0  0  0
 82165  1  0  0  0
 83 85  1  0  0  0
 83 90  1  0  0  0
 83166  1  0  0  0
 83167  1  0  0  0
 84 89  1  0  0  0
 84168  1  0  0  0
 85169  1  0  0  0
 86 89  1  0  0  0
 86170  1  0  0  0
 86171  1  0  0  0
 86172  1  0  0  0
 87173  1  0  0  0
 87174  1  0  0  0
 87 90  1  0  0  0
 90175  1  0  0  0
M  CHG  1  90   1
M  ISO  4   1 100  68 101  85 101  89 100
M  END
> <chiral flag>
0

> <version>
0

> <s_m_source_file>
/data/baiqing/PycharmProjects/Reinvent-master-3.2/result/LINK_invent/BTK/process_docking_weight1_custom_product_contain_oxygen_bond_distance_aromatic_linkinvent_7_9_3/rearranged_h_0011.sdf

> <i_m_source_file_index>
19

> <r_mmod_Potential_Energy-OPLS-2005>
224.980438232422

> <r_mmod_Stretch_Energy-OPLS-2005>
45.3484001159668

> <r_mmod_Bend_Energy-OPLS-2005>
165.827102661133

> <r_mmod_Torsional_Energy-OPLS-2005>
402.212005615234

> <r_mmod_Improper_Torsional_Energy-OPLS-2005>
31.9612827301025

> <r_mmod_Van_der_Waal_Energy-OPLS-2005>
162.119522094727

> <r_mmod_Electrostatic_Energy-OPLS-2005>
-174.848937988281

> <r_mmod_Solvation_Energy-OPLS-2005>
-440.787170410156

> <b_mmod_Minimization_Converged-OPLS-2005>
0

> <r_mmod_RMS_Derivative-OPLS-2005>
5.50847101211548

$$$$
19
                    3D
 Structure written by MMmdl.
157166  0  0  1  0            999 V2000
  -30.6127  -14.6542   20.4995 C   0  0  0  0  0  0
  -30.4429  -12.4021   19.4525 C   0  0  0  0  0  0
  -29.5093  -12.5117   18.2252 C   0  0  0  0  0  0
  -28.0329  -12.3437   18.6378 C   0  0  0  0  0  0
  -27.6546  -13.2152   19.8643 C   0  0  2  0  0  0
  -28.7000  -13.0703   20.9939 C   0  0  0  0  0  0
  -25.2572  -13.8166   20.5693 C   0  0  0  0  0  0
  -24.1835  -13.0437   20.9198 C   0  0  0  0  0  0
  -24.6400  -11.6906   20.8740 C   0  0  0  0  0  0
  -23.9066  -10.4290   21.0405 C   0  0  0  0  0  0
  -24.3615   -9.4205   21.9184 C   0  0  0  0  0  0
  -23.6290   -8.2240   22.0755 C   0  0  0  0  0  0
  -22.4272   -8.0277   21.3543 C   0  0  0  0  0  0
  -21.9908   -9.0251   20.4645 C   0  0  0  0  0  0
  -22.7239  -10.2131   20.3055 C   0  0  0  0  0  0
  -21.6852   -6.0735   22.5280 C   0  0  0  0  0  0
  -21.4011   -6.5641   23.8212 C   0  0  0  0  0  0
  -21.3658   -5.6791   24.9174 C   0  0  0  0  0  0
  -21.6045   -4.3055   24.7225 C   0  0  0  0  0  0
  -21.8820   -3.8145   23.4345 C   0  0  0  0  0  0
  -21.9193   -4.6961   22.3403 C   0  0  0  0  0  0
  -22.7858  -13.5231   21.1853 C   0  0  0  0  0  0
  -22.1662   -4.2147   21.0981 F   0  0  0  0  0  0
  -21.5629   -3.4537   25.7737 F   0  0  0  0  0  0
  -30.0151  -13.4207   20.4327 N   0  0  0  0  0  0
  -26.2997  -12.9343   20.3320 N   0  0  0  0  0  0
  -25.9327  -11.6501   20.5753 N   0  0  0  0  0  0
  -22.0487  -12.8220   22.0397 N   0  0  0  0  0  0
  -25.4298  -15.1885   20.4113 N   0  0  0  0  0  0
  -31.7735  -14.8227   20.1135 O   0  0  0  0  0  0
  -21.6638   -6.8874   21.4239 O   0  0  0  0  0  0
  -22.3550  -14.5542   20.6705 O   0  0  0  0  0  0
  -24.6269  -31.8593   23.2024 C   0  0  0  0  0  0
  -25.9117  -32.4774   23.8353 C   0  0  1  0  0  0
  -27.2260  -27.3135   20.1127 C   0  0  0  0  0  0
  -25.5936  -33.8575   24.2279 N   0  0  0  0  0  0
  -23.4204  -30.4835   21.5453 C   0  0  2  0  0  0
  -24.8662  -28.9379   20.1113 C   0  0  0  0  0  0
  -22.7478  -29.4623   22.4935 C   0  0  0  0  0  0
  -18.0289  -28.1384   22.8487 C   0  0  0  0  0  0
  -24.1487  -36.7285   23.2637 C   0  0  0  0  0  0
  -25.9621  -30.7883   21.3737 C   0  0  0  0  0  0
  -26.0355  -29.4151   20.7156 C   0  0  0  0  0  0
  -27.2170  -28.6149   20.7063 C   0  0  0  0  0  0
  -26.0301  -26.8927   19.4834 C   0  0  0  0  0  0
  -24.8658  -27.6823   19.4871 C   0  0  0  0  0  0
  -23.6345  -29.8181   20.1607 C   0  0  0  0  0  0
  -25.4114  -36.3080   24.0328 C   0  0  1  0  0  0
  -20.5888  -28.3685   23.1282 C   0  0  2  0  0  0
  -20.6774  -26.9409   22.5408 C   0  0  0  0  0  0
  -19.5750  -26.6387   21.5208 C   0  0  0  0  0  0
  -18.1930  -26.7931   22.1618 C   0  0  0  0  0  0
  -19.1541  -28.8853   23.2882 C   0  0  0  0  0  0
  -18.9461  -30.1456   23.8893 C   0  0  0  0  0  0
  -17.6462  -30.6585   24.0565 C   0  0  0  0  0  0
  -25.9051  -34.9449   23.5101 C   0  0  0  0  0  0
  -16.5354  -29.9083   23.6334 C   0  0  0  0  0  0
  -16.7276  -28.6502   23.0352 C   0  0  0  0  0  0
  -26.4501  -31.6583   25.0722 C   0  0  0  0  0  0
  -25.3737  -31.3724   26.1452 C   0  0  0  0  0  0
  -27.0341  -30.3007   24.6169 C   0  0  0  0  0  0
  -27.6061  -32.4313   25.7499 C   0  0  0  0  0  0
  -27.5577  -37.1803   24.8465 C   0  0  0  0  0  0
  -21.4191  -29.3041   22.3679 N   0  0  0  0  0  0
  -26.4290  -37.3775   23.9408 N   0  0  0  0  0  0
  -24.6888  -31.0602   22.0975 N   0  0  0  0  0  0
  -23.4204  -28.8159   23.3010 O   0  0  0  0  0  0
  -28.3555  -26.4758   20.1639 O   0  0  0  0  0  0
  -26.5612  -34.8919   22.4663 O   0  0  0  0  0  0
  -23.5433  -32.1391   23.7352 O   0  0  0  0  0  0
  -30.8793  -19.3125   20.0311 C   0  0  0  0  0  0
  -28.5357  -19.2893   20.5469 C   0  0  0  0  0  0
  -30.9634  -17.9047   20.2728 C   0  0  0  0  0  0
  -28.6221  -17.8871   20.8048 C   0  0  0  0  0  0
  -29.6609  -20.0471   20.1322 C   0  0  0  0  0  0
  -29.8242  -17.1414   20.6443 C   0  0  0  0  0  0
  -27.3779  -24.2812   21.0268 C   0  0  0  0  0  0
  -27.7171  -22.7819   20.8433 C   0  0  0  0  0  0
  -29.4985  -24.0993   19.9840 C   0  0  0  0  0  0
  -28.2127  -25.0070   19.9632 C   0  0  2  0  0  0
  -29.5577  -21.5347   19.6001 C   0  0  0  0  0  0
  -29.7913  -15.6909   20.8679 N   0  0  0  0  0  0
  -29.1528  -22.7059   20.4848 N   0  3  2  0  0  0
  -31.4825  -12.5344   19.1481 H   0  0  0  0  0  0
  -30.3858  -11.4056   19.8931 H   0  0  0  0  0  0
  -29.7760  -11.7615   17.4795 H   0  0  0  0  0  0
  -29.6456  -13.4817   17.7444 H   0  0  0  0  0  0
  -27.8743  -11.2906   18.8715 H   0  0  0  0  0  0
  -27.3762  -12.5693   17.7966 H   0  0  0  0  0  0
  -27.6721  -14.2501   19.5220 H   0  0  0  0  0  0
  -28.7158  -12.0468   21.3711 H   0  0  0  0  0  0
  -28.4417  -13.6961   21.8496 H   0  0  0  0  0  0
  -25.2760   -9.5683   22.4757 H   0  0  0  0  0  0
  -24.0001   -7.4633   22.7475 H   0  0  0  0  0  0
  -21.0838   -8.8769   19.8951 H   0  0  0  0  0  0
  -22.3696  -10.9668   19.6161 H   0  0  0  0  0  0
  -21.2002   -7.6149   23.9717 H   0  0  0  0  0  0
  -21.1479   -6.0520   25.9078 H   0  0  0  0  0  0
  -22.0599   -2.7606   23.2845 H   0  0  0  0  0  0
  -22.4091  -11.9871   22.4774 H   0  0  0  0  0  0
  -21.1102  -13.1243   22.2591 H   0  0  0  0  0  0
  -24.6611  -15.8411   20.5197 H   0  0  0  0  0  0
  -26.2686  -15.6222   20.0489 H   0  0  0  0  0  0
  -26.7184  -32.5446   23.1102 H   0  0  0  0  0  0
  -25.0124  -33.9717   25.0451 H   0  0  0  0  0  0
  -22.7147  -31.3047   21.4029 H   0  0  0  0  0  0
  -23.3753  -35.9614   23.3302 H   0  0  0  0  0  0
  -24.3582  -36.8899   22.2050 H   0  0  0  0  0  0
  -23.7232  -37.6486   23.6654 H   0  0  0  0  0  0
  -26.0935  -31.5512   20.6050 H   0  0  0  0  0  0
  -26.8427  -30.8370   22.0028 H   0  0  0  0  0  0
  -28.1143  -28.9771   21.1883 H   0  0  0  0  0  0
  -25.9556  -25.9385   18.9867 H   0  0  0  0  0  0
  -23.9694  -27.3126   19.0079 H   0  0  0  0  0  0
  -23.7539  -30.5943   19.4039 H   0  0  0  0  0  0
  -22.7540  -29.2479   19.8588 H   0  0  0  0  0  0
  -25.1295  -36.1933   25.0820 H   0  0  0  0  0  0
  -20.9984  -28.3254   24.1401 H   0  0  0  0  0  0
  -20.5670  -26.2293   23.3604 H   0  0  0  0  0  0
  -21.6642  -26.7435   22.1199 H   0  0  0  0  0  0
  -19.6908  -25.6300   21.1231 H   0  0  0  0  0  0
  -19.6690  -27.3204   20.6744 H   0  0  0  0  0  0
  -17.4201  -26.6689   21.4014 H   0  0  0  0  0  0
  -18.0327  -26.0069   22.9008 H   0  0  0  0  0  0
  -19.7941  -30.7278   24.2247 H   0  0  0  0  0  0
  -17.5019  -31.6263   24.5173 H   0  0  0  0  0  0
  -15.5354  -30.2982   23.7663 H   0  0  0  0  0  0
  -15.8679  -28.0826   22.7059 H   0  0  0  0  0  0
  -24.5923  -30.7053   25.7797 H   0  0  0  0  0  0
  -24.8916  -32.2888   26.4864 H   0  0  0  0  0  0
  -25.8069  -30.8928   27.0237 H   0  0  0  0  0  0
  -26.2910  -29.6760   24.1195 H   0  0  0  0  0  0
  -27.4048  -29.7259   25.4666 H   0  0  0  0  0  0
  -27.8779  -30.4302   23.9387 H   0  0  0  0  0  0
  -27.2682  -33.3633   26.2047 H   0  0  0  0  0  0
  -28.3896  -32.6832   25.0340 H   0  0  0  0  0  0
  -28.0697  -31.8449   26.5442 H   0  0  0  0  0  0
  -28.2594  -38.0100   24.7509 H   0  0  0  0  0  0
  -28.1069  -36.2629   24.6295 H   0  0  0  0  0  0
  -27.2296  -37.1458   25.8868 H   0  0  0  0  0  0
  -20.9367  -29.8779   21.6905 H   0  0  0  0  0  0
  -26.0169  -38.2848   24.1408 H   0  0  0  0  0  0
  -31.7747  -19.8225   19.7027 H   0  0  0  0  0  0
  -27.5707  -19.7693   20.6269 H   0  0  0  0  0  0
  -31.9188  -17.4159   20.1444 H   0  0  0  0  0  0
  -27.7182  -17.3724   21.0995 H   0  0  0  0  0  0
  -27.6850  -24.6106   22.0196 H   0  0  0  0  0  0
  -26.3093  -24.4714   20.9327 H   0  0  0  0  0  0
  -27.1136  -22.3759   20.0301 H   0  0  0  0  0  0
  -27.4982  -22.1952   21.7362 H   0  0  0  0  0  0
  -30.2296  -24.5247   20.6721 H   0  0  0  0  0  0
  -29.9687  -24.0784   19.0002 H   0  0  0  0  0  0
  -27.7633  -24.8368   18.9847 H   0  0  0  0  0  0
  -28.9125  -21.5271   18.7208 H   0  0  0  0  0  0
  -30.5466  -21.7797   19.2111 H   0  0  0  0  0  0
  -28.9024  -15.3503   21.2007 H   0  0  0  0  0  0
  -29.6655  -22.5868   21.3466 H   0  0  0  0  0  0
  1 25  1  0  0  0
  1 30  2  0  0  0
  1 82  1  0  0  0
  2  3  1  0  0  0
  2 25  1  0  0  0
  2 84  1  0  0  0
  2 85  1  0  0  0
  3  4  1  0  0  0
  3 86  1  0  0  0
  3 87  1  0  0  0
  4  5  1  0  0  0
  4 88  1  0  0  0
  4 89  1  0  0  0
  5  6  1  0  0  0
  5 26  1  0  0  0
  5 90  1  0  0  0
  6 25  1  0  0  0
  6 91  1  0  0  0
  6 92  1  0  0  0
  7  8  2  0  0  0
  7 26  1  0  0  0
  7 29  1  0  0  0
  8  9  1  0  0  0
  8 22  1  0  0  0
  9 10  1  0  0  0
  9 27  2  0  0  0
 10 11  2  0  0  0
 10 15  1  0  0  0
 11 12  1  0  0  0
 11 93  1  0  0  0
 12 13  2  0  0  0
 12 94  1  0  0  0
 13 14  1  0  0  0
 13 31  1  0  0  0
 14 15  2  0  0  0
 14 95  1  0  0  0
 15 96  1  0  0  0
 16 17  2  0  0  0
 16 21  1  0  0  0
 16 31  1  0  0  0
 17 18  1  0  0  0
 17 97  1  0  0  0
 18 19  2  0  0  0
 18 98  1  0  0  0
 19 20  1  0  0  0
 19 24  1  0  0  0
 20 21  2  0  0  0
 20 99  1  0  0  0
 21 23  1  0  0  0
 22 28  1  0  0  0
 22 32  2  0  0  0
 26 27  1  0  0  0
 28100  1  0  0  0
 28101  1  0  0  0
 29102  1  0  0  0
 29103  1  0  0  0
 33 34  1  0  0  0
 33 66  1  0  0  0
 33 70  2  0  0  0
 34 36  1  0  0  0
 34 59  1  0  0  0
 34104  1  0  0  0
 35 44  2  0  0  0
 35 45  1  0  0  0
 35 68  1  0  0  0
 36 56  1  0  0  0
 36105  1  0  0  0
 37 39  1  0  0  0
 37 47  1  0  0  0
 37 66  1  0  0  0
 37106  1  0  0  0
 38 43  2  0  0  0
 38 46  1  0  0  0
 38 47  1  0  0  0
 39 64  1  0  0  0
 39 67  2  0  0  0
 40 52  1  0  0  0
 40 53  2  0  0  0
 40 58  1  0  0  0
 41107  1  0  0  0
 41108  1  0  0  0
 41109  1  0  0  0
 41 48  1  0  0  0
 42 43  1  0  0  0
 42 66  1  0  0  0
 42110  1  0  0  0
 42111  1  0  0  0
 43 44  1  0  0  0
 44112  1  0  0  0
 45 46  2  0  0  0
 45113  1  0  0  0
 46114  1  0  0  0
 47115  1  0  0  0
 47116  1  0  0  0
 48 56  1  0  0  0
 48 65  1  0  0  0
 48117  1  0  0  0
 49 50  1  0  0  0
 49 53  1  0  0  0
 49 64  1  0  0  0
 49118  1  0  0  0
 50 51  1  0  0  0
 50119  1  0  0  0
 50120  1  0  0  0
 51 52  1  0  0  0
 51121  1  0  0  0
 51122  1  0  0  0
 52123  1  0  0  0
 52124  1  0  0  0
 53 54  1  0  0  0
 54 55  2  0  0  0
 54125  1  0  0  0
 55 57  1  0  0  0
 55126  1  0  0  0
 56 69  2  0  0  0
 57 58  2  0  0  0
 57127  1  0  0  0
 58128  1  0  0  0
 59 60  1  0  0  0
 59 61  1  0  0  0
 59 62  1  0  0  0
 60129  1  0  0  0
 60130  1  0  0  0
 60131  1  0  0  0
 61132  1  0  0  0
 61133  1  0  0  0
 61134  1  0  0  0
 62135  1  0  0  0
 62136  1  0  0  0
 62137  1  0  0  0
 63 65  1  0  0  0
 63138  1  0  0  0
 63139  1  0  0  0
 63140  1  0  0  0
 64141  1  0  0  0
 65142  1  0  0  0
 68 80  1  0  0  0
 71 73  2  0  0  0
 71 75  1  0  0  0
 71143  1  0  0  0
 72 74  1  0  0  0
 72 75  2  0  0  0
 72144  1  0  0  0
 73 76  1  0  0  0
 73145  1  0  0  0
 74 76  2  0  0  0
 74146  1  0  0  0
 75 81  1  0  0  0
 76 82  1  0  0  0
 77 78  1  0  0  0
 77 80  1  0  0  0
 77147  1  0  0  0
 77148  1  0  0  0
 78 83  1  0  0  0
 78149  1  0  0  0
 78150  1  0  0  0
 79 80  1  0  0  0
 79 83  1  0  0  0
 79151  1  0  0  0
 79152  1  0  0  0
 80153  1  0  0  0
 81154  1  0  0  0
 81155  1  0  0  0
 81 83  1  0  0  0
 82156  1  0  0  0
 83157  1  0  0  0
M  CHG  1  83   1
M  ISO  4   1 100  68 101  80 101  82 100
M  END
> <chiral flag>
0

> <version>
0

> <s_m_source_file>
/data/baiqing/PycharmProjects/Reinvent-master-3.2/result/LINK_invent/BTK/process_docking_weight1_custom_product_contain_oxygen_bond_distance_aromatic_linkinvent_7_9_3/rearranged_h_0011.sdf

> <i_m_source_file_index>
20

> <r_mmod_Potential_Energy-OPLS-2005>
-2.8892285823822

> <r_mmod_Stretch_Energy-OPLS-2005>
81.3170928955078

> <r_mmod_Bend_Energy-OPLS-2005>
173.298065185547

> <r_mmod_Torsional_Energy-OPLS-2005>
260.868530273438

> <r_mmod_Improper_Torsional_Energy-OPLS-2005>
5.15996789932251

> <r_mmod_Van_der_Waal_Energy-OPLS-2005>
137.378356933594

> <r_mmod_Electrostatic_Energy-OPLS-2005>
-269.725524902344

> <r_mmod_Solvation_Energy-OPLS-2005>
-442.134643554688

> <b_mmod_Minimization_Converged-OPLS-2005>
0

> <r_mmod_RMS_Derivative-OPLS-2005>
0.63265722990036

$$$$
20
                    3D
 Structure written by MMmdl.
154162  0  0  1  0            999 V2000
  -30.6755  -14.4856   20.5768 C   0  0  0  0  0  0
  -30.4342  -12.3171   19.4176 C   0  0  0  0  0  0
  -29.4979  -12.5126   18.2056 C   0  0  0  0  0  0
  -28.0186  -12.3671   18.6170 C   0  0  0  0  0  0
  -27.6648  -13.1978   19.8787 C   0  0  2  0  0  0
  -28.7076  -12.9625   20.9954 C   0  0  0  0  0  0
  -25.2602  -13.8130   20.5673 C   0  0  0  0  0  0
  -24.1842  -13.0423   20.9167 C   0  0  0  0  0  0
  -24.6385  -11.6887   20.8730 C   0  0  0  0  0  0
  -23.9043  -10.4283   21.0398 C   0  0  0  0  0  0
  -24.3599   -9.4204   21.9179 C   0  0  0  0  0  0
  -23.6282   -8.2238   22.0750 C   0  0  0  0  0  0
  -22.4265   -8.0274   21.3540 C   0  0  0  0  0  0
  -21.9891   -9.0244   20.4642 C   0  0  0  0  0  0
  -22.7215  -10.2127   20.3049 C   0  0  0  0  0  0
  -21.6847   -6.0734   22.5281 C   0  0  0  0  0  0
  -21.4010   -6.5638   23.8215 C   0  0  0  0  0  0
  -21.3657   -5.6790   24.9177 C   0  0  0  0  0  0
  -21.6046   -4.3054   24.7227 C   0  0  0  0  0  0
  -21.8819   -3.8146   23.4348 C   0  0  0  0  0  0
  -21.9189   -4.6963   22.3404 C   0  0  0  0  0  0
  -22.7867  -13.5235   21.1838 C   0  0  0  0  0  0
  -22.1658   -4.2149   21.0981 F   0  0  0  0  0  0
  -21.5629   -3.4536   25.7739 F   0  0  0  0  0  0
  -30.0402  -13.2864   20.4518 N   0  0  0  0  0  0
  -26.3039  -12.9284   20.3378 N   0  0  0  0  0  0
  -25.9314  -11.6454   20.5768 N   0  0  0  0  0  0
  -22.0499  -12.8240   22.0398 N   0  0  0  0  0  0
  -25.4309  -15.1846   20.4077 N   0  0  0  0  0  0
  -31.7868  -14.7150   20.0889 O   0  0  0  0  0  0
  -21.6629   -6.8873   21.4241 O   0  0  0  0  0  0
  -22.3561  -14.5548   20.6692 O   0  0  0  0  0  0
  -24.6151  -31.8672   23.2098 C   0  0  0  0  0  0
  -25.9041  -32.4819   23.8398 C   0  0  1  0  0  0
  -27.2388  -27.4345   20.0997 C   0  0  0  0  0  0
  -25.5895  -33.8618   24.2330 N   0  0  0  0  0  0
  -23.4050  -30.4890   21.5488 C   0  0  2  0  0  0
  -24.8559  -28.9546   20.1136 C   0  0  0  0  0  0
  -22.7418  -29.4648   22.4978 C   0  0  0  0  0  0
  -18.0273  -28.1376   22.8491 C   0  0  0  0  0  0
  -24.1485  -36.7316   23.2637 C   0  0  0  0  0  0
  -25.9338  -30.8323   21.3646 C   0  0  0  0  0  0
  -26.0148  -29.4661   20.7128 C   0  0  0  0  0  0
  -27.2123  -28.7122   20.7056 C   0  0  0  0  0  0
  -26.0685  -26.9379   19.4924 C   0  0  0  0  0  0
  -24.8772  -27.6891   19.5001 C   0  0  0  0  0  0
  -23.6163  -29.8202   20.1638 C   0  0  0  0  0  0
  -25.4103  -36.3112   24.0340 C   0  0  1  0  0  0
  -20.5865  -28.3664   23.1313 C   0  0  2  0  0  0
  -20.6760  -26.9399   22.5417 C   0  0  0  0  0  0
  -19.5740  -26.6384   21.5212 C   0  0  0  0  0  0
  -18.1920  -26.7923   22.1622 C   0  0  0  0  0  0
  -19.1523  -28.8836   23.2899 C   0  0  0  0  0  0
  -18.9451  -30.1442   23.8910 C   0  0  0  0  0  0
  -17.6454  -30.6584   24.0563 C   0  0  0  0  0  0
  -25.9033  -34.9476   23.5134 C   0  0  0  0  0  0
  -16.5344  -29.9087   23.6323 C   0  0  0  0  0  0
  -16.7261  -28.6501   23.0347 C   0  0  0  0  0  0
  -26.4474  -31.6595   25.0723 C   0  0  0  0  0  0
  -25.3747  -31.3694   26.1476 C   0  0  0  0  0  0
  -27.0307  -30.3037   24.6097 C   0  0  0  0  0  0
  -27.6053  -32.4313   25.7484 C   0  0  0  0  0  0
  -27.5587  -37.1801   24.8456 C   0  0  0  0  0  0
  -21.4145  -29.3031   22.3720 N   0  0  0  0  0  0
  -26.4285  -37.3801   23.9423 N   0  0  0  0  0  0
  -24.6693  -31.0768   22.0998 N   0  0  0  0  0  0
  -23.4184  -28.8193   23.3028 O   0  0  0  0  0  0
  -28.3688  -26.6472   20.1027 O   0  0  0  0  0  0
  -26.5596  -34.8928   22.4695 O   0  0  0  0  0  0
  -23.5340  -32.1421   23.7489 O   0  0  0  0  0  0
  -28.8313  -17.2028   19.9449 C   0  0  0  0  0  0
  -30.6632  -17.8086   21.4193 C   0  0  0  0  0  0
  -28.6050  -18.5670   19.6701 C   0  0  0  0  0  0
  -30.4286  -19.1810   21.1450 C   0  0  0  0  0  0
  -29.8580  -16.8071   20.8280 C   0  0  0  0  0  0
  -29.3791  -19.5781   20.2763 C   0  0  0  0  0  0
  -28.8315  -23.2801   20.3855 C   0  0  0  0  0  0
  -29.3915  -24.5523   21.0758 C   0  0  0  0  0  0
  -29.6401  -21.9813   20.6659 C   0  0  0  0  0  0
  -28.4049  -25.7441   21.2175 C   0  0  0  0  0  0
  -29.9575  -15.4355   21.2065 N   0  0  0  0  0  0
  -29.0320  -20.8859   19.9737 O   0  0  0  0  0  0
  -31.4757  -12.4372   19.1133 H   0  0  0  0  0  0
  -30.3545  -11.3010   19.8065 H   0  0  0  0  0  0
  -29.7398  -11.7918   17.4231 H   0  0  0  0  0  0
  -29.6606  -13.5003   17.7710 H   0  0  0  0  0  0
  -27.8282  -11.3100   18.8058 H   0  0  0  0  0  0
  -27.3681  -12.6487   17.7880 H   0  0  0  0  0  0
  -27.7112  -14.2455   19.5883 H   0  0  0  0  0  0
  -28.6895  -11.9185   21.3125 H   0  0  0  0  0  0
  -28.4599  -13.5349   21.8901 H   0  0  0  0  0  0
  -25.2743   -9.5684   22.4755 H   0  0  0  0  0  0
  -23.9992   -7.4627   22.7466 H   0  0  0  0  0  0
  -21.0821   -8.8758   19.8950 H   0  0  0  0  0  0
  -22.3669  -10.9663   19.6158 H   0  0  0  0  0  0
  -21.2003   -7.6145   23.9723 H   0  0  0  0  0  0
  -21.1479   -6.0517   25.9082 H   0  0  0  0  0  0
  -22.0603   -2.7608   23.2846 H   0  0  0  0  0  0
  -22.4096  -11.9892   22.4784 H   0  0  0  0  0  0
  -21.1127  -13.1289   22.2612 H   0  0  0  0  0  0
  -24.6616  -15.8368   20.5163 H   0  0  0  0  0  0
  -26.2840  -15.6286   20.0960 H   0  0  0  0  0  0
  -26.7115  -32.5537   23.1169 H   0  0  0  0  0  0
  -25.0047  -33.9783   25.0475 H   0  0  0  0  0  0
  -22.6937  -31.3056   21.4079 H   0  0  0  0  0  0
  -23.3751  -35.9643   23.3285 H   0  0  0  0  0  0
  -24.3588  -36.8946   22.2055 H   0  0  0  0  0  0
  -23.7226  -37.6513   23.6658 H   0  0  0  0  0  0
  -26.0464  -31.5983   20.5961 H   0  0  0  0  0  0
  -26.8208  -30.8871   21.9834 H   0  0  0  0  0  0
  -28.1067  -29.0996   21.1735 H   0  0  0  0  0  0
  -26.0792  -25.9628   19.0255 H   0  0  0  0  0  0
  -23.9870  -27.2886   19.0350 H   0  0  0  0  0  0
  -23.7247  -30.5947   19.4035 H   0  0  0  0  0  0
  -22.7412  -29.2391   19.8674 H   0  0  0  0  0  0
  -25.1275  -36.1974   25.0832 H   0  0  0  0  0  0
  -20.9956  -28.3229   24.1433 H   0  0  0  0  0  0
  -20.5657  -26.2274   23.3606 H   0  0  0  0  0  0
  -21.6632  -26.7437   22.1211 H   0  0  0  0  0  0
  -19.6901  -25.6298   21.1232 H   0  0  0  0  0  0
  -19.6681  -27.3200   20.6748 H   0  0  0  0  0  0
  -17.4190  -26.6672   21.4024 H   0  0  0  0  0  0
  -18.0320  -26.0061   22.9015 H   0  0  0  0  0  0
  -19.7929  -30.7252   24.2285 H   0  0  0  0  0  0
  -17.5012  -31.6266   24.5161 H   0  0  0  0  0  0
  -15.5346  -30.2994   23.7641 H   0  0  0  0  0  0
  -15.8659  -28.0827   22.7054 H   0  0  0  0  0  0
  -24.5910  -30.7058   25.7810 H   0  0  0  0  0  0
  -24.8955  -32.2848   26.4957 H   0  0  0  0  0  0
  -25.8108  -30.8834   27.0214 H   0  0  0  0  0  0
  -26.2851  -29.6793   24.1161 H   0  0  0  0  0  0
  -27.4090  -29.7277   25.4554 H   0  0  0  0  0  0
  -27.8680  -30.4358   23.9241 H   0  0  0  0  0  0
  -27.2673  -33.3596   26.2100 H   0  0  0  0  0  0
  -28.3841  -32.6899   25.0298 H   0  0  0  0  0  0
  -28.0745  -31.8413   26.5367 H   0  0  0  0  0  0
  -28.2574  -38.0131   24.7559 H   0  0  0  0  0  0
  -28.1116  -36.2668   24.6205 H   0  0  0  0  0  0
  -27.2318  -37.1356   25.8860 H   0  0  0  0  0  0
  -20.9305  -29.8761   21.6948 H   0  0  0  0  0  0
  -26.0173  -38.2872   24.1458 H   0  0  0  0  0  0
  -28.1911  -16.4684   19.4806 H   0  0  0  0  0  0
  -31.4452  -17.5332   22.1133 H   0  0  0  0  0  0
  -27.8028  -18.8432   19.0003 H   0  0  0  0  0  0
  -31.0561  -19.9164   21.6268 H   0  0  0  0  0  0
  -28.7664  -23.4536   19.3107 H   0  0  0  0  0  0
  -27.8085  -23.1144   20.7249 H   0  0  0  0  0  0
  -30.3134  -24.8783   20.5932 H   0  0  0  0  0  0
  -29.6789  -24.2650   22.0882 H   0  0  0  0  0  0
  -29.6517  -21.7891   21.7399 H   0  0  0  0  0  0
  -30.6738  -22.0941   20.3368 H   0  0  0  0  0  0
  -28.7055  -26.3349   22.0844 H   0  0  0  0  0  0
  -27.4089  -25.3630   21.4531 H   0  0  0  0  0  0
  -29.1125  -15.0532   21.6036 H   0  0  0  0  0  0
  1 25  1  0  0  0
  1 30  2  0  0  0
  1 81  1  0  0  0
  2  3  1  0  0  0
  2 25  1  0  0  0
  2 83  1  0  0  0
  2 84  1  0  0  0
  3  4  1  0  0  0
  3 85  1  0  0  0
  3 86  1  0  0  0
  4  5  1  0  0  0
  4 87  1  0  0  0
  4 88  1  0  0  0
  5  6  1  0  0  0
  5 26  1  0  0  0
  5 89  1  0  0  0
  6 25  1  0  0  0
  6 90  1  0  0  0
  6 91  1  0  0  0
  7  8  2  0  0  0
  7 26  1  0  0  0
  7 29  1  0  0  0
  8  9  1  0  0  0
  8 22  1  0  0  0
  9 10  1  0  0  0
  9 27  2  0  0  0
 10 11  2  0  0  0
 10 15  1  0  0  0
 11 12  1  0  0  0
 11 92  1  0  0  0
 12 13  2  0  0  0
 12 93  1  0  0  0
 13 14  1  0  0  0
 13 31  1  0  0  0
 14 15  2  0  0  0
 14 94  1  0  0  0
 15 95  1  0  0  0
 16 17  2  0  0  0
 16 21  1  0  0  0
 16 31  1  0  0  0
 17 18  1  0  0  0
 17 96  1  0  0  0
 18 19  2  0  0  0
 18 97  1  0  0  0
 19 20  1  0  0  0
 19 24  1  0  0  0
 20 21  2  0  0  0
 20 98  1  0  0  0
 21 23  1  0  0  0
 22 28  1  0  0  0
 22 32  2  0  0  0
 26 27  1  0  0  0
 28 99  1  0  0  0
 28100  1  0  0  0
 29101  1  0  0  0
 29102  1  0  0  0
 33 34  1  0  0  0
 33 66  1  0  0  0
 33 70  2  0  0  0
 34 36  1  0  0  0
 34 59  1  0  0  0
 34103  1  0  0  0
 35 44  2  0  0  0
 35 45  1  0  0  0
 35 68  1  0  0  0
 36 56  1  0  0  0
 36104  1  0  0  0
 37 39  1  0  0  0
 37 47  1  0  0  0
 37 66  1  0  0  0
 37105  1  0  0  0
 38 43  2  0  0  0
 38 46  1  0  0  0
 38 47  1  0  0  0
 39 64  1  0  0  0
 39 67  2  0  0  0
 40 52  1  0  0  0
 40 53  2  0  0  0
 40 58  1  0  0  0
 41106  1  0  0  0
 41107  1  0  0  0
 41108  1  0  0  0
 41 48  1  0  0  0
 42 43  1  0  0  0
 42 66  1  0  0  0
 42109  1  0  0  0
 42110  1  0  0  0
 43 44  1  0  0  0
 44111  1  0  0  0
 45 46  2  0  0  0
 45112  1  0  0  0
 46113  1  0  0  0
 47114  1  0  0  0
 47115  1  0  0  0
 48 56  1  0  0  0
 48 65  1  0  0  0
 48116  1  0  0  0
 49 50  1  0  0  0
 49 53  1  0  0  0
 49 64  1  0  0  0
 49117  1  0  0  0
 50 51  1  0  0  0
 50118  1  0  0  0
 50119  1  0  0  0
 51 52  1  0  0  0
 51120  1  0  0  0
 51121  1  0  0  0
 52122  1  0  0  0
 52123  1  0  0  0
 53 54  1  0  0  0
 54 55  2  0  0  0
 54124  1  0  0  0
 55 57  1  0  0  0
 55125  1  0  0  0
 56 69  2  0  0  0
 57 58  2  0  0  0
 57126  1  0  0  0
 58127  1  0  0  0
 59 60  1  0  0  0
 59 61  1  0  0  0
 59 62  1  0  0  0
 60128  1  0  0  0
 60129  1  0  0  0
 60130  1  0  0  0
 61131  1  0  0  0
 61132  1  0  0  0
 61133  1  0  0  0
 62134  1  0  0  0
 62135  1  0  0  0
 62136  1  0  0  0
 63 65  1  0  0  0
 63137  1  0  0  0
 63138  1  0  0  0
 63139  1  0  0  0
 64140  1  0  0  0
 65141  1  0  0  0
 68 80  1  0  0  0
 71 73  2  0  0  0
 71 75  1  0  0  0
 71142  1  0  0  0
 72 74  1  0  0  0
 72 75  2  0  0  0
 72143  1  0  0  0
 73 76  1  0  0  0
 73144  1  0  0  0
 74 76  2  0  0  0
 74145  1  0  0  0
 75 81  1  0  0  0
 76 82  1  0  0  0
 77 78  1  0  0  0
 77 79  1  0  0  0
 77146  1  0  0  0
 77147  1  0  0  0
 78 80  1  0  0  0
 78148  1  0  0  0
 78149  1  0  0  0
 79 82  1  0  0  0
 79150  1  0  0  0
 79151  1  0  0  0
 80152  1  0  0  0
 80153  1  0  0  0
 81154  1  0  0  0
M  ISO  4   1 100  68 101  80 101  81 100
M  END
> <chiral flag>
0

> <version>
0

> <s_m_source_file>
/data/baiqing/PycharmProjects/Reinvent-master-3.2/result/LINK_invent/BTK/process_docking_weight1_custom_product_contain_oxygen_bond_distance_aromatic_linkinvent_7_9_3/rearranged_h_0011.sdf

> <i_m_source_file_index>
21

> <r_mmod_Potential_Energy-OPLS-2005>
-26.1432418823242

> <r_mmod_Stretch_Energy-OPLS-2005>
38.0520858764648

> <r_mmod_Bend_Energy-OPLS-2005>
103.493583679199

> <r_mmod_Torsional_Energy-OPLS-2005>
269.066009521484

> <r_mmod_Improper_Torsional_Energy-OPLS-2005>
5.56116437911987

> <r_mmod_Van_der_Waal_Energy-OPLS-2005>
142.235061645508

> <r_mmod_Electrostatic_Energy-OPLS-2005>
-386.073486328125

> <r_mmod_Solvation_Energy-OPLS-2005>
-212.002868652344

> <b_mmod_Minimization_Converged-OPLS-2005>
0

> <r_mmod_RMS_Derivative-OPLS-2005>
0.609314560890198

$$$$
21
                    3D
 Structure written by MMmdl.
152161  0  0  1  0            999 V2000
  -30.5597  -14.9383   20.3749 C   0  0  0  0  0  0
  -30.4386  -12.5695   19.4817 C   0  0  0  0  0  0
  -29.5140  -12.4780   18.2449 C   0  0  0  0  0  0
  -28.0441  -12.2963   18.6707 C   0  0  0  0  0  0
  -27.6257  -13.2395   19.8319 C   0  0  2  0  0  0
  -28.6789  -13.2913   20.9577 C   0  0  0  0  0  0
  -25.2456  -13.8201   20.5737 C   0  0  0  0  0  0
  -24.1765  -13.0433   20.9242 C   0  0  0  0  0  0
  -24.6366  -11.6920   20.8778 C   0  0  0  0  0  0
  -23.9050  -10.4293   21.0420 C   0  0  0  0  0  0
  -24.3605   -9.4213   21.9195 C   0  0  0  0  0  0
  -23.6295   -8.2243   22.0751 C   0  0  0  0  0  0
  -22.4276   -8.0273   21.3538 C   0  0  0  0  0  0
  -21.9906   -9.0241   20.4643 C   0  0  0  0  0  0
  -22.7216  -10.2132   20.3065 C   0  0  0  0  0  0
  -21.6843   -6.0734   22.5280 C   0  0  0  0  0  0
  -21.4018   -6.5644   23.8213 C   0  0  0  0  0  0
  -21.3660   -5.6792   24.9177 C   0  0  0  0  0  0
  -21.6042   -4.3056   24.7229 C   0  0  0  0  0  0
  -21.8820   -3.8150   23.4351 C   0  0  0  0  0  0
  -21.9189   -4.6966   22.3403 C   0  0  0  0  0  0
  -22.7788  -13.5219   21.1883 C   0  0  0  0  0  0
  -22.1651   -4.2148   21.0978 F   0  0  0  0  0  0
  -21.5624   -3.4539   25.7741 F   0  0  0  0  0  0
  -29.9455  -13.6874   20.3302 N   0  0  0  0  0  0
  -26.2881  -12.9416   20.3300 N   0  0  0  0  0  0
  -25.9304  -11.6557   20.5790 N   0  0  0  0  0  0
  -22.0424  -12.8237   22.0455 N   0  0  0  0  0  0
  -25.4119  -15.1929   20.4119 N   0  0  0  0  0  0
  -31.7938  -14.9565   20.2970 O   0  0  0  0  0  0
  -21.6628   -6.8878   21.4240 O   0  0  0  0  0  0
  -22.3489  -14.5516   20.6701 O   0  0  0  0  0  0
  -24.6413  -31.8456   23.1902 C   0  0  0  0  0  0
  -25.9188  -32.4712   23.8295 C   0  0  1  0  0  0
  -27.2189  -27.1458   20.1623 C   0  0  0  0  0  0
  -25.5947  -33.8517   24.2208 N   0  0  0  0  0  0
  -23.4460  -30.4656   21.5331 C   0  0  2  0  0  0
  -24.8979  -28.8970   20.1071 C   0  0  0  0  0  0
  -22.7566  -29.4554   22.4846 C   0  0  0  0  0  0
  -18.0309  -28.1405   22.8482 C   0  0  0  0  0  0
  -24.1486  -36.7254   23.2640 C   0  0  0  0  0  0
  -26.0007  -30.7222   21.3908 C   0  0  0  0  0  0
  -26.0715  -29.3345   20.7339 C   0  0  0  0  0  0
  -27.2289  -28.4725   20.7502 C   0  0  0  0  0  0
  -26.0278  -26.8185   19.4728 C   0  0  0  0  0  0
  -24.8895  -27.6526   19.4603 C   0  0  0  0  0  0
  -23.6735  -29.7971   20.1512 C   0  0  0  0  0  0
  -25.4115  -36.3040   24.0320 C   0  0  1  0  0  0
  -20.5919  -28.3730   23.1232 C   0  0  2  0  0  0
  -20.6794  -26.9436   22.5395 C   0  0  0  0  0  0
  -19.5761  -26.6387   21.5216 C   0  0  0  0  0  0
  -18.1947  -26.7941   22.1637 C   0  0  0  0  0  0
  -19.1563  -28.8884   23.2852 C   0  0  0  0  0  0
  -18.9483  -30.1479   23.8878 C   0  0  0  0  0  0
  -17.6478  -30.6600   24.0565 C   0  0  0  0  0  0
  -25.9062  -34.9416   23.5073 C   0  0  0  0  0  0
  -16.5366  -29.9091   23.6345 C   0  0  0  0  0  0
  -16.7293  -28.6509   23.0364 C   0  0  0  0  0  0
  -26.4523  -31.6578   25.0729 C   0  0  0  0  0  0
  -25.3718  -31.3774   26.1438 C   0  0  0  0  0  0
  -27.0383  -30.2971   24.6312 C   0  0  0  0  0  0
  -27.6059  -32.4343   25.7502 C   0  0  0  0  0  0
  -27.5590  -37.1762   24.8454 C   0  0  0  0  0  0
  -21.4254  -29.3051   22.3590 N   0  0  0  0  0  0
  -26.4277  -37.3760   23.9436 N   0  0  0  0  0  0
  -24.7154  -31.0320   22.0937 N   0  0  0  0  0  0
  -23.4203  -28.8107   23.3001 O   0  0  0  0  0  0
  -28.2708  -26.1666   20.2792 O   0  0  0  0  0  0
  -26.5656  -34.8911   22.4650 O   0  0  0  0  0  0
  -23.5532  -32.1337   23.7115 O   0  0  0  0  0  0
  -29.5658  -18.3893   21.3556 C   0  0  0  0  0  0
  -29.3119  -19.8398   21.2902 C   0  0  0  0  0  0
  -29.3749  -19.7436   18.9282 C   0  0  0  0  0  0
  -29.6290  -18.3295   19.0055 C   0  0  0  0  0  0
  -29.7309  -17.5640   20.1832 C   0  0  0  0  0  0
  -29.1867  -20.5958   20.0614 C   0  0  0  0  0  0
  -29.7902  -17.4387   17.8167 C   0  0  0  0  0  0
  -29.7374  -16.0086   18.3958 C   0  0  0  0  0  0
  -28.0723  -24.6587   19.9544 C   0  0  0  0  0  0
  -28.7968  -23.2811   20.6030 C   0  0  0  0  0  0
  -29.8398  -16.0682   19.8777 N   0  0  0  0  0  0
  -28.8543  -21.9933   19.7789 O   0  0  0  0  0  0
  -31.4711  -12.7251   19.1651 H   0  0  0  0  0  0
  -30.4281  -11.6319   20.0402 H   0  0  0  0  0  0
  -29.8243  -11.6490   17.6082 H   0  0  0  0  0  0
  -29.6102  -13.3694   17.6278 H   0  0  0  0  0  0
  -27.9344  -11.2592   18.9887 H   0  0  0  0  0  0
  -27.3793  -12.4186   17.8141 H   0  0  0  0  0  0
  -27.5743  -14.2352   19.3981 H   0  0  0  0  0  0
  -28.7668  -12.3292   21.4642 H   0  0  0  0  0  0
  -28.3894  -14.0206   21.7157 H   0  0  0  0  0  0
  -25.2735   -9.5707   22.4800 H   0  0  0  0  0  0
  -23.9996   -7.4638   22.7476 H   0  0  0  0  0  0
  -21.0833   -8.8744   19.8963 H   0  0  0  0  0  0
  -22.3647  -10.9676   19.6197 H   0  0  0  0  0  0
  -21.2022   -7.6149   23.9718 H   0  0  0  0  0  0
  -21.1476   -6.0525   25.9072 H   0  0  0  0  0  0
  -22.0604   -2.7617   23.2847 H   0  0  0  0  0  0
  -22.4018  -11.9906   22.4860 H   0  0  0  0  0  0
  -21.1031  -13.1264   22.2621 H   0  0  0  0  0  0
  -24.6356  -15.8390   20.5101 H   0  0  0  0  0  0
  -26.2623  -15.6405   20.0947 H   0  0  0  0  0  0
  -26.7259  -32.5322   23.1028 H   0  0  0  0  0  0
  -25.0072  -33.9637   25.0348 H   0  0  0  0  0  0
  -22.7484  -31.2917   21.3802 H   0  0  0  0  0  0
  -23.3775  -35.9554   23.3234 H   0  0  0  0  0  0
  -24.3593  -36.8951   22.2070 H   0  0  0  0  0  0
  -23.7193  -37.6413   23.6712 H   0  0  0  0  0  0
  -26.1571  -31.4774   20.6188 H   0  0  0  0  0  0
  -26.8701  -30.7713   22.0342 H   0  0  0  0  0  0
  -28.1165  -28.7973   21.2753 H   0  0  0  0  0  0
  -25.9376  -25.8791   18.9493 H   0  0  0  0  0  0
  -23.9974  -27.3176   18.9487 H   0  0  0  0  0  0
  -23.8076  -30.5739   19.3971 H   0  0  0  0  0  0
  -22.7890  -29.2369   19.8423 H   0  0  0  0  0  0
  -25.1289  -36.1864   25.0811 H   0  0  0  0  0  0
  -21.0028  -28.3323   24.1348 H   0  0  0  0  0  0
  -20.5711  -26.2343   23.3616 H   0  0  0  0  0  0
  -21.6656  -26.7450   22.1175 H   0  0  0  0  0  0
  -19.6917  -25.6287   21.1270 H   0  0  0  0  0  0
  -19.6694  -27.3182   20.6734 H   0  0  0  0  0  0
  -17.4212  -26.6687   21.4048 H   0  0  0  0  0  0
  -18.0346  -26.0091   22.9044 H   0  0  0  0  0  0
  -19.7952  -30.7310   24.2232 H   0  0  0  0  0  0
  -17.5025  -31.6283   24.5166 H   0  0  0  0  0  0
  -15.5362  -30.2992   23.7669 H   0  0  0  0  0  0
  -15.8695  -28.0821   22.7090 H   0  0  0  0  0  0
  -24.5773  -30.7302   25.7716 H   0  0  0  0  0  0
  -24.9073  -32.2981   26.4978 H   0  0  0  0  0  0
  -25.7963  -30.8786   27.0159 H   0  0  0  0  0  0
  -26.3001  -29.6694   24.1310 H   0  0  0  0  0  0
  -27.3987  -29.7274   25.4887 H   0  0  0  0  0  0
  -27.8916  -30.4210   23.9641 H   0  0  0  0  0  0
  -27.2648  -33.3637   26.2080 H   0  0  0  0  0  0
  -28.3860  -32.6929   25.0327 H   0  0  0  0  0  0
  -28.0753  -31.8487   26.5420 H   0  0  0  0  0  0
  -28.2529  -38.0138   24.7604 H   0  0  0  0  0  0
  -28.1161  -36.2669   24.6133 H   0  0  0  0  0  0
  -27.2328  -37.1230   25.8858 H   0  0  0  0  0  0
  -20.9457  -29.8752   21.6767 H   0  0  0  0  0  0
  -26.0134  -38.2811   24.1505 H   0  0  0  0  0  0
  -29.5883  -17.9179   22.3273 H   0  0  0  0  0  0
  -29.1726  -20.3699   22.2218 H   0  0  0  0  0  0
  -29.2973  -20.1912   17.9472 H   0  0  0  0  0  0
  -30.7590  -17.6383   17.3551 H   0  0  0  0  0  0
  -29.0131  -17.6133   17.0724 H   0  0  0  0  0  0
  -30.5220  -15.4117   17.9236 H   0  0  0  0  0  0
  -28.7820  -15.5626   18.1225 H   0  0  0  0  0  0
  -27.0119  -24.4384   20.0517 H   0  0  0  0  0  0
  -28.2747  -24.6075   18.8849 H   0  0  0  0  0  0
  -28.3079  -23.0501   21.5499 H   0  0  0  0  0  0
  -29.8254  -23.5266   20.8662 H   0  0  0  0  0  0
  1 25  1  0  0  0
  1 30  2  0  0  0
  1 81  1  0  0  0
  2  3  1  0  0  0
  2 25  1  0  0  0
  2 83  1  0  0  0
  2 84  1  0  0  0
  3  4  1  0  0  0
  3 85  1  0  0  0
  3 86  1  0  0  0
  4  5  1  0  0  0
  4 87  1  0  0  0
  4 88  1  0  0  0
  5  6  1  0  0  0
  5 26  1  0  0  0
  5 89  1  0  0  0
  6 25  1  0  0  0
  6 90  1  0  0  0
  6 91  1  0  0  0
  7  8  2  0  0  0
  7 26  1  0  0  0
  7 29  1  0  0  0
  8  9  1  0  0  0
  8 22  1  0  0  0
  9 10  1  0  0  0
  9 27  2  0  0  0
 10 11  2  0  0  0
 10 15  1  0  0  0
 11 12  1  0  0  0
 11 92  1  0  0  0
 12 13  2  0  0  0
 12 93  1  0  0  0
 13 14  1  0  0  0
 13 31  1  0  0  0
 14 15  2  0  0  0
 14 94  1  0  0  0
 15 95  1  0  0  0
 16 17  2  0  0  0
 16 21  1  0  0  0
 16 31  1  0  0  0
 17 18  1  0  0  0
 17 96  1  0  0  0
 18 19  2  0  0  0
 18 97  1  0  0  0
 19 20  1  0  0  0
 19 24  1  0  0  0
 20 21  2  0  0  0
 20 98  1  0  0  0
 21 23  1  0  0  0
 22 28  1  0  0  0
 22 32  2  0  0  0
 26 27  1  0  0  0
 28 99  1  0  0  0
 28100  1  0  0  0
 29101  1  0  0  0
 29102  1  0  0  0
 33 34  1  0  0  0
 33 66  1  0  0  0
 33 70  2  0  0  0
 34 36  1  0  0  0
 34 59  1  0  0  0
 34103  1  0  0  0
 35 44  2  0  0  0
 35 45  1  0  0  0
 35 68  1  0  0  0
 36 56  1  0  0  0
 36104  1  0  0  0
 37 39  1  0  0  0
 37 47  1  0  0  0
 37 66  1  0  0  0
 37105  1  0  0  0
 38 43  2  0  0  0
 38 46  1  0  0  0
 38 47  1  0  0  0
 39 64  1  0  0  0
 39 67  2  0  0  0
 40 52  1  0  0  0
 40 53  2  0  0  0
 40 58  1  0  0  0
 41106  1  0  0  0
 41107  1  0  0  0
 41108  1  0  0  0
 41 48  1  0  0  0
 42 43  1  0  0  0
 42 66  1  0  0  0
 42109  1  0  0  0
 42110  1  0  0  0
 43 44  1  0  0  0
 44111  1  0  0  0
 45 46  2  0  0  0
 45112  1  0  0  0
 46113  1  0  0  0
 47114  1  0  0  0
 47115  1  0  0  0
 48 56  1  0  0  0
 48 65  1  0  0  0
 48116  1  0  0  0
 49 50  1  0  0  0
 49 53  1  0  0  0
 49 64  1  0  0  0
 49117  1  0  0  0
 50 51  1  0  0  0
 50118  1  0  0  0
 50119  1  0  0  0
 51 52  1  0  0  0
 51120  1  0  0  0
 51121  1  0  0  0
 52122  1  0  0  0
 52123  1  0  0  0
 53 54  1  0  0  0
 54 55  2  0  0  0
 54124  1  0  0  0
 55 57  1  0  0  0
 55125  1  0  0  0
 56 69  2  0  0  0
 57 58  2  0  0  0
 57126  1  0  0  0
 58127  1  0  0  0
 59 60  1  0  0  0
 59 61  1  0  0  0
 59 62  1  0  0  0
 60128  1  0  0  0
 60129  1  0  0  0
 60130  1  0  0  0
 61131  1  0  0  0
 61132  1  0  0  0
 61133  1  0  0  0
 62134  1  0  0  0
 62135  1  0  0  0
 62136  1  0  0  0
 63 65  1  0  0  0
 63137  1  0  0  0
 63138  1  0  0  0
 63139  1  0  0  0
 64140  1  0  0  0
 65141  1  0  0  0
 68 79  1  0  0  0
 71 72  2  0  0  0
 71 75  1  0  0  0
 71142  1  0  0  0
 72 76  1  0  0  0
 72143  1  0  0  0
 73 74  1  0  0  0
 73 76  2  0  0  0
 73144  1  0  0  0
 74 75  2  0  0  0
 74 77  1  0  0  0
 75 81  1  0  0  0
 76 82  1  0  0  0
 77 78  1  0  0  0
 77145  1  0  0  0
 77146  1  0  0  0
 78 81  1  0  0  0
 78147  1  0  0  0
 78148  1  0  0  0
 79 80  1  0  0  0
 79149  1  0  0  0
 79150  1  0  0  0
 80 82  1  0  0  0
 80151  1  0  0  0
 80152  1  0  0  0
M  ISO  4   1 100  68 101  79 101  81 100
M  END
> <chiral flag>
0

> <version>
0

> <s_m_source_file>
/data/baiqing/PycharmProjects/Reinvent-master-3.2/result/LINK_invent/BTK/process_docking_weight1_custom_product_contain_oxygen_bond_distance_aromatic_linkinvent_7_9_3/rearranged_h_0011.sdf

> <i_m_source_file_index>
22

> <r_mmod_Potential_Energy-OPLS-2005>
738.014099121094

> <r_mmod_Stretch_Energy-OPLS-2005>
222.558502197266

> <r_mmod_Bend_Energy-OPLS-2005>
359.635498046875

> <r_mmod_Torsional_Energy-OPLS-2005>
306.408905029297

> <r_mmod_Improper_Torsional_Energy-OPLS-2005>
27.2483196258545

> <r_mmod_Van_der_Waal_Energy-OPLS-2005>
130.199188232422

> <r_mmod_Electrostatic_Energy-OPLS-2005>
-301.169494628906

> <r_mmod_Solvation_Energy-OPLS-2005>
-201.065368652344

> <b_mmod_Minimization_Converged-OPLS-2005>
0

> <r_mmod_RMS_Derivative-OPLS-2005>
2.0503032207489

$$$$
22
                    3D
 Structure written by MMmdl.
155164  0  0  1  0            999 V2000
  -30.5508  -14.6477   20.5284 C   0  0  0  0  0  0
  -30.4495  -12.4033   19.4457 C   0  0  0  0  0  0
  -29.5062  -12.5081   18.2256 C   0  0  0  0  0  0
  -28.0311  -12.3367   18.6382 C   0  0  0  0  0  0
  -27.6525  -13.1967   19.8697 C   0  0  2  0  0  0
  -28.6932  -13.0105   20.9958 C   0  0  0  0  0  0
  -25.2537  -13.8092   20.5633 C   0  0  0  0  0  0
  -24.1825  -13.0380   20.9227 C   0  0  0  0  0  0
  -24.6378  -11.6859   20.8746 C   0  0  0  0  0  0
  -23.9046  -10.4258   21.0421 C   0  0  0  0  0  0
  -24.3612   -9.4179   21.9201 C   0  0  0  0  0  0
  -23.6270   -8.2221   22.0773 C   0  0  0  0  0  0
  -22.4261   -8.0266   21.3538 C   0  0  0  0  0  0
  -21.9901   -9.0248   20.4655 C   0  0  0  0  0  0
  -22.7233  -10.2117   20.3063 C   0  0  0  0  0  0
  -21.6844   -6.0728   22.5280 C   0  0  0  0  0  0
  -21.4016   -6.5638   23.8210 C   0  0  0  0  0  0
  -21.3644   -5.6799   24.9179 C   0  0  0  0  0  0
  -21.6041   -4.3058   24.7244 C   0  0  0  0  0  0
  -21.8814   -3.8144   23.4362 C   0  0  0  0  0  0
  -21.9193   -4.6959   22.3408 C   0  0  0  0  0  0
  -22.7851  -13.5198   21.1871 C   0  0  0  0  0  0
  -22.1661   -4.2143   21.0974 F   0  0  0  0  0  0
  -21.5628   -3.4540   25.7770 F   0  0  0  0  0  0
  -30.0042  -13.3931   20.4486 N   0  0  0  0  0  0
  -26.2965  -12.9240   20.3314 N   0  0  0  0  0  0
  -25.9289  -11.6432   20.5760 N   0  0  0  0  0  0
  -22.0486  -12.8194   22.0427 N   0  0  0  0  0  0
  -25.4163  -15.1780   20.3893 N   0  0  0  0  0  0
  -31.6989  -14.8760   20.1285 O   0  0  0  0  0  0
  -21.6602   -6.8879   21.4257 O   0  0  0  0  0  0
  -22.3547  -14.5492   20.6706 O   0  0  0  0  0  0
  -24.6269  -31.8605   23.2065 C   0  0  0  0  0  0
  -25.9123  -32.4779   23.8346 C   0  0  1  0  0  0
  -27.1575  -27.2795   20.1220 C   0  0  0  0  0  0
  -25.5941  -33.8574   24.2277 N   0  0  0  0  0  0
  -23.4154  -30.4964   21.5496 C   0  0  2  0  0  0
  -24.8540  -28.9697   20.0920 C   0  0  0  0  0  0
  -22.7452  -29.4622   22.4871 C   0  0  0  0  0  0
  -18.0273  -28.1367   22.8408 C   0  0  0  0  0  0
  -24.1484  -36.7313   23.2625 C   0  0  0  0  0  0
  -25.9607  -30.7806   21.3833 C   0  0  0  0  0  0
  -26.0252  -29.4080   20.7247 C   0  0  0  0  0  0
  -27.1838  -28.5719   20.7425 C   0  0  0  0  0  0
  -25.9951  -26.9481   19.3951 C   0  0  0  0  0  0
  -24.8445  -27.7469   19.4119 C   0  0  0  0  0  0
  -23.6299  -29.8594   20.1538 C   0  0  0  0  0  0
  -25.4102  -36.3083   24.0323 C   0  0  1  0  0  0
  -20.5865  -28.3663   23.1252 C   0  0  2  0  0  0
  -20.6761  -26.9387   22.5398 C   0  0  0  0  0  0
  -19.5777  -26.6345   21.5179 C   0  0  0  0  0  0
  -18.1931  -26.7898   22.1552 C   0  0  0  0  0  0
  -19.1523  -28.8824   23.2805 C   0  0  0  0  0  0
  -18.9489  -30.1419   23.8853 C   0  0  0  0  0  0
  -17.6500  -30.6571   24.0536 C   0  0  0  0  0  0
  -25.9036  -34.9453   23.5102 C   0  0  0  0  0  0
  -16.5375  -29.9085   23.6311 C   0  0  0  0  0  0
  -16.7274  -28.6505   23.0305 C   0  0  0  0  0  0
  -26.4503  -31.6578   25.0708 C   0  0  0  0  0  0
  -25.3712  -31.3804   26.1437 C   0  0  0  0  0  0
  -27.0286  -30.2957   24.6173 C   0  0  0  0  0  0
  -27.6095  -32.4264   25.7459 C   0  0  0  0  0  0
  -27.5583  -37.1775   24.8420 C   0  0  0  0  0  0
  -21.4151  -29.3051   22.3661 N   0  0  0  0  0  0
  -26.4264  -37.3795   23.9425 N   0  0  0  0  0  0
  -24.6870  -31.0603   22.1036 N   0  0  0  0  0  0
  -23.4189  -28.8080   23.2876 O   0  0  0  0  0  0
  -28.1901  -26.3324   20.2222 O   0  0  0  0  0  0
  -26.5602  -34.8937   22.4659 O   0  0  0  0  0  0
  -23.5437  -32.1452   23.7400 O   0  0  0  0  0  0
  -28.0562  -18.9867   20.0982 C   0  0  0  0  0  0
  -30.4082  -19.3726   20.3895 C   0  0  0  0  0  0
  -28.2583  -17.6044   20.3950 C   0  0  0  0  0  0
  -30.6189  -17.9845   20.6658 C   0  0  0  0  0  0
  -29.1330  -19.9098   20.0616 C   0  0  0  0  0  0
  -29.5482  -17.0522   20.6488 C   0  0  0  0  0  0
  -28.5007  -23.8346   19.5261 C   0  0  0  0  0  0
  -27.8903  -24.2261   21.7792 C   0  0  0  0  0  0
  -28.0529  -22.6980   21.4915 C   0  0  0  0  0  0
  -27.7726  -24.8956   20.3973 C   0  0  1  0  0  0
  -28.9967  -21.3394   19.4146 C   0  0  0  0  0  0
  -28.5533  -22.6047   20.1181 N   0  0  0  0  0  0
  -29.6772  -15.6234   20.9451 N   0  0  0  0  0  0
  -28.9159  -24.0868   18.3919 O   0  0  0  0  0  0
  -31.4823  -12.5671   19.1363 H   0  0  0  0  0  0
  -30.4238  -11.3998   19.8717 H   0  0  0  0  0  0
  -29.7723  -11.7584   17.4795 H   0  0  0  0  0  0
  -29.6380  -13.4777   17.7436 H   0  0  0  0  0  0
  -27.8738  -11.2825   18.8678 H   0  0  0  0  0  0
  -27.3764  -12.5700   17.7995 H   0  0  0  0  0  0
  -27.6836  -14.2348   19.5465 H   0  0  0  0  0  0
  -28.7167  -11.9701   21.3228 H   0  0  0  0  0  0
  -28.4368  -13.5872   21.8862 H   0  0  0  0  0  0
  -25.2763   -9.5636   22.4788 H   0  0  0  0  0  0
  -23.9979   -7.4611   22.7488 H   0  0  0  0  0  0
  -21.0847   -8.8760   19.8953 H   0  0  0  0  0  0
  -22.3697  -10.9668   19.6175 H   0  0  0  0  0  0
  -21.2002   -7.6153   23.9721 H   0  0  0  0  0  0
  -21.1471   -6.0526   25.9078 H   0  0  0  0  0  0
  -22.0604   -2.7611   23.2875 H   0  0  0  0  0  0
  -22.4095  -11.9816   22.4751 H   0  0  0  0  0  0
  -21.1112  -13.1223   22.2666 H   0  0  0  0  0  0
  -24.6298  -15.8147   20.4608 H   0  0  0  0  0  0
  -26.2028  -15.5748   19.8923 H   0  0  0  0  0  0
  -26.7187  -32.5446   23.1076 H   0  0  0  0  0  0
  -25.0048  -33.9689   25.0403 H   0  0  0  0  0  0
  -22.7066  -31.3180   21.4186 H   0  0  0  0  0  0
  -23.3782  -35.9591   23.3164 H   0  0  0  0  0  0
  -24.3624  -36.9094   22.2066 H   0  0  0  0  0  0
  -23.7169  -37.6443   23.6767 H   0  0  0  0  0  0
  -26.0831  -31.5394   20.6104 H   0  0  0  0  0  0
  -26.8459  -30.8366   22.0050 H   0  0  0  0  0  0
  -28.0675  -28.8816   21.2826 H   0  0  0  0  0  0
  -25.9371  -26.0453   18.8051 H   0  0  0  0  0  0
  -23.9604  -27.4316   18.8784 H   0  0  0  0  0  0
  -23.7551  -30.6517   19.4158 H   0  0  0  0  0  0
  -22.7415  -29.3093   19.8386 H   0  0  0  0  0  0
  -25.1253  -36.1931   25.0799 H   0  0  0  0  0  0
  -20.9931  -28.3291   24.1387 H   0  0  0  0  0  0
  -20.5676  -26.2264   23.3585 H   0  0  0  0  0  0
  -21.6646  -26.7411   22.1243 H   0  0  0  0  0  0
  -19.6960  -25.6251   21.1240 H   0  0  0  0  0  0
  -19.6765  -27.3110   20.6673 H   0  0  0  0  0  0
  -17.4190  -26.6581   21.3960 H   0  0  0  0  0  0
  -18.0359  -26.0045   22.8951 H   0  0  0  0  0  0
  -19.7989  -30.7183   24.2253 H   0  0  0  0  0  0
  -17.5099  -31.6271   24.5110 H   0  0  0  0  0  0
  -15.5415  -30.3000   23.7690 H   0  0  0  0  0  0
  -15.8631  -28.0883   22.7033 H   0  0  0  0  0  0
  -24.5847  -30.7173   25.7800 H   0  0  0  0  0  0
  -24.8936  -32.3008   26.4791 H   0  0  0  0  0  0
  -25.7988  -30.9014   27.0248 H   0  0  0  0  0  0
  -26.2823  -29.6698   24.1231 H   0  0  0  0  0  0
  -27.3987  -29.7221   25.4679 H   0  0  0  0  0  0
  -27.8719  -30.4177   23.9369 H   0  0  0  0  0  0
  -27.2846  -33.3723   26.1814 H   0  0  0  0  0  0
  -28.4053  -32.6515   25.0344 H   0  0  0  0  0  0
  -28.0556  -31.8441   26.5547 H   0  0  0  0  0  0
  -28.2506  -38.0162   24.7620 H   0  0  0  0  0  0
  -28.1204  -36.2697   24.6085 H   0  0  0  0  0  0
  -27.2323  -37.1250   25.8827 H   0  0  0  0  0  0
  -20.9300  -29.8888   21.6976 H   0  0  0  0  0  0
  -26.0145  -38.2842   24.1580 H   0  0  0  0  0  0
  -27.0630  -19.3226   19.8313 H   0  0  0  0  0  0
  -31.2640  -20.0316   20.3743 H   0  0  0  0  0  0
  -27.3933  -16.9598   20.3795 H   0  0  0  0  0  0
  -31.6216  -17.6412   20.8835 H   0  0  0  0  0  0
  -28.7533  -24.6126   22.3209 H   0  0  0  0  0  0
  -27.0063  -24.4154   22.3902 H   0  0  0  0  0  0
  -27.0895  -22.1851   21.5700 H   0  0  0  0  0  0
  -28.7429  -22.2220   22.1912 H   0  0  0  0  0  0
  -26.7273  -24.7394   20.1481 H   0  0  0  0  0  0
  -28.3315  -21.2100   18.5548 H   0  0  0  0  0  0
  -29.9657  -21.5676   18.9606 H   0  0  0  0  0  0
  -28.8272  -15.2070   21.2911 H   0  0  0  0  0  0
  1 25  1  0  0  0
  1 30  2  0  0  0
  1 83  1  0  0  0
  2  3  1  0  0  0
  2 25  1  0  0  0
  2 85  1  0  0  0
  2 86  1  0  0  0
  3  4  1  0  0  0
  3 87  1  0  0  0
  3 88  1  0  0  0
  4  5  1  0  0  0
  4 89  1  0  0  0
  4 90  1  0  0  0
  5  6  1  0  0  0
  5 26  1  0  0  0
  5 91  1  0  0  0
  6 25  1  0  0  0
  6 92  1  0  0  0
  6 93  1  0  0  0
  7  8  2  0  0  0
  7 26  1  0  0  0
  7 29  1  0  0  0
  8  9  1  0  0  0
  8 22  1  0  0  0
  9 10  1  0  0  0
  9 27  2  0  0  0
 10 11  2  0  0  0
 10 15  1  0  0  0
 11 12  1  0  0  0
 11 94  1  0  0  0
 12 13  2  0  0  0
 12 95  1  0  0  0
 13 14  1  0  0  0
 13 31  1  0  0  0
 14 15  2  0  0  0
 14 96  1  0  0  0
 15 97  1  0  0  0
 16 17  2  0  0  0
 16 21  1  0  0  0
 16 31  1  0  0  0
 17 18  1  0  0  0
 17 98  1  0  0  0
 18 19  2  0  0  0
 18 99  1  0  0  0
 19 20  1  0  0  0
 19 24  1  0  0  0
 20 21  2  0  0  0
 20100  1  0  0  0
 21 23  1  0  0  0
 22 28  1  0  0  0
 22 32  2  0  0  0
 26 27  1  0  0  0
 28101  1  0  0  0
 28102  1  0  0  0
 29103  1  0  0  0
 29104  1  0  0  0
 33 34  1  0  0  0
 33 66  1  0  0  0
 33 70  2  0  0  0
 34 36  1  0  0  0
 34 59  1  0  0  0
 34105  1  0  0  0
 35 44  2  0  0  0
 35 45  1  0  0  0
 35 68  1  0  0  0
 36 56  1  0  0  0
 36106  1  0  0  0
 37 39  1  0  0  0
 37 47  1  0  0  0
 37 66  1  0  0  0
 37107  1  0  0  0
 38 43  2  0  0  0
 38 46  1  0  0  0
 38 47  1  0  0  0
 39 64  1  0  0  0
 39 67  2  0  0  0
 40 52  1  0  0  0
 40 53  2  0  0  0
 40 58  1  0  0  0
 41108  1  0  0  0
 41109  1  0  0  0
 41110  1  0  0  0
 41 48  1  0  0  0
 42 43  1  0  0  0
 42 66  1  0  0  0
 42111  1  0  0  0
 42112  1  0  0  0
 43 44  1  0  0  0
 44113  1  0  0  0
 45 46  2  0  0  0
 45114  1  0  0  0
 46115  1  0  0  0
 47116  1  0  0  0
 47117  1  0  0  0
 48 56  1  0  0  0
 48 65  1  0  0  0
 48118  1  0  0  0
 49 50  1  0  0  0
 49 53  1  0  0  0
 49 64  1  0  0  0
 49119  1  0  0  0
 50 51  1  0  0  0
 50120  1  0  0  0
 50121  1  0  0  0
 51 52  1  0  0  0
 51122  1  0  0  0
 51123  1  0  0  0
 52124  1  0  0  0
 52125  1  0  0  0
 53 54  1  0  0  0
 54 55  2  0  0  0
 54126  1  0  0  0
 55 57  1  0  0  0
 55127  1  0  0  0
 56 69  2  0  0  0
 57 58  2  0  0  0
 57128  1  0  0  0
 58129  1  0  0  0
 59 60  1  0  0  0
 59 61  1  0  0  0
 59 62  1  0  0  0
 60130  1  0  0  0
 60131  1  0  0  0
 60132  1  0  0  0
 61133  1  0  0  0
 61134  1  0  0  0
 61135  1  0  0  0
 62136  1  0  0  0
 62137  1  0  0  0
 62138  1  0  0  0
 63 65  1  0  0  0
 63139  1  0  0  0
 63140  1  0  0  0
 63141  1  0  0  0
 64142  1  0  0  0
 65143  1  0  0  0
 68 80  1  0  0  0
 71 73  2  0  0  0
 71 75  1  0  0  0
 71144  1  0  0  0
 72 74  1  0  0  0
 72 75  2  0  0  0
 72145  1  0  0  0
 73 76  1  0  0  0
 73146  1  0  0  0
 74 76  2  0  0  0
 74147  1  0  0  0
 75 81  1  0  0  0
 76 83  1  0  0  0
 77 80  1  0  0  0
 77 82  1  0  0  0
 77 84  2  0  0  0
 78 79  1  0  0  0
 78 80  1  0  0  0
 78148  1  0  0  0
 78149  1  0  0  0
 79 82  1  0  0  0
 79150  1  0  0  0
 79151  1  0  0  0
 80152  1  0  0  0
 81 82  1  0  0  0
 81153  1  0  0  0
 81154  1  0  0  0
 83155  1  0  0  0
M  ISO  4   1 100  68 101  80 101  83 100
M  END
> <chiral flag>
0

> <version>
0

> <s_m_source_file>
/data/baiqing/PycharmProjects/Reinvent-master-3.2/result/LINK_invent/BTK/process_docking_weight1_custom_product_contain_oxygen_bond_distance_aromatic_linkinvent_7_9_3/rearranged_h_0011.sdf

> <i_m_source_file_index>
23

> <r_mmod_Potential_Energy-OPLS-2005>
180.226959228516

> <r_mmod_Stretch_Energy-OPLS-2005>
82.5121765136719

> <r_mmod_Bend_Energy-OPLS-2005>
182.966415405273

> <r_mmod_Torsional_Energy-OPLS-2005>
274.786285400391

> <r_mmod_Improper_Torsional_Energy-OPLS-2005>
8.02795314788818

> <r_mmod_Van_der_Waal_Energy-OPLS-2005>
141.610763549805

> <r_mmod_Electrostatic_Energy-OPLS-2005>
-348.881744384766

> <r_mmod_Solvation_Energy-OPLS-2005>
-236.630828857422

> <b_mmod_Minimization_Converged-OPLS-2005>
0

> <r_mmod_RMS_Derivative-OPLS-2005>
5.5366997718811

$$$$
23
                    3D
 Structure written by MMmdl.
148156  0  0  1  0            999 V2000
  -30.5089  -14.9122   20.4351 C   0  0  0  0  0  0
  -30.4555  -12.5616   19.4901 C   0  0  0  0  0  0
  -29.5264  -12.5317   18.2520 C   0  0  0  0  0  0
  -28.0565  -12.3206   18.6662 C   0  0  0  0  0  0
  -27.6389  -13.2354   19.8464 C   0  0  2  0  0  0
  -28.6835  -13.2119   20.9840 C   0  0  0  0  0  0
  -25.2500  -13.8182   20.5681 C   0  0  0  0  0  0
  -24.1806  -13.0431   20.9230 C   0  0  0  0  0  0
  -24.6402  -11.6911   20.8760 C   0  0  0  0  0  0
  -23.9076  -10.4289   21.0416 C   0  0  0  0  0  0
  -24.3624   -9.4201   21.9190 C   0  0  0  0  0  0
  -23.6294   -8.2240   22.0758 C   0  0  0  0  0  0
  -22.4276   -8.0282   21.3547 C   0  0  0  0  0  0
  -21.9915   -9.0259   20.4652 C   0  0  0  0  0  0
  -22.7249  -10.2135   20.3063 C   0  0  0  0  0  0
  -21.6853   -6.0736   22.5279 C   0  0  0  0  0  0
  -21.4015   -6.5640   23.8212 C   0  0  0  0  0  0
  -21.3659   -5.6793   24.9175 C   0  0  0  0  0  0
  -21.6044   -4.3056   24.7225 C   0  0  0  0  0  0
  -21.8818   -3.8147   23.4347 C   0  0  0  0  0  0
  -21.9192   -4.6963   22.3402 C   0  0  0  0  0  0
  -22.7826  -13.5218   21.1880 C   0  0  0  0  0  0
  -22.1661   -4.2149   21.0979 F   0  0  0  0  0  0
  -21.5626   -3.4539   25.7738 F   0  0  0  0  0  0
  -29.9682  -13.6307   20.4025 N   0  0  0  0  0  0
  -26.2925  -12.9392   20.3247 N   0  0  0  0  0  0
  -25.9332  -11.6537   20.5742 N   0  0  0  0  0  0
  -22.0465  -12.8213   22.0434 N   0  0  0  0  0  0
  -25.4162  -15.1901   20.4026 N   0  0  0  0  0  0
  -31.6970  -15.0562   20.1234 O   0  0  0  0  0  0
  -21.6639   -6.8881   21.4242 O   0  0  0  0  0  0
  -22.3518  -14.5520   20.6717 O   0  0  0  0  0  0
  -24.6422  -31.8456   23.1895 C   0  0  0  0  0  0
  -25.9199  -32.4704   23.8282 C   0  0  1  0  0  0
  -27.2214  -27.1519   20.1469 C   0  0  0  0  0  0
  -25.5952  -33.8509   24.2201 N   0  0  0  0  0  0
  -23.4453  -30.4654   21.5351 C   0  0  2  0  0  0
  -24.8953  -28.8959   20.1105 C   0  0  0  0  0  0
  -22.7562  -29.4552   22.4864 C   0  0  0  0  0  0
  -18.0305  -28.1392   22.8480 C   0  0  0  0  0  0
  -24.1492  -36.7261   23.2642 C   0  0  0  0  0  0
  -26.0006  -30.7245   21.3860 C   0  0  0  0  0  0
  -26.0728  -29.3373   20.7273 C   0  0  0  0  0  0
  -27.2369  -28.4820   20.7280 C   0  0  0  0  0  0
  -26.0152  -26.8096   19.4937 C   0  0  0  0  0  0
  -24.8787  -27.6448   19.4786 C   0  0  0  0  0  0
  -23.6712  -29.7962   20.1539 C   0  0  0  0  0  0
  -25.4122  -36.3038   24.0318 C   0  0  1  0  0  0
  -20.5917  -28.3717   23.1239 C   0  0  2  0  0  0
  -20.6789  -26.9422   22.5403 C   0  0  0  0  0  0
  -19.5760  -26.6380   21.5213 C   0  0  0  0  0  0
  -18.1944  -26.7931   22.1628 C   0  0  0  0  0  0
  -19.1562  -28.8873   23.2853 C   0  0  0  0  0  0
  -18.9477  -30.1469   23.8878 C   0  0  0  0  0  0
  -17.6473  -30.6589   24.0558 C   0  0  0  0  0  0
  -25.9071  -34.9412   23.5068 C   0  0  0  0  0  0
  -16.5365  -29.9082   23.6333 C   0  0  0  0  0  0
  -16.7289  -28.6500   23.0357 C   0  0  0  0  0  0
  -26.4522  -31.6564   25.0716 C   0  0  0  0  0  0
  -25.3712  -31.3749   26.1414 C   0  0  0  0  0  0
  -27.0385  -30.2963   24.6283 C   0  0  0  0  0  0
  -27.6053  -32.4328   25.7502 C   0  0  0  0  0  0
  -27.5575  -37.1788   24.8465 C   0  0  0  0  0  0
  -21.4255  -29.3048   22.3615 N   0  0  0  0  0  0
  -26.4286  -37.3749   23.9408 N   0  0  0  0  0  0
  -24.7158  -31.0325   22.0923 N   0  0  0  0  0  0
  -23.4210  -28.8096   23.3008 O   0  0  0  0  0  0
  -28.2796  -26.1752   20.2158 O   0  0  0  0  0  0
  -26.5655  -34.8906   22.4645 O   0  0  0  0  0  0
  -23.5543  -32.1325   23.7122 O   0  0  0  0  0  0
  -30.4979  -18.5502   20.3681 C   0  0  0  0  0  0
  -30.1918  -19.9876   20.3030 C   0  0  0  0  0  0
  -28.2013  -18.0915   20.6159 C   0  0  0  0  0  0
  -29.5058  -17.5125   20.5303 C   0  0  0  0  0  0
  -28.8604  -20.5427   20.3787 C   0  0  0  0  0  0
  -27.8953  -19.4982   20.5370 C   0  0  0  0  0  0
  -27.9814  -24.6559   20.0800 C   0  0  0  0  0  0
  -28.9666  -23.3090   20.3181 C   0  0  0  0  0  0
  -29.6181  -15.9877   20.6567 N   0  0  0  0  0  0
  -28.3436  -21.9122   20.2867 O   0  0  0  0  0  0
  -26.5907  -19.8568   20.6201 F   0  0  0  0  0  0
  -31.4867  -12.7370   19.1791 H   0  0  0  0  0  0
  -30.4561  -11.5962   19.9987 H   0  0  0  0  0  0
  -29.8377  -11.7454   17.5632 H   0  0  0  0  0  0
  -29.6191  -13.4710   17.7045 H   0  0  0  0  0  0
  -27.9424  -11.2750   18.9545 H   0  0  0  0  0  0
  -27.3955  -12.4747   17.8124 H   0  0  0  0  0  0
  -27.6160  -14.2467   19.4405 H   0  0  0  0  0  0
  -28.7608  -12.2155   21.4218 H   0  0  0  0  0  0
  -28.3869  -13.8773   21.7964 H   0  0  0  0  0  0
  -25.2769   -9.5672   22.4767 H   0  0  0  0  0  0
  -24.0000   -7.4629   22.7477 H   0  0  0  0  0  0
  -21.0844   -8.8784   19.8957 H   0  0  0  0  0  0
  -22.3712  -10.9678   19.6174 H   0  0  0  0  0  0
  -21.2010   -7.6149   23.9716 H   0  0  0  0  0  0
  -21.1480   -6.0523   25.9077 H   0  0  0  0  0  0
  -22.0597   -2.7608   23.2848 H   0  0  0  0  0  0
  -22.4083  -11.9878   22.4830 H   0  0  0  0  0  0
  -21.1084  -13.1242   22.2641 H   0  0  0  0  0  0
  -24.6295  -15.8261   20.4770 H   0  0  0  0  0  0
  -26.2182  -15.6066   19.9499 H   0  0  0  0  0  0
  -26.7265  -32.5316   23.1014 H   0  0  0  0  0  0
  -25.0077  -33.9626   25.0333 H   0  0  0  0  0  0
  -22.7472  -31.2910   21.3818 H   0  0  0  0  0  0
  -23.3757  -35.9590   23.3292 H   0  0  0  0  0  0
  -24.3578  -36.8903   22.2059 H   0  0  0  0  0  0
  -23.7245  -37.6454   23.6684 H   0  0  0  0  0  0
  -26.1536  -31.4794   20.6136 H   0  0  0  0  0  0
  -26.8721  -30.7754   22.0269 H   0  0  0  0  0  0
  -28.1335  -28.8156   21.2313 H   0  0  0  0  0  0
  -25.9102  -25.8553   19.0018 H   0  0  0  0  0  0
  -23.9801  -27.3016   18.9846 H   0  0  0  0  0  0
  -23.8070  -30.5716   19.3992 H   0  0  0  0  0  0
  -22.7864  -29.2380   19.8427 H   0  0  0  0  0  0
  -25.1309  -36.1869   25.0810 H   0  0  0  0  0  0
  -21.0010  -28.3306   24.1360 H   0  0  0  0  0  0
  -20.5685  -26.2330   23.3621 H   0  0  0  0  0  0
  -21.6654  -26.7429   22.1199 H   0  0  0  0  0  0
  -19.6921  -25.6286   21.1255 H   0  0  0  0  0  0
  -19.6694  -27.3179   20.6734 H   0  0  0  0  0  0
  -17.4210  -26.6673   21.4035 H   0  0  0  0  0  0
  -18.0346  -26.0078   22.9030 H   0  0  0  0  0  0
  -19.7952  -30.7291   24.2241 H   0  0  0  0  0  0
  -17.5025  -31.6268   24.5163 H   0  0  0  0  0  0
  -15.5364  -30.2977   23.7663 H   0  0  0  0  0  0
  -15.8691  -28.0808   22.7085 H   0  0  0  0  0  0
  -24.5894  -30.7094   25.7734 H   0  0  0  0  0  0
  -24.8898  -32.2930   26.4792 H   0  0  0  0  0  0
  -25.7998  -30.8952   27.0222 H   0  0  0  0  0  0
  -26.2998  -29.6690   24.1281 H   0  0  0  0  0  0
  -27.3997  -29.7256   25.4848 H   0  0  0  0  0  0
  -27.8906  -30.4204   23.9597 H   0  0  0  0  0  0
  -27.2645  -33.3646   26.2028 H   0  0  0  0  0  0
  -28.3892  -32.6860   25.0352 H   0  0  0  0  0  0
  -28.0689  -31.8488   26.5463 H   0  0  0  0  0  0
  -28.2585  -38.0091   24.7510 H   0  0  0  0  0  0
  -28.1079  -36.2622   24.6295 H   0  0  0  0  0  0
  -27.2293  -37.1437   25.8868 H   0  0  0  0  0  0
  -20.9461  -29.8768   21.6802 H   0  0  0  0  0  0
  -26.0155  -38.2818   24.1409 H   0  0  0  0  0  0
  -31.5349  -18.2525   20.2974 H   0  0  0  0  0  0
  -31.0171  -20.6732   20.1773 H   0  0  0  0  0  0
  -27.3590  -17.4297   20.7477 H   0  0  0  0  0  0
  -27.1214  -24.4889   20.7294 H   0  0  0  0  0  0
  -27.6025  -24.5258   19.0670 H   0  0  0  0  0  0
  -29.4518  -23.4117   21.2888 H   0  0  0  0  0  0
  -29.7707  -23.3307   19.5826 H   0  0  0  0  0  0
  -28.7268  -15.5824   20.8973 H   0  0  0  0  0  0
  1 25  1  0  0  0
  1 30  2  0  0  0
  1 79  1  0  0  0
  2  3  1  0  0  0
  2 25  1  0  0  0
  2 82  1  0  0  0
  2 83  1  0  0  0
  3  4  1  0  0  0
  3 84  1  0  0  0
  3 85  1  0  0  0
  4  5  1  0  0  0
  4 86  1  0  0  0
  4 87  1  0  0  0
  5  6  1  0  0  0
  5 26  1  0  0  0
  5 88  1  0  0  0
  6 25  1  0  0  0
  6 89  1  0  0  0
  6 90  1  0  0  0
  7  8  2  0  0  0
  7 26  1  0  0  0
  7 29  1  0  0  0
  8  9  1  0  0  0
  8 22  1  0  0  0
  9 10  1  0  0  0
  9 27  2  0  0  0
 10 11  2  0  0  0
 10 15  1  0  0  0
 11 12  1  0  0  0
 11 91  1  0  0  0
 12 13  2  0  0  0
 12 92  1  0  0  0
 13 14  1  0  0  0
 13 31  1  0  0  0
 14 15  2  0  0  0
 14 93  1  0  0  0
 15 94  1  0  0  0
 16 17  2  0  0  0
 16 21  1  0  0  0
 16 31  1  0  0  0
 17 18  1  0  0  0
 17 95  1  0  0  0
 18 19  2  0  0  0
 18 96  1  0  0  0
 19 20  1  0  0  0
 19 24  1  0  0  0
 20 21  2  0  0  0
 20 97  1  0  0  0
 21 23  1  0  0  0
 22 28  1  0  0  0
 22 32  2  0  0  0
 26 27  1  0  0  0
 28 98  1  0  0  0
 28 99  1  0  0  0
 29100  1  0  0  0
 29101  1  0  0  0
 33 34  1  0  0  0
 33 66  1  0  0  0
 33 70  2  0  0  0
 34 36  1  0  0  0
 34 59  1  0  0  0
 34102  1  0  0  0
 35 44  2  0  0  0
 35 45  1  0  0  0
 35 68  1  0  0  0
 36 56  1  0  0  0
 36103  1  0  0  0
 37 39  1  0  0  0
 37 47  1  0  0  0
 37 66  1  0  0  0
 37104  1  0  0  0
 38 43  2  0  0  0
 38 46  1  0  0  0
 38 47  1  0  0  0
 39 64  1  0  0  0
 39 67  2  0  0  0
 40 52  1  0  0  0
 40 53  2  0  0  0
 40 58  1  0  0  0
 41105  1  0  0  0
 41106  1  0  0  0
 41107  1  0  0  0
 41 48  1  0  0  0
 42 43  1  0  0  0
 42 66  1  0  0  0
 42108  1  0  0  0
 42109  1  0  0  0
 43 44  1  0  0  0
 44110  1  0  0  0
 45 46  2  0  0  0
 45111  1  0  0  0
 46112  1  0  0  0
 47113  1  0  0  0
 47114  1  0  0  0
 48 56  1  0  0  0
 48 65  1  0  0  0
 48115  1  0  0  0
 49 50  1  0  0  0
 49 53  1  0  0  0
 49 64  1  0  0  0
 49116  1  0  0  0
 50 51  1  0  0  0
 50117  1  0  0  0
 50118  1  0  0  0
 51 52  1  0  0  0
 51119  1  0  0  0
 51120  1  0  0  0
 52121  1  0  0  0
 52122  1  0  0  0
 53 54  1  0  0  0
 54 55  2  0  0  0
 54123  1  0  0  0
 55 57  1  0  0  0
 55124  1  0  0  0
 56 69  2  0  0  0
 57 58  2  0  0  0
 57125  1  0  0  0
 58126  1  0  0  0
 59 60  1  0  0  0
 59 61  1  0  0  0
 59 62  1  0  0  0
 60127  1  0  0  0
 60128  1  0  0  0
 60129  1  0  0  0
 61130  1  0  0  0
 61131  1  0  0  0
 61132  1  0  0  0
 62133  1  0  0  0
 62134  1  0  0  0
 62135  1  0  0  0
 63 65  1  0  0  0
 63136  1  0  0  0
 63137  1  0  0  0
 63138  1  0  0  0
 64139  1  0  0  0
 65140  1  0  0  0
 68 77  1  0  0  0
 71 72  2  0  0  0
 71 74  1  0  0  0
 71141  1  0  0  0
 72 75  1  0  0  0
 72142  1  0  0  0
 73 74  2  0  0  0
 73 76  1  0  0  0
 73143  1  0  0  0
 74 79  1  0  0  0
 75 76  2  0  0  0
 75 80  1  0  0  0
 76 81  1  0  0  0
 77 78  1  0  0  0
 77144  1  0  0  0
 77145  1  0  0  0
 78 80  1  0  0  0
 78146  1  0  0  0
 78147  1  0  0  0
 79148  1  0  0  0
M  ISO  4   1 100  68 101  77 101  79 100
M  END
> <chiral flag>
0

> <version>
0

> <s_m_source_file>
/data/baiqing/PycharmProjects/Reinvent-master-3.2/result/LINK_invent/BTK/process_docking_weight1_custom_product_contain_oxygen_bond_distance_aromatic_linkinvent_7_9_3/rearranged_h_0011.sdf

> <i_m_source_file_index>
24

> <r_mmod_Potential_Energy-OPLS-2005>
491.091247558594

> <r_mmod_Stretch_Energy-OPLS-2005>
216.953765869141

> <r_mmod_Bend_Energy-OPLS-2005>
302.484619140625

> <r_mmod_Torsional_Energy-OPLS-2005>
212.021713256836

> <r_mmod_Improper_Torsional_Energy-OPLS-2005>
4.76716709136963

> <r_mmod_Van_der_Waal_Energy-OPLS-2005>
130.573699951172

> <r_mmod_Electrostatic_Energy-OPLS-2005>
-337.487060546875

> <r_mmod_Solvation_Energy-OPLS-2005>
-212.451721191406

> <b_mmod_Minimization_Converged-OPLS-2005>
0

> <r_mmod_RMS_Derivative-OPLS-2005>
0.366873770952225

$$$$
24
                    3D
 Structure written by MMmdl.
137144  0  0  1  0            999 V2000
  -29.9622  -16.5635   20.2664 C   0  0  0  0  0  0
  -30.3146  -13.7964   19.5233 C   0  0  0  0  0  0
  -29.5702  -12.9451   18.4142 C   0  0  0  0  0  0
  -28.2376  -12.3814   18.9086 C   0  0  0  0  0  0
  -27.5746  -13.4257   19.8177 C   0  0  2  0  0  0
  -28.5152  -14.1357   20.8613 C   0  0  0  0  0  0
  -25.2174  -13.8479   20.5951 C   0  0  0  0  0  0
  -24.1675  -13.0467   20.9341 C   0  0  0  0  0  0
  -24.6541  -11.7031   20.8745 C   0  0  0  0  0  0
  -23.9255  -10.4321   21.0342 C   0  0  0  0  0  0
  -24.3739   -9.4228   21.9149 C   0  0  0  0  0  0
  -23.6364   -8.2283   22.0747 C   0  0  0  0  0  0
  -22.4340   -8.0323   21.3544 C   0  0  0  0  0  0
  -22.0014   -9.0304   20.4634 C   0  0  0  0  0  0
  -22.7395  -10.2158   20.3018 C   0  0  0  0  0  0
  -21.6878   -6.0765   22.5277 C   0  0  0  0  0  0
  -21.4033   -6.5657   23.8214 C   0  0  0  0  0  0
  -21.3665   -5.6802   24.9171 C   0  0  0  0  0  0
  -21.6043   -4.3064   24.7217 C   0  0  0  0  0  0
  -21.8816   -3.8163   23.4335 C   0  0  0  0  0  0
  -21.9200   -4.6987   22.3396 C   0  0  0  0  0  0
  -22.7650  -13.5092   21.1938 C   0  0  0  0  0  0
  -22.1663   -4.2170   21.0973 F   0  0  0  0  0  0
  -21.5624   -3.4543   25.7727 F   0  0  0  0  0  0
  -29.5188  -15.0444   20.1465 N   0  0  0  0  0  0
  -26.2805  -13.0063   20.3476 N   0  0  0  0  0  0
  -25.9548  -11.6990   20.5678 N   0  0  0  0  0  0
  -22.0351  -12.8040   22.0489 N   0  0  0  0  0  0
  -25.3555  -15.2242   20.4383 N   0  0  0  0  0  0
  -31.2063  -16.3142   20.2293 O   0  0  0  0  0  0
  -21.6677   -6.8928   21.4248 O   0  0  0  0  0  0
  -22.3283  -14.5375   20.6771 O   0  0  0  0  0  0
  -24.7449  -31.7216   23.0979 C   0  0  0  0  0  0
  -25.9712  -32.4091   23.7768 C   0  0  1  0  0  0
  -27.2626  -26.0606   20.2671 C   0  0  0  0  0  0
  -25.6018  -33.7953   24.1581 N   0  0  0  0  0  0
  -23.5996  -30.2922   21.4680 C   0  0  2  0  0  0
  -25.0624  -28.4936   20.1392 C   0  0  0  0  0  0
  -22.8035  -29.3895   22.4550 C   0  0  0  0  0  0
  -18.0376  -28.1454   22.8421 C   0  0  0  0  0  0
  -24.1496  -36.6992   23.2671 C   0  0  0  0  0  0
  -26.1999  -30.2411   21.4589 C   0  0  0  0  0  0
  -26.2597  -28.7329   20.8212 C   0  0  0  0  0  0
  -27.3097  -27.5690   20.8335 C   0  0  0  0  0  0
  -26.0272  -26.1946   19.5192 C   0  0  0  0  0  0
  -25.0234  -27.2541   19.4619 C   0  0  0  0  0  0
  -23.8874  -29.5253   20.1333 C   0  0  0  0  0  0
  -25.4170  -36.2677   24.0236 C   0  0  1  0  0  0
  -20.6038  -28.3836   23.1031 C   0  0  2  0  0  0
  -20.6806  -26.9436   22.5420 C   0  0  0  0  0  0
  -19.5796  -26.6348   21.5224 C   0  0  0  0  0  0
  -18.1977  -26.7969   22.1607 C   0  0  0  0  0  0
  -19.1657  -28.8984   23.2686 C   0  0  0  0  0  0
  -18.9553  -30.1552   23.8759 C   0  0  0  0  0  0
  -17.6536  -30.6619   24.0537 C   0  0  0  0  0  0
  -25.9187  -34.9084   23.4798 C   0  0  0  0  0  0
  -16.5422  -29.9090   23.6366 C   0  0  0  0  0  0
  -16.7352  -28.6518   23.0376 C   0  0  0  0  0  0
  -26.4693  -31.6408   25.0652 C   0  0  0  0  0  0
  -25.3596  -31.3898   26.1149 C   0  0  0  0  0  0
  -27.0730  -30.2690   24.7003 C   0  0  0  0  0  0
  -27.6017  -32.4426   25.7501 C   0  0  0  0  0  0
  -27.5543  -37.1648   24.8466 C   0  0  0  0  0  0
  -21.4628  -29.2949   22.3282 N   0  0  0  0  0  0
  -26.4242  -37.3509   23.9408 N   0  0  0  0  0  0
  -24.8802  -30.8007   22.0600 N   0  0  0  0  0  0
  -23.4175  -28.7613   23.3197 O   0  0  0  0  0  0
  -28.1668  -24.5661   20.3212 O   0  0  0  0  0  0
  -26.5925  -34.8791   22.4483 O   0  0  0  0  0  0
  -23.6336  -32.0588   23.5524 O   0  0  0  0  0  0
  -29.2006  -20.3375   20.3201 C   0  0  0  0  0  0
  -28.2004  -22.4649   20.2188 C   0  0  0  0  0  0
  -29.3170  -18.2279   20.2702 N   0  0  0  0  0  0
  -31.2155  -14.1817   19.0448 H   0  0  0  0  0  0
  -30.7050  -13.1434   20.3066 H   0  0  0  0  0  0
  -30.2109  -12.1390   18.0541 H   0  0  0  0  0  0
  -29.3823  -13.5901   17.5547 H   0  0  0  0  0  0
  -28.4305  -11.4738   19.4819 H   0  0  0  0  0  0
  -27.5913  -12.1016   18.0755 H   0  0  0  0  0  0
  -27.3204  -14.2160   19.1091 H   0  0  0  0  0  0
  -28.9720  -13.4238   21.5512 H   0  0  0  0  0  0
  -27.9168  -14.7884   21.4973 H   0  0  0  0  0  0
  -25.2871   -9.5690   22.4748 H   0  0  0  0  0  0
  -24.0047   -7.4683   22.7489 H   0  0  0  0  0  0
  -21.0938   -8.8851   19.8945 H   0  0  0  0  0  0
  -22.3854  -10.9697   19.6127 H   0  0  0  0  0  0
  -21.2035   -7.6165   23.9725 H   0  0  0  0  0  0
  -21.1486   -6.0529   25.9075 H   0  0  0  0  0  0
  -22.0587   -2.7625   23.2829 H   0  0  0  0  0  0
  -22.4039  -11.9742   22.4895 H   0  0  0  0  0  0
  -21.0937  -13.0980   22.2674 H   0  0  0  0  0  0
  -24.5768  -15.8638   20.5540 H   0  0  0  0  0  0
  -26.2060  -15.6839   20.1380 H   0  0  0  0  0  0
  -26.7876  -32.4443   23.0543 H   0  0  0  0  0  0
  -24.9961  -33.8879   24.9601 H   0  0  0  0  0  0
  -22.9629  -31.1444   21.2211 H   0  0  0  0  0  0
  -23.3792  -35.9283   23.3224 H   0  0  0  0  0  0
  -24.3542  -36.8804   22.2107 H   0  0  0  0  0  0
  -23.7229  -37.6104   23.6874 H   0  0  0  0  0  0
  -26.4659  -30.9211   20.6487 H   0  0  0  0  0  0
  -27.0298  -30.3291   22.1459 H   0  0  0  0  0  0
  -28.1985  -27.7908   21.4071 H   0  0  0  0  0  0
  -25.7596  -25.3099   18.9588 H   0  0  0  0  0  0
  -24.1415  -27.0455   18.8719 H   0  0  0  0  0  0
  -24.1127  -30.2559   19.3556 H   0  0  0  0  0  0
  -22.9802  -29.0216   19.7958 H   0  0  0  0  0  0
  -25.1411  -36.1346   25.0723 H   0  0  0  0  0  0
  -21.0093  -28.3507   24.1170 H   0  0  0  0  0  0
  -20.5606  -26.2478   23.3738 H   0  0  0  0  0  0
  -21.6663  -26.7276   22.1281 H   0  0  0  0  0  0
  -19.6940  -25.6222   21.1342 H   0  0  0  0  0  0
  -19.6763  -27.3084   20.6699 H   0  0  0  0  0  0
  -17.4253  -26.6718   21.4002 H   0  0  0  0  0  0
  -18.0338  -26.0144   22.9029 H   0  0  0  0  0  0
  -19.8031  -30.7398   24.2071 H   0  0  0  0  0  0
  -17.5087  -31.6284   24.5168 H   0  0  0  0  0  0
  -15.5417  -30.2952   23.7771 H   0  0  0  0  0  0
  -15.8752  -28.0794   22.7169 H   0  0  0  0  0  0
  -24.5845  -30.7190   25.7424 H   0  0  0  0  0  0
  -24.8725  -32.3171   26.4173 H   0  0  0  0  0  0
  -25.7627  -30.9316   27.0189 H   0  0  0  0  0  0
  -26.3552  -29.6093   24.2123 H   0  0  0  0  0  0
  -27.4038  -29.7408   25.5956 H   0  0  0  0  0  0
  -27.9570  -30.3690   24.0706 H   0  0  0  0  0  0
  -27.2476  -33.3875   26.1635 H   0  0  0  0  0  0
  -28.4042  -32.6752   25.0488 H   0  0  0  0  0  0
  -28.0450  -31.8868   26.5774 H   0  0  0  0  0  0
  -28.2488  -38.0006   24.7515 H   0  0  0  0  0  0
  -28.1107  -36.2518   24.6291 H   0  0  0  0  0  0
  -27.2256  -37.1265   25.8866 H   0  0  0  0  0  0
  -21.0089  -29.8498   21.6159 H   0  0  0  0  0  0
  -26.0011  -38.2526   24.1435 H   0  0  0  0  0  0
  -30.0015  -20.5173   19.6027 H   0  0  0  0  0  0
  -29.6902  -20.4553   21.2869 H   0  0  0  0  0  0
  -27.7199  -22.3753   19.2446 H   0  0  0  0  0  0
  -27.3860  -22.2933   20.9225 H   0  0  0  0  0  0
  -30.3181  -18.3884   20.2986 H   0  0  0  0  0  0
  1 25  1  0  0  0
  1 30  2  0  0  0
  1 73  1  0  0  0
  2  3  1  0  0  0
  2 25  1  0  0  0
  2 74  1  0  0  0
  2 75  1  0  0  0
  3  4  1  0  0  0
  3 76  1  0  0  0
  3 77  1  0  0  0
  4  5  1  0  0  0
  4 78  1  0  0  0
  4 79  1  0  0  0
  5  6  1  0  0  0
  5 26  1  0  0  0
  5 80  1  0  0  0
  6 25  1  0  0  0
  6 81  1  0  0  0
  6 82  1  0  0  0
  7  8  2  0  0  0
  7 26  1  0  0  0
  7 29  1  0  0  0
  8  9  1  0  0  0
  8 22  1  0  0  0
  9 10  1  0  0  0
  9 27  2  0  0  0
 10 11  2  0  0  0
 10 15  1  0  0  0
 11 12  1  0  0  0
 11 83  1  0  0  0
 12 13  2  0  0  0
 12 84  1  0  0  0
 13 14  1  0  0  0
 13 31  1  0  0  0
 14 15  2  0  0  0
 14 85  1  0  0  0
 15 86  1  0  0  0
 16 17  2  0  0  0
 16 21  1  0  0  0
 16 31  1  0  0  0
 17 18  1  0  0  0
 17 87  1  0  0  0
 18 19  2  0  0  0
 18 88  1  0  0  0
 19 20  1  0  0  0
 19 24  1  0  0  0
 20 21  2  0  0  0
 20 89  1  0  0  0
 21 23  1  0  0  0
 22 28  1  0  0  0
 22 32  2  0  0  0
 26 27  1  0  0  0
 28 90  1  0  0  0
 28 91  1  0  0  0
 29 92  1  0  0  0
 29 93  1  0  0  0
 33 34  1  0  0  0
 33 66  1  0  0  0
 33 70  2  0  0  0
 34 36  1  0  0  0
 34 59  1  0  0  0
 34 94  1  0  0  0
 35 44  2  0  0  0
 35 45  1  0  0  0
 35 68  1  0  0  0
 36 56  1  0  0  0
 36 95  1  0  0  0
 37 39  1  0  0  0
 37 47  1  0  0  0
 37 66  1  0  0  0
 37 96  1  0  0  0
 38 43  2  0  0  0
 38 46  1  0  0  0
 38 47  1  0  0  0
 39 64  1  0  0  0
 39 67  2  0  0  0
 40 52  1  0  0  0
 40 53  2  0  0  0
 40 58  1  0  0  0
 41 97  1  0  0  0
 41 98  1  0  0  0
 41 99  1  0  0  0
 41 48  1  0  0  0
 42 43  1  0  0  0
 42 66  1  0  0  0
 42100  1  0  0  0
 42101  1  0  0  0
 43 44  1  0  0  0
 44102  1  0  0  0
 45 46  2  0  0  0
 45103  1  0  0  0
 46104  1  0  0  0
 47105  1  0  0  0
 47106  1  0  0  0
 48 56  1  0  0  0
 48 65  1  0  0  0
 48107  1  0  0  0
 49 50  1  0  0  0
 49 53  1  0  0  0
 49 64  1  0  0  0
 49108  1  0  0  0
 50 51  1  0  0  0
 50109  1  0  0  0
 50110  1  0  0  0
 51 52  1  0  0  0
 51111  1  0  0  0
 51112  1  0  0  0
 52113  1  0  0  0
 52114  1  0  0  0
 53 54  1  0  0  0
 54 55  2  0  0  0
 54115  1  0  0  0
 55 57  1  0  0  0
 55116  1  0  0  0
 56 69  2  0  0  0
 57 58  2  0  0  0
 57117  1  0  0  0
 58118  1  0  0  0
 59 60  1  0  0  0
 59 61  1  0  0  0
 59 62  1  0  0  0
 60119  1  0  0  0
 60120  1  0  0  0
 60121  1  0  0  0
 61122  1  0  0  0
 61123  1  0  0  0
 61124  1  0  0  0
 62125  1  0  0  0
 62126  1  0  0  0
 62127  1  0  0  0
 63 65  1  0  0  0
 63128  1  0  0  0
 63129  1  0  0  0
 63130  1  0  0  0
 64131  1  0  0  0
 65132  1  0  0  0
 68 72  1  0  0  0
 71 72  1  0  0  0
 71 73  1  0  0  0
 71133  1  0  0  0
 71134  1  0  0  0
 72135  1  0  0  0
 72136  1  0  0  0
 73137  1  0  0  0
M  ISO  4   1 100  68 101  72 101  73 100
M  END
> <chiral flag>
0

> <version>
0

> <s_m_source_file>
/data/baiqing/PycharmProjects/Reinvent-master-3.2/result/LINK_invent/BTK/process_docking_weight1_custom_product_contain_oxygen_bond_distance_aromatic_linkinvent_7_9_3/rearranged_h_0011.sdf

> <i_m_source_file_index>
25

> <r_mmod_Potential_Energy-OPLS-2005>
6948.9697265625

> <r_mmod_Stretch_Energy-OPLS-2005>
3136.46411132812

> <r_mmod_Bend_Energy-OPLS-2005>
1268.50207519531

> <r_mmod_Torsional_Energy-OPLS-2005>
217.324829101562

> <r_mmod_Improper_Torsional_Energy-OPLS-2005>
4.82364273071289

> <r_mmod_Van_der_Waal_Energy-OPLS-2005>
120.95548248291

> <r_mmod_Electrostatic_Energy-OPLS-2005>
-391.247985839844

> <r_mmod_Solvation_Energy-OPLS-2005>
-221.174652099609

> <b_mmod_Minimization_Converged-OPLS-2005>
1

> <r_mmod_RMS_Derivative-OPLS-2005>
0.042349461466074

$$$$
25
                    3D
 Structure written by MMmdl.
153162  0  0  1  0            999 V2000
  -30.5124  -14.9454   20.4268 C   0  0  0  0  0  0
  -30.4539  -12.5881   19.4866 C   0  0  0  0  0  0
  -29.5243  -12.5303   18.2507 C   0  0  0  0  0  0
  -28.0576  -12.3138   18.6724 C   0  0  0  0  0  0
  -27.6349  -13.2403   19.8414 C   0  0  2  0  0  0
  -28.6810  -13.2483   20.9769 C   0  0  0  0  0  0
  -25.2483  -13.8193   20.5694 C   0  0  0  0  0  0
  -24.1794  -13.0428   20.9226 C   0  0  0  0  0  0
  -24.6407  -11.6915   20.8770 C   0  0  0  0  0  0
  -23.9079  -10.4290   21.0423 C   0  0  0  0  0  0
  -24.3632   -9.4206   21.9193 C   0  0  0  0  0  0
  -23.6306   -8.2238   22.0758 C   0  0  0  0  0  0
  -22.4282   -8.0286   21.3551 C   0  0  0  0  0  0
  -21.9922   -9.0257   20.4645 C   0  0  0  0  0  0
  -22.7255  -10.2134   20.3061 C   0  0  0  0  0  0
  -21.6847   -6.0745   22.5281 C   0  0  0  0  0  0
  -21.4007   -6.5649   23.8215 C   0  0  0  0  0  0
  -21.3661   -5.6797   24.9176 C   0  0  0  0  0  0
  -21.6042   -4.3057   24.7221 C   0  0  0  0  0  0
  -21.8821   -3.8153   23.4341 C   0  0  0  0  0  0
  -21.9191   -4.6974   22.3401 C   0  0  0  0  0  0
  -22.7817  -13.5207   21.1887 C   0  0  0  0  0  0
  -22.1661   -4.2164   21.0978 F   0  0  0  0  0  0
  -21.5632   -3.4537   25.7730 F   0  0  0  0  0  0
  -29.9566  -13.6690   20.3806 N   0  0  0  0  0  0
  -26.2915  -12.9414   20.3261 N   0  0  0  0  0  0
  -25.9339  -11.6553   20.5756 N   0  0  0  0  0  0
  -22.0460  -12.8197   22.0440 N   0  0  0  0  0  0
  -25.4122  -15.1925   20.4096 N   0  0  0  0  0  0
  -31.7195  -15.0584   20.1825 O   0  0  0  0  0  0
  -21.6643   -6.8888   21.4245 O   0  0  0  0  0  0
  -22.3510  -14.5521   20.6742 O   0  0  0  0  0  0
  -24.6434  -31.8431   23.1850 C   0  0  0  0  0  0
  -25.9196  -32.4701   23.8256 C   0  0  1  0  0  0
  -27.2326  -27.1409   20.1683 C   0  0  0  0  0  0
  -25.5950  -33.8504   24.2190 N   0  0  0  0  0  0
  -23.4492  -30.4591   21.5291 C   0  0  2  0  0  0
  -24.9021  -28.8758   20.1177 C   0  0  0  0  0  0
  -22.7566  -29.4548   22.4844 C   0  0  0  0  0  0
  -18.0300  -28.1413   22.8495 C   0  0  0  0  0  0
  -24.1474  -36.7244   23.2641 C   0  0  0  0  0  0
  -26.0030  -30.7202   21.3797 C   0  0  0  0  0  0
  -26.0780  -29.3278   20.7307 C   0  0  0  0  0  0
  -27.2469  -28.4787   20.7313 C   0  0  0  0  0  0
  -26.0302  -26.7785   19.5273 C   0  0  0  0  0  0
  -24.8896  -27.6139   19.5006 C   0  0  0  0  0  0
  -23.6786  -29.7790   20.1524 C   0  0  0  0  0  0
  -25.4108  -36.3033   24.0324 C   0  0  1  0  0  0
  -20.5921  -28.3735   23.1235 C   0  0  2  0  0  0
  -20.6786  -26.9434   22.5411 C   0  0  0  0  0  0
  -19.5758  -26.6388   21.5224 C   0  0  0  0  0  0
  -18.1935  -26.7954   22.1628 C   0  0  0  0  0  0
  -19.1566  -28.8888   23.2863 C   0  0  0  0  0  0
  -18.9484  -30.1487   23.8885 C   0  0  0  0  0  0
  -17.6484  -30.6613   24.0569 C   0  0  0  0  0  0
  -25.9064  -34.9412   23.5068 C   0  0  0  0  0  0
  -16.5371  -29.9113   23.6341 C   0  0  0  0  0  0
  -16.7286  -28.6526   23.0367 C   0  0  0  0  0  0
  -26.4521  -31.6570   25.0696 C   0  0  0  0  0  0
  -25.3715  -31.3787   26.1408 C   0  0  0  0  0  0
  -27.0366  -30.2966   24.6255 C   0  0  0  0  0  0
  -27.6058  -32.4325   25.7483 C   0  0  0  0  0  0
  -27.5577  -37.1756   24.8457 C   0  0  0  0  0  0
  -21.4256  -29.3063   22.3603 N   0  0  0  0  0  0
  -26.4260  -37.3759   23.9445 N   0  0  0  0  0  0
  -24.7185  -31.0293   22.0871 N   0  0  0  0  0  0
  -23.4199  -28.8088   23.2997 O   0  0  0  0  0  0
  -28.3151  -26.1911   20.1746 O   0  0  0  0  0  0
  -26.5646  -34.8915   22.4637 O   0  0  0  0  0  0
  -23.5551  -32.1289   23.7081 O   0  0  0  0  0  0
  -28.5106  -19.7951   19.7197 C   0  0  0  0  0  0
  -28.6779  -18.3466   19.6993 C   0  0  0  0  0  0
  -30.4501  -18.4981   21.2309 C   0  0  0  0  0  0
  -29.2680  -20.6976   20.5387 C   0  0  0  0  0  0
  -29.6550  -17.5964   20.4478 C   0  0  0  0  0  0
  -30.2619  -19.9460   21.2854 C   0  0  0  0  0  0
  -28.9879  -24.3619   21.8192 C   0  0  0  0  0  0
  -29.0254  -22.8086   21.9973 C   0  0  0  0  0  0
  -28.5814  -23.3177   19.7462 C   0  0  0  0  0  0
  -28.1522  -24.6911   20.5664 C   0  0  2  0  0  0
  -29.0343  -22.1768   20.6731 N   0  0  0  0  0  0
  -29.6315  -16.0573   20.5080 N   0  0  0  0  0  0
  -31.0940  -20.6281   22.1093 F   0  0  0  0  0  0
  -31.4829  -12.7700   19.1704 H   0  0  0  0  0  0
  -30.4665  -11.6314   20.0106 H   0  0  0  0  0  0
  -29.8423  -11.7344   17.5755 H   0  0  0  0  0  0
  -29.6075  -13.4611   17.6859 H   0  0  0  0  0  0
  -27.9546  -11.2712   18.9768 H   0  0  0  0  0  0
  -27.3911  -12.4470   17.8197 H   0  0  0  0  0  0
  -27.6014  -14.2450   19.4196 H   0  0  0  0  0  0
  -28.7706  -12.2644   21.4403 H   0  0  0  0  0  0
  -28.3823  -13.9356   21.7704 H   0  0  0  0  0  0
  -25.2775   -9.5678   22.4772 H   0  0  0  0  0  0
  -24.0012   -7.4625   22.7471 H   0  0  0  0  0  0
  -21.0855   -8.8778   19.8943 H   0  0  0  0  0  0
  -22.3721  -10.9679   19.6173 H   0  0  0  0  0  0
  -21.1994   -7.6157   23.9724 H   0  0  0  0  0  0
  -21.1480   -6.0524   25.9080 H   0  0  0  0  0  0
  -22.0597   -2.7613   23.2830 H   0  0  0  0  0  0
  -22.4073  -11.9850   22.4814 H   0  0  0  0  0  0
  -21.1081  -13.1233   22.2647 H   0  0  0  0  0  0
  -24.6319  -15.8331   20.5085 H   0  0  0  0  0  0
  -26.2414  -15.6380   20.0421 H   0  0  0  0  0  0
  -26.7265  -32.5314   23.0991 H   0  0  0  0  0  0
  -25.0110  -33.9617   25.0350 H   0  0  0  0  0  0
  -22.7542  -31.2858   21.3686 H   0  0  0  0  0  0
  -23.3763  -35.9545   23.3262 H   0  0  0  0  0  0
  -24.3576  -36.8899   22.2065 H   0  0  0  0  0  0
  -23.7175  -37.6411   23.6686 H   0  0  0  0  0  0
  -26.1505  -31.4682   20.6002 H   0  0  0  0  0  0
  -26.8767  -30.7819   22.0167 H   0  0  0  0  0  0
  -28.1493  -28.8286   21.2127 H   0  0  0  0  0  0
  -25.9643  -25.8093   19.0531 H   0  0  0  0  0  0
  -23.9902  -27.2617   19.0141 H   0  0  0  0  0  0
  -23.8201  -30.5481   19.3926 H   0  0  0  0  0  0
  -22.7949  -29.2195   19.8403 H   0  0  0  0  0  0
  -25.1281  -36.1845   25.0809 H   0  0  0  0  0  0
  -21.0026  -28.3317   24.1354 H   0  0  0  0  0  0
  -20.5683  -26.2346   23.3632 H   0  0  0  0  0  0
  -21.6646  -26.7432   22.1195 H   0  0  0  0  0  0
  -19.6909  -25.6293   21.1265 H   0  0  0  0  0  0
  -19.6694  -27.3196   20.6753 H   0  0  0  0  0  0
  -17.4206  -26.6715   21.4030 H   0  0  0  0  0  0
  -18.0323  -26.0112   22.9034 H   0  0  0  0  0  0
  -19.7963  -30.7314   24.2232 H   0  0  0  0  0  0
  -17.5044  -31.6293   24.5176 H   0  0  0  0  0  0
  -15.5372  -30.3022   23.7688 H   0  0  0  0  0  0
  -15.8679  -28.0850   22.7093 H   0  0  0  0  0  0
  -24.5884  -30.7140   25.7749 H   0  0  0  0  0  0
  -24.8930  -32.2992   26.4763 H   0  0  0  0  0  0
  -25.8012  -30.9008   27.0225 H   0  0  0  0  0  0
  -26.2968  -29.6712   24.1252 H   0  0  0  0  0  0
  -27.3990  -29.7238   25.4800 H   0  0  0  0  0  0
  -27.8871  -30.4214   23.9552 H   0  0  0  0  0  0
  -27.2670  -33.3680   26.1950 H   0  0  0  0  0  0
  -28.3942  -32.6784   25.0357 H   0  0  0  0  0  0
  -28.0639  -31.8508   26.5492 H   0  0  0  0  0  0
  -28.2523  -38.0123   24.7605 H   0  0  0  0  0  0
  -28.1134  -36.2659   24.6136 H   0  0  0  0  0  0
  -27.2325  -37.1222   25.8861 H   0  0  0  0  0  0
  -20.9456  -29.8794   21.6807 H   0  0  0  0  0  0
  -26.0115  -38.2801   24.1538 H   0  0  0  0  0  0
  -27.7218  -20.2134   19.1123 H   0  0  0  0  0  0
  -27.9881  -17.7896   19.0812 H   0  0  0  0  0  0
  -31.2131  -18.0768   21.8688 H   0  0  0  0  0  0
  -30.0074  -24.7186   21.6665 H   0  0  0  0  0  0
  -28.6096  -24.8656   22.7098 H   0  0  0  0  0  0
  -28.1298  -22.4798   22.5275 H   0  0  0  0  0  0
  -29.8805  -22.5229   22.6087 H   0  0  0  0  0  0
  -29.4176  -23.5506   19.0851 H   0  0  0  0  0  0
  -27.7661  -22.9887   19.1010 H   0  0  0  0  0  0
  -27.1078  -24.5597   20.8502 H   0  0  0  0  0  0
  -28.6880  -15.7050   20.5335 H   0  0  0  0  0  0
  1 25  1  0  0  0
  1 30  2  0  0  0
  1 82  1  0  0  0
  2  3  1  0  0  0
  2 25  1  0  0  0
  2 84  1  0  0  0
  2 85  1  0  0  0
  3  4  1  0  0  0
  3 86  1  0  0  0
  3 87  1  0  0  0
  4  5  1  0  0  0
  4 88  1  0  0  0
  4 89  1  0  0  0
  5  6  1  0  0  0
  5 26  1  0  0  0
  5 90  1  0  0  0
  6 25  1  0  0  0
  6 91  1  0  0  0
  6 92  1  0  0  0
  7  8  2  0  0  0
  7 26  1  0  0  0
  7 29  1  0  0  0
  8  9  1  0  0  0
  8 22  1  0  0  0
  9 10  1  0  0  0
  9 27  2  0  0  0
 10 11  2  0  0  0
 10 15  1  0  0  0
 11 12  1  0  0  0
 11 93  1  0  0  0
 12 13  2  0  0  0
 12 94  1  0  0  0
 13 14  1  0  0  0
 13 31  1  0  0  0
 14 15  2  0  0  0
 14 95  1  0  0  0
 15 96  1  0  0  0
 16 17  2  0  0  0
 16 21  1  0  0  0
 16 31  1  0  0  0
 17 18  1  0  0  0
 17 97  1  0  0  0
 18 19  2  0  0  0
 18 98  1  0  0  0
 19 20  1  0  0  0
 19 24  1  0  0  0
 20 21  2  0  0  0
 20 99  1  0  0  0
 21 23  1  0  0  0
 22 28  1  0  0  0
 22 32  2  0  0  0
 26 27  1  0  0  0
 28100  1  0  0  0
 28101  1  0  0  0
 29102  1  0  0  0
 29103  1  0  0  0
 33 34  1  0  0  0
 33 66  1  0  0  0
 33 70  2  0  0  0
 34 36  1  0  0  0
 34 59  1  0  0  0
 34104  1  0  0  0
 35 44  2  0  0  0
 35 45  1  0  0  0
 35 68  1  0  0  0
 36 56  1  0  0  0
 36105  1  0  0  0
 37 39  1  0  0  0
 37 47  1  0  0  0
 37 66  1  0  0  0
 37106  1  0  0  0
 38 43  2  0  0  0
 38 46  1  0  0  0
 38 47  1  0  0  0
 39 64  1  0  0  0
 39 67  2  0  0  0
 40 52  1  0  0  0
 40 53  2  0  0  0
 40 58  1  0  0  0
 41107  1  0  0  0
 41108  1  0  0  0
 41109  1  0  0  0
 41 48  1  0  0  0
 42 43  1  0  0  0
 42 66  1  0  0  0
 42110  1  0  0  0
 42111  1  0  0  0
 43 44  1  0  0  0
 44112  1  0  0  0
 45 46  2  0  0  0
 45113  1  0  0  0
 46114  1  0  0  0
 47115  1  0  0  0
 47116  1  0  0  0
 48 56  1  0  0  0
 48 65  1  0  0  0
 48117  1  0  0  0
 49 50  1  0  0  0
 49 53  1  0  0  0
 49 64  1  0  0  0
 49118  1  0  0  0
 50 51  1  0  0  0
 50119  1  0  0  0
 50120  1  0  0  0
 51 52  1  0  0  0
 51121  1  0  0  0
 51122  1  0  0  0
 52123  1  0  0  0
 52124  1  0  0  0
 53 54  1  0  0  0
 54 55  2  0  0  0
 54125  1  0  0  0
 55 57  1  0  0  0
 55126  1  0  0  0
 56 69  2  0  0  0
 57 58  2  0  0  0
 57127  1  0  0  0
 58128  1  0  0  0
 59 60  1  0  0  0
 59 61  1  0  0  0
 59 62  1  0  0  0
 60129  1  0  0  0
 60130  1  0  0  0
 60131  1  0  0  0
 61132  1  0  0  0
 61133  1  0  0  0
 61134  1  0  0  0
 62135  1  0  0  0
 62136  1  0  0  0
 62137  1  0  0  0
 63 65  1  0  0  0
 63138  1  0  0  0
 63139  1  0  0  0
 63140  1  0  0  0
 64141  1  0  0  0
 65142  1  0  0  0
 68 80  1  0  0  0
 71 72  2  0  0  0
 71 74  1  0  0  0
 71143  1  0  0  0
 72 75  1  0  0  0
 72144  1  0  0  0
 73 75  2  0  0  0
 73 76  1  0  0  0
 73145  1  0  0  0
 74 76  2  0  0  0
 74 81  1  0  0  0
 75 82  1  0  0  0
 76 83  1  0  0  0
 77 78  1  0  0  0
 77 80  1  0  0  0
 77146  1  0  0  0
 77147  1  0  0  0
 78 81  1  0  0  0
 78148  1  0  0  0
 78149  1  0  0  0
 79 80  1  0  0  0
 79 81  1  0  0  0
 79150  1  0  0  0
 79151  1  0  0  0
 80152  1  0  0  0
 82153  1  0  0  0
M  ISO  4   1 100  68 101  80 101  82 100
M  END
> <chiral flag>
0

> <version>
0

> <s_m_source_file>
/data/baiqing/PycharmProjects/Reinvent-master-3.2/result/LINK_invent/BTK/process_docking_weight1_custom_product_contain_oxygen_bond_distance_aromatic_linkinvent_7_9_3/rearranged_h_0011.sdf

> <i_m_source_file_index>
26

> <r_mmod_Potential_Energy-OPLS-2005>
592.114562988281

> <r_mmod_Stretch_Energy-OPLS-2005>
218.330841064453

> <r_mmod_Bend_Energy-OPLS-2005>
308.939666748047

> <r_mmod_Torsional_Energy-OPLS-2005>
300.988464355469

> <r_mmod_Improper_Torsional_Energy-OPLS-2005>
7.21998405456543

> <r_mmod_Van_der_Waal_Energy-OPLS-2005>
124.425346374512

> <r_mmod_Electrostatic_Energy-OPLS-2005>
-326.940246582031

> <r_mmod_Solvation_Energy-OPLS-2005>
-227.665924072266

> <b_mmod_Minimization_Converged-OPLS-2005>
0

> <r_mmod_RMS_Derivative-OPLS-2005>
1.55988013744354

$$$$
26
                    3D
 Structure written by MMmdl.
148156  0  0  1  0            999 V2000
  -30.5214  -14.9152   20.4322 C   0  0  0  0  0  0
  -30.4560  -12.5613   19.4932 C   0  0  0  0  0  0
  -29.5263  -12.5225   18.2560 C   0  0  0  0  0  0
  -28.0560  -12.3176   18.6734 C   0  0  0  0  0  0
  -27.6385  -13.2396   19.8491 C   0  0  2  0  0  0
  -28.6855  -13.2218   20.9846 C   0  0  0  0  0  0
  -25.2459  -13.8158   20.5697 C   0  0  0  0  0  0
  -24.1765  -13.0390   20.9179 C   0  0  0  0  0  0
  -24.6393  -11.6885   20.8728 C   0  0  0  0  0  0
  -23.9070  -10.4267   21.0393 C   0  0  0  0  0  0
  -24.3618   -9.4189   21.9177 C   0  0  0  0  0  0
  -23.6287   -8.2227   22.0750 C   0  0  0  0  0  0
  -22.4268   -8.0269   21.3541 C   0  0  0  0  0  0
  -21.9903   -9.0243   20.4647 C   0  0  0  0  0  0
  -22.7235  -10.2117   20.3050 C   0  0  0  0  0  0
  -21.6852   -6.0726   22.5279 C   0  0  0  0  0  0
  -21.4012   -6.5629   23.8210 C   0  0  0  0  0  0
  -21.3659   -5.6784   24.9173 C   0  0  0  0  0  0
  -21.6046   -4.3046   24.7225 C   0  0  0  0  0  0
  -21.8819   -3.8139   23.4345 C   0  0  0  0  0  0
  -21.9194   -4.6956   22.3402 C   0  0  0  0  0  0
  -22.7791  -13.5179   21.1863 C   0  0  0  0  0  0
  -22.1663   -4.2144   21.0979 F   0  0  0  0  0  0
  -21.5632   -3.4530   25.7737 F   0  0  0  0  0  0
  -29.9702  -13.6372   20.3996 N   0  0  0  0  0  0
  -26.2930  -12.9409   20.3303 N   0  0  0  0  0  0
  -25.9337  -11.6539   20.5759 N   0  0  0  0  0  0
  -22.0457  -12.8183   22.0447 N   0  0  0  0  0  0
  -25.4009  -15.1882   20.4184 N   0  0  0  0  0  0
  -31.7098  -15.0488   20.1197 O   0  0  0  0  0  0
  -21.6633   -6.8868   21.4238 O   0  0  0  0  0  0
  -22.3464  -14.5487   20.6720 O   0  0  0  0  0  0
  -24.6417  -31.8452   23.1899 C   0  0  0  0  0  0
  -25.9199  -32.4701   23.8276 C   0  0  1  0  0  0
  -27.2222  -27.1526   20.1448 C   0  0  0  0  0  0
  -25.5963  -33.8506   24.2202 N   0  0  0  0  0  0
  -23.4442  -30.4662   21.5348 C   0  0  2  0  0  0
  -24.8945  -28.8965   20.1100 C   0  0  0  0  0  0
  -22.7558  -29.4553   22.4857 C   0  0  0  0  0  0
  -18.0310  -28.1394   22.8468 C   0  0  0  0  0  0
  -24.1494  -36.7248   23.2642 C   0  0  0  0  0  0
  -25.9996  -30.7246   21.3863 C   0  0  0  0  0  0
  -26.0726  -29.3379   20.7264 C   0  0  0  0  0  0
  -27.2371  -28.4831   20.7255 C   0  0  0  0  0  0
  -26.0147  -26.8095   19.4943 C   0  0  0  0  0  0
  -24.8785  -27.6452   19.4787 C   0  0  0  0  0  0
  -23.6702  -29.7971   20.1536 C   0  0  0  0  0  0
  -25.4127  -36.3035   24.0318 C   0  0  1  0  0  0
  -20.5917  -28.3714   23.1234 C   0  0  2  0  0  0
  -20.6791  -26.9415   22.5409 C   0  0  0  0  0  0
  -19.5773  -26.6381   21.5204 C   0  0  0  0  0  0
  -18.1953  -26.7936   22.1610 C   0  0  0  0  0  0
  -19.1564  -28.8872   23.2845 C   0  0  0  0  0  0
  -18.9482  -30.1470   23.8868 C   0  0  0  0  0  0
  -17.6479  -30.6588   24.0559 C   0  0  0  0  0  0
  -25.9072  -34.9408   23.5067 C   0  0  0  0  0  0
  -16.5370  -29.9079   23.6341 C   0  0  0  0  0  0
  -16.7295  -28.6502   23.0351 C   0  0  0  0  0  0
  -26.4528  -31.6562   25.0707 C   0  0  0  0  0  0
  -25.3724  -31.3763   26.1419 C   0  0  0  0  0  0
  -27.0377  -30.2957   24.6274 C   0  0  0  0  0  0
  -27.6085  -32.4306   25.7471 C   0  0  0  0  0  0
  -27.5583  -37.1777   24.8465 C   0  0  0  0  0  0
  -21.4253  -29.3042   22.3607 N   0  0  0  0  0  0
  -26.4289  -37.3751   23.9413 N   0  0  0  0  0  0
  -24.7147  -31.0326   22.0924 N   0  0  0  0  0  0
  -23.4214  -28.8101   23.2998 O   0  0  0  0  0  0
  -28.2831  -26.1774   20.2081 O   0  0  0  0  0  0
  -26.5645  -34.8904   22.4637 O   0  0  0  0  0  0
  -23.5543  -32.1321   23.7134 O   0  0  0  0  0  0
  -30.5390  -18.5592   20.3119 C   0  0  0  0  0  0
  -30.2281  -19.9961   20.2516 C   0  0  0  0  0  0
  -27.9577  -19.5005   20.6233 C   0  0  0  0  0  0
  -29.5558  -17.5246   20.5374 C   0  0  0  0  0  0
  -28.9022  -20.5492   20.4006 C   0  0  0  0  0  0
  -28.2572  -18.0929   20.6946 C   0  0  0  0  0  0
  -27.9882  -24.6555   20.0887 C   0  0  0  0  0  0
  -28.9899  -23.3140   20.2894 C   0  0  0  0  0  0
  -29.6477  -16.0010   20.6557 N   0  0  0  0  0  0
  -28.3721  -21.9139   20.3335 O   0  0  0  0  0  0
  -27.2334  -17.2380   20.9233 F   0  0  0  0  0  0
  -31.4877  -12.7311   19.1805 H   0  0  0  0  0  0
  -30.4555  -11.5990   20.0081 H   0  0  0  0  0  0
  -29.8357  -11.7251   17.5785 H   0  0  0  0  0  0
  -29.6217  -13.4538   17.6962 H   0  0  0  0  0  0
  -27.9448  -11.2745   18.9718 H   0  0  0  0  0  0
  -27.3927  -12.4619   17.8198 H   0  0  0  0  0  0
  -27.6113  -14.2499   19.4400 H   0  0  0  0  0  0
  -28.7627  -12.2279   21.4282 H   0  0  0  0  0  0
  -28.3905  -13.8918   21.7938 H   0  0  0  0  0  0
  -25.2762   -9.5668   22.4749 H   0  0  0  0  0  0
  -23.9997   -7.4619   22.7465 H   0  0  0  0  0  0
  -21.0833   -8.8763   19.8957 H   0  0  0  0  0  0
  -22.3691  -10.9656   19.6162 H   0  0  0  0  0  0
  -21.2000   -7.6137   23.9710 H   0  0  0  0  0  0
  -21.1484   -6.0514   25.9077 H   0  0  0  0  0  0
  -22.0601   -2.7602   23.2845 H   0  0  0  0  0  0
  -22.4080  -11.9854   22.4844 H   0  0  0  0  0  0
  -21.1086  -13.1224   22.2682 H   0  0  0  0  0  0
  -24.6307  -15.8255   20.5832 H   0  0  0  0  0  0
  -26.2721  -15.6785   20.2515 H   0  0  0  0  0  0
  -26.7256  -32.5313   23.0995 H   0  0  0  0  0  0
  -25.0120  -33.9624   25.0359 H   0  0  0  0  0  0
  -22.7457  -31.2916   21.3825 H   0  0  0  0  0  0
  -23.3764  -35.9569   23.3295 H   0  0  0  0  0  0
  -24.3583  -36.8891   22.2059 H   0  0  0  0  0  0
  -23.7234  -37.6438   23.6676 H   0  0  0  0  0  0
  -26.1548  -31.4813   20.6161 H   0  0  0  0  0  0
  -26.8698  -30.7733   22.0286 H   0  0  0  0  0  0
  -28.1339  -28.8182   21.2272 H   0  0  0  0  0  0
  -25.9091  -25.8553   19.0022 H   0  0  0  0  0  0
  -23.9799  -27.3022   18.9846 H   0  0  0  0  0  0
  -23.8050  -30.5726   19.3985 H   0  0  0  0  0  0
  -22.7852  -29.2385   19.8435 H   0  0  0  0  0  0
  -25.1315  -36.1864   25.0809 H   0  0  0  0  0  0
  -21.0014  -28.3306   24.1352 H   0  0  0  0  0  0
  -20.5663  -26.2325   23.3628 H   0  0  0  0  0  0
  -21.6662  -26.7413   22.1223 H   0  0  0  0  0  0
  -19.6932  -25.6283   21.1254 H   0  0  0  0  0  0
  -19.6724  -27.3171   20.6718 H   0  0  0  0  0  0
  -17.4226  -26.6676   21.4011 H   0  0  0  0  0  0
  -18.0354  -26.0083   22.9012 H   0  0  0  0  0  0
  -19.7958  -30.7294   24.2221 H   0  0  0  0  0  0
  -17.5034  -31.6265   24.5168 H   0  0  0  0  0  0
  -15.5369  -30.2970   23.7682 H   0  0  0  0  0  0
  -15.8697  -28.0816   22.7070 H   0  0  0  0  0  0
  -24.5924  -30.7070   25.7768 H   0  0  0  0  0  0
  -24.8877  -32.2943   26.4751 H   0  0  0  0  0  0
  -25.8032  -30.9027   27.0250 H   0  0  0  0  0  0
  -26.2980  -29.6682   24.1288 H   0  0  0  0  0  0
  -27.4006  -29.7261   25.4840 H   0  0  0  0  0  0
  -27.8891  -30.4196   23.9575 H   0  0  0  0  0  0
  -27.2716  -33.3639   26.1992 H   0  0  0  0  0  0
  -28.3918  -32.6809   25.0300 H   0  0  0  0  0  0
  -28.0715  -31.8450   26.5425 H   0  0  0  0  0  0
  -28.2603  -38.0072   24.7516 H   0  0  0  0  0  0
  -28.1080  -36.2606   24.6286 H   0  0  0  0  0  0
  -27.2304  -37.1424   25.8870 H   0  0  0  0  0  0
  -20.9449  -29.8759   21.6797 H   0  0  0  0  0  0
  -26.0160  -38.2818   24.1433 H   0  0  0  0  0  0
  -31.5690  -18.2594   20.1836 H   0  0  0  0  0  0
  -31.0442  -20.6817   20.0723 H   0  0  0  0  0  0
  -26.9238  -19.7840   20.7511 H   0  0  0  0  0  0
  -27.1559  -24.4881   20.7736 H   0  0  0  0  0  0
  -27.5690  -24.5159   19.0932 H   0  0  0  0  0  0
  -29.5433  -23.4398   21.2200 H   0  0  0  0  0  0
  -29.7405  -23.3184   19.4988 H   0  0  0  0  0  0
  -28.7399  -15.6306   20.8942 H   0  0  0  0  0  0
  1 25  1  0  0  0
  1 30  2  0  0  0
  1 79  1  0  0  0
  2  3  1  0  0  0
  2 25  1  0  0  0
  2 82  1  0  0  0
  2 83  1  0  0  0
  3  4  1  0  0  0
  3 84  1  0  0  0
  3 85  1  0  0  0
  4  5  1  0  0  0
  4 86  1  0  0  0
  4 87  1  0  0  0
  5  6  1  0  0  0
  5 26  1  0  0  0
  5 88  1  0  0  0
  6 25  1  0  0  0
  6 89  1  0  0  0
  6 90  1  0  0  0
  7  8  2  0  0  0
  7 26  1  0  0  0
  7 29  1  0  0  0
  8  9  1  0  0  0
  8 22  1  0  0  0
  9 10  1  0  0  0
  9 27  2  0  0  0
 10 11  2  0  0  0
 10 15  1  0  0  0
 11 12  1  0  0  0
 11 91  1  0  0  0
 12 13  2  0  0  0
 12 92  1  0  0  0
 13 14  1  0  0  0
 13 31  1  0  0  0
 14 15  2  0  0  0
 14 93  1  0  0  0
 15 94  1  0  0  0
 16 17  2  0  0  0
 16 21  1  0  0  0
 16 31  1  0  0  0
 17 18  1  0  0  0
 17 95  1  0  0  0
 18 19  2  0  0  0
 18 96  1  0  0  0
 19 20  1  0  0  0
 19 24  1  0  0  0
 20 21  2  0  0  0
 20 97  1  0  0  0
 21 23  1  0  0  0
 22 28  1  0  0  0
 22 32  2  0  0  0
 26 27  1  0  0  0
 28 98  1  0  0  0
 28 99  1  0  0  0
 29100  1  0  0  0
 29101  1  0  0  0
 33 34  1  0  0  0
 33 66  1  0  0  0
 33 70  2  0  0  0
 34 36  1  0  0  0
 34 59  1  0  0  0
 34102  1  0  0  0
 35 44  2  0  0  0
 35 45  1  0  0  0
 35 68  1  0  0  0
 36 56  1  0  0  0
 36103  1  0  0  0
 37 39  1  0  0  0
 37 47  1  0  0  0
 37 66  1  0  0  0
 37104  1  0  0  0
 38 43  2  0  0  0
 38 46  1  0  0  0
 38 47  1  0  0  0
 39 64  1  0  0  0
 39 67  2  0  0  0
 40 52  1  0  0  0
 40 53  2  0  0  0
 40 58  1  0  0  0
 41105  1  0  0  0
 41106  1  0  0  0
 41107  1  0  0  0
 41 48  1  0  0  0
 42 43  1  0  0  0
 42 66  1  0  0  0
 42108  1  0  0  0
 42109  1  0  0  0
 43 44  1  0  0  0
 44110  1  0  0  0
 45 46  2  0  0  0
 45111  1  0  0  0
 46112  1  0  0  0
 47113  1  0  0  0
 47114  1  0  0  0
 48 56  1  0  0  0
 48 65  1  0  0  0
 48115  1  0  0  0
 49 50  1  0  0  0
 49 53  1  0  0  0
 49 64  1  0  0  0
 49116  1  0  0  0
 50 51  1  0  0  0
 50117  1  0  0  0
 50118  1  0  0  0
 51 52  1  0  0  0
 51119  1  0  0  0
 51120  1  0  0  0
 52121  1  0  0  0
 52122  1  0  0  0
 53 54  1  0  0  0
 54 55  2  0  0  0
 54123  1  0  0  0
 55 57  1  0  0  0
 55124  1  0  0  0
 56 69  2  0  0  0
 57 58  2  0  0  0
 57125  1  0  0  0
 58126  1  0  0  0
 59 60  1  0  0  0
 59 61  1  0  0  0
 59 62  1  0  0  0
 60127  1  0  0  0
 60128  1  0  0  0
 60129  1  0  0  0
 61130  1  0  0  0
 61131  1  0  0  0
 61132  1  0  0  0
 62133  1  0  0  0
 62134  1  0  0  0
 62135  1  0  0  0
 63 65  1  0  0  0
 63136  1  0  0  0
 63137  1  0  0  0
 63138  1  0  0  0
 64139  1  0  0  0
 65140  1  0  0  0
 68 77  1  0  0  0
 71 72  2  0  0  0
 71 74  1  0  0  0
 71141  1  0  0  0
 72 75  1  0  0  0
 72142  1  0  0  0
 73 75  2  0  0  0
 73 76  1  0  0  0
 73143  1  0  0  0
 74 76  2  0  0  0
 74 79  1  0  0  0
 75 80  1  0  0  0
 76 81  1  0  0  0
 77 78  1  0  0  0
 77144  1  0  0  0
 77145  1  0  0  0
 78 80  1  0  0  0
 78146  1  0  0  0
 78147  1  0  0  0
 79148  1  0  0  0
M  ISO  4   1 100  68 101  77 101  79 100
M  END
> <chiral flag>
0

> <version>
0

> <s_m_source_file>
/data/baiqing/PycharmProjects/Reinvent-master-3.2/result/LINK_invent/BTK/process_docking_weight1_custom_product_contain_oxygen_bond_distance_aromatic_linkinvent_7_9_3/rearranged_h_0011.sdf

> <i_m_source_file_index>
27

> <r_mmod_Potential_Energy-OPLS-2005>
429.317779541016

> <r_mmod_Stretch_Energy-OPLS-2005>
215.171890258789

> <r_mmod_Bend_Energy-OPLS-2005>
307.654571533203

> <r_mmod_Torsional_Energy-OPLS-2005>
210.088012695312

> <r_mmod_Improper_Torsional_Energy-OPLS-2005>
3.85878729820251

> <r_mmod_Van_der_Waal_Energy-OPLS-2005>
133.190078735352

> <r_mmod_Electrostatic_Energy-OPLS-2005>
-411.460144042969

> <r_mmod_Solvation_Energy-OPLS-2005>
-203.061370849609

> <b_mmod_Minimization_Converged-OPLS-2005>
0

> <r_mmod_RMS_Derivative-OPLS-2005>
0.840658664703369

$$$$
27
                    3D
 Structure written by MMmdl.
148156  0  0  1  0            999 V2000
  -30.5214  -14.9152   20.4322 C   0  0  0  0  0  0
  -30.4560  -12.5613   19.4932 C   0  0  0  0  0  0
  -29.5263  -12.5225   18.2560 C   0  0  0  0  0  0
  -28.0560  -12.3176   18.6734 C   0  0  0  0  0  0
  -27.6385  -13.2396   19.8491 C   0  0  2  0  0  0
  -28.6855  -13.2218   20.9846 C   0  0  0  0  0  0
  -25.2459  -13.8158   20.5697 C   0  0  0  0  0  0
  -24.1765  -13.0390   20.9179 C   0  0  0  0  0  0
  -24.6393  -11.6885   20.8728 C   0  0  0  0  0  0
  -23.9070  -10.4267   21.0393 C   0  0  0  0  0  0
  -24.3618   -9.4189   21.9177 C   0  0  0  0  0  0
  -23.6287   -8.2227   22.0750 C   0  0  0  0  0  0
  -22.4268   -8.0269   21.3541 C   0  0  0  0  0  0
  -21.9903   -9.0243   20.4647 C   0  0  0  0  0  0
  -22.7235  -10.2117   20.3050 C   0  0  0  0  0  0
  -21.6852   -6.0726   22.5279 C   0  0  0  0  0  0
  -21.4012   -6.5629   23.8210 C   0  0  0  0  0  0
  -21.3659   -5.6784   24.9173 C   0  0  0  0  0  0
  -21.6046   -4.3046   24.7225 C   0  0  0  0  0  0
  -21.8819   -3.8139   23.4345 C   0  0  0  0  0  0
  -21.9194   -4.6956   22.3402 C   0  0  0  0  0  0
  -22.7791  -13.5179   21.1863 C   0  0  0  0  0  0
  -22.1663   -4.2144   21.0979 F   0  0  0  0  0  0
  -21.5632   -3.4530   25.7737 F   0  0  0  0  0  0
  -29.9702  -13.6372   20.3996 N   0  0  0  0  0  0
  -26.2930  -12.9409   20.3303 N   0  0  0  0  0  0
  -25.9337  -11.6539   20.5759 N   0  0  0  0  0  0
  -22.0457  -12.8183   22.0447 N   0  0  0  0  0  0
  -25.4009  -15.1882   20.4184 N   0  0  0  0  0  0
  -31.7098  -15.0488   20.1197 O   0  0  0  0  0  0
  -21.6633   -6.8868   21.4238 O   0  0  0  0  0  0
  -22.3464  -14.5487   20.6720 O   0  0  0  0  0  0
  -24.6417  -31.8452   23.1899 C   0  0  0  0  0  0
  -25.9199  -32.4701   23.8276 C   0  0  1  0  0  0
  -27.2222  -27.1526   20.1448 C   0  0  0  0  0  0
  -25.5963  -33.8506   24.2202 N   0  0  0  0  0  0
  -23.4442  -30.4662   21.5348 C   0  0  2  0  0  0
  -24.8945  -28.8965   20.1100 C   0  0  0  0  0  0
  -22.7558  -29.4553   22.4857 C   0  0  0  0  0  0
  -18.0310  -28.1394   22.8468 C   0  0  0  0  0  0
  -24.1494  -36.7248   23.2642 C   0  0  0  0  0  0
  -25.9996  -30.7246   21.3863 C   0  0  0  0  0  0
  -26.0726  -29.3379   20.7264 C   0  0  0  0  0  0
  -27.2371  -28.4831   20.7255 C   0  0  0  0  0  0
  -26.0147  -26.8095   19.4943 C   0  0  0  0  0  0
  -24.8785  -27.6452   19.4787 C   0  0  0  0  0  0
  -23.6702  -29.7971   20.1536 C   0  0  0  0  0  0
  -25.4127  -36.3035   24.0318 C   0  0  1  0  0  0
  -20.5917  -28.3714   23.1234 C   0  0  2  0  0  0
  -20.6791  -26.9415   22.5409 C   0  0  0  0  0  0
  -19.5773  -26.6381   21.5204 C   0  0  0  0  0  0
  -18.1953  -26.7936   22.1610 C   0  0  0  0  0  0
  -19.1564  -28.8872   23.2845 C   0  0  0  0  0  0
  -18.9482  -30.1470   23.8868 C   0  0  0  0  0  0
  -17.6479  -30.6588   24.0559 C   0  0  0  0  0  0
  -25.9072  -34.9408   23.5067 C   0  0  0  0  0  0
  -16.5370  -29.9079   23.6341 C   0  0  0  0  0  0
  -16.7295  -28.6502   23.0351 C   0  0  0  0  0  0
  -26.4528  -31.6562   25.0707 C   0  0  0  0  0  0
  -25.3724  -31.3763   26.1419 C   0  0  0  0  0  0
  -27.0377  -30.2957   24.6274 C   0  0  0  0  0  0
  -27.6085  -32.4306   25.7471 C   0  0  0  0  0  0
  -27.5583  -37.1777   24.8465 C   0  0  0  0  0  0
  -21.4253  -29.3042   22.3607 N   0  0  0  0  0  0
  -26.4289  -37.3751   23.9413 N   0  0  0  0  0  0
  -24.7147  -31.0326   22.0924 N   0  0  0  0  0  0
  -23.4214  -28.8101   23.2998 O   0  0  0  0  0  0
  -28.2831  -26.1774   20.2081 O   0  0  0  0  0  0
  -26.5645  -34.8904   22.4637 O   0  0  0  0  0  0
  -23.5543  -32.1321   23.7134 O   0  0  0  0  0  0
  -30.5390  -18.5592   20.3119 C   0  0  0  0  0  0
  -30.2281  -19.9961   20.2516 C   0  0  0  0  0  0
  -27.9577  -19.5005   20.6233 C   0  0  0  0  0  0
  -29.5558  -17.5246   20.5374 C   0  0  0  0  0  0
  -28.9022  -20.5492   20.4006 C   0  0  0  0  0  0
  -28.2572  -18.0929   20.6946 C   0  0  0  0  0  0
  -27.9882  -24.6555   20.0887 C   0  0  0  0  0  0
  -28.9899  -23.3140   20.2894 C   0  0  0  0  0  0
  -29.6477  -16.0010   20.6557 N   0  0  0  0  0  0
  -28.3721  -21.9139   20.3335 O   0  0  0  0  0  0
  -27.2334  -17.2380   20.9233 F   0  0  0  0  0  0
  -31.4877  -12.7311   19.1805 H   0  0  0  0  0  0
  -30.4555  -11.5990   20.0081 H   0  0  0  0  0  0
  -29.8357  -11.7251   17.5785 H   0  0  0  0  0  0
  -29.6217  -13.4538   17.6962 H   0  0  0  0  0  0
  -27.9448  -11.2745   18.9718 H   0  0  0  0  0  0
  -27.3927  -12.4619   17.8198 H   0  0  0  0  0  0
  -27.6113  -14.2499   19.4400 H   0  0  0  0  0  0
  -28.7627  -12.2279   21.4282 H   0  0  0  0  0  0
  -28.3905  -13.8918   21.7938 H   0  0  0  0  0  0
  -25.2762   -9.5668   22.4749 H   0  0  0  0  0  0
  -23.9997   -7.4619   22.7465 H   0  0  0  0  0  0
  -21.0833   -8.8763   19.8957 H   0  0  0  0  0  0
  -22.3691  -10.9656   19.6162 H   0  0  0  0  0  0
  -21.2000   -7.6137   23.9710 H   0  0  0  0  0  0
  -21.1484   -6.0514   25.9077 H   0  0  0  0  0  0
  -22.0601   -2.7602   23.2845 H   0  0  0  0  0  0
  -22.4080  -11.9854   22.4844 H   0  0  0  0  0  0
  -21.1086  -13.1224   22.2682 H   0  0  0  0  0  0
  -24.6307  -15.8255   20.5832 H   0  0  0  0  0  0
  -26.2721  -15.6785   20.2515 H   0  0  0  0  0  0
  -26.7256  -32.5313   23.0995 H   0  0  0  0  0  0
  -25.0120  -33.9624   25.0359 H   0  0  0  0  0  0
  -22.7457  -31.2916   21.3825 H   0  0  0  0  0  0
  -23.3764  -35.9569   23.3295 H   0  0  0  0  0  0
  -24.3583  -36.8891   22.2059 H   0  0  0  0  0  0
  -23.7234  -37.6438   23.6676 H   0  0  0  0  0  0
  -26.1548  -31.4813   20.6161 H   0  0  0  0  0  0
  -26.8698  -30.7733   22.0286 H   0  0  0  0  0  0
  -28.1339  -28.8182   21.2272 H   0  0  0  0  0  0
  -25.9091  -25.8553   19.0022 H   0  0  0  0  0  0
  -23.9799  -27.3022   18.9846 H   0  0  0  0  0  0
  -23.8050  -30.5726   19.3985 H   0  0  0  0  0  0
  -22.7852  -29.2385   19.8435 H   0  0  0  0  0  0
  -25.1315  -36.1864   25.0809 H   0  0  0  0  0  0
  -21.0014  -28.3306   24.1352 H   0  0  0  0  0  0
  -20.5663  -26.2325   23.3628 H   0  0  0  0  0  0
  -21.6662  -26.7413   22.1223 H   0  0  0  0  0  0
  -19.6932  -25.6283   21.1254 H   0  0  0  0  0  0
  -19.6724  -27.3171   20.6718 H   0  0  0  0  0  0
  -17.4226  -26.6676   21.4011 H   0  0  0  0  0  0
  -18.0354  -26.0083   22.9012 H   0  0  0  0  0  0
  -19.7958  -30.7294   24.2221 H   0  0  0  0  0  0
  -17.5034  -31.6265   24.5168 H   0  0  0  0  0  0
  -15.5369  -30.2970   23.7682 H   0  0  0  0  0  0
  -15.8697  -28.0816   22.7070 H   0  0  0  0  0  0
  -24.5924  -30.7070   25.7768 H   0  0  0  0  0  0
  -24.8877  -32.2943   26.4751 H   0  0  0  0  0  0
  -25.8032  -30.9027   27.0250 H   0  0  0  0  0  0
  -26.2980  -29.6682   24.1288 H   0  0  0  0  0  0
  -27.4006  -29.7261   25.4840 H   0  0  0  0  0  0
  -27.8891  -30.4196   23.9575 H   0  0  0  0  0  0
  -27.2716  -33.3639   26.1992 H   0  0  0  0  0  0
  -28.3918  -32.6809   25.0300 H   0  0  0  0  0  0
  -28.0715  -31.8450   26.5425 H   0  0  0  0  0  0
  -28.2603  -38.0072   24.7516 H   0  0  0  0  0  0
  -28.1080  -36.2606   24.6286 H   0  0  0  0  0  0
  -27.2304  -37.1424   25.8870 H   0  0  0  0  0  0
  -20.9449  -29.8759   21.6797 H   0  0  0  0  0  0
  -26.0160  -38.2818   24.1433 H   0  0  0  0  0  0
  -31.5690  -18.2594   20.1836 H   0  0  0  0  0  0
  -31.0442  -20.6817   20.0723 H   0  0  0  0  0  0
  -26.9238  -19.7840   20.7511 H   0  0  0  0  0  0
  -27.1559  -24.4881   20.7736 H   0  0  0  0  0  0
  -27.5690  -24.5159   19.0932 H   0  0  0  0  0  0
  -29.5433  -23.4398   21.2200 H   0  0  0  0  0  0
  -29.7405  -23.3184   19.4988 H   0  0  0  0  0  0
  -28.7399  -15.6306   20.8942 H   0  0  0  0  0  0
  1 25  1  0  0  0
  1 30  2  0  0  0
  1 79  1  0  0  0
  2  3  1  0  0  0
  2 25  1  0  0  0
  2 82  1  0  0  0
  2 83  1  0  0  0
  3  4  1  0  0  0
  3 84  1  0  0  0
  3 85  1  0  0  0
  4  5  1  0  0  0
  4 86  1  0  0  0
  4 87  1  0  0  0
  5  6  1  0  0  0
  5 26  1  0  0  0
  5 88  1  0  0  0
  6 25  1  0  0  0
  6 89  1  0  0  0
  6 90  1  0  0  0
  7  8  2  0  0  0
  7 26  1  0  0  0
  7 29  1  0  0  0
  8  9  1  0  0  0
  8 22  1  0  0  0
  9 10  1  0  0  0
  9 27  2  0  0  0
 10 11  2  0  0  0
 10 15  1  0  0  0
 11 12  1  0  0  0
 11 91  1  0  0  0
 12 13  2  0  0  0
 12 92  1  0  0  0
 13 14  1  0  0  0
 13 31  1  0  0  0
 14 15  2  0  0  0
 14 93  1  0  0  0
 15 94  1  0  0  0
 16 17  2  0  0  0
 16 21  1  0  0  0
 16 31  1  0  0  0
 17 18  1  0  0  0
 17 95  1  0  0  0
 18 19  2  0  0  0
 18 96  1  0  0  0
 19 20  1  0  0  0
 19 24  1  0  0  0
 20 21  2  0  0  0
 20 97  1  0  0  0
 21 23  1  0  0  0
 22 28  1  0  0  0
 22 32  2  0  0  0
 26 27  1  0  0  0
 28 98  1  0  0  0
 28 99  1  0  0  0
 29100  1  0  0  0
 29101  1  0  0  0
 33 34  1  0  0  0
 33 66  1  0  0  0
 33 70  2  0  0  0
 34 36  1  0  0  0
 34 59  1  0  0  0
 34102  1  0  0  0
 35 44  2  0  0  0
 35 45  1  0  0  0
 35 68  1  0  0  0
 36 56  1  0  0  0
 36103  1  0  0  0
 37 39  1  0  0  0
 37 47  1  0  0  0
 37 66  1  0  0  0
 37104  1  0  0  0
 38 43  2  0  0  0
 38 46  1  0  0  0
 38 47  1  0  0  0
 39 64  1  0  0  0
 39 67  2  0  0  0
 40 52  1  0  0  0
 40 53  2  0  0  0
 40 58  1  0  0  0
 41105  1  0  0  0
 41106  1  0  0  0
 41107  1  0  0  0
 41 48  1  0  0  0
 42 43  1  0  0  0
 42 66  1  0  0  0
 42108  1  0  0  0
 42109  1  0  0  0
 43 44  1  0  0  0
 44110  1  0  0  0
 45 46  2  0  0  0
 45111  1  0  0  0
 46112  1  0  0  0
 47113  1  0  0  0
 47114  1  0  0  0
 48 56  1  0  0  0
 48 65  1  0  0  0
 48115  1  0  0  0
 49 50  1  0  0  0
 49 53  1  0  0  0
 49 64  1  0  0  0
 49116  1  0  0  0
 50 51  1  0  0  0
 50117  1  0  0  0
 50118  1  0  0  0
 51 52  1  0  0  0
 51119  1  0  0  0
 51120  1  0  0  0
 52121  1  0  0  0
 52122  1  0  0  0
 53 54  1  0  0  0
 54 55  2  0  0  0
 54123  1  0  0  0
 55 57  1  0  0  0
 55124  1  0  0  0
 56 69  2  0  0  0
 57 58  2  0  0  0
 57125  1  0  0  0
 58126  1  0  0  0
 59 60  1  0  0  0
 59 61  1  0  0  0
 59 62  1  0  0  0
 60127  1  0  0  0
 60128  1  0  0  0
 60129  1  0  0  0
 61130  1  0  0  0
 61131  1  0  0  0
 61132  1  0  0  0
 62133  1  0  0  0
 62134  1  0  0  0
 62135  1  0  0  0
 63 65  1  0  0  0
 63136  1  0  0  0
 63137  1  0  0  0
 63138  1  0  0  0
 64139  1  0  0  0
 65140  1  0  0  0
 68 77  1  0  0  0
 71 72  2  0  0  0
 71 74  1  0  0  0
 71141  1  0  0  0
 72 75  1  0  0  0
 72142  1  0  0  0
 73 75  2  0  0  0
 73 76  1  0  0  0
 73143  1  0  0  0
 74 76  2  0  0  0
 74 79  1  0  0  0
 75 80  1  0  0  0
 76 81  1  0  0  0
 77 78  1  0  0  0
 77144  1  0  0  0
 77145  1  0  0  0
 78 80  1  0  0  0
 78146  1  0  0  0
 78147  1  0  0  0
 79148  1  0  0  0
M  ISO  4   1 100  68 101  77 101  79 100
M  END
> <chiral flag>
0

> <version>
0

> <s_m_source_file>
/data/baiqing/PycharmProjects/Reinvent-master-3.2/result/LINK_invent/BTK/process_docking_weight1_custom_product_contain_oxygen_bond_distance_aromatic_linkinvent_7_9_3/rearranged_h_0011.sdf

> <i_m_source_file_index>
28

> <r_mmod_Potential_Energy-OPLS-2005>
429.317779541016

> <r_mmod_Stretch_Energy-OPLS-2005>
215.171890258789

> <r_mmod_Bend_Energy-OPLS-2005>
307.654571533203

> <r_mmod_Torsional_Energy-OPLS-2005>
210.088012695312

> <r_mmod_Improper_Torsional_Energy-OPLS-2005>
3.85878729820251

> <r_mmod_Van_der_Waal_Energy-OPLS-2005>
133.190078735352

> <r_mmod_Electrostatic_Energy-OPLS-2005>
-411.460144042969

> <r_mmod_Solvation_Energy-OPLS-2005>
-203.061370849609

> <b_mmod_Minimization_Converged-OPLS-2005>
0

> <r_mmod_RMS_Derivative-OPLS-2005>
0.840658664703369

$$$$
28
                    3D
 Structure written by MMmdl.
159168  0  0  1  0            999 V2000
  -30.6626  -14.6300   20.5106 C   0  0  0  0  0  0
  -30.4271  -12.3917   19.4629 C   0  0  0  0  0  0
  -29.5047  -12.4925   18.2317 C   0  0  0  0  0  0
  -28.0296  -12.3303   18.6450 C   0  0  0  0  0  0
  -27.6492  -13.2188   19.8594 C   0  0  2  0  0  0
  -28.6895  -13.1054   20.9941 C   0  0  0  0  0  0
  -25.2565  -13.8190   20.5648 C   0  0  0  0  0  0
  -24.1836  -13.0468   20.9197 C   0  0  0  0  0  0
  -24.6398  -11.6940   20.8751 C   0  0  0  0  0  0
  -23.9054  -10.4310   21.0415 C   0  0  0  0  0  0
  -24.3620   -9.4221   21.9182 C   0  0  0  0  0  0
  -23.6299   -8.2254   22.0752 C   0  0  0  0  0  0
  -22.4284   -8.0293   21.3534 C   0  0  0  0  0  0
  -21.9906   -9.0265   20.4646 C   0  0  0  0  0  0
  -22.7226  -10.2147   20.3057 C   0  0  0  0  0  0
  -21.6855   -6.0756   22.5283 C   0  0  0  0  0  0
  -21.4009   -6.5655   23.8215 C   0  0  0  0  0  0
  -21.3663   -5.6800   24.9179 C   0  0  0  0  0  0
  -21.6034   -4.3062   24.7221 C   0  0  0  0  0  0
  -21.8828   -3.8161   23.4346 C   0  0  0  0  0  0
  -21.9197   -4.6986   22.3400 C   0  0  0  0  0  0
  -22.7838  -13.5271   21.1826 C   0  0  0  0  0  0
  -22.1668   -4.2180   21.0973 F   0  0  0  0  0  0
  -21.5631   -3.4531   25.7726 F   0  0  0  0  0  0
  -30.0001  -13.4362   20.4170 N   0  0  0  0  0  0
  -26.2982  -12.9361   20.3309 N   0  0  0  0  0  0
  -25.9334  -11.6515   20.5769 N   0  0  0  0  0  0
  -22.0484  -12.8269   22.0409 N   0  0  0  0  0  0
  -25.4324  -15.1889   20.4037 N   0  0  0  0  0  0
  -31.8383  -14.7245   20.1397 O   0  0  0  0  0  0
  -21.6646   -6.8905   21.4245 O   0  0  0  0  0  0
  -22.3545  -14.5570   20.6679 O   0  0  0  0  0  0
  -24.6329  -31.8667   23.2103 C   0  0  0  0  0  0
  -25.9200  -32.4778   23.8393 C   0  0  1  0  0  0
  -27.1853  -27.2895   20.1180 C   0  0  0  0  0  0
  -25.5999  -33.8553   24.2318 N   0  0  0  0  0  0
  -23.4203  -30.5018   21.5556 C   0  0  2  0  0  0
  -24.8573  -28.9510   20.1086 C   0  0  0  0  0  0
  -22.7519  -29.4725   22.4979 C   0  0  0  0  0  0
  -18.0282  -28.1388   22.8523 C   0  0  0  0  0  0
  -24.1472  -36.7280   23.2679 C   0  0  0  0  0  0
  -25.9679  -30.7811   21.3957 C   0  0  0  0  0  0
  -26.0254  -29.4096   20.7303 C   0  0  0  0  0  0
  -27.1869  -28.5816   20.7320 C   0  0  0  0  0  0
  -25.9956  -26.8959   19.4649 C   0  0  0  0  0  0
  -24.8429  -27.7019   19.4694 C   0  0  0  0  0  0
  -23.6386  -29.8531   20.1631 C   0  0  0  0  0  0
  -25.4100  -36.3069   24.0353 C   0  0  1  0  0  0
  -20.5902  -28.3725   23.1287 C   0  0  2  0  0  0
  -20.6797  -26.9457   22.5399 C   0  0  0  0  0  0
  -19.5753  -26.6427   21.5222 C   0  0  0  0  0  0
  -18.1947  -26.7906   22.1692 C   0  0  0  0  0  0
  -19.1551  -28.8861   23.2887 C   0  0  0  0  0  0
  -18.9459  -30.1443   23.8915 C   0  0  0  0  0  0
  -17.6472  -30.6613   24.0563 C   0  0  0  0  0  0
  -25.9067  -34.9424   23.5153 C   0  0  0  0  0  0
  -16.5362  -29.9157   23.6246 C   0  0  0  0  0  0
  -16.7258  -28.6546   23.0316 C   0  0  0  0  0  0
  -26.4656  -31.6572   25.0736 C   0  0  0  0  0  0
  -25.4006  -31.3530   26.1517 C   0  0  0  0  0  0
  -27.0638  -30.3027   24.6228 C   0  0  0  0  0  0
  -27.6154  -32.4434   25.7460 C   0  0  0  0  0  0
  -27.5548  -37.1807   24.8456 C   0  0  0  0  0  0
  -21.4242  -29.3126   22.3719 N   0  0  0  0  0  0
  -26.4244  -37.3780   23.9452 N   0  0  0  0  0  0
  -24.6917  -31.0697   22.1073 N   0  0  0  0  0  0
  -23.4228  -28.8180   23.2997 O   0  0  0  0  0  0
  -28.3020  -26.4457   20.2034 O   0  0  0  0  0  0
  -26.5593  -34.8894   22.4694 O   0  0  0  0  0  0
  -23.5495  -32.1416   23.7470 O   0  0  0  0  0  0
  -29.2824  -19.3073   21.6780 C   0  0  0  0  0  0
  -30.3060  -19.1041   19.5101 C   0  0  0  0  0  0
  -29.0593  -20.7059   21.4469 C   0  0  0  0  0  0
  -30.0987  -20.4970   19.2952 C   0  0  0  0  0  0
  -29.9588  -18.4814   20.7352 C   0  0  0  0  0  0
  -29.5153  -21.3557   20.2661 C   0  0  0  0  0  0
  -30.9077  -24.4528   21.0790 C   0  0  0  0  0  0
  -29.5806  -24.2957   21.8142 C   0  0  0  0  0  0
  -30.8609  -23.3538   19.9932 C   0  0  0  0  0  0
  -28.6756  -23.8230   20.6835 C   0  0  2  0  0  0
  -30.5835  -17.0971   21.1427 C   0  0  0  0  0  0
  -28.3106  -25.0426   19.7073 C   0  0  0  0  0  0
  -29.5077  -22.7757   20.0206 N   0  0  0  0  0  0
  -29.9620  -15.7574   20.8599 N   0  0  0  0  0  0
  -31.4688  -12.5038   19.1584 H   0  0  0  0  0  0
  -30.3587  -11.4059   19.9261 H   0  0  0  0  0  0
  -29.7762  -11.7328   17.4997 H   0  0  0  0  0  0
  -29.6463  -13.4578   17.7449 H   0  0  0  0  0  0
  -27.8709  -11.2797   18.8909 H   0  0  0  0  0  0
  -27.3757  -12.5403   17.8005 H   0  0  0  0  0  0
  -27.6658  -14.2483   19.5024 H   0  0  0  0  0  0
  -28.7035  -12.0942   21.4041 H   0  0  0  0  0  0
  -28.4340  -13.7656   21.8249 H   0  0  0  0  0  0
  -25.2778   -9.5713   22.4756 H   0  0  0  0  0  0
  -24.0035   -7.4646   22.7452 H   0  0  0  0  0  0
  -21.0855   -8.8787   19.8936 H   0  0  0  0  0  0
  -22.3693  -10.9700   19.6178 H   0  0  0  0  0  0
  -21.1989   -7.6155   23.9735 H   0  0  0  0  0  0
  -21.1467   -6.0514   25.9081 H   0  0  0  0  0  0
  -22.0599   -2.7623   23.2817 H   0  0  0  0  0  0
  -22.4097  -11.9946   22.4826 H   0  0  0  0  0  0
  -21.1095  -13.1285   22.2591 H   0  0  0  0  0  0
  -24.6657  -15.8455   20.5020 H   0  0  0  0  0  0
  -26.2811  -15.6164   20.0568 H   0  0  0  0  0  0
  -26.7233  -32.5369   23.1119 H   0  0  0  0  0  0
  -25.0066  -33.9624   25.0405 H   0  0  0  0  0  0
  -22.7085  -31.3230   21.4253 H   0  0  0  0  0  0
  -23.3722  -35.9612   23.3360 H   0  0  0  0  0  0
  -24.3598  -36.8869   22.2087 H   0  0  0  0  0  0
  -23.7258  -37.6494   23.6699 H   0  0  0  0  0  0
  -26.1115  -31.5526   20.6373 H   0  0  0  0  0  0
  -26.8506  -30.8143   22.0241 H   0  0  0  0  0  0
  -28.0708  -28.9166   21.2507 H   0  0  0  0  0  0
  -25.8906  -25.9567   18.9520 H   0  0  0  0  0  0
  -23.9447  -27.3428   18.9856 H   0  0  0  0  0  0
  -23.7910  -30.6527   19.4345 H   0  0  0  0  0  0
  -22.7483  -29.3133   19.8397 H   0  0  0  0  0  0
  -25.1281  -36.1886   25.0830 H   0  0  0  0  0  0
  -20.9864  -28.3239   24.1452 H   0  0  0  0  0  0
  -20.5650  -26.2374   23.3631 H   0  0  0  0  0  0
  -21.6656  -26.7506   22.1167 H   0  0  0  0  0  0
  -19.6932  -25.6340   21.1270 H   0  0  0  0  0  0
  -19.6608  -27.3246   20.6740 H   0  0  0  0  0  0
  -17.4185  -26.6639   21.4135 H   0  0  0  0  0  0
  -18.0326  -26.0029   22.9069 H   0  0  0  0  0  0
  -19.7917  -30.7266   24.2328 H   0  0  0  0  0  0
  -17.5029  -31.6248   24.5271 H   0  0  0  0  0  0
  -15.5371  -30.3132   23.7501 H   0  0  0  0  0  0
  -15.8638  -28.0901   22.7024 H   0  0  0  0  0  0
  -24.6159  -30.6958   25.7780 H   0  0  0  0  0  0
  -24.9314  -32.2623   26.5202 H   0  0  0  0  0  0
  -25.8478  -30.8486   27.0109 H   0  0  0  0  0  0
  -26.3196  -29.6537   24.1626 H   0  0  0  0  0  0
  -27.4718  -29.7497   25.4712 H   0  0  0  0  0  0
  -27.8865  -30.4258   23.9200 H   0  0  0  0  0  0
  -27.2650  -33.3659   26.2085 H   0  0  0  0  0  0
  -28.3844  -32.7164   25.0223 H   0  0  0  0  0  0
  -28.1022  -31.8648   26.5289 H   0  0  0  0  0  0
  -28.2579  -38.0087   24.7463 H   0  0  0  0  0  0
  -28.1047  -36.2623   24.6350 H   0  0  0  0  0  0
  -27.2275  -37.1533   25.8858 H   0  0  0  0  0  0
  -20.9447  -29.8956   21.7022 H   0  0  0  0  0  0
  -26.0120  -38.2836   24.1565 H   0  0  0  0  0  0
  -28.9978  -18.8856   22.6352 H   0  0  0  0  0  0
  -30.8240  -18.5346   18.7490 H   0  0  0  0  0  0
  -28.5990  -21.2872   22.2344 H   0  0  0  0  0  0
  -30.4501  -20.9243   18.3668 H   0  0  0  0  0  0
  -31.7679  -24.3684   21.7518 H   0  0  0  0  0  0
  -30.9336  -25.4419   20.6143 H   0  0  0  0  0  0
  -29.2250  -25.2052   22.3022 H   0  0  0  0  0  0
  -29.6677  -23.5249   22.5834 H   0  0  0  0  0  0
  -31.6383  -22.6121   20.1788 H   0  0  0  0  0  0
  -31.0563  -23.7839   19.0089 H   0  0  0  0  0  0
  -27.7693  -23.3915   21.1081 H   0  0  0  0  0  0
  -30.7436  -17.1337   22.2219 H   0  0  0  0  0  0
  -31.5916  -17.1135   20.7210 H   0  0  0  0  0  0
  -27.4343  -24.7360   19.1440 H   0  0  0  0  0  0
  -29.0818  -25.0850   18.9395 H   0  0  0  0  0  0
  -28.9931  -15.6323   21.1161 H   0  0  0  0  0  0
  1 25  1  0  0  0
  1 30  2  0  0  0
  1 84  1  0  0  0
  2  3  1  0  0  0
  2 25  1  0  0  0
  2 85  1  0  0  0
  2 86  1  0  0  0
  3  4  1  0  0  0
  3 87  1  0  0  0
  3 88  1  0  0  0
  4  5  1  0  0  0
  4 89  1  0  0  0
  4 90  1  0  0  0
  5  6  1  0  0  0
  5 26  1  0  0  0
  5 91  1  0  0  0
  6 25  1  0  0  0
  6 92  1  0  0  0
  6 93  1  0  0  0
  7  8  2  0  0  0
  7 26  1  0  0  0
  7 29  1  0  0  0
  8  9  1  0  0  0
  8 22  1  0  0  0
  9 10  1  0  0  0
  9 27  2  0  0  0
 10 11  2  0  0  0
 10 15  1  0  0  0
 11 12  1  0  0  0
 11 94  1  0  0  0
 12 13  2  0  0  0
 12 95  1  0  0  0
 13 14  1  0  0  0
 13 31  1  0  0  0
 14 15  2  0  0  0
 14 96  1  0  0  0
 15 97  1  0  0  0
 16 17  2  0  0  0
 16 21  1  0  0  0
 16 31  1  0  0  0
 17 18  1  0  0  0
 17 98  1  0  0  0
 18 19  2  0  0  0
 18 99  1  0  0  0
 19 20  1  0  0  0
 19 24  1  0  0  0
 20 21  2  0  0  0
 20100  1  0  0  0
 21 23  1  0  0  0
 22 28  1  0  0  0
 22 32  2  0  0  0
 26 27  1  0  0  0
 28101  1  0  0  0
 28102  1  0  0  0
 29103  1  0  0  0
 29104  1  0  0  0
 33 34  1  0  0  0
 33 66  1  0  0  0
 33 70  2  0  0  0
 34 36  1  0  0  0
 34 59  1  0  0  0
 34105  1  0  0  0
 35 44  2  0  0  0
 35 45  1  0  0  0
 35 68  1  0  0  0
 36 56  1  0  0  0
 36106  1  0  0  0
 37 39  1  0  0  0
 37 47  1  0  0  0
 37 66  1  0  0  0
 37107  1  0  0  0
 38 43  2  0  0  0
 38 46  1  0  0  0
 38 47  1  0  0  0
 39 64  1  0  0  0
 39 67  2  0  0  0
 40 52  1  0  0  0
 40 53  2  0  0  0
 40 58  1  0  0  0
 41108  1  0  0  0
 41109  1  0  0  0
 41110  1  0  0  0
 41 48  1  0  0  0
 42 43  1  0  0  0
 42 66  1  0  0  0
 42111  1  0  0  0
 42112  1  0  0  0
 43 44  1  0  0  0
 44113  1  0  0  0
 45 46  2  0  0  0
 45114  1  0  0  0
 46115  1  0  0  0
 47116  1  0  0  0
 47117  1  0  0  0
 48 56  1  0  0  0
 48 65  1  0  0  0
 48118  1  0  0  0
 49 50  1  0  0  0
 49 53  1  0  0  0
 49 64  1  0  0  0
 49119  1  0  0  0
 50 51  1  0  0  0
 50120  1  0  0  0
 50121  1  0  0  0
 51 52  1  0  0  0
 51122  1  0  0  0
 51123  1  0  0  0
 52124  1  0  0  0
 52125  1  0  0  0
 53 54  1  0  0  0
 54 55  2  0  0  0
 54126  1  0  0  0
 55 57  1  0  0  0
 55127  1  0  0  0
 56 69  2  0  0  0
 57 58  2  0  0  0
 57128  1  0  0  0
 58129  1  0  0  0
 59 60  1  0  0  0
 59 61  1  0  0  0
 59 62  1  0  0  0
 60130  1  0  0  0
 60131  1  0  0  0
 60132  1  0  0  0
 61133  1  0  0  0
 61134  1  0  0  0
 61135  1  0  0  0
 62136  1  0  0  0
 62137  1  0  0  0
 62138  1  0  0  0
 63 65  1  0  0  0
 63139  1  0  0  0
 63140  1  0  0  0
 63141  1  0  0  0
 64142  1  0  0  0
 65143  1  0  0  0
 68 82  1  0  0  0
 71 73  2  0  0  0
 71 75  1  0  0  0
 71144  1  0  0  0
 72 74  1  0  0  0
 72 75  2  0  0  0
 72145  1  0  0  0
 73 76  1  0  0  0
 73146  1  0  0  0
 74 76  2  0  0  0
 74147  1  0  0  0
 75 81  1  0  0  0
 76 83  1  0  0  0
 77 78  1  0  0  0
 77 79  1  0  0  0
 77148  1  0  0  0
 77149  1  0  0  0
 78 80  1  0  0  0
 78150  1  0  0  0
 78151  1  0  0  0
 79 83  1  0  0  0
 79152  1  0  0  0
 79153  1  0  0  0
 80 82  1  0  0  0
 80 83  1  0  0  0
 80154  1  0  0  0
 81 84  1  0  0  0
 81155  1  0  0  0
 81156  1  0  0  0
 82157  1  0  0  0
 82158  1  0  0  0
 84159  1  0  0  0
M  ISO  4   1 100  68 101  82 101  84 100
M  END
> <chiral flag>
0

> <version>
0

> <s_m_source_file>
/data/baiqing/PycharmProjects/Reinvent-master-3.2/result/LINK_invent/BTK/process_docking_weight1_custom_product_contain_oxygen_bond_distance_aromatic_linkinvent_7_9_3/rearranged_h_0011.sdf

> <i_m_source_file_index>
29

> <r_mmod_Potential_Energy-OPLS-2005>
167.540740966797

> <r_mmod_Stretch_Energy-OPLS-2005>
79.7425308227539

> <r_mmod_Bend_Energy-OPLS-2005>
206.320938110352

> <r_mmod_Torsional_Energy-OPLS-2005>
292.113128662109

> <r_mmod_Improper_Torsional_Energy-OPLS-2005>
11.2662229537964

> <r_mmod_Van_der_Waal_Energy-OPLS-2005>
151.043914794922

> <r_mmod_Electrostatic_Energy-OPLS-2005>
-409.900146484375

> <r_mmod_Solvation_Energy-OPLS-2005>
-219.620483398438

> <b_mmod_Minimization_Converged-OPLS-2005>
0

> <r_mmod_RMS_Derivative-OPLS-2005>
7.86694145202637

$$$$
29
                    3D
 Structure written by MMmdl.
154162  0  0  1  0            999 V2000
  -30.7208  -14.4233   20.5337 C   0  0  0  0  0  0
  -30.3958  -12.2647   19.4276 C   0  0  0  0  0  0
  -29.4850  -12.4881   18.2064 C   0  0  0  0  0  0
  -28.0034  -12.3689   18.6099 C   0  0  0  0  0  0
  -27.6500  -13.2113   19.8675 C   0  0  2  0  0  0
  -28.6856  -13.0122   20.9967 C   0  0  0  0  0  0
  -25.2538  -13.8189   20.5696 C   0  0  0  0  0  0
  -24.1791  -13.0443   20.9210 C   0  0  0  0  0  0
  -24.6344  -11.6926   20.8701 C   0  0  0  0  0  0
  -23.9007  -10.4299   21.0377 C   0  0  0  0  0  0
  -24.3587   -9.4241   21.9163 C   0  0  0  0  0  0
  -23.6293   -8.2245   22.0734 C   0  0  0  0  0  0
  -22.4282   -8.0253   21.3525 C   0  0  0  0  0  0
  -21.9881   -9.0219   20.4629 C   0  0  0  0  0  0
  -22.7169  -10.2125   20.3055 C   0  0  0  0  0  0
  -21.6856   -6.0715   22.5279 C   0  0  0  0  0  0
  -21.4010   -6.5636   23.8219 C   0  0  0  0  0  0
  -21.3662   -5.6798   24.9188 C   0  0  0  0  0  0
  -21.6051   -4.3047   24.7238 C   0  0  0  0  0  0
  -21.8817   -3.8145   23.4360 C   0  0  0  0  0  0
  -21.9206   -4.6944   22.3412 C   0  0  0  0  0  0
  -22.7837  -13.5231   21.1881 C   0  0  0  0  0  0
  -22.1679   -4.2160   21.0978 F   0  0  0  0  0  0
  -21.5638   -3.4517   25.7744 F   0  0  0  0  0  0
  -30.0191  -13.2695   20.4366 N   0  0  0  0  0  0
  -26.2945  -12.9356   20.3317 N   0  0  0  0  0  0
  -25.9261  -11.6502   20.5698 N   0  0  0  0  0  0
  -22.0498  -12.8205   22.0440 N   0  0  0  0  0  0
  -25.4287  -15.1889   20.4099 N   0  0  0  0  0  0
  -31.8965  -14.5130   20.1682 O   0  0  0  0  0  0
  -21.6646   -6.8842   21.4239 O   0  0  0  0  0  0
  -22.3498  -14.5521   20.6717 O   0  0  0  0  0  0
  -24.6194  -31.8678   23.2113 C   0  0  0  0  0  0
  -25.9084  -32.4828   23.8385 C   0  0  1  0  0  0
  -27.2038  -27.4111   20.0598 C   0  0  0  0  0  0
  -25.5911  -33.8634   24.2308 N   0  0  0  0  0  0
  -23.4034  -30.5012   21.5550 C   0  0  2  0  0  0
  -24.8363  -28.9688   20.1133 C   0  0  0  0  0  0
  -22.7417  -29.4678   22.4976 C   0  0  0  0  0  0
  -18.0291  -28.1371   22.8502 C   0  0  0  0  0  0
  -24.1495  -36.7319   23.2641 C   0  0  0  0  0  0
  -25.9397  -30.8221   21.3696 C   0  0  0  0  0  0
  -26.0056  -29.4587   20.7071 C   0  0  0  0  0  0
  -27.1941  -28.6868   20.6757 C   0  0  0  0  0  0
  -26.0018  -26.9376   19.4800 C   0  0  0  0  0  0
  -24.8295  -27.7079   19.5008 C   0  0  0  0  0  0
  -23.6089  -29.8491   20.1646 C   0  0  0  0  0  0
  -25.4119  -36.3114   24.0334 C   0  0  1  0  0  0
  -20.5888  -28.3662   23.1310 C   0  0  2  0  0  0
  -20.6793  -26.9395   22.5411 C   0  0  0  0  0  0
  -19.5760  -26.6385   21.5214 C   0  0  0  0  0  0
  -18.1940  -26.7924   22.1620 C   0  0  0  0  0  0
  -19.1543  -28.8831   23.2904 C   0  0  0  0  0  0
  -18.9471  -30.1439   23.8920 C   0  0  0  0  0  0
  -17.6472  -30.6574   24.0574 C   0  0  0  0  0  0
  -25.9053  -34.9481   23.5111 C   0  0  0  0  0  0
  -16.5365  -29.9089   23.6308 C   0  0  0  0  0  0
  -16.7285  -28.6499   23.0341 C   0  0  0  0  0  0
  -26.4485  -31.6627   25.0721 C   0  0  0  0  0  0
  -25.3763  -31.3781   26.1477 C   0  0  0  0  0  0
  -27.0294  -30.3058   24.6108 C   0  0  0  0  0  0
  -27.6022  -32.4388   25.7507 C   0  0  0  0  0  0
  -27.5585  -37.1818   24.8456 C   0  0  0  0  0  0
  -21.4147  -29.3026   22.3703 N   0  0  0  0  0  0
  -26.4300  -37.3793   23.9403 N   0  0  0  0  0  0
  -24.6724  -31.0792   22.1015 N   0  0  0  0  0  0
  -23.4195  -28.8209   23.3000 O   0  0  0  0  0  0
  -28.3702  -26.6656   20.0318 O   0  0  0  0  0  0
  -26.5612  -34.8926   22.4668 O   0  0  0  0  0  0
  -23.5370  -32.1445   23.7493 O   0  0  0  0  0  0
  -29.2379  -18.6593   21.3629 C   0  0  0  0  0  0
  -28.8917  -20.0347   21.3764 C   0  0  0  0  0  0
  -29.7837  -18.8567   19.0073 C   0  0  0  0  0  0
  -29.7733  -18.0900   20.1892 C   0  0  0  0  0  0
  -29.0591  -20.8515   20.2285 C   0  0  0  0  0  0
  -29.4258  -20.2104   19.0131 C   0  0  0  0  0  0
  -30.5514  -16.7797   20.1551 C   0  0  0  0  0  0
  -29.6142  -24.5615   19.7447 C   0  0  0  0  0  0
  -28.2666  -25.2899   19.6155 C   0  0  0  0  0  0
  -29.5593  -23.0602   19.3943 C   0  0  0  0  0  0
  -30.0102  -15.5495   20.7407 N   0  0  0  0  0  0
  -28.8913  -22.2271   20.3584 O   0  0  0  0  0  0
  -29.5041  -20.8705   17.8321 F   0  0  0  0  0  0
  -31.4432  -12.3284   19.1252 H   0  0  0  0  0  0
  -30.2637  -11.2571   19.8251 H   0  0  0  0  0  0
  -29.7110  -11.7643   17.4212 H   0  0  0  0  0  0
  -29.6732  -13.4726   17.7764 H   0  0  0  0  0  0
  -27.7869  -11.3141   18.7875 H   0  0  0  0  0  0
  -27.3686  -12.6712   17.7748 H   0  0  0  0  0  0
  -27.6872  -14.2556   19.5598 H   0  0  0  0  0  0
  -28.6442  -11.9931   21.3842 H   0  0  0  0  0  0
  -28.4649  -13.6610   21.8451 H   0  0  0  0  0  0
  -25.2746   -9.5761   22.4704 H   0  0  0  0  0  0
  -24.0050   -7.4642   22.7416 H   0  0  0  0  0  0
  -21.0839   -8.8694   19.8901 H   0  0  0  0  0  0
  -22.3612  -10.9643   19.6144 H   0  0  0  0  0  0
  -21.1998   -7.6155   23.9712 H   0  0  0  0  0  0
  -21.1480   -6.0536   25.9085 H   0  0  0  0  0  0
  -22.0601   -2.7598   23.2862 H   0  0  0  0  0  0
  -22.4143  -11.9886   22.4844 H   0  0  0  0  0  0
  -21.1084  -13.1156   22.2570 H   0  0  0  0  0  0
  -24.6645  -15.8491   20.5187 H   0  0  0  0  0  0
  -26.2825  -15.6253   20.0847 H   0  0  0  0  0  0
  -26.7141  -32.5512   23.1128 H   0  0  0  0  0  0
  -25.0046  -33.9801   25.0439 H   0  0  0  0  0  0
  -22.6938  -31.3217   21.4277 H   0  0  0  0  0  0
  -23.3729  -35.9673   23.3319 H   0  0  0  0  0  0
  -24.3585  -36.8914   22.2047 H   0  0  0  0  0  0
  -23.7269  -37.6541   23.6641 H   0  0  0  0  0  0
  -26.0685  -31.5922   20.6078 H   0  0  0  0  0  0
  -26.8235  -30.8615   21.9955 H   0  0  0  0  0  0
  -28.0991  -29.0632   21.1303 H   0  0  0  0  0  0
  -25.9306  -25.9743   18.9989 H   0  0  0  0  0  0
  -23.9273  -27.3265   19.0434 H   0  0  0  0  0  0
  -23.7353  -30.6369   19.4190 H   0  0  0  0  0  0
  -22.7234  -29.2936   19.8508 H   0  0  0  0  0  0
  -25.1309  -36.1957   25.0828 H   0  0  0  0  0  0
  -21.0027  -28.3217   24.1412 H   0  0  0  0  0  0
  -20.5722  -26.2260   23.3598 H   0  0  0  0  0  0
  -21.6657  -26.7460   22.1186 H   0  0  0  0  0  0
  -19.6932  -25.6306   21.1219 H   0  0  0  0  0  0
  -19.6699  -27.3214   20.6758 H   0  0  0  0  0  0
  -17.4226  -26.6694   21.3999 H   0  0  0  0  0  0
  -18.0323  -26.0058   22.9003 H   0  0  0  0  0  0
  -19.7950  -30.7250   24.2293 H   0  0  0  0  0  0
  -17.5029  -31.6262   24.5168 H   0  0  0  0  0  0
  -15.5367  -30.3003   23.7614 H   0  0  0  0  0  0
  -15.8684  -28.0833   22.7032 H   0  0  0  0  0  0
  -24.5841  -30.7242   25.7809 H   0  0  0  0  0  0
  -24.9090  -32.2987   26.4988 H   0  0  0  0  0  0
  -25.8110  -30.8865   27.0190 H   0  0  0  0  0  0
  -26.2815  -29.6851   24.1158 H   0  0  0  0  0  0
  -27.4033  -29.7269   25.4557 H   0  0  0  0  0  0
  -27.8675  -30.4346   23.9259 H   0  0  0  0  0  0
  -27.2546  -33.3629   26.2145 H   0  0  0  0  0  0
  -28.3792  -32.7089   25.0347 H   0  0  0  0  0  0
  -28.0729  -31.8515   26.5391 H   0  0  0  0  0  0
  -28.2606  -38.0118   24.7502 H   0  0  0  0  0  0
  -28.1092  -36.2646   24.6288 H   0  0  0  0  0  0
  -27.2312  -37.1476   25.8867 H   0  0  0  0  0  0
  -20.9296  -29.8761   21.6952 H   0  0  0  0  0  0
  -26.0175  -38.2869   24.1399 H   0  0  0  0  0  0
  -29.1858  -18.0796   22.2756 H   0  0  0  0  0  0
  -28.5657  -20.4791   22.3067 H   0  0  0  0  0  0
  -30.1441  -18.4355   18.0811 H   0  0  0  0  0  0
  -31.5271  -16.9922   20.5981 H   0  0  0  0  0  0
  -30.7631  -16.5563   19.1039 H   0  0  0  0  0  0
  -30.0526  -24.7084   20.7324 H   0  0  0  0  0  0
  -30.2984  -25.0292   19.0326 H   0  0  0  0  0  0
  -27.5187  -24.7651   20.2146 H   0  0  0  0  0  0
  -27.9459  -25.2294   18.5720 H   0  0  0  0  0  0
  -30.5884  -22.7125   19.2791 H   0  0  0  0  0  0
  -29.0670  -22.9821   18.4263 H   0  0  0  0  0  0
  -29.0377  -15.4963   21.0057 H   0  0  0  0  0  0
  1 25  1  0  0  0
  1 30  2  0  0  0
  1 81  1  0  0  0
  2  3  1  0  0  0
  2 25  1  0  0  0
  2 84  1  0  0  0
  2 85  1  0  0  0
  3  4  1  0  0  0
  3 86  1  0  0  0
  3 87  1  0  0  0
  4  5  1  0  0  0
  4 88  1  0  0  0
  4 89  1  0  0  0
  5  6  1  0  0  0
  5 26  1  0  0  0
  5 90  1  0  0  0
  6 25  1  0  0  0
  6 91  1  0  0  0
  6 92  1  0  0  0
  7  8  2  0  0  0
  7 26  1  0  0  0
  7 29  1  0  0  0
  8  9  1  0  0  0
  8 22  1  0  0  0
  9 10  1  0  0  0
  9 27  2  0  0  0
 10 11  2  0  0  0
 10 15  1  0  0  0
 11 12  1  0  0  0
 11 93  1  0  0  0
 12 13  2  0  0  0
 12 94  1  0  0  0
 13 14  1  0  0  0
 13 31  1  0  0  0
 14 15  2  0  0  0
 14 95  1  0  0  0
 15 96  1  0  0  0
 16 17  2  0  0  0
 16 21  1  0  0  0
 16 31  1  0  0  0
 17 18  1  0  0  0
 17 97  1  0  0  0
 18 19  2  0  0  0
 18 98  1  0  0  0
 19 20  1  0  0  0
 19 24  1  0  0  0
 20 21  2  0  0  0
 20 99  1  0  0  0
 21 23  1  0  0  0
 22 28  1  0  0  0
 22 32  2  0  0  0
 26 27  1  0  0  0
 28100  1  0  0  0
 28101  1  0  0  0
 29102  1  0  0  0
 29103  1  0  0  0
 33 34  1  0  0  0
 33 66  1  0  0  0
 33 70  2  0  0  0
 34 36  1  0  0  0
 34 59  1  0  0  0
 34104  1  0  0  0
 35 44  2  0  0  0
 35 45  1  0  0  0
 35 68  1  0  0  0
 36 56  1  0  0  0
 36105  1  0  0  0
 37 39  1  0  0  0
 37 47  1  0  0  0
 37 66  1  0  0  0
 37106  1  0  0  0
 38 43  2  0  0  0
 38 46  1  0  0  0
 38 47  1  0  0  0
 39 64  1  0  0  0
 39 67  2  0  0  0
 40 52  1  0  0  0
 40 53  2  0  0  0
 40 58  1  0  0  0
 41107  1  0  0  0
 41108  1  0  0  0
 41109  1  0  0  0
 41 48  1  0  0  0
 42 43  1  0  0  0
 42 66  1  0  0  0
 42110  1  0  0  0
 42111  1  0  0  0
 43 44  1  0  0  0
 44112  1  0  0  0
 45 46  2  0  0  0
 45113  1  0  0  0
 46114  1  0  0  0
 47115  1  0  0  0
 47116  1  0  0  0
 48 56  1  0  0  0
 48 65  1  0  0  0
 48117  1  0  0  0
 49 50  1  0  0  0
 49 53  1  0  0  0
 49 64  1  0  0  0
 49118  1  0  0  0
 50 51  1  0  0  0
 50119  1  0  0  0
 50120  1  0  0  0
 51 52  1  0  0  0
 51121  1  0  0  0
 51122  1  0  0  0
 52123  1  0  0  0
 52124  1  0  0  0
 53 54  1  0  0  0
 54 55  2  0  0  0
 54125  1  0  0  0
 55 57  1  0  0  0
 55126  1  0  0  0
 56 69  2  0  0  0
 57 58  2  0  0  0
 57127  1  0  0  0
 58128  1  0  0  0
 59 60  1  0  0  0
 59 61  1  0  0  0
 59 62  1  0  0  0
 60129  1  0  0  0
 60130  1  0  0  0
 60131  1  0  0  0
 61132  1  0  0  0
 61133  1  0  0  0
 61134  1  0  0  0
 62135  1  0  0  0
 62136  1  0  0  0
 62137  1  0  0  0
 63 65  1  0  0  0
 63138  1  0  0  0
 63139  1  0  0  0
 63140  1  0  0  0
 64141  1  0  0  0
 65142  1  0  0  0
 68 79  1  0  0  0
 71 72  2  0  0  0
 71 74  1  0  0  0
 71143  1  0  0  0
 72 75  1  0  0  0
 72144  1  0  0  0
 73 74  2  0  0  0
 73 76  1  0  0  0
 73145  1  0  0  0
 74 77  1  0  0  0
 75 76  2  0  0  0
 75 82  1  0  0  0
 76 83  1  0  0  0
 77 81  1  0  0  0
 77146  1  0  0  0
 77147  1  0  0  0
 78 79  1  0  0  0
 78 80  1  0  0  0
 78148  1  0  0  0
 78149  1  0  0  0
 79150  1  0  0  0
 79151  1  0  0  0
 80 82  1  0  0  0
 80152  1  0  0  0
 80153  1  0  0  0
 81154  1  0  0  0
M  ISO  4   1 100  68 101  79 101  81 100
M  END
> <chiral flag>
0

> <version>
0

> <s_m_source_file>
/data/baiqing/PycharmProjects/Reinvent-master-3.2/result/LINK_invent/BTK/process_docking_weight1_custom_product_contain_oxygen_bond_distance_aromatic_linkinvent_7_9_3/rearranged_h_0011.sdf

> <i_m_source_file_index>
30

> <r_mmod_Potential_Energy-OPLS-2005>
-37.7589836120605

> <r_mmod_Stretch_Energy-OPLS-2005>
37.3119201660156

> <r_mmod_Bend_Energy-OPLS-2005>
112.144645690918

> <r_mmod_Torsional_Energy-OPLS-2005>
223.52961730957

> <r_mmod_Improper_Torsional_Energy-OPLS-2005>
10.0917682647705

> <r_mmod_Van_der_Waal_Energy-OPLS-2005>
175.78059387207

> <r_mmod_Electrostatic_Energy-OPLS-2005>
-410.294860839844

> <r_mmod_Solvation_Energy-OPLS-2005>
-206.057235717773

> <b_mmod_Minimization_Converged-OPLS-2005>
0

> <r_mmod_RMS_Derivative-OPLS-2005>
4.96707916259766

$$$$
30
                    3D
 Structure written by MMmdl.
156164  0  0  1  0            999 V2000
  -30.7640  -14.4044   20.6637 C   0  0  0  0  0  0
  -30.4119  -12.3081   19.4034 C   0  0  0  0  0  0
  -29.4823  -12.5268   18.1958 C   0  0  0  0  0  0
  -28.0106  -12.3697   18.6146 C   0  0  0  0  0  0
  -27.6616  -13.2062   19.8726 C   0  0  2  0  0  0
  -28.7007  -12.9827   20.9943 C   0  0  0  0  0  0
  -25.2564  -13.8153   20.5612 C   0  0  0  0  0  0
  -24.1829  -13.0434   20.9174 C   0  0  0  0  0  0
  -24.6390  -11.6906   20.8740 C   0  0  0  0  0  0
  -23.9067  -10.4284   21.0410 C   0  0  0  0  0  0
  -24.3611   -9.4206   21.9192 C   0  0  0  0  0  0
  -23.6281   -8.2251   22.0773 C   0  0  0  0  0  0
  -22.4266   -8.0290   21.3561 C   0  0  0  0  0  0
  -21.9903   -9.0272   20.4669 C   0  0  0  0  0  0
  -22.7241  -10.2138   20.3073 C   0  0  0  0  0  0
  -21.6853   -6.0733   22.5278 C   0  0  0  0  0  0
  -21.4015   -6.5637   23.8215 C   0  0  0  0  0  0
  -21.3663   -5.6795   24.9177 C   0  0  0  0  0  0
  -21.6044   -4.3065   24.7228 C   0  0  0  0  0  0
  -21.8819   -3.8149   23.4355 C   0  0  0  0  0  0
  -21.9193   -4.6958   22.3405 C   0  0  0  0  0  0
  -22.7852  -13.5244   21.1843 C   0  0  0  0  0  0
  -22.1659   -4.2138   21.0988 F   0  0  0  0  0  0
  -21.5622   -3.4551   25.7748 F   0  0  0  0  0  0
  -30.0422  -13.2697   20.4548 N   0  0  0  0  0  0
  -26.3018  -12.9339   20.3323 N   0  0  0  0  0  0
  -25.9317  -11.6493   20.5737 N   0  0  0  0  0  0
  -22.0483  -12.8257   22.0395 N   0  0  0  0  0  0
  -25.4198  -15.1864   20.3896 N   0  0  0  0  0  0
  -31.7948  -14.6673   20.0389 O   0  0  0  0  0  0
  -21.6651   -6.8873   21.4243 O   0  0  0  0  0  0
  -22.3551  -14.5562   20.6705 O   0  0  0  0  0  0
  -24.6159  -31.8703   23.2111 C   0  0  0  0  0  0
  -25.9056  -32.4834   23.8392 C   0  0  1  0  0  0
  -27.2319  -27.4451   20.0852 C   0  0  0  0  0  0
  -25.5923  -33.8628   24.2327 N   0  0  0  0  0  0
  -23.4009  -30.4934   21.5520 C   0  0  2  0  0  0
  -24.8462  -28.9573   20.1173 C   0  0  0  0  0  0
  -22.7419  -29.4653   22.4994 C   0  0  0  0  0  0
  -18.0293  -28.1358   22.8482 C   0  0  0  0  0  0
  -24.1490  -36.7308   23.2633 C   0  0  0  0  0  0
  -25.9310  -30.8355   21.3642 C   0  0  0  0  0  0
  -26.0096  -29.4727   20.7076 C   0  0  0  0  0  0
  -27.2089  -28.7237   20.6863 C   0  0  0  0  0  0
  -26.0552  -26.9368   19.4986 C   0  0  0  0  0  0
  -24.8622  -27.6859   19.5141 C   0  0  0  0  0  0
  -23.6082  -29.8240   20.1677 C   0  0  0  0  0  0
  -25.4111  -36.3109   24.0337 C   0  0  1  0  0  0
  -20.5869  -28.3643   23.1323 C   0  0  2  0  0  0
  -20.6802  -26.9391   22.5392 C   0  0  0  0  0  0
  -19.5750  -26.6334   21.5223 C   0  0  0  0  0  0
  -18.1936  -26.7888   22.1645 C   0  0  0  0  0  0
  -19.1534  -28.8817   23.2909 C   0  0  0  0  0  0
  -18.9451  -30.1421   23.8922 C   0  0  0  0  0  0
  -17.6446  -30.6554   24.0563 C   0  0  0  0  0  0
  -25.9046  -34.9475   23.5117 C   0  0  0  0  0  0
  -16.5339  -29.9049   23.6338 C   0  0  0  0  0  0
  -16.7277  -28.6480   23.0332 C   0  0  0  0  0  0
  -26.4495  -31.6613   25.0723 C   0  0  0  0  0  0
  -25.3751  -31.3730   26.1466 C   0  0  0  0  0  0
  -27.0335  -30.3052   24.6111 C   0  0  0  0  0  0
  -27.6069  -32.4333   25.7497 C   0  0  0  0  0  0
  -27.5586  -37.1802   24.8471 C   0  0  0  0  0  0
  -21.4153  -29.3030   22.3754 N   0  0  0  0  0  0
  -26.4308  -37.3785   23.9413 N   0  0  0  0  0  0
  -24.6668  -31.0812   22.1012 N   0  0  0  0  0  0
  -23.4200  -28.8191   23.3013 O   0  0  0  0  0  0
  -28.3786  -26.6842   20.0741 O   0  0  0  0  0  0
  -26.5586  -34.8928   22.4669 O   0  0  0  0  0  0
  -23.5356  -32.1453   23.7525 O   0  0  0  0  0  0
  -28.1708  -18.1599   21.3546 C   0  0  0  0  0  0
  -30.4409  -18.9085   21.8061 C   0  0  0  0  0  0
  -28.6141  -16.8182   21.3375 C   0  0  0  0  0  0
  -30.8826  -17.5669   21.7966 C   0  0  0  0  0  0
  -29.0760  -19.2177   21.6110 C   0  0  0  0  0  0
  -29.9707  -16.5111   21.5719 C   0  0  0  0  0  0
  -28.5622  -20.6431   21.8610 C   0  0  0  0  0  0
  -28.5983  -24.1768   20.2259 C   0  0  0  0  0  0
  -28.4510  -23.0198   21.2499 C   0  0  0  0  0  0
  -28.3171  -25.5310   20.9254 C   0  0  0  0  0  0
  -30.3986  -15.1620   21.7072 N   0  0  0  0  0  0
  -28.7790  -21.6428   20.7818 N   0  3  0  0  0  0
  -31.4569  -12.4017   19.0994 H   0  0  0  0  0  0
  -30.3062  -11.2890   19.7797 H   0  0  0  0  0  0
  -29.7208  -11.8174   17.4027 H   0  0  0  0  0  0
  -29.6444  -13.5212   17.7771 H   0  0  0  0  0  0
  -27.8291  -11.3111   18.8099 H   0  0  0  0  0  0
  -27.3553  -12.6438   17.7874 H   0  0  0  0  0  0
  -27.7106  -14.2538   19.5791 H   0  0  0  0  0  0
  -28.6620  -11.9487   21.3395 H   0  0  0  0  0  0
  -28.4502  -13.5924   21.8630 H   0  0  0  0  0  0
  -25.2750   -9.5677   22.4768 H   0  0  0  0  0  0
  -23.9992   -7.4637   22.7497 H   0  0  0  0  0  0
  -21.0832   -8.8799   19.8965 H   0  0  0  0  0  0
  -22.3709  -10.9684   19.6187 H   0  0  0  0  0  0
  -21.2006   -7.6142   23.9716 H   0  0  0  0  0  0
  -21.1485   -6.0521   25.9075 H   0  0  0  0  0  0
  -22.0591   -2.7609   23.2865 H   0  0  0  0  0  0
  -22.4079  -11.9919   22.4796 H   0  0  0  0  0  0
  -21.1106  -13.1314   22.2610 H   0  0  0  0  0  0
  -24.6401  -15.8293   20.4694 H   0  0  0  0  0  0
  -26.2484  -15.6132   19.9966 H   0  0  0  0  0  0
  -26.7108  -32.5548   23.1142 H   0  0  0  0  0  0
  -25.0145  -33.9792   25.0516 H   0  0  0  0  0  0
  -22.6875  -31.3092   21.4140 H   0  0  0  0  0  0
  -23.3755  -35.9641   23.3327 H   0  0  0  0  0  0
  -24.3582  -36.8903   22.2045 H   0  0  0  0  0  0
  -23.7256  -37.6522   23.6636 H   0  0  0  0  0  0
  -26.0452  -31.6029   20.5971 H   0  0  0  0  0  0
  -26.8200  -30.8866   21.9832 H   0  0  0  0  0  0
  -28.1094  -29.1136   21.1397 H   0  0  0  0  0  0
  -26.0648  -25.9626   19.0318 H   0  0  0  0  0  0
  -23.9640  -27.2822   19.0645 H   0  0  0  0  0  0
  -23.7163  -30.6016   19.4101 H   0  0  0  0  0  0
  -22.7315  -29.2446   19.8717 H   0  0  0  0  0  0
  -25.1281  -36.1972   25.0831 H   0  0  0  0  0  0
  -20.9954  -28.3214   24.1452 H   0  0  0  0  0  0
  -20.5795  -26.2228   23.3564 H   0  0  0  0  0  0
  -21.6647  -26.7503   22.1105 H   0  0  0  0  0  0
  -19.6938  -25.6232   21.1282 H   0  0  0  0  0  0
  -19.6690  -27.3124   20.6730 H   0  0  0  0  0  0
  -17.4192  -26.6592   21.4059 H   0  0  0  0  0  0
  -18.0373  -26.0064   22.9090 H   0  0  0  0  0  0
  -19.7938  -30.7233   24.2301 H   0  0  0  0  0  0
  -17.5008  -31.6237   24.5166 H   0  0  0  0  0  0
  -15.5347  -30.2931   23.7663 H   0  0  0  0  0  0
  -15.8679  -28.0797   22.7021 H   0  0  0  0  0  0
  -24.5902  -30.7112   25.7808 H   0  0  0  0  0  0
  -24.8965  -32.2890   26.4928 H   0  0  0  0  0  0
  -25.8083  -30.8881   27.0216 H   0  0  0  0  0  0
  -26.2881  -29.6805   24.1176 H   0  0  0  0  0  0
  -27.4128  -29.7313   25.4577 H   0  0  0  0  0  0
  -27.8712  -30.4384   23.9257 H   0  0  0  0  0  0
  -27.2672  -33.3610   26.2110 H   0  0  0  0  0  0
  -28.3859  -32.6923   25.0317 H   0  0  0  0  0  0
  -28.0758  -31.8436   26.5384 H   0  0  0  0  0  0
  -28.2588  -38.0104   24.7493 H   0  0  0  0  0  0
  -28.1071  -36.2621   24.6299 H   0  0  0  0  0  0
  -27.2297  -37.1488   25.8872 H   0  0  0  0  0  0
  -20.9303  -29.8797   21.7033 H   0  0  0  0  0  0
  -26.0196  -38.2868   24.1403 H   0  0  0  0  0  0
  -27.1146  -18.3642   21.2400 H   0  0  0  0  0  0
  -31.1511  -19.6929   22.0306 H   0  0  0  0  0  0
  -27.8923  -16.0248   21.2092 H   0  0  0  0  0  0
  -31.9244  -17.3551   21.9984 H   0  0  0  0  0  0
  -29.0444  -20.9945   22.7743 H   0  0  0  0  0  0
  -27.4970  -20.5988   22.0910 H   0  0  0  0  0  0
  -27.9039  -24.0339   19.3968 H   0  0  0  0  0  0
  -29.6038  -24.1890   19.8064 H   0  0  0  0  0  0
  -27.4252  -23.0210   21.6235 H   0  0  0  0  0  0
  -29.0883  -23.2442   22.1063 H   0  0  0  0  0  0
  -29.0567  -25.6785   21.7144 H   0  0  0  0  0  0
  -27.3571  -25.4652   21.4431 H   0  0  0  0  0  0
  -31.0952  -15.0678   22.4330 H   0  0  0  0  0  0
  -28.2014  -21.3944   19.9954 H   0  0  0  0  0  0
  -29.7421  -21.6078   20.4876 H   0  0  0  0  0  0
  1 25  1  0  0  0
  1 30  2  0  0  0
  1 81  1  0  0  0
  2  3  1  0  0  0
  2 25  1  0  0  0
  2 83  1  0  0  0
  2 84  1  0  0  0
  3  4  1  0  0  0
  3 85  1  0  0  0
  3 86  1  0  0  0
  4  5  1  0  0  0
  4 87  1  0  0  0
  4 88  1  0  0  0
  5  6  1  0  0  0
  5 26  1  0  0  0
  5 89  1  0  0  0
  6 25  1  0  0  0
  6 90  1  0  0  0
  6 91  1  0  0  0
  7  8  2  0  0  0
  7 26  1  0  0  0
  7 29  1  0  0  0
  8  9  1  0  0  0
  8 22  1  0  0  0
  9 10  1  0  0  0
  9 27  2  0  0  0
 10 11  2  0  0  0
 10 15  1  0  0  0
 11 12  1  0  0  0
 11 92  1  0  0  0
 12 13  2  0  0  0
 12 93  1  0  0  0
 13 14  1  0  0  0
 13 31  1  0  0  0
 14 15  2  0  0  0
 14 94  1  0  0  0
 15 95  1  0  0  0
 16 17  2  0  0  0
 16 21  1  0  0  0
 16 31  1  0  0  0
 17 18  1  0  0  0
 17 96  1  0  0  0
 18 19  2  0  0  0
 18 97  1  0  0  0
 19 20  1  0  0  0
 19 24  1  0  0  0
 20 21  2  0  0  0
 20 98  1  0  0  0
 21 23  1  0  0  0
 22 28  1  0  0  0
 22 32  2  0  0  0
 26 27  1  0  0  0
 28 99  1  0  0  0
 28100  1  0  0  0
 29101  1  0  0  0
 29102  1  0  0  0
 33 34  1  0  0  0
 33 66  1  0  0  0
 33 70  2  0  0  0
 34 36  1  0  0  0
 34 59  1  0  0  0
 34103  1  0  0  0
 35 44  2  0  0  0
 35 45  1  0  0  0
 35 68  1  0  0  0
 36 56  1  0  0  0
 36104  1  0  0  0
 37 39  1  0  0  0
 37 47  1  0  0  0
 37 66  1  0  0  0
 37105  1  0  0  0
 38 43  2  0  0  0
 38 46  1  0  0  0
 38 47  1  0  0  0
 39 64  1  0  0  0
 39 67  2  0  0  0
 40 52  1  0  0  0
 40 53  2  0  0  0
 40 58  1  0  0  0
 41106  1  0  0  0
 41107  1  0  0  0
 41108  1  0  0  0
 41 48  1  0  0  0
 42 43  1  0  0  0
 42 66  1  0  0  0
 42109  1  0  0  0
 42110  1  0  0  0
 43 44  1  0  0  0
 44111  1  0  0  0
 45 46  2  0  0  0
 45112  1  0  0  0
 46113  1  0  0  0
 47114  1  0  0  0
 47115  1  0  0  0
 48 56  1  0  0  0
 48 65  1  0  0  0
 48116  1  0  0  0
 49 50  1  0  0  0
 49 53  1  0  0  0
 49 64  1  0  0  0
 49117  1  0  0  0
 50 51  1  0  0  0
 50118  1  0  0  0
 50119  1  0  0  0
 51 52  1  0  0  0
 51120  1  0  0  0
 51121  1  0  0  0
 52122  1  0  0  0
 52123  1  0  0  0
 53 54  1  0  0  0
 54 55  2  0  0  0
 54124  1  0  0  0
 55 57  1  0  0  0
 55125  1  0  0  0
 56 69  2  0  0  0
 57 58  2  0  0  0
 57126  1  0  0  0
 58127  1  0  0  0
 59 60  1  0  0  0
 59 61  1  0  0  0
 59 62  1  0  0  0
 60128  1  0  0  0
 60129  1  0  0  0
 60130  1  0  0  0
 61131  1  0  0  0
 61132  1  0  0  0
 61133  1  0  0  0
 62134  1  0  0  0
 62135  1  0  0  0
 62136  1  0  0  0
 63 65  1  0  0  0
 63137  1  0  0  0
 63138  1  0  0  0
 63139  1  0  0  0
 64140  1  0  0  0
 65141  1  0  0  0
 68 80  1  0  0  0
 71 73  2  0  0  0
 71 75  1  0  0  0
 71142  1  0  0  0
 72 74  1  0  0  0
 72 75  2  0  0  0
 72143  1  0  0  0
 73 76  1  0  0  0
 73144  1  0  0  0
 74 76  2  0  0  0
 74145  1  0  0  0
 75 77  1  0  0  0
 76 81  1  0  0  0
 77 82  1  0  0  0
 77146  1  0  0  0
 77147  1  0  0  0
 78 79  1  0  0  0
 78 80  1  0  0  0
 78148  1  0  0  0
 78149  1  0  0  0
 79 82  1  0  0  0
 79150  1  0  0  0
 79151  1  0  0  0
 80152  1  0  0  0
 80153  1  0  0  0
 81154  1  0  0  0
 82155  1  0  0  0
 82156  1  0  0  0
M  CHG  1  82   1
M  ISO  4   1 100  68 101  80 101  81 100
M  END
> <chiral flag>
0

> <version>
0

> <s_m_source_file>
/data/baiqing/PycharmProjects/Reinvent-master-3.2/result/LINK_invent/BTK/process_docking_weight1_custom_product_contain_oxygen_bond_distance_aromatic_linkinvent_7_9_3/rearranged_h_0011.sdf

> <i_m_source_file_index>
31

> <r_mmod_Potential_Energy-OPLS-2005>
-196.190368652344

> <r_mmod_Stretch_Energy-OPLS-2005>
35.6467056274414

> <r_mmod_Bend_Energy-OPLS-2005>
100.445503234863

> <r_mmod_Torsional_Energy-OPLS-2005>
287.154571533203

> <r_mmod_Improper_Torsional_Energy-OPLS-2005>
9.43102264404297

> <r_mmod_Van_der_Waal_Energy-OPLS-2005>
140.592468261719

> <r_mmod_Electrostatic_Energy-OPLS-2005>
-302.904388427734

> <r_mmod_Solvation_Energy-OPLS-2005>
-475.400085449219

> <b_mmod_Minimization_Converged-OPLS-2005>
0

> <r_mmod_RMS_Derivative-OPLS-2005>
2.99270963668823

$$$$
31
                    3D
 Structure written by MMmdl.
148156  0  0  1  0            999 V2000
  -30.5089  -14.9122   20.4351 C   0  0  0  0  0  0
  -30.4555  -12.5616   19.4901 C   0  0  0  0  0  0
  -29.5264  -12.5317   18.2520 C   0  0  0  0  0  0
  -28.0565  -12.3206   18.6662 C   0  0  0  0  0  0
  -27.6389  -13.2354   19.8464 C   0  0  2  0  0  0
  -28.6835  -13.2119   20.9840 C   0  0  0  0  0  0
  -25.2500  -13.8182   20.5681 C   0  0  0  0  0  0
  -24.1806  -13.0431   20.9230 C   0  0  0  0  0  0
  -24.6402  -11.6911   20.8760 C   0  0  0  0  0  0
  -23.9076  -10.4289   21.0416 C   0  0  0  0  0  0
  -24.3624   -9.4201   21.9190 C   0  0  0  0  0  0
  -23.6294   -8.2240   22.0758 C   0  0  0  0  0  0
  -22.4276   -8.0282   21.3547 C   0  0  0  0  0  0
  -21.9915   -9.0259   20.4652 C   0  0  0  0  0  0
  -22.7249  -10.2135   20.3063 C   0  0  0  0  0  0
  -21.6853   -6.0736   22.5279 C   0  0  0  0  0  0
  -21.4015   -6.5640   23.8212 C   0  0  0  0  0  0
  -21.3659   -5.6793   24.9175 C   0  0  0  0  0  0
  -21.6044   -4.3056   24.7225 C   0  0  0  0  0  0
  -21.8818   -3.8147   23.4347 C   0  0  0  0  0  0
  -21.9192   -4.6963   22.3402 C   0  0  0  0  0  0
  -22.7826  -13.5218   21.1880 C   0  0  0  0  0  0
  -22.1661   -4.2149   21.0979 F   0  0  0  0  0  0
  -21.5626   -3.4539   25.7738 F   0  0  0  0  0  0
  -29.9682  -13.6307   20.4025 N   0  0  0  0  0  0
  -26.2925  -12.9392   20.3247 N   0  0  0  0  0  0
  -25.9332  -11.6537   20.5742 N   0  0  0  0  0  0
  -22.0465  -12.8213   22.0434 N   0  0  0  0  0  0
  -25.4162  -15.1901   20.4026 N   0  0  0  0  0  0
  -31.6970  -15.0562   20.1234 O   0  0  0  0  0  0
  -21.6639   -6.8881   21.4242 O   0  0  0  0  0  0
  -22.3518  -14.5520   20.6717 O   0  0  0  0  0  0
  -24.6422  -31.8456   23.1895 C   0  0  0  0  0  0
  -25.9199  -32.4704   23.8282 C   0  0  1  0  0  0
  -27.2214  -27.1519   20.1469 C   0  0  0  0  0  0
  -25.5952  -33.8509   24.2201 N   0  0  0  0  0  0
  -23.4453  -30.4654   21.5351 C   0  0  2  0  0  0
  -24.8953  -28.8959   20.1105 C   0  0  0  0  0  0
  -22.7562  -29.4552   22.4864 C   0  0  0  0  0  0
  -18.0305  -28.1392   22.8480 C   0  0  0  0  0  0
  -24.1492  -36.7261   23.2642 C   0  0  0  0  0  0
  -26.0006  -30.7245   21.3860 C   0  0  0  0  0  0
  -26.0728  -29.3373   20.7273 C   0  0  0  0  0  0
  -27.2369  -28.4820   20.7280 C   0  0  0  0  0  0
  -26.0152  -26.8096   19.4937 C   0  0  0  0  0  0
  -24.8787  -27.6448   19.4786 C   0  0  0  0  0  0
  -23.6712  -29.7962   20.1539 C   0  0  0  0  0  0
  -25.4122  -36.3038   24.0318 C   0  0  1  0  0  0
  -20.5917  -28.3717   23.1239 C   0  0  2  0  0  0
  -20.6789  -26.9422   22.5403 C   0  0  0  0  0  0
  -19.5760  -26.6380   21.5213 C   0  0  0  0  0  0
  -18.1944  -26.7931   22.1628 C   0  0  0  0  0  0
  -19.1562  -28.8873   23.2853 C   0  0  0  0  0  0
  -18.9477  -30.1469   23.8878 C   0  0  0  0  0  0
  -17.6473  -30.6589   24.0558 C   0  0  0  0  0  0
  -25.9071  -34.9412   23.5068 C   0  0  0  0  0  0
  -16.5365  -29.9082   23.6333 C   0  0  0  0  0  0
  -16.7289  -28.6500   23.0357 C   0  0  0  0  0  0
  -26.4522  -31.6564   25.0716 C   0  0  0  0  0  0
  -25.3712  -31.3749   26.1414 C   0  0  0  0  0  0
  -27.0385  -30.2963   24.6283 C   0  0  0  0  0  0
  -27.6053  -32.4328   25.7502 C   0  0  0  0  0  0
  -27.5575  -37.1788   24.8465 C   0  0  0  0  0  0
  -21.4255  -29.3048   22.3615 N   0  0  0  0  0  0
  -26.4286  -37.3749   23.9408 N   0  0  0  0  0  0
  -24.7158  -31.0325   22.0923 N   0  0  0  0  0  0
  -23.4210  -28.8096   23.3008 O   0  0  0  0  0  0
  -28.2796  -26.1752   20.2158 O   0  0  0  0  0  0
  -26.5655  -34.8906   22.4645 O   0  0  0  0  0  0
  -23.5543  -32.1325   23.7122 O   0  0  0  0  0  0
  -30.4979  -18.5502   20.3681 C   0  0  0  0  0  0
  -30.1918  -19.9876   20.3030 C   0  0  0  0  0  0
  -28.2013  -18.0915   20.6159 C   0  0  0  0  0  0
  -29.5058  -17.5125   20.5303 C   0  0  0  0  0  0
  -28.8604  -20.5427   20.3787 C   0  0  0  0  0  0
  -27.8953  -19.4982   20.5370 C   0  0  0  0  0  0
  -27.9814  -24.6559   20.0800 C   0  0  0  0  0  0
  -28.9666  -23.3090   20.3181 C   0  0  0  0  0  0
  -29.6181  -15.9877   20.6567 N   0  0  0  0  0  0
  -28.3436  -21.9122   20.2867 O   0  0  0  0  0  0
  -26.5907  -19.8568   20.6201 F   0  0  0  0  0  0
  -31.4867  -12.7370   19.1791 H   0  0  0  0  0  0
  -30.4561  -11.5962   19.9987 H   0  0  0  0  0  0
  -29.8377  -11.7454   17.5632 H   0  0  0  0  0  0
  -29.6191  -13.4710   17.7045 H   0  0  0  0  0  0
  -27.9424  -11.2750   18.9545 H   0  0  0  0  0  0
  -27.3955  -12.4747   17.8124 H   0  0  0  0  0  0
  -27.6160  -14.2467   19.4405 H   0  0  0  0  0  0
  -28.7608  -12.2155   21.4218 H   0  0  0  0  0  0
  -28.3869  -13.8773   21.7964 H   0  0  0  0  0  0
  -25.2769   -9.5672   22.4767 H   0  0  0  0  0  0
  -24.0000   -7.4629   22.7477 H   0  0  0  0  0  0
  -21.0844   -8.8784   19.8957 H   0  0  0  0  0  0
  -22.3712  -10.9678   19.6174 H   0  0  0  0  0  0
  -21.2010   -7.6149   23.9716 H   0  0  0  0  0  0
  -21.1480   -6.0523   25.9077 H   0  0  0  0  0  0
  -22.0597   -2.7608   23.2848 H   0  0  0  0  0  0
  -22.4083  -11.9878   22.4830 H   0  0  0  0  0  0
  -21.1084  -13.1242   22.2641 H   0  0  0  0  0  0
  -24.6295  -15.8261   20.4770 H   0  0  0  0  0  0
  -26.2182  -15.6066   19.9499 H   0  0  0  0  0  0
  -26.7265  -32.5316   23.1014 H   0  0  0  0  0  0
  -25.0077  -33.9626   25.0333 H   0  0  0  0  0  0
  -22.7472  -31.2910   21.3818 H   0  0  0  0  0  0
  -23.3757  -35.9590   23.3292 H   0  0  0  0  0  0
  -24.3578  -36.8903   22.2059 H   0  0  0  0  0  0
  -23.7245  -37.6454   23.6684 H   0  0  0  0  0  0
  -26.1536  -31.4794   20.6136 H   0  0  0  0  0  0
  -26.8721  -30.7754   22.0269 H   0  0  0  0  0  0
  -28.1335  -28.8156   21.2313 H   0  0  0  0  0  0
  -25.9102  -25.8553   19.0018 H   0  0  0  0  0  0
  -23.9801  -27.3016   18.9846 H   0  0  0  0  0  0
  -23.8070  -30.5716   19.3992 H   0  0  0  0  0  0
  -22.7864  -29.2380   19.8427 H   0  0  0  0  0  0
  -25.1309  -36.1869   25.0810 H   0  0  0  0  0  0
  -21.0010  -28.3306   24.1360 H   0  0  0  0  0  0
  -20.5685  -26.2330   23.3621 H   0  0  0  0  0  0
  -21.6654  -26.7429   22.1199 H   0  0  0  0  0  0
  -19.6921  -25.6286   21.1255 H   0  0  0  0  0  0
  -19.6694  -27.3179   20.6734 H   0  0  0  0  0  0
  -17.4210  -26.6673   21.4035 H   0  0  0  0  0  0
  -18.0346  -26.0078   22.9030 H   0  0  0  0  0  0
  -19.7952  -30.7291   24.2241 H   0  0  0  0  0  0
  -17.5025  -31.6268   24.5163 H   0  0  0  0  0  0
  -15.5364  -30.2977   23.7663 H   0  0  0  0  0  0
  -15.8691  -28.0808   22.7085 H   0  0  0  0  0  0
  -24.5894  -30.7094   25.7734 H   0  0  0  0  0  0
  -24.8898  -32.2930   26.4792 H   0  0  0  0  0  0
  -25.7998  -30.8952   27.0222 H   0  0  0  0  0  0
  -26.2998  -29.6690   24.1281 H   0  0  0  0  0  0
  -27.3997  -29.7256   25.4848 H   0  0  0  0  0  0
  -27.8906  -30.4204   23.9597 H   0  0  0  0  0  0
  -27.2645  -33.3646   26.2028 H   0  0  0  0  0  0
  -28.3892  -32.6860   25.0352 H   0  0  0  0  0  0
  -28.0689  -31.8488   26.5463 H   0  0  0  0  0  0
  -28.2585  -38.0091   24.7510 H   0  0  0  0  0  0
  -28.1079  -36.2622   24.6295 H   0  0  0  0  0  0
  -27.2293  -37.1437   25.8868 H   0  0  0  0  0  0
  -20.9461  -29.8768   21.6802 H   0  0  0  0  0  0
  -26.0155  -38.2818   24.1409 H   0  0  0  0  0  0
  -31.5349  -18.2525   20.2974 H   0  0  0  0  0  0
  -31.0171  -20.6732   20.1773 H   0  0  0  0  0  0
  -27.3590  -17.4297   20.7477 H   0  0  0  0  0  0
  -27.1214  -24.4889   20.7294 H   0  0  0  0  0  0
  -27.6025  -24.5258   19.0670 H   0  0  0  0  0  0
  -29.4518  -23.4117   21.2888 H   0  0  0  0  0  0
  -29.7707  -23.3307   19.5826 H   0  0  0  0  0  0
  -28.7268  -15.5824   20.8973 H   0  0  0  0  0  0
  1 25  1  0  0  0
  1 30  2  0  0  0
  1 79  1  0  0  0
  2  3  1  0  0  0
  2 25  1  0  0  0
  2 82  1  0  0  0
  2 83  1  0  0  0
  3  4  1  0  0  0
  3 84  1  0  0  0
  3 85  1  0  0  0
  4  5  1  0  0  0
  4 86  1  0  0  0
  4 87  1  0  0  0
  5  6  1  0  0  0
  5 26  1  0  0  0
  5 88  1  0  0  0
  6 25  1  0  0  0
  6 89  1  0  0  0
  6 90  1  0  0  0
  7  8  2  0  0  0
  7 26  1  0  0  0
  7 29  1  0  0  0
  8  9  1  0  0  0
  8 22  1  0  0  0
  9 10  1  0  0  0
  9 27  2  0  0  0
 10 11  2  0  0  0
 10 15  1  0  0  0
 11 12  1  0  0  0
 11 91  1  0  0  0
 12 13  2  0  0  0
 12 92  1  0  0  0
 13 14  1  0  0  0
 13 31  1  0  0  0
 14 15  2  0  0  0
 14 93  1  0  0  0
 15 94  1  0  0  0
 16 17  2  0  0  0
 16 21  1  0  0  0
 16 31  1  0  0  0
 17 18  1  0  0  0
 17 95  1  0  0  0
 18 19  2  0  0  0
 18 96  1  0  0  0
 19 20  1  0  0  0
 19 24  1  0  0  0
 20 21  2  0  0  0
 20 97  1  0  0  0
 21 23  1  0  0  0
 22 28  1  0  0  0
 22 32  2  0  0  0
 26 27  1  0  0  0
 28 98  1  0  0  0
 28 99  1  0  0  0
 29100  1  0  0  0
 29101  1  0  0  0
 33 34  1  0  0  0
 33 66  1  0  0  0
 33 70  2  0  0  0
 34 36  1  0  0  0
 34 59  1  0  0  0
 34102  1  0  0  0
 35 44  2  0  0  0
 35 45  1  0  0  0
 35 68  1  0  0  0
 36 56  1  0  0  0
 36103  1  0  0  0
 37 39  1  0  0  0
 37 47  1  0  0  0
 37 66  1  0  0  0
 37104  1  0  0  0
 38 43  2  0  0  0
 38 46  1  0  0  0
 38 47  1  0  0  0
 39 64  1  0  0  0
 39 67  2  0  0  0
 40 52  1  0  0  0
 40 53  2  0  0  0
 40 58  1  0  0  0
 41105  1  0  0  0
 41106  1  0  0  0
 41107  1  0  0  0
 41 48  1  0  0  0
 42 43  1  0  0  0
 42 66  1  0  0  0
 42108  1  0  0  0
 42109  1  0  0  0
 43 44  1  0  0  0
 44110  1  0  0  0
 45 46  2  0  0  0
 45111  1  0  0  0
 46112  1  0  0  0
 47113  1  0  0  0
 47114  1  0  0  0
 48 56  1  0  0  0
 48 65  1  0  0  0
 48115  1  0  0  0
 49 50  1  0  0  0
 49 53  1  0  0  0
 49 64  1  0  0  0
 49116  1  0  0  0
 50 51  1  0  0  0
 50117  1  0  0  0
 50118  1  0  0  0
 51 52  1  0  0  0
 51119  1  0  0  0
 51120  1  0  0  0
 52121  1  0  0  0
 52122  1  0  0  0
 53 54  1  0  0  0
 54 55  2  0  0  0
 54123  1  0  0  0
 55 57  1  0  0  0
 55124  1  0  0  0
 56 69  2  0  0  0
 57 58  2  0  0  0
 57125  1  0  0  0
 58126  1  0  0  0
 59 60  1  0  0  0
 59 61  1  0  0  0
 59 62  1  0  0  0
 60127  1  0  0  0
 60128  1  0  0  0
 60129  1  0  0  0
 61130  1  0  0  0
 61131  1  0  0  0
 61132  1  0  0  0
 62133  1  0  0  0
 62134  1  0  0  0
 62135  1  0  0  0
 63 65  1  0  0  0
 63136  1  0  0  0
 63137  1  0  0  0
 63138  1  0  0  0
 64139  1  0  0  0
 65140  1  0  0  0
 68 77  1  0  0  0
 71 72  2  0  0  0
 71 74  1  0  0  0
 71141  1  0  0  0
 72 75  1  0  0  0
 72142  1  0  0  0
 73 74  2  0  0  0
 73 76  1  0  0  0
 73143  1  0  0  0
 74 79  1  0  0  0
 75 76  2  0  0  0
 75 80  1  0  0  0
 76 81  1  0  0  0
 77 78  1  0  0  0
 77144  1  0  0  0
 77145  1  0  0  0
 78 80  1  0  0  0
 78146  1  0  0  0
 78147  1  0  0  0
 79148  1  0  0  0
M  ISO  4   1 100  68 101  77 101  79 100
M  END
> <chiral flag>
0

> <version>
0

> <s_m_source_file>
/data/baiqing/PycharmProjects/Reinvent-master-3.2/result/LINK_invent/BTK/process_docking_weight1_custom_product_contain_oxygen_bond_distance_aromatic_linkinvent_7_9_3/rearranged_h_0011.sdf

> <i_m_source_file_index>
32

> <r_mmod_Potential_Energy-OPLS-2005>
491.091247558594

> <r_mmod_Stretch_Energy-OPLS-2005>
216.953765869141

> <r_mmod_Bend_Energy-OPLS-2005>
302.484619140625

> <r_mmod_Torsional_Energy-OPLS-2005>
212.021713256836

> <r_mmod_Improper_Torsional_Energy-OPLS-2005>
4.76716709136963

> <r_mmod_Van_der_Waal_Energy-OPLS-2005>
130.573699951172

> <r_mmod_Electrostatic_Energy-OPLS-2005>
-337.487060546875

> <r_mmod_Solvation_Energy-OPLS-2005>
-212.451721191406

> <b_mmod_Minimization_Converged-OPLS-2005>
0

> <r_mmod_RMS_Derivative-OPLS-2005>
0.366873770952225

$$$$
32
                    3D
 Structure written by MMmdl.
151159  0  0  1  0            999 V2000
  -30.6240  -14.7128   20.4559 C   0  0  0  0  0  0
  -30.4260  -12.4287   19.4809 C   0  0  0  0  0  0
  -29.5114  -12.5211   18.2394 C   0  0  0  0  0  0
  -28.0342  -12.3558   18.6424 C   0  0  0  0  0  0
  -27.6473  -13.2367   19.8603 C   0  0  2  0  0  0
  -28.6895  -13.1460   20.9987 C   0  0  0  0  0  0
  -25.2522  -13.8215   20.5686 C   0  0  0  0  0  0
  -24.1813  -13.0453   20.9196 C   0  0  0  0  0  0
  -24.6407  -11.6933   20.8734 C   0  0  0  0  0  0
  -23.9079  -10.4307   21.0389 C   0  0  0  0  0  0
  -24.3630   -9.4223   21.9169 C   0  0  0  0  0  0
  -23.6304   -8.2260   22.0746 C   0  0  0  0  0  0
  -22.4283   -8.0295   21.3542 C   0  0  0  0  0  0
  -21.9919   -9.0266   20.4639 C   0  0  0  0  0  0
  -22.7248  -10.2144   20.3044 C   0  0  0  0  0  0
  -21.6862   -6.0743   22.5271 C   0  0  0  0  0  0
  -21.4023   -6.5641   23.8207 C   0  0  0  0  0  0
  -21.3662   -5.6790   24.9168 C   0  0  0  0  0  0
  -21.6044   -4.3052   24.7212 C   0  0  0  0  0  0
  -21.8822   -3.8147   23.4331 C   0  0  0  0  0  0
  -21.9198   -4.6970   22.3394 C   0  0  0  0  0  0
  -22.7830  -13.5230   21.1851 C   0  0  0  0  0  0
  -22.1659   -4.2157   21.0969 F   0  0  0  0  0  0
  -21.5631   -3.4532   25.7720 F   0  0  0  0  0  0
  -30.0014  -13.4846   20.4312 N   0  0  0  0  0  0
  -26.2963  -12.9431   20.3308 N   0  0  0  0  0  0
  -25.9343  -11.6566   20.5756 N   0  0  0  0  0  0
  -22.0480  -12.8229   22.0416 N   0  0  0  0  0  0
  -25.4209  -15.1945   20.4101 N   0  0  0  0  0  0
  -31.7921  -14.8162   20.0689 O   0  0  0  0  0  0
  -21.6649   -6.8888   21.4236 O   0  0  0  0  0  0
  -22.3506  -14.5529   20.6690 O   0  0  0  0  0  0
  -24.6307  -31.8560   23.2001 C   0  0  0  0  0  0
  -25.9132  -32.4765   23.8337 C   0  0  1  0  0  0
  -27.2211  -27.2639   20.1238 C   0  0  0  0  0  0
  -25.5936  -33.8566   24.2266 N   0  0  0  0  0  0
  -23.4275  -30.4802   21.5432 C   0  0  2  0  0  0
  -24.8757  -28.9316   20.1076 C   0  0  0  0  0  0
  -22.7498  -29.4610   22.4907 C   0  0  0  0  0  0
  -18.0299  -28.1380   22.8484 C   0  0  0  0  0  0
  -24.1497  -36.7288   23.2634 C   0  0  0  0  0  0
  -25.9738  -30.7680   21.3829 C   0  0  0  0  0  0
  -26.0457  -29.3913   20.7242 C   0  0  0  0  0  0
  -27.2173  -28.5674   20.7279 C   0  0  0  0  0  0
  -26.0333  -26.8880   19.4534 C   0  0  0  0  0  0
  -24.8752  -27.6874   19.4616 C   0  0  0  0  0  0
  -23.6461  -29.8179   20.1579 C   0  0  0  0  0  0
  -25.4120  -36.3083   24.0330 C   0  0  1  0  0  0
  -20.5902  -28.3701   23.1266 C   0  0  2  0  0  0
  -20.6789  -26.9414   22.5410 C   0  0  0  0  0  0
  -19.5767  -26.6374   21.5215 C   0  0  0  0  0  0
  -18.1945  -26.7924   22.1620 C   0  0  0  0  0  0
  -19.1547  -28.8855   23.2876 C   0  0  0  0  0  0
  -18.9465  -30.1456   23.8894 C   0  0  0  0  0  0
  -17.6462  -30.6581   24.0562 C   0  0  0  0  0  0
  -25.9057  -34.9450   23.5103 C   0  0  0  0  0  0
  -16.5357  -29.9076   23.6325 C   0  0  0  0  0  0
  -16.7284  -28.6493   23.0350 C   0  0  0  0  0  0
  -26.4496  -31.6580   25.0718 C   0  0  0  0  0  0
  -25.3714  -31.3721   26.1433 C   0  0  0  0  0  0
  -27.0337  -30.2998   24.6193 C   0  0  0  0  0  0
  -27.6054  -32.4312   25.7488 C   0  0  0  0  0  0
  -27.5600  -37.1790   24.8451 C   0  0  0  0  0  0
  -21.4206  -29.3050   22.3650 N   0  0  0  0  0  0
  -26.4296  -37.3784   23.9420 N   0  0  0  0  0  0
  -24.6963  -31.0530   22.0981 N   0  0  0  0  0  0
  -23.4196  -28.8150   23.3008 O   0  0  0  0  0  0
  -28.3135  -26.3643   20.2130 O   0  0  0  0  0  0
  -26.5617  -34.8923   22.4665 O   0  0  0  0  0  0
  -23.5459  -32.1386   23.7296 O   0  0  0  0  0  0
  -29.9215  -18.4009   17.9838 C   0  0  0  0  0  0
  -30.0436  -17.2015   18.7101 C   0  0  0  0  0  0
  -29.6505  -19.6289   18.6192 C   0  0  0  0  0  0
  -29.6150  -18.4578   20.7475 C   0  0  0  0  0  0
  -29.8832  -17.1718   20.1126 C   0  0  0  0  0  0
  -29.5061  -19.7228   20.0242 C   0  0  0  0  0  0
  -28.9583  -23.7015   20.5590 C   0  0  0  0  0  0
  -28.1390  -24.9094   19.8603 C   0  0  0  0  0  0
  -28.9051  -22.2244   19.8922 C   0  0  0  0  0  0
  -29.8887  -15.8432   20.7781 N   0  0  0  0  0  0
  -29.2917  -20.9914   20.6527 O   0  0  0  0  0  0
  -31.4711  -12.5289   19.1850 H   0  0  0  0  0  0
  -30.3434  -11.4441   19.9445 H   0  0  0  0  0  0
  -29.7878  -11.7633   17.5056 H   0  0  0  0  0  0
  -29.6521  -13.4855   17.7487 H   0  0  0  0  0  0
  -27.8736  -11.3035   18.8783 H   0  0  0  0  0  0
  -27.3839  -12.5778   17.7944 H   0  0  0  0  0  0
  -27.6497  -14.2659   19.5014 H   0  0  0  0  0  0
  -28.7085  -12.1426   21.4259 H   0  0  0  0  0  0
  -28.4261  -13.8197   21.8158 H   0  0  0  0  0  0
  -25.2776   -9.5703   22.4741 H   0  0  0  0  0  0
  -24.0011   -7.4656   22.7465 H   0  0  0  0  0  0
  -21.0850   -8.8788   19.8956 H   0  0  0  0  0  0
  -22.3695  -10.9685   19.6157 H   0  0  0  0  0  0
  -21.2016   -7.6148   23.9717 H   0  0  0  0  0  0
  -21.1482   -6.0514   25.9073 H   0  0  0  0  0  0
  -22.0598   -2.7610   23.2826 H   0  0  0  0  0  0
  -22.4088  -11.9897   22.4822 H   0  0  0  0  0  0
  -21.1095  -13.1252   22.2608 H   0  0  0  0  0  0
  -24.6539  -15.8493   20.5182 H   0  0  0  0  0  0
  -26.2720  -15.6335   20.0812 H   0  0  0  0  0  0
  -26.7194  -32.5423   23.1073 H   0  0  0  0  0  0
  -25.0108  -33.9697   25.0431 H   0  0  0  0  0  0
  -22.7246  -31.3034   21.3992 H   0  0  0  0  0  0
  -23.3787  -35.9590   23.3251 H   0  0  0  0  0  0
  -24.3611  -36.8955   22.2062 H   0  0  0  0  0  0
  -23.7209  -37.6460   23.6678 H   0  0  0  0  0  0
  -26.1139  -31.5300   20.6151 H   0  0  0  0  0  0
  -26.8505  -30.8151   22.0170 H   0  0  0  0  0  0
  -28.1074  -28.9110   21.2363 H   0  0  0  0  0  0
  -25.9612  -25.9548   18.9169 H   0  0  0  0  0  0
  -23.9851  -27.3344   18.9594 H   0  0  0  0  0  0
  -23.7705  -30.5966   19.4044 H   0  0  0  0  0  0
  -22.7642  -29.2517   19.8525 H   0  0  0  0  0  0
  -25.1302  -36.1934   25.0823 H   0  0  0  0  0  0
  -21.0005  -28.3286   24.1384 H   0  0  0  0  0  0
  -20.5701  -26.2309   23.3617 H   0  0  0  0  0  0
  -21.6657  -26.7444   22.1198 H   0  0  0  0  0  0
  -19.6930  -25.6282   21.1255 H   0  0  0  0  0  0
  -19.6711  -27.3176   20.6741 H   0  0  0  0  0  0
  -17.4222  -26.6685   21.4013 H   0  0  0  0  0  0
  -18.0335  -26.0059   22.9007 H   0  0  0  0  0  0
  -19.7940  -30.7272   24.2264 H   0  0  0  0  0  0
  -17.5014  -31.6263   24.5158 H   0  0  0  0  0  0
  -15.5354  -30.2972   23.7645 H   0  0  0  0  0  0
  -15.8690  -28.0806   22.7061 H   0  0  0  0  0  0
  -24.5890  -30.7073   25.7749 H   0  0  0  0  0  0
  -24.8896  -32.2885   26.4853 H   0  0  0  0  0  0
  -25.8022  -30.8890   27.0213 H   0  0  0  0  0  0
  -26.2909  -29.6744   24.1224 H   0  0  0  0  0  0
  -27.4035  -29.7261   25.4703 H   0  0  0  0  0  0
  -27.8786  -30.4282   23.9422 H   0  0  0  0  0  0
  -27.2666  -33.3615   26.2063 H   0  0  0  0  0  0
  -28.3860  -32.6868   25.0307 H   0  0  0  0  0  0
  -28.0720  -31.8431   26.5404 H   0  0  0  0  0  0
  -28.2567  -38.0141   24.7588 H   0  0  0  0  0  0
  -28.1152  -36.2679   24.6168 H   0  0  0  0  0  0
  -27.2330  -37.1304   25.8852 H   0  0  0  0  0  0
  -20.9380  -29.8783   21.6870 H   0  0  0  0  0  0
  -26.0183  -38.2854   24.1457 H   0  0  0  0  0  0
  -30.0301  -18.3759   16.9078 H   0  0  0  0  0  0
  -30.2300  -16.2897   18.1602 H   0  0  0  0  0  0
  -29.5703  -20.4951   17.9815 H   0  0  0  0  0  0
  -29.4868  -18.4791   21.8197 H   0  0  0  0  0  0
  -28.6090  -23.6198   21.5884 H   0  0  0  0  0  0
  -30.0060  -23.9934   20.6347 H   0  0  0  0  0  0
  -27.1028  -24.6222   20.0292 H   0  0  0  0  0  0
  -28.2986  -24.8394   18.7838 H   0  0  0  0  0  0
  -29.5254  -22.3041   19.0017 H   0  0  0  0  0  0
  -27.8886  -22.0526   19.5364 H   0  0  0  0  0  0
  -29.0753  -15.6548   21.3447 H   0  0  0  0  0  0
  1 25  1  0  0  0
  1 30  2  0  0  0
  1 80  1  0  0  0
  2  3  1  0  0  0
  2 25  1  0  0  0
  2 82  1  0  0  0
  2 83  1  0  0  0
  3  4  1  0  0  0
  3 84  1  0  0  0
  3 85  1  0  0  0
  4  5  1  0  0  0
  4 86  1  0  0  0
  4 87  1  0  0  0
  5  6  1  0  0  0
  5 26  1  0  0  0
  5 88  1  0  0  0
  6 25  1  0  0  0
  6 89  1  0  0  0
  6 90  1  0  0  0
  7  8  2  0  0  0
  7 26  1  0  0  0
  7 29  1  0  0  0
  8  9  1  0  0  0
  8 22  1  0  0  0
  9 10  1  0  0  0
  9 27  2  0  0  0
 10 11  2  0  0  0
 10 15  1  0  0  0
 11 12  1  0  0  0
 11 91  1  0  0  0
 12 13  2  0  0  0
 12 92  1  0  0  0
 13 14  1  0  0  0
 13 31  1  0  0  0
 14 15  2  0  0  0
 14 93  1  0  0  0
 15 94  1  0  0  0
 16 17  2  0  0  0
 16 21  1  0  0  0
 16 31  1  0  0  0
 17 18  1  0  0  0
 17 95  1  0  0  0
 18 19  2  0  0  0
 18 96  1  0  0  0
 19 20  1  0  0  0
 19 24  1  0  0  0
 20 21  2  0  0  0
 20 97  1  0  0  0
 21 23  1  0  0  0
 22 28  1  0  0  0
 22 32  2  0  0  0
 26 27  1  0  0  0
 28 98  1  0  0  0
 28 99  1  0  0  0
 29100  1  0  0  0
 29101  1  0  0  0
 33 34  1  0  0  0
 33 66  1  0  0  0
 33 70  2  0  0  0
 34 36  1  0  0  0
 34 59  1  0  0  0
 34102  1  0  0  0
 35 44  2  0  0  0
 35 45  1  0  0  0
 35 68  1  0  0  0
 36 56  1  0  0  0
 36103  1  0  0  0
 37 39  1  0  0  0
 37 47  1  0  0  0
 37 66  1  0  0  0
 37104  1  0  0  0
 38 43  2  0  0  0
 38 46  1  0  0  0
 38 47  1  0  0  0
 39 64  1  0  0  0
 39 67  2  0  0  0
 40 52  1  0  0  0
 40 53  2  0  0  0
 40 58  1  0  0  0
 41105  1  0  0  0
 41106  1  0  0  0
 41107  1  0  0  0
 41 48  1  0  0  0
 42 43  1  0  0  0
 42 66  1  0  0  0
 42108  1  0  0  0
 42109  1  0  0  0
 43 44  1  0  0  0
 44110  1  0  0  0
 45 46  2  0  0  0
 45111  1  0  0  0
 46112  1  0  0  0
 47113  1  0  0  0
 47114  1  0  0  0
 48 56  1  0  0  0
 48 65  1  0  0  0
 48115  1  0  0  0
 49 50  1  0  0  0
 49 53  1  0  0  0
 49 64  1  0  0  0
 49116  1  0  0  0
 50 51  1  0  0  0
 50117  1  0  0  0
 50118  1  0  0  0
 51 52  1  0  0  0
 51119  1  0  0  0
 51120  1  0  0  0
 52121  1  0  0  0
 52122  1  0  0  0
 53 54  1  0  0  0
 54 55  2  0  0  0
 54123  1  0  0  0
 55 57  1  0  0  0
 55124  1  0  0  0
 56 69  2  0  0  0
 57 58  2  0  0  0
 57125  1  0  0  0
 58126  1  0  0  0
 59 60  1  0  0  0
 59 61  1  0  0  0
 59 62  1  0  0  0
 60127  1  0  0  0
 60128  1  0  0  0
 60129  1  0  0  0
 61130  1  0  0  0
 61131  1  0  0  0
 61132  1  0  0  0
 62133  1  0  0  0
 62134  1  0  0  0
 62135  1  0  0  0
 63 65  1  0  0  0
 63136  1  0  0  0
 63137  1  0  0  0
 63138  1  0  0  0
 64139  1  0  0  0
 65140  1  0  0  0
 68 78  1  0  0  0
 71 72  2  0  0  0
 71 73  1  0  0  0
 71141  1  0  0  0
 72 75  1  0  0  0
 72142  1  0  0  0
 73 76  2  0  0  0
 73143  1  0  0  0
 74 75  2  0  0  0
 74 76  1  0  0  0
 74144  1  0  0  0
 75 80  1  0  0  0
 76 81  1  0  0  0
 77 78  1  0  0  0
 77 79  1  0  0  0
 77145  1  0  0  0
 77146  1  0  0  0
 78147  1  0  0  0
 78148  1  0  0  0
 79 81  1  0  0  0
 79149  1  0  0  0
 79150  1  0  0  0
 80151  1  0  0  0
M  ISO  4   1 100  68 101  78 101  80 100
M  END
> <chiral flag>
0

> <version>
0

> <s_m_source_file>
/data/baiqing/PycharmProjects/Reinvent-master-3.2/result/LINK_invent/BTK/process_docking_weight1_custom_product_contain_oxygen_bond_distance_aromatic_linkinvent_7_9_3/rearranged_h_0011.sdf

> <i_m_source_file_index>
33

> <r_mmod_Potential_Energy-OPLS-2005>
185.519424438477

> <r_mmod_Stretch_Energy-OPLS-2005>
124.80167388916

> <r_mmod_Bend_Energy-OPLS-2005>
166.076385498047

> <r_mmod_Torsional_Energy-OPLS-2005>
237.988235473633

> <r_mmod_Improper_Torsional_Energy-OPLS-2005>
4.65315580368042

> <r_mmod_Van_der_Waal_Energy-OPLS-2005>
146.747375488281

> <r_mmod_Electrostatic_Energy-OPLS-2005>
-355.506103515625

> <r_mmod_Solvation_Energy-OPLS-2005>
-217.155700683594

> <b_mmod_Minimization_Converged-OPLS-2005>
0

> <r_mmod_RMS_Derivative-OPLS-2005>
1.40038752555847

$$$$
33
                    3D
 Structure written by MMmdl.
148156  0  0  1  0            999 V2000
  -30.5180  -14.9163   20.4264 C   0  0  0  0  0  0
  -30.4549  -12.5644   19.4862 C   0  0  0  0  0  0
  -29.5228  -12.5297   18.2506 C   0  0  0  0  0  0
  -28.0527  -12.3240   18.6688 C   0  0  0  0  0  0
  -27.6376  -13.2401   19.8501 C   0  0  2  0  0  0
  -28.6875  -13.2194   20.9834 C   0  0  0  0  0  0
  -25.2444  -13.8145   20.5680 C   0  0  0  0  0  0
  -24.1762  -13.0380   20.9192 C   0  0  0  0  0  0
  -24.6398  -11.6877   20.8749 C   0  0  0  0  0  0
  -23.9083  -10.4258   21.0408 C   0  0  0  0  0  0
  -24.3624   -9.4179   21.9192 C   0  0  0  0  0  0
  -23.6285   -8.2224   22.0761 C   0  0  0  0  0  0
  -22.4270   -8.0270   21.3546 C   0  0  0  0  0  0
  -21.9910   -9.0248   20.4651 C   0  0  0  0  0  0
  -22.7250  -10.2119   20.3059 C   0  0  0  0  0  0
  -21.6847   -6.0730   22.5279 C   0  0  0  0  0  0
  -21.4009   -6.5636   23.8211 C   0  0  0  0  0  0
  -21.3657   -5.6790   24.9174 C   0  0  0  0  0  0
  -21.6044   -4.3051   24.7223 C   0  0  0  0  0  0
  -21.8819   -3.8144   23.4342 C   0  0  0  0  0  0
  -21.9192   -4.6961   22.3399 C   0  0  0  0  0  0
  -22.7787  -13.5170   21.1859 C   0  0  0  0  0  0
  -22.1659   -4.2145   21.0975 F   0  0  0  0  0  0
  -21.5631   -3.4534   25.7737 F   0  0  0  0  0  0
  -29.9701  -13.6370   20.3958 N   0  0  0  0  0  0
  -26.2926  -12.9403   20.3314 N   0  0  0  0  0  0
  -25.9346  -11.6535   20.5782 N   0  0  0  0  0  0
  -22.0445  -12.8176   22.0438 N   0  0  0  0  0  0
  -25.3966  -15.1857   20.4089 N   0  0  0  0  0  0
  -31.7082  -15.0524   20.1224 O   0  0  0  0  0  0
  -21.6630   -6.8872   21.4240 O   0  0  0  0  0  0
  -22.3472  -14.5485   20.6722 O   0  0  0  0  0  0
  -24.6436  -31.8436   23.1914 C   0  0  0  0  0  0
  -25.9214  -32.4690   23.8291 C   0  0  1  0  0  0
  -27.2211  -27.1507   20.1421 C   0  0  0  0  0  0
  -25.5964  -33.8498   24.2205 N   0  0  0  0  0  0
  -23.4469  -30.4663   21.5347 C   0  0  2  0  0  0
  -24.8956  -28.8961   20.1108 C   0  0  0  0  0  0
  -22.7572  -29.4547   22.4846 C   0  0  0  0  0  0
  -18.0304  -28.1392   22.8468 C   0  0  0  0  0  0
  -24.1484  -36.7235   23.2648 C   0  0  0  0  0  0
  -26.0042  -30.7209   21.3908 C   0  0  0  0  0  0
  -26.0738  -29.3359   20.7273 C   0  0  0  0  0  0
  -27.2375  -28.4804   20.7248 C   0  0  0  0  0  0
  -26.0126  -26.8085   19.4931 C   0  0  0  0  0  0
  -24.8769  -27.6445   19.4793 C   0  0  0  0  0  0
  -23.6743  -29.7999   20.1527 C   0  0  0  0  0  0
  -25.4115  -36.3020   24.0327 C   0  0  1  0  0  0
  -20.5918  -28.3715   23.1220 C   0  0  2  0  0  0
  -20.6786  -26.9417   22.5389 C   0  0  0  0  0  0
  -19.5764  -26.6368   21.5199 C   0  0  0  0  0  0
  -18.1943  -26.7929   22.1612 C   0  0  0  0  0  0
  -19.1561  -28.8872   23.2835 C   0  0  0  0  0  0
  -18.9487  -30.1472   23.8857 C   0  0  0  0  0  0
  -17.6485  -30.6586   24.0562 C   0  0  0  0  0  0
  -25.9070  -34.9402   23.5063 C   0  0  0  0  0  0
  -16.5374  -29.9080   23.6346 C   0  0  0  0  0  0
  -16.7290  -28.6504   23.0351 C   0  0  0  0  0  0
  -26.4544  -31.6571   25.0737 C   0  0  0  0  0  0
  -25.3737  -31.3756   26.1436 C   0  0  0  0  0  0
  -27.0432  -30.2971   24.6331 C   0  0  0  0  0  0
  -27.6070  -32.4353   25.7514 C   0  0  0  0  0  0
  -27.5564  -37.1771   24.8472 C   0  0  0  0  0  0
  -21.4262  -29.3046   22.3596 N   0  0  0  0  0  0
  -26.4272  -37.3738   23.9421 N   0  0  0  0  0  0
  -24.7178  -31.0314   22.0937 N   0  0  0  0  0  0
  -23.4215  -28.8081   23.2986 O   0  0  0  0  0  0
  -28.2796  -26.1744   20.2072 O   0  0  0  0  0  0
  -26.5646  -34.8901   22.4636 O   0  0  0  0  0  0
  -23.5553  -32.1300   23.7137 O   0  0  0  0  0  0
  -30.5195  -18.5584   20.2859 C   0  0  0  0  0  0
  -30.2065  -19.9937   20.2173 C   0  0  0  0  0  0
  -29.5366  -17.5244   20.5114 C   0  0  0  0  0  0
  -28.8787  -20.5452   20.3529 C   0  0  0  0  0  0
  -28.2358  -18.0942   20.6595 C   0  0  0  0  0  0
  -27.9258  -19.5011   20.5739 C   0  0  0  0  0  0
  -27.9843  -24.6559   20.0558 C   0  0  0  0  0  0
  -28.9709  -23.3104   20.2951 C   0  0  0  0  0  0
  -29.6360  -15.9991   20.6330 N   0  0  0  0  0  0
  -28.3538  -21.9109   20.2580 O   0  0  0  0  0  0
  -27.2134  -17.2410   20.8952 F   0  0  0  0  0  0
  -26.6264  -19.8623   20.7144 F   0  0  0  0  0  0
  -31.4848  -12.7387   19.1709 H   0  0  0  0  0  0
  -30.4577  -11.6005   19.9971 H   0  0  0  0  0  0
  -29.8305  -11.7370   17.5671 H   0  0  0  0  0  0
  -29.6162  -13.4644   17.6958 H   0  0  0  0  0  0
  -27.9372  -11.2787   18.9574 H   0  0  0  0  0  0
  -27.3892  -12.4782   17.8171 H   0  0  0  0  0  0
  -27.6100  -14.2520   19.4458 H   0  0  0  0  0  0
  -28.7665  -12.2239   21.4222 H   0  0  0  0  0  0
  -28.3946  -13.8859   21.7963 H   0  0  0  0  0  0
  -25.2770   -9.5652   22.4769 H   0  0  0  0  0  0
  -23.9986   -7.4617   22.7483 H   0  0  0  0  0  0
  -21.0839   -8.8776   19.8956 H   0  0  0  0  0  0
  -22.3716  -10.9665   19.6167 H   0  0  0  0  0  0
  -21.1997   -7.6145   23.9713 H   0  0  0  0  0  0
  -21.1479   -6.0519   25.9078 H   0  0  0  0  0  0
  -22.0601   -2.7605   23.2844 H   0  0  0  0  0  0
  -22.4058  -11.9832   22.4817 H   0  0  0  0  0  0
  -21.1079  -13.1231   22.2677 H   0  0  0  0  0  0
  -24.6200  -15.8213   20.5481 H   0  0  0  0  0  0
  -26.2546  -15.6692   20.1760 H   0  0  0  0  0  0
  -26.7275  -32.5293   23.1014 H   0  0  0  0  0  0
  -25.0139  -33.9611   25.0370 H   0  0  0  0  0  0
  -22.7499  -31.2930   21.3815 H   0  0  0  0  0  0
  -23.3761  -35.9554   23.3299 H   0  0  0  0  0  0
  -24.3569  -36.8860   22.2061 H   0  0  0  0  0  0
  -23.7224  -37.6423   23.6690 H   0  0  0  0  0  0
  -26.1665  -31.4797   20.6237 H   0  0  0  0  0  0
  -26.8725  -30.7612   22.0374 H   0  0  0  0  0  0
  -28.1353  -28.8135   21.2256 H   0  0  0  0  0  0
  -25.9047  -25.8533   19.0029 H   0  0  0  0  0  0
  -23.9770  -27.3009   18.9880 H   0  0  0  0  0  0
  -23.8179  -30.5778   19.4017 H   0  0  0  0  0  0
  -22.7889  -29.2463   19.8357 H   0  0  0  0  0  0
  -25.1301  -36.1841   25.0820 H   0  0  0  0  0  0
  -21.0011  -28.3296   24.1338 H   0  0  0  0  0  0
  -20.5659  -26.2333   23.3605 H   0  0  0  0  0  0
  -21.6652  -26.7398   22.1200 H   0  0  0  0  0  0
  -19.6929  -25.6270   21.1246 H   0  0  0  0  0  0
  -19.6710  -27.3162   20.6719 H   0  0  0  0  0  0
  -17.4209  -26.6661   21.4020 H   0  0  0  0  0  0
  -18.0354  -26.0079   22.9013 H   0  0  0  0  0  0
  -19.7970  -30.7298   24.2192 H   0  0  0  0  0  0
  -17.5048  -31.6266   24.5166 H   0  0  0  0  0  0
  -15.5378  -30.2975   23.7708 H   0  0  0  0  0  0
  -15.8683  -28.0826   22.7079 H   0  0  0  0  0  0
  -24.5913  -30.7103   25.7760 H   0  0  0  0  0  0
  -24.8942  -32.2943   26.4832 H   0  0  0  0  0  0
  -25.8024  -30.8945   27.0236 H   0  0  0  0  0  0
  -26.3067  -29.6668   24.1331 H   0  0  0  0  0  0
  -27.4044  -29.7288   25.4916 H   0  0  0  0  0  0
  -27.8971  -30.4218   23.9666 H   0  0  0  0  0  0
  -27.2661  -33.3683   26.2013 H   0  0  0  0  0  0
  -28.3918  -32.6854   25.0366 H   0  0  0  0  0  0
  -28.0703  -31.8534   26.5487 H   0  0  0  0  0  0
  -28.2574  -38.0073   24.7515 H   0  0  0  0  0  0
  -28.1058  -36.2599   24.6302 H   0  0  0  0  0  0
  -27.2282  -37.1415   25.8875 H   0  0  0  0  0  0
  -20.9470  -29.8778   21.6791 H   0  0  0  0  0  0
  -26.0130  -38.2795   24.1447 H   0  0  0  0  0  0
  -31.5507  -18.2599   20.1616 H   0  0  0  0  0  0
  -31.0204  -20.6806   20.0326 H   0  0  0  0  0  0
  -27.1176  -24.4813   20.6939 H   0  0  0  0  0  0
  -27.6158  -24.5342   19.0376 H   0  0  0  0  0  0
  -29.4462  -23.4120   21.2708 H   0  0  0  0  0  0
  -29.7820  -23.3373   19.5669 H   0  0  0  0  0  0
  -28.7301  -15.6175   20.8606 H   0  0  0  0  0  0
  1 25  1  0  0  0
  1 30  2  0  0  0
  1 79  1  0  0  0
  2  3  1  0  0  0
  2 25  1  0  0  0
  2 83  1  0  0  0
  2 84  1  0  0  0
  3  4  1  0  0  0
  3 85  1  0  0  0
  3 86  1  0  0  0
  4  5  1  0  0  0
  4 87  1  0  0  0
  4 88  1  0  0  0
  5  6  1  0  0  0
  5 26  1  0  0  0
  5 89  1  0  0  0
  6 25  1  0  0  0
  6 90  1  0  0  0
  6 91  1  0  0  0
  7  8  2  0  0  0
  7 26  1  0  0  0
  7 29  1  0  0  0
  8  9  1  0  0  0
  8 22  1  0  0  0
  9 10  1  0  0  0
  9 27  2  0  0  0
 10 11  2  0  0  0
 10 15  1  0  0  0
 11 12  1  0  0  0
 11 92  1  0  0  0
 12 13  2  0  0  0
 12 93  1  0  0  0
 13 14  1  0  0  0
 13 31  1  0  0  0
 14 15  2  0  0  0
 14 94  1  0  0  0
 15 95  1  0  0  0
 16 17  2  0  0  0
 16 21  1  0  0  0
 16 31  1  0  0  0
 17 18  1  0  0  0
 17 96  1  0  0  0
 18 19  2  0  0  0
 18 97  1  0  0  0
 19 20  1  0  0  0
 19 24  1  0  0  0
 20 21  2  0  0  0
 20 98  1  0  0  0
 21 23  1  0  0  0
 22 28  1  0  0  0
 22 32  2  0  0  0
 26 27  1  0  0  0
 28 99  1  0  0  0
 28100  1  0  0  0
 29101  1  0  0  0
 29102  1  0  0  0
 33 34  1  0  0  0
 33 66  1  0  0  0
 33 70  2  0  0  0
 34 36  1  0  0  0
 34 59  1  0  0  0
 34103  1  0  0  0
 35 44  2  0  0  0
 35 45  1  0  0  0
 35 68  1  0  0  0
 36 56  1  0  0  0
 36104  1  0  0  0
 37 39  1  0  0  0
 37 47  1  0  0  0
 37 66  1  0  0  0
 37105  1  0  0  0
 38 43  2  0  0  0
 38 46  1  0  0  0
 38 47  1  0  0  0
 39 64  1  0  0  0
 39 67  2  0  0  0
 40 52  1  0  0  0
 40 53  2  0  0  0
 40 58  1  0  0  0
 41106  1  0  0  0
 41107  1  0  0  0
 41108  1  0  0  0
 41 48  1  0  0  0
 42 43  1  0  0  0
 42 66  1  0  0  0
 42109  1  0  0  0
 42110  1  0  0  0
 43 44  1  0  0  0
 44111  1  0  0  0
 45 46  2  0  0  0
 45112  1  0  0  0
 46113  1  0  0  0
 47114  1  0  0  0
 47115  1  0  0  0
 48 56  1  0  0  0
 48 65  1  0  0  0
 48116  1  0  0  0
 49 50  1  0  0  0
 49 53  1  0  0  0
 49 64  1  0  0  0
 49117  1  0  0  0
 50 51  1  0  0  0
 50118  1  0  0  0
 50119  1  0  0  0
 51 52  1  0  0  0
 51120  1  0  0  0
 51121  1  0  0  0
 52122  1  0  0  0
 52123  1  0  0  0
 53 54  1  0  0  0
 54 55  2  0  0  0
 54124  1  0  0  0
 55 57  1  0  0  0
 55125  1  0  0  0
 56 69  2  0  0  0
 57 58  2  0  0  0
 57126  1  0  0  0
 58127  1  0  0  0
 59 60  1  0  0  0
 59 61  1  0  0  0
 59 62  1  0  0  0
 60128  1  0  0  0
 60129  1  0  0  0
 60130  1  0  0  0
 61131  1  0  0  0
 61132  1  0  0  0
 61133  1  0  0  0
 62134  1  0  0  0
 62135  1  0  0  0
 62136  1  0  0  0
 63 65  1  0  0  0
 63137  1  0  0  0
 63138  1  0  0  0
 63139  1  0  0  0
 64140  1  0  0  0
 65141  1  0  0  0
 68 77  1  0  0  0
 71 72  2  0  0  0
 71 73  1  0  0  0
 71142  1  0  0  0
 72 74  1  0  0  0
 72143  1  0  0  0
 73 75  2  0  0  0
 73 79  1  0  0  0
 74 76  2  0  0  0
 74 80  1  0  0  0
 75 76  1  0  0  0
 75 81  1  0  0  0
 76 82  1  0  0  0
 77 78  1  0  0  0
 77144  1  0  0  0
 77145  1  0  0  0
 78 80  1  0  0  0
 78146  1  0  0  0
 78147  1  0  0  0
 79148  1  0  0  0
M  ISO  4   1 100  68 101  77 101  79 100
M  END
> <chiral flag>
0

> <version>
0

> <s_m_source_file>
/data/baiqing/PycharmProjects/Reinvent-master-3.2/result/LINK_invent/BTK/process_docking_weight1_custom_product_contain_oxygen_bond_distance_aromatic_linkinvent_7_9_3/rearranged_h_0011.sdf

> <i_m_source_file_index>
34

> <r_mmod_Potential_Energy-OPLS-2005>
484.214324951172

> <r_mmod_Stretch_Energy-OPLS-2005>
215.82551574707

> <r_mmod_Bend_Energy-OPLS-2005>
304.97802734375

> <r_mmod_Torsional_Energy-OPLS-2005>
210.716842651367

> <r_mmod_Improper_Torsional_Energy-OPLS-2005>
3.92577123641968

> <r_mmod_Van_der_Waal_Energy-OPLS-2005>
133.032150268555

> <r_mmod_Electrostatic_Energy-OPLS-2005>
-357.032440185547

> <r_mmod_Solvation_Energy-OPLS-2005>
-202.940658569336

> <b_mmod_Minimization_Converged-OPLS-2005>
0

> <r_mmod_RMS_Derivative-OPLS-2005>
1.12868571281433

$$$$
34
                    3D
 Structure written by MMmdl.
151159  0  0  1  0            999 V2000
  -30.6207  -14.6404   20.5017 C   0  0  0  0  0  0
  -30.4366  -12.3919   19.4535 C   0  0  0  0  0  0
  -29.5098  -12.5192   18.2233 C   0  0  0  0  0  0
  -28.0301  -12.3614   18.6287 C   0  0  0  0  0  0
  -27.6546  -13.2197   19.8662 C   0  0  2  0  0  0
  -28.6989  -13.0661   20.9954 C   0  0  0  0  0  0
  -25.2562  -13.8176   20.5677 C   0  0  0  0  0  0
  -24.1832  -13.0437   20.9184 C   0  0  0  0  0  0
  -24.6408  -11.6909   20.8734 C   0  0  0  0  0  0
  -23.9071  -10.4294   21.0403 C   0  0  0  0  0  0
  -24.3624   -9.4210   21.9184 C   0  0  0  0  0  0
  -23.6305   -8.2243   22.0754 C   0  0  0  0  0  0
  -22.4286   -8.0284   21.3541 C   0  0  0  0  0  0
  -21.9914   -9.0260   20.4646 C   0  0  0  0  0  0
  -22.7240  -10.2138   20.3055 C   0  0  0  0  0  0
  -21.6857   -6.0737   22.5278 C   0  0  0  0  0  0
  -21.4014   -6.5640   23.8212 C   0  0  0  0  0  0
  -21.3660   -5.6793   24.9175 C   0  0  0  0  0  0
  -21.6046   -4.3057   24.7221 C   0  0  0  0  0  0
  -21.8818   -3.8145   23.4342 C   0  0  0  0  0  0
  -21.9192   -4.6963   22.3399 C   0  0  0  0  0  0
  -22.7853  -13.5234   21.1843 C   0  0  0  0  0  0
  -22.1661   -4.2148   21.0977 F   0  0  0  0  0  0
  -21.5634   -3.4541   25.7733 F   0  0  0  0  0  0
  -30.0151  -13.4116   20.4353 N   0  0  0  0  0  0
  -26.2997  -12.9363   20.3319 N   0  0  0  0  0  0
  -25.9335  -11.6512   20.5749 N   0  0  0  0  0  0
  -22.0486  -12.8240   22.0403 N   0  0  0  0  0  0
  -25.4262  -15.1899   20.4079 N   0  0  0  0  0  0
  -31.7816  -14.8007   20.1137 O   0  0  0  0  0  0
  -21.6645   -6.8881   21.4242 O   0  0  0  0  0  0
  -22.3545  -14.5541   20.6689 O   0  0  0  0  0  0
  -24.6261  -31.8609   23.2045 C   0  0  0  0  0  0
  -25.9106  -32.4786   23.8370 C   0  0  1  0  0  0
  -27.2208  -27.3184   20.1168 C   0  0  0  0  0  0
  -25.5922  -33.8588   24.2296 N   0  0  0  0  0  0
  -23.4191  -30.4865   21.5481 C   0  0  2  0  0  0
  -24.8644  -28.9431   20.1147 C   0  0  0  0  0  0
  -22.7475  -29.4631   22.4947 C   0  0  0  0  0  0
  -18.0285  -28.1384   22.8493 C   0  0  0  0  0  0
  -24.1484  -36.7305   23.2639 C   0  0  0  0  0  0
  -25.9610  -30.7917   21.3754 C   0  0  0  0  0  0
  -26.0348  -29.4188   20.7191 C   0  0  0  0  0  0
  -27.2166  -28.6186   20.7108 C   0  0  0  0  0  0
  -26.0277  -26.9035   19.4793 C   0  0  0  0  0  0
  -24.8629  -27.6902   19.4870 C   0  0  0  0  0  0
  -23.6338  -29.8253   20.1625 C   0  0  0  0  0  0
  -25.4108  -36.3093   24.0334 C   0  0  1  0  0  0
  -20.5887  -28.3687   23.1297 C   0  0  2  0  0  0
  -20.6778  -26.9412   22.5417 C   0  0  0  0  0  0
  -19.5748  -26.6383   21.5224 C   0  0  0  0  0  0
  -18.1930  -26.7927   22.1635 C   0  0  0  0  0  0
  -19.1538  -28.8852   23.2889 C   0  0  0  0  0  0
  -18.9458  -30.1459   23.8898 C   0  0  0  0  0  0
  -17.6457  -30.6586   24.0566 C   0  0  0  0  0  0
  -25.9048  -34.9459   23.5116 C   0  0  0  0  0  0
  -16.5350  -29.9089   23.6324 C   0  0  0  0  0  0
  -16.7273  -28.6507   23.0345 C   0  0  0  0  0  0
  -26.4484  -31.6584   25.0734 C   0  0  0  0  0  0
  -25.3716  -31.3731   26.1462 C   0  0  0  0  0  0
  -27.0320  -30.3006   24.6178 C   0  0  0  0  0  0
  -27.6040  -32.4319   25.7509 C   0  0  0  0  0  0
  -27.5581  -37.1809   24.8464 C   0  0  0  0  0  0
  -21.4188  -29.3042   22.3692 N   0  0  0  0  0  0
  -26.4287  -37.3788   23.9414 N   0  0  0  0  0  0
  -24.6878  -31.0628   22.0996 N   0  0  0  0  0  0
  -23.4204  -28.8162   23.3016 O   0  0  0  0  0  0
  -28.3380  -26.4663   20.1474 O   0  0  0  0  0  0
  -26.5621  -34.8920   22.4686 O   0  0  0  0  0  0
  -23.5426  -32.1409   23.7376 O   0  0  0  0  0  0
  -30.9863  -17.8445   20.1353 C   0  0  0  0  0  0
  -30.9685  -19.2641   19.9932 C   0  0  0  0  0  0
  -28.7959  -17.9532   21.1125 C   0  0  0  0  0  0
  -29.8921  -17.1406   20.7028 C   0  0  0  0  0  0
  -29.8751  -20.0780   20.4000 C   0  0  0  0  0  0
  -28.7766  -19.3749   20.9706 C   0  0  0  0  0  0
  -29.2657  -23.9632   20.2182 C   0  0  0  0  0  0
  -28.0896  -25.0186   20.3689 C   0  0  0  0  0  0
  -28.9132  -22.4303   20.4994 C   0  0  0  0  0  0
  -29.8096  -15.6840   20.8721 N   0  0  0  0  0  0
  -29.9850  -21.4758   20.2123 O   0  0  0  0  0  0
  -27.6825  -20.0505   21.3985 F   0  0  0  0  0  0
  -31.4800  -12.5130   19.1578 H   0  0  0  0  0  0
  -30.3636  -11.3933   19.8877 H   0  0  0  0  0  0
  -29.7745  -11.7737   17.4721 H   0  0  0  0  0  0
  -29.6578  -13.4925   17.7514 H   0  0  0  0  0  0
  -27.8564  -11.3069   18.8449 H   0  0  0  0  0  0
  -27.3814  -12.6100   17.7878 H   0  0  0  0  0  0
  -27.6751  -14.2577   19.5349 H   0  0  0  0  0  0
  -28.7070  -12.0412   21.3704 H   0  0  0  0  0  0
  -28.4466  -13.6905   21.8533 H   0  0  0  0  0  0
  -25.2762   -9.5698   22.4766 H   0  0  0  0  0  0
  -24.0009   -7.4636   22.7478 H   0  0  0  0  0  0
  -21.0837   -8.8783   19.8964 H   0  0  0  0  0  0
  -22.3691  -10.9683   19.6175 H   0  0  0  0  0  0
  -21.2008   -7.6150   23.9716 H   0  0  0  0  0  0
  -21.1488   -6.0523   25.9081 H   0  0  0  0  0  0
  -22.0595   -2.7607   23.2840 H   0  0  0  0  0  0
  -22.4089  -11.9910   22.4815 H   0  0  0  0  0  0
  -21.1103  -13.1286   22.2588 H   0  0  0  0  0  0
  -24.6535  -15.8392   20.5078 H   0  0  0  0  0  0
  -26.2659  -15.6258   20.0488 H   0  0  0  0  0  0
  -26.7176  -32.5454   23.1120 H   0  0  0  0  0  0
  -25.0041  -33.9736   25.0421 H   0  0  0  0  0  0
  -22.7122  -31.3072   21.4089 H   0  0  0  0  0  0
  -23.3742  -35.9641   23.3296 H   0  0  0  0  0  0
  -24.3581  -36.8930   22.2055 H   0  0  0  0  0  0
  -23.7231  -37.6505   23.6659 H   0  0  0  0  0  0
  -26.0901  -31.5536   20.6055 H   0  0  0  0  0  0
  -26.8432  -30.8433   22.0018 H   0  0  0  0  0  0
  -28.1141  -28.9809   21.1926 H   0  0  0  0  0  0
  -25.9631  -25.9651   18.9527 H   0  0  0  0  0  0
  -23.9688  -27.3238   19.0015 H   0  0  0  0  0  0
  -23.7580  -30.6052   19.4102 H   0  0  0  0  0  0
  -22.7510  -29.2610   19.8558 H   0  0  0  0  0  0
  -25.1278  -36.1954   25.0826 H   0  0  0  0  0  0
  -20.9986  -28.3259   24.1416 H   0  0  0  0  0  0
  -20.5700  -26.2292   23.3614 H   0  0  0  0  0  0
  -21.6645  -26.7453   22.1199 H   0  0  0  0  0  0
  -19.6912  -25.6297   21.1248 H   0  0  0  0  0  0
  -19.6681  -27.3198   20.6759 H   0  0  0  0  0  0
  -17.4202  -26.6681   21.4034 H   0  0  0  0  0  0
  -18.0319  -26.0066   22.9030 H   0  0  0  0  0  0
  -19.7934  -30.7281   24.2258 H   0  0  0  0  0  0
  -17.5009  -31.6264   24.5173 H   0  0  0  0  0  0
  -15.5352  -30.2993   23.7638 H   0  0  0  0  0  0
  -15.8675  -28.0836   22.7043 H   0  0  0  0  0  0
  -24.5875  -30.7096   25.7793 H   0  0  0  0  0  0
  -24.8922  -32.2904   26.4894 H   0  0  0  0  0  0
  -25.8038  -30.8898   27.0234 H   0  0  0  0  0  0
  -26.2896  -29.6772   24.1177 H   0  0  0  0  0  0
  -27.3990  -29.7243   25.4681 H   0  0  0  0  0  0
  -27.8778  -30.4287   23.9419 H   0  0  0  0  0  0
  -27.2638  -33.3610   26.2096 H   0  0  0  0  0  0
  -28.3847  -32.6897   25.0339 H   0  0  0  0  0  0
  -28.0707  -31.8436   26.5420 H   0  0  0  0  0  0
  -28.2592  -38.0112   24.7515 H   0  0  0  0  0  0
  -28.1081  -36.2644   24.6274 H   0  0  0  0  0  0
  -27.2308  -37.1443   25.8869 H   0  0  0  0  0  0
  -20.9359  -29.8783   21.6922 H   0  0  0  0  0  0
  -26.0170  -38.2865   24.1414 H   0  0  0  0  0  0
  -31.8602  -17.3082   19.7940 H   0  0  0  0  0  0
  -31.8306  -19.7434   19.5523 H   0  0  0  0  0  0
  -27.9270  -17.4854   21.5514 H   0  0  0  0  0  0
  -30.0869  -24.2585   20.8705 H   0  0  0  0  0  0
  -29.6558  -24.0408   19.2037 H   0  0  0  0  0  0
  -27.6780  -24.9194   21.3744 H   0  0  0  0  0  0
  -27.3178  -24.6505   19.6997 H   0  0  0  0  0  0
  -28.0446  -22.1532   19.9005 H   0  0  0  0  0  0
  -28.6236  -22.3281   21.5461 H   0  0  0  0  0  0
  -28.9203  -15.3590   21.2197 H   0  0  0  0  0  0
  1 25  1  0  0  0
  1 30  2  0  0  0
  1 80  1  0  0  0
  2  3  1  0  0  0
  2 25  1  0  0  0
  2 83  1  0  0  0
  2 84  1  0  0  0
  3  4  1  0  0  0
  3 85  1  0  0  0
  3 86  1  0  0  0
  4  5  1  0  0  0
  4 87  1  0  0  0
  4 88  1  0  0  0
  5  6  1  0  0  0
  5 26  1  0  0  0
  5 89  1  0  0  0
  6 25  1  0  0  0
  6 90  1  0  0  0
  6 91  1  0  0  0
  7  8  2  0  0  0
  7 26  1  0  0  0
  7 29  1  0  0  0
  8  9  1  0  0  0
  8 22  1  0  0  0
  9 10  1  0  0  0
  9 27  2  0  0  0
 10 11  2  0  0  0
 10 15  1  0  0  0
 11 12  1  0  0  0
 11 92  1  0  0  0
 12 13  2  0  0  0
 12 93  1  0  0  0
 13 14  1  0  0  0
 13 31  1  0  0  0
 14 15  2  0  0  0
 14 94  1  0  0  0
 15 95  1  0  0  0
 16 17  2  0  0  0
 16 21  1  0  0  0
 16 31  1  0  0  0
 17 18  1  0  0  0
 17 96  1  0  0  0
 18 19  2  0  0  0
 18 97  1  0  0  0
 19 20  1  0  0  0
 19 24  1  0  0  0
 20 21  2  0  0  0
 20 98  1  0  0  0
 21 23  1  0  0  0
 22 28  1  0  0  0
 22 32  2  0  0  0
 26 27  1  0  0  0
 28 99  1  0  0  0
 28100  1  0  0  0
 29101  1  0  0  0
 29102  1  0  0  0
 33 34  1  0  0  0
 33 66  1  0  0  0
 33 70  2  0  0  0
 34 36  1  0  0  0
 34 59  1  0  0  0
 34103  1  0  0  0
 35 44  2  0  0  0
 35 45  1  0  0  0
 35 68  1  0  0  0
 36 56  1  0  0  0
 36104  1  0  0  0
 37 39  1  0  0  0
 37 47  1  0  0  0
 37 66  1  0  0  0
 37105  1  0  0  0
 38 43  2  0  0  0
 38 46  1  0  0  0
 38 47  1  0  0  0
 39 64  1  0  0  0
 39 67  2  0  0  0
 40 52  1  0  0  0
 40 53  2  0  0  0
 40 58  1  0  0  0
 41106  1  0  0  0
 41107  1  0  0  0
 41108  1  0  0  0
 41 48  1  0  0  0
 42 43  1  0  0  0
 42 66  1  0  0  0
 42109  1  0  0  0
 42110  1  0  0  0
 43 44  1  0  0  0
 44111  1  0  0  0
 45 46  2  0  0  0
 45112  1  0  0  0
 46113  1  0  0  0
 47114  1  0  0  0
 47115  1  0  0  0
 48 56  1  0  0  0
 48 65  1  0  0  0
 48116  1  0  0  0
 49 50  1  0  0  0
 49 53  1  0  0  0
 49 64  1  0  0  0
 49117  1  0  0  0
 50 51  1  0  0  0
 50118  1  0  0  0
 50119  1  0  0  0
 51 52  1  0  0  0
 51120  1  0  0  0
 51121  1  0  0  0
 52122  1  0  0  0
 52123  1  0  0  0
 53 54  1  0  0  0
 54 55  2  0  0  0
 54124  1  0  0  0
 55 57  1  0  0  0
 55125  1  0  0  0
 56 69  2  0  0  0
 57 58  2  0  0  0
 57126  1  0  0  0
 58127  1  0  0  0
 59 60  1  0  0  0
 59 61  1  0  0  0
 59 62  1  0  0  0
 60128  1  0  0  0
 60129  1  0  0  0
 60130  1  0  0  0
 61131  1  0  0  0
 61132  1  0  0  0
 61133  1  0  0  0
 62134  1  0  0  0
 62135  1  0  0  0
 62136  1  0  0  0
 63 65  1  0  0  0
 63137  1  0  0  0
 63138  1  0  0  0
 63139  1  0  0  0
 64140  1  0  0  0
 65141  1  0  0  0
 68 78  1  0  0  0
 71 72  2  0  0  0
 71 74  1  0  0  0
 71142  1  0  0  0
 72 75  1  0  0  0
 72143  1  0  0  0
 73 74  2  0  0  0
 73 76  1  0  0  0
 73144  1  0  0  0
 74 80  1  0  0  0
 75 76  2  0  0  0
 75 81  1  0  0  0
 76 82  1  0  0  0
 77 78  1  0  0  0
 77 79  1  0  0  0
 77145  1  0  0  0
 77146  1  0  0  0
 78147  1  0  0  0
 78148  1  0  0  0
 79 81  1  0  0  0
 79149  1  0  0  0
 79150  1  0  0  0
 80151  1  0  0  0
M  ISO  4   1 100  68 101  78 101  80 100
M  END
> <chiral flag>
0

> <version>
0

> <s_m_source_file>
/data/baiqing/PycharmProjects/Reinvent-master-3.2/result/LINK_invent/BTK/process_docking_weight1_custom_product_contain_oxygen_bond_distance_aromatic_linkinvent_7_9_3/rearranged_h_0011.sdf

> <i_m_source_file_index>
35

> <r_mmod_Potential_Energy-OPLS-2005>
74.7860946655273

> <r_mmod_Stretch_Energy-OPLS-2005>
79.5826568603516

> <r_mmod_Bend_Energy-OPLS-2005>
147.580917358398

> <r_mmod_Torsional_Energy-OPLS-2005>
214.559097290039

> <r_mmod_Improper_Torsional_Energy-OPLS-2005>
3.90157985687256

> <r_mmod_Van_der_Waal_Energy-OPLS-2005>
146.884353637695

> <r_mmod_Electrostatic_Energy-OPLS-2005>
-358.382598876953

> <r_mmod_Solvation_Energy-OPLS-2005>
-207.118133544922

> <b_mmod_Minimization_Converged-OPLS-2005>
0

> <r_mmod_RMS_Derivative-OPLS-2005>
1.06894218921661

$$$$
35
                    3D
 Structure written by MMmdl.
156164  0  0  1  0            999 V2000
  -30.6398  -14.7157   20.4821 C   0  0  0  0  0  0
  -30.4278  -12.4388   19.4752 C   0  0  0  0  0  0
  -29.5093  -12.5076   18.2361 C   0  0  0  0  0  0
  -28.0339  -12.3408   18.6468 C   0  0  0  0  0  0
  -27.6436  -13.2339   19.8552 C   0  0  2  0  0  0
  -28.6884  -13.1618   20.9908 C   0  0  0  0  0  0
  -25.2507  -13.8206   20.5703 C   0  0  0  0  0  0
  -24.1800  -13.0446   20.9214 C   0  0  0  0  0  0
  -24.6395  -11.6924   20.8751 C   0  0  0  0  0  0
  -23.9073  -10.4296   21.0410 C   0  0  0  0  0  0
  -24.3622   -9.4213   21.9192 C   0  0  0  0  0  0
  -23.6297   -8.2250   22.0757 C   0  0  0  0  0  0
  -22.4280   -8.0286   21.3545 C   0  0  0  0  0  0
  -21.9920   -9.0256   20.4645 C   0  0  0  0  0  0
  -22.7248  -10.2135   20.3056 C   0  0  0  0  0  0
  -21.6854   -6.0741   22.5279 C   0  0  0  0  0  0
  -21.4017   -6.5644   23.8214 C   0  0  0  0  0  0
  -21.3659   -5.6795   24.9175 C   0  0  0  0  0  0
  -21.6043   -4.3057   24.7224 C   0  0  0  0  0  0
  -21.8820   -3.8150   23.4344 C   0  0  0  0  0  0
  -21.9193   -4.6969   22.3402 C   0  0  0  0  0  0
  -22.7818  -13.5223   21.1865 C   0  0  0  0  0  0
  -22.1662   -4.2154   21.0981 F   0  0  0  0  0  0
  -21.5626   -3.4541   25.7738 F   0  0  0  0  0  0
  -29.9916  -13.5033   20.4079 N   0  0  0  0  0  0
  -26.2946  -12.9419   20.3306 N   0  0  0  0  0  0
  -25.9329  -11.6558   20.5764 N   0  0  0  0  0  0
  -22.0461  -12.8205   22.0412 N   0  0  0  0  0  0
  -25.4190  -15.1932   20.4113 N   0  0  0  0  0  0
  -31.8242  -14.7842   20.1431 O   0  0  0  0  0  0
  -21.6644   -6.8882   21.4240 O   0  0  0  0  0  0
  -22.3508  -14.5535   20.6721 O   0  0  0  0  0  0
  -24.6295  -31.8548   23.1975 C   0  0  0  0  0  0
  -25.9128  -32.4750   23.8310 C   0  0  1  0  0  0
  -27.2262  -27.2692   20.1157 C   0  0  0  0  0  0
  -25.5930  -33.8546   24.2246 N   0  0  0  0  0  0
  -23.4250  -30.4777   21.5410 C   0  0  2  0  0  0
  -24.8711  -28.9226   20.1095 C   0  0  0  0  0  0
  -22.7490  -29.4601   22.4908 C   0  0  0  0  0  0
  -18.0288  -28.1394   22.8472 C   0  0  0  0  0  0
  -24.1494  -36.7275   23.2645 C   0  0  0  0  0  0
  -25.9690  -30.7701   21.3749 C   0  0  0  0  0  0
  -26.0416  -29.3930   20.7163 C   0  0  0  0  0  0
  -27.2157  -28.5770   20.7101 C   0  0  0  0  0  0
  -26.0249  -26.8591   19.4914 C   0  0  0  0  0  0
  -24.8672  -27.6636   19.4907 C   0  0  0  0  0  0
  -23.6417  -29.8089   20.1579 C   0  0  0  0  0  0
  -25.4121  -36.3062   24.0330 C   0  0  1  0  0  0
  -20.5895  -28.3691   23.1279 C   0  0  2  0  0  0
  -20.6771  -26.9406   22.5419 C   0  0  0  0  0  0
  -19.5753  -26.6382   21.5214 C   0  0  0  0  0  0
  -18.1933  -26.7931   22.1616 C   0  0  0  0  0  0
  -19.1543  -28.8854   23.2865 C   0  0  0  0  0  0
  -18.9473  -30.1453   23.8877 C   0  0  0  0  0  0
  -17.6473  -30.6586   24.0563 C   0  0  0  0  0  0
  -25.9061  -34.9437   23.5090 C   0  0  0  0  0  0
  -16.5360  -29.9088   23.6339 C   0  0  0  0  0  0
  -16.7275  -28.6515   23.0342 C   0  0  0  0  0  0
  -26.4503  -31.6568   25.0688 C   0  0  0  0  0  0
  -25.3738  -31.3695   26.1413 C   0  0  0  0  0  0
  -27.0357  -30.2996   24.6146 C   0  0  0  0  0  0
  -27.6057  -32.4305   25.7465 C   0  0  0  0  0  0
  -27.5575  -37.1794   24.8471 C   0  0  0  0  0  0
  -21.4200  -29.3031   22.3656 N   0  0  0  0  0  0
  -26.4294  -37.3769   23.9407 N   0  0  0  0  0  0
  -24.6940  -31.0520   22.0948 N   0  0  0  0  0  0
  -23.4199  -28.8140   23.3000 O   0  0  0  0  0  0
  -28.3600  -26.4271   20.1913 O   0  0  0  0  0  0
  -26.5634  -34.8920   22.4660 O   0  0  0  0  0  0
  -23.5449  -32.1377   23.7282 O   0  0  0  0  0  0
  -32.0489  -18.9488   21.3156 C   0  0  0  0  0  0
  -31.1556  -20.0262   21.1665 C   0  0  0  0  0  0
  -31.6290  -17.6159   21.1432 C   0  0  0  0  0  0
  -29.3958  -18.4321   20.6382 C   0  0  0  0  0  0
  -29.8050  -19.8226   20.8103 C   0  0  0  0  0  0
  -30.2940  -17.2932   20.8011 C   0  0  0  0  0  0
  -30.2933  -22.3886   19.2020 C   0  0  0  0  0  0
  -28.8367  -21.0976   20.8357 C   0  0  0  0  0  0
  -28.6597  -23.7334   20.5876 C   0  0  0  0  0  0
  -28.4471  -25.0317   19.6368 C   0  0  0  0  0  0
  -29.8883  -15.8642   20.7079 N   0  0  0  0  0  0
  -29.0176  -22.3593   19.9585 N   0  3  1  0  0  0
  -31.4714  -12.5481   19.1753 H   0  0  0  0  0  0
  -30.3582  -11.4614   19.9553 H   0  0  0  0  0  0
  -29.7865  -11.7362   17.5168 H   0  0  0  0  0  0
  -29.6456  -13.4638   17.7287 H   0  0  0  0  0  0
  -27.8801  -11.2907   18.8983 H   0  0  0  0  0  0
  -27.3810  -12.5488   17.7983 H   0  0  0  0  0  0
  -27.6398  -14.2582   19.4817 H   0  0  0  0  0  0
  -28.7166  -12.1651   21.4328 H   0  0  0  0  0  0
  -28.4285  -13.8457   21.8008 H   0  0  0  0  0  0
  -25.2762   -9.5695   22.4771 H   0  0  0  0  0  0
  -24.0005   -7.4645   22.7476 H   0  0  0  0  0  0
  -21.0856   -8.8776   19.8946 H   0  0  0  0  0  0
  -22.3709  -10.9676   19.6165 H   0  0  0  0  0  0
  -21.2013   -7.6153   23.9718 H   0  0  0  0  0  0
  -21.1477   -6.0527   25.9077 H   0  0  0  0  0  0
  -22.0597   -2.7612   23.2844 H   0  0  0  0  0  0
  -22.4073  -11.9860   22.4795 H   0  0  0  0  0  0
  -21.1074  -13.1216   22.2608 H   0  0  0  0  0  0
  -24.6486  -15.8438   20.5187 H   0  0  0  0  0  0
  -26.2599  -15.6320   20.0596 H   0  0  0  0  0  0
  -26.7168  -32.5407   23.1032 H   0  0  0  0  0  0
  -25.0066  -33.9672   25.0384 H   0  0  0  0  0  0
  -22.7205  -31.2994   21.3941 H   0  0  0  0  0  0
  -23.3753  -35.9609   23.3323 H   0  0  0  0  0  0
  -24.3575  -36.8890   22.2054 H   0  0  0  0  0  0
  -23.7253  -37.6482   23.6662 H   0  0  0  0  0  0
  -26.1066  -31.5328   20.6072 H   0  0  0  0  0  0
  -26.8468  -30.8175   22.0082 H   0  0  0  0  0  0
  -28.1135  -28.9334   21.1960 H   0  0  0  0  0  0
  -25.9249  -25.8971   19.0166 H   0  0  0  0  0  0
  -23.9663  -27.2930   19.0214 H   0  0  0  0  0  0
  -23.7675  -30.5847   19.4014 H   0  0  0  0  0  0
  -22.7595  -29.2437   19.8524 H   0  0  0  0  0  0
  -25.1309  -36.1909   25.0822 H   0  0  0  0  0  0
  -20.9971  -28.3262   24.1404 H   0  0  0  0  0  0
  -20.5684  -26.2285   23.3614 H   0  0  0  0  0  0
  -21.6641  -26.7447   22.1206 H   0  0  0  0  0  0
  -19.6927  -25.6299   21.1232 H   0  0  0  0  0  0
  -19.6709  -27.3198   20.6750 H   0  0  0  0  0  0
  -17.4208  -26.6684   21.4007 H   0  0  0  0  0  0
  -18.0324  -26.0086   22.9022 H   0  0  0  0  0  0
  -19.7954  -30.7268   24.2236 H   0  0  0  0  0  0
  -17.5042  -31.6270   24.5155 H   0  0  0  0  0  0
  -15.5363  -30.2981   23.7693 H   0  0  0  0  0  0
  -15.8678  -28.0839   22.7049 H   0  0  0  0  0  0
  -24.5946  -30.7004   25.7743 H   0  0  0  0  0  0
  -24.8883  -32.2849   26.4806 H   0  0  0  0  0  0
  -25.8074  -30.8909   27.0203 H   0  0  0  0  0  0
  -26.2929  -29.6721   24.1201 H   0  0  0  0  0  0
  -27.4104  -29.7270   25.4638 H   0  0  0  0  0  0
  -27.8781  -30.4289   23.9342 H   0  0  0  0  0  0
  -27.2677  -33.3637   26.1985 H   0  0  0  0  0  0
  -28.3899  -32.6806   25.0304 H   0  0  0  0  0  0
  -28.0681  -31.8452   26.5427 H   0  0  0  0  0  0
  -28.2597  -38.0085   24.7507 H   0  0  0  0  0  0
  -28.1067  -36.2613   24.6323 H   0  0  0  0  0  0
  -27.2281  -37.1474   25.8873 H   0  0  0  0  0  0
  -20.9377  -29.8759   21.6875 H   0  0  0  0  0  0
  -26.0172  -38.2840   24.1422 H   0  0  0  0  0  0
  -33.0729  -19.1456   21.6032 H   0  0  0  0  0  0
  -31.5189  -21.0237   21.3713 H   0  0  0  0  0  0
  -32.3628  -16.8434   21.3189 H   0  0  0  0  0  0
  -28.3569  -18.2345   20.4136 H   0  0  0  0  0  0
  -30.4939  -21.4310   18.7211 H   0  0  0  0  0  0
  -31.1358  -22.6371   19.8465 H   0  0  0  0  0  0
  -30.2618  -23.1265   18.4018 H   0  0  0  0  0  0
  -28.8435  -21.4381   21.8718 H   0  0  0  0  0  0
  -27.8198  -20.7417   20.6705 H   0  0  0  0  0  0
  -27.7474  -23.6039   21.1696 H   0  0  0  0  0  0
  -29.4376  -23.9701   21.3140 H   0  0  0  0  0  0
  -27.6500  -24.8144   18.9331 H   0  0  0  0  0  0
  -29.3266  -25.0937   18.9984 H   0  0  0  0  0  0
  -28.9013  -15.6895   20.8177 H   0  0  0  0  0  0
  -28.3219  -22.2124   19.2411 H   0  0  0  0  0  0
  1 25  1  0  0  0
  1 30  2  0  0  0
  1 81  1  0  0  0
  2  3  1  0  0  0
  2 25  1  0  0  0
  2 83  1  0  0  0
  2 84  1  0  0  0
  3  4  1  0  0  0
  3 85  1  0  0  0
  3 86  1  0  0  0
  4  5  1  0  0  0
  4 87  1  0  0  0
  4 88  1  0  0  0
  5  6  1  0  0  0
  5 26  1  0  0  0
  5 89  1  0  0  0
  6 25  1  0  0  0
  6 90  1  0  0  0
  6 91  1  0  0  0
  7  8  2  0  0  0
  7 26  1  0  0  0
  7 29  1  0  0  0
  8  9  1  0  0  0
  8 22  1  0  0  0
  9 10  1  0  0  0
  9 27  2  0  0  0
 10 11  2  0  0  0
 10 15  1  0  0  0
 11 12  1  0  0  0
 11 92  1  0  0  0
 12 13  2  0  0  0
 12 93  1  0  0  0
 13 14  1  0  0  0
 13 31  1  0  0  0
 14 15  2  0  0  0
 14 94  1  0  0  0
 15 95  1  0  0  0
 16 17  2  0  0  0
 16 21  1  0  0  0
 16 31  1  0  0  0
 17 18  1  0  0  0
 17 96  1  0  0  0
 18 19  2  0  0  0
 18 97  1  0  0  0
 19 20  1  0  0  0
 19 24  1  0  0  0
 20 21  2  0  0  0
 20 98  1  0  0  0
 21 23  1  0  0  0
 22 28  1  0  0  0
 22 32  2  0  0  0
 26 27  1  0  0  0
 28 99  1  0  0  0
 28100  1  0  0  0
 29101  1  0  0  0
 29102  1  0  0  0
 33 34  1  0  0  0
 33 66  1  0  0  0
 33 70  2  0  0  0
 34 36  1  0  0  0
 34 59  1  0  0  0
 34103  1  0  0  0
 35 44  2  0  0  0
 35 45  1  0  0  0
 35 68  1  0  0  0
 36 56  1  0  0  0
 36104  1  0  0  0
 37 39  1  0  0  0
 37 47  1  0  0  0
 37 66  1  0  0  0
 37105  1  0  0  0
 38 43  2  0  0  0
 38 46  1  0  0  0
 38 47  1  0  0  0
 39 64  1  0  0  0
 39 67  2  0  0  0
 40 52  1  0  0  0
 40 53  2  0  0  0
 40 58  1  0  0  0
 41106  1  0  0  0
 41107  1  0  0  0
 41108  1  0  0  0
 41 48  1  0  0  0
 42 43  1  0  0  0
 42 66  1  0  0  0
 42109  1  0  0  0
 42110  1  0  0  0
 43 44  1  0  0  0
 44111  1  0  0  0
 45 46  2  0  0  0
 45112  1  0  0  0
 46113  1  0  0  0
 47114  1  0  0  0
 47115  1  0  0  0
 48 56  1  0  0  0
 48 65  1  0  0  0
 48116  1  0  0  0
 49 50  1  0  0  0
 49 53  1  0  0  0
 49 64  1  0  0  0
 49117  1  0  0  0
 50 51  1  0  0  0
 50118  1  0  0  0
 50119  1  0  0  0
 51 52  1  0  0  0
 51120  1  0  0  0
 51121  1  0  0  0
 52122  1  0  0  0
 52123  1  0  0  0
 53 54  1  0  0  0
 54 55  2  0  0  0
 54124  1  0  0  0
 55 57  1  0  0  0
 55125  1  0  0  0
 56 69  2  0  0  0
 57 58  2  0  0  0
 57126  1  0  0  0
 58127  1  0  0  0
 59 60  1  0  0  0
 59 61  1  0  0  0
 59 62  1  0  0  0
 60128  1  0  0  0
 60129  1  0  0  0
 60130  1  0  0  0
 61131  1  0  0  0
 61132  1  0  0  0
 61133  1  0  0  0
 62134  1  0  0  0
 62135  1  0  0  0
 62136  1  0  0  0
 63 65  1  0  0  0
 63137  1  0  0  0
 63138  1  0  0  0
 63139  1  0  0  0
 64140  1  0  0  0
 65141  1  0  0  0
 68 80  1  0  0  0
 71 72  2  0  0  0
 71 73  1  0  0  0
 71142  1  0  0  0
 72 75  1  0  0  0
 72143  1  0  0  0
 73 76  2  0  0  0
 73144  1  0  0  0
 74 75  2  0  0  0
 74 76  1  0  0  0
 74145  1  0  0  0
 75 78  1  0  0  0
 76 81  1  0  0  0
 77146  1  0  0  0
 77147  1  0  0  0
 77148  1  0  0  0
 77 82  1  0  0  0
 78 82  1  0  0  0
 78149  1  0  0  0
 78150  1  0  0  0
 79 80  1  0  0  0
 79 82  1  0  0  0
 79151  1  0  0  0
 79152  1  0  0  0
 80153  1  0  0  0
 80154  1  0  0  0
 81155  1  0  0  0
 82156  1  0  0  0
M  CHG  1  82   1
M  ISO  4   1 100  68 101  80 101  81 100
M  END
> <chiral flag>
0

> <version>
0

> <s_m_source_file>
/data/baiqing/PycharmProjects/Reinvent-master-3.2/result/LINK_invent/BTK/process_docking_weight1_custom_product_contain_oxygen_bond_distance_aromatic_linkinvent_7_9_3/rearranged_h_0011.sdf

> <i_m_source_file_index>
36

> <r_mmod_Potential_Energy-OPLS-2005>
56.720760345459

> <r_mmod_Stretch_Energy-OPLS-2005>
126.592552185059

> <r_mmod_Bend_Energy-OPLS-2005>
182.665176391602

> <r_mmod_Torsional_Energy-OPLS-2005>
212.688995361328

> <r_mmod_Improper_Torsional_Energy-OPLS-2005>
6.29279708862305

> <r_mmod_Van_der_Waal_Energy-OPLS-2005>
145.632247924805

> <r_mmod_Electrostatic_Energy-OPLS-2005>
-240.696670532227

> <r_mmod_Solvation_Energy-OPLS-2005>
-449.286285400391

> <b_mmod_Minimization_Converged-OPLS-2005>
0

> <r_mmod_RMS_Derivative-OPLS-2005>
1.45007801055908

$$$$
36
                    3D
 Structure written by MMmdl.
151159  0  0  1  0            999 V2000
  -30.6215  -14.6467   20.4927 C   0  0  0  0  0  0
  -30.4407  -12.3957   19.4503 C   0  0  0  0  0  0
  -29.5080  -12.5074   18.2234 C   0  0  0  0  0  0
  -28.0310  -12.3448   18.6369 C   0  0  0  0  0  0
  -27.6531  -13.2179   19.8634 C   0  0  2  0  0  0
  -28.7004  -13.0767   20.9916 C   0  0  0  0  0  0
  -25.2552  -13.8167   20.5692 C   0  0  0  0  0  0
  -24.1817  -13.0425   20.9166 C   0  0  0  0  0  0
  -24.6396  -11.6902   20.8726 C   0  0  0  0  0  0
  -23.9065  -10.4286   21.0398 C   0  0  0  0  0  0
  -24.3615   -9.4205   21.9181 C   0  0  0  0  0  0
  -23.6291   -8.2241   22.0754 C   0  0  0  0  0  0
  -22.4273   -8.0278   21.3545 C   0  0  0  0  0  0
  -21.9906   -9.0250   20.4646 C   0  0  0  0  0  0
  -22.7236  -10.2128   20.3050 C   0  0  0  0  0  0
  -21.6852   -6.0733   22.5280 C   0  0  0  0  0  0
  -21.4013   -6.5637   23.8213 C   0  0  0  0  0  0
  -21.3660   -5.6791   24.9175 C   0  0  0  0  0  0
  -21.6045   -4.3053   24.7225 C   0  0  0  0  0  0
  -21.8819   -3.8144   23.4346 C   0  0  0  0  0  0
  -21.9192   -4.6961   22.3403 C   0  0  0  0  0  0
  -22.7841  -13.5220   21.1842 C   0  0  0  0  0  0
  -22.1662   -4.2147   21.0981 F   0  0  0  0  0  0
  -21.5630   -3.4537   25.7739 F   0  0  0  0  0  0
  -30.0151  -13.4189   20.4251 N   0  0  0  0  0  0
  -26.2995  -12.9359   20.3338 N   0  0  0  0  0  0
  -25.9330  -11.6508   20.5761 N   0  0  0  0  0  0
  -22.0489  -12.8217   22.0407 N   0  0  0  0  0  0
  -25.4214  -15.1896   20.4180 N   0  0  0  0  0  0
  -31.7915  -14.8056   20.1326 O   0  0  0  0  0  0
  -21.6637   -6.8876   21.4242 O   0  0  0  0  0  0
  -22.3520  -14.5528   20.6698 O   0  0  0  0  0  0
  -24.6266  -31.8601   23.2031 C   0  0  0  0  0  0
  -25.9113  -32.4780   23.8358 C   0  0  1  0  0  0
  -27.2236  -27.3176   20.1118 C   0  0  0  0  0  0
  -25.5926  -33.8581   24.2283 N   0  0  0  0  0  0
  -23.4199  -30.4850   21.5463 C   0  0  2  0  0  0
  -24.8656  -28.9422   20.1113 C   0  0  0  0  0  0
  -22.7476  -29.4628   22.4939 C   0  0  0  0  0  0
  -18.0286  -28.1384   22.8487 C   0  0  0  0  0  0
  -24.1489  -36.7296   23.2639 C   0  0  0  0  0  0
  -25.9621  -30.7907   21.3744 C   0  0  0  0  0  0
  -26.0362  -29.4188   20.7147 C   0  0  0  0  0  0
  -27.2183  -28.6189   20.7045 C   0  0  0  0  0  0
  -26.0260  -26.8968   19.4857 C   0  0  0  0  0  0
  -24.8626  -27.6866   19.4884 C   0  0  0  0  0  0
  -23.6342  -29.8222   20.1610 C   0  0  0  0  0  0
  -25.4113  -36.3085   24.0330 C   0  0  1  0  0  0
  -20.5886  -28.3689   23.1283 C   0  0  2  0  0  0
  -20.6775  -26.9414   22.5408 C   0  0  0  0  0  0
  -19.5750  -26.6385   21.5212 C   0  0  0  0  0  0
  -18.1931  -26.7926   22.1626 C   0  0  0  0  0  0
  -19.1538  -28.8853   23.2880 C   0  0  0  0  0  0
  -18.9460  -30.1455   23.8897 C   0  0  0  0  0  0
  -17.6461  -30.6587   24.0563 C   0  0  0  0  0  0
  -25.9051  -34.9454   23.5107 C   0  0  0  0  0  0
  -16.5352  -29.9086   23.6329 C   0  0  0  0  0  0
  -16.7273  -28.6503   23.0352 C   0  0  0  0  0  0
  -26.4494  -31.6587   25.0728 C   0  0  0  0  0  0
  -25.3727  -31.3725   26.1454 C   0  0  0  0  0  0
  -27.0334  -30.3010   24.6182 C   0  0  0  0  0  0
  -27.6054  -32.4320   25.7498 C   0  0  0  0  0  0
  -27.5580  -37.1804   24.8465 C   0  0  0  0  0  0
  -21.4189  -29.3045   22.3680 N   0  0  0  0  0  0
  -26.4293  -37.3779   23.9407 N   0  0  0  0  0  0
  -24.6885  -31.0614   22.0981 N   0  0  0  0  0  0
  -23.4201  -28.8163   23.3014 O   0  0  0  0  0  0
  -28.3403  -26.4633   20.1602 O   0  0  0  0  0  0
  -26.5620  -34.8919   22.4674 O   0  0  0  0  0  0
  -23.5429  -32.1399   23.7358 O   0  0  0  0  0  0
  -31.1180  -17.8849   20.6034 C   0  0  0  0  0  0
  -31.1123  -19.3107   20.5262 C   0  0  0  0  0  0
  -28.7106  -19.3389   20.5192 C   0  0  0  0  0  0
  -29.9083  -17.1463   20.6525 C   0  0  0  0  0  0
  -29.9190  -20.0843   20.4854 C   0  0  0  0  0  0
  -28.7114  -17.9126   20.6067 C   0  0  0  0  0  0
  -29.2528  -23.9564   20.3436 C   0  0  0  0  0  0
  -28.1015  -25.0048   20.0220 C   0  0  0  0  0  0
  -28.8904  -22.3990   20.2827 C   0  0  0  0  0  0
  -29.7931  -15.6941   20.7921 N   0  0  0  0  0  0
  -30.0305  -21.4919   20.4337 O   0  0  0  0  0  0
  -27.5271  -17.2553   20.6481 F   0  0  0  0  0  0
  -31.4812  -12.5238   19.1468 H   0  0  0  0  0  0
  -30.3783  -11.4007   19.8940 H   0  0  0  0  0  0
  -29.7724  -11.7555   17.4787 H   0  0  0  0  0  0
  -29.6485  -13.4764   17.7417 H   0  0  0  0  0  0
  -27.8691  -11.2920   18.8707 H   0  0  0  0  0  0
  -27.3755  -12.5722   17.7955 H   0  0  0  0  0  0
  -27.6666  -14.2522   19.5190 H   0  0  0  0  0  0
  -28.7131  -12.0565   21.3781 H   0  0  0  0  0  0
  -28.4480  -13.7124   21.8419 H   0  0  0  0  0  0
  -25.2760   -9.5683   22.4755 H   0  0  0  0  0  0
  -23.9999   -7.4633   22.7474 H   0  0  0  0  0  0
  -21.0836   -8.8767   19.8954 H   0  0  0  0  0  0
  -22.3693  -10.9665   19.6157 H   0  0  0  0  0  0
  -21.2003   -7.6146   23.9716 H   0  0  0  0  0  0
  -21.1485   -6.0521   25.9079 H   0  0  0  0  0  0
  -22.0598   -2.7606   23.2846 H   0  0  0  0  0  0
  -22.4103  -11.9877   22.4793 H   0  0  0  0  0  0
  -21.1112  -13.1253   22.2622 H   0  0  0  0  0  0
  -24.6550  -15.8367   20.5619 H   0  0  0  0  0  0
  -26.2902  -15.6637   20.1983 H   0  0  0  0  0  0
  -26.7180  -32.5450   23.1107 H   0  0  0  0  0  0
  -25.0065  -33.9725   25.0423 H   0  0  0  0  0  0
  -22.7139  -31.3059   21.4047 H   0  0  0  0  0  0
  -23.3749  -35.9632   23.3306 H   0  0  0  0  0  0
  -24.3580  -36.8912   22.2052 H   0  0  0  0  0  0
  -23.7246  -37.6502   23.6657 H   0  0  0  0  0  0
  -26.0942  -31.5552   20.6075 H   0  0  0  0  0  0
  -26.8423  -30.8379   22.0041 H   0  0  0  0  0  0
  -28.1158  -28.9808   21.1864 H   0  0  0  0  0  0
  -25.9527  -25.9397   18.9927 H   0  0  0  0  0  0
  -23.9657  -27.3159   19.0113 H   0  0  0  0  0  0
  -23.7534  -30.5997   19.4055 H   0  0  0  0  0  0
  -22.7537  -29.2525   19.8581 H   0  0  0  0  0  0
  -25.1293  -36.1940   25.0823 H   0  0  0  0  0  0
  -20.9979  -28.3261   24.1404 H   0  0  0  0  0  0
  -20.5679  -26.2299   23.3607 H   0  0  0  0  0  0
  -21.6643  -26.7445   22.1199 H   0  0  0  0  0  0
  -19.6913  -25.6296   21.1242 H   0  0  0  0  0  0
  -19.6686  -27.3195   20.6741 H   0  0  0  0  0  0
  -17.4200  -26.6671   21.4030 H   0  0  0  0  0  0
  -18.0335  -26.0069   22.9023 H   0  0  0  0  0  0
  -19.7937  -30.7270   24.2269 H   0  0  0  0  0  0
  -17.5016  -31.6267   24.5164 H   0  0  0  0  0  0
  -15.5352  -30.2988   23.7651 H   0  0  0  0  0  0
  -15.8672  -28.0822   22.7068 H   0  0  0  0  0  0
  -24.5898  -30.7080   25.7780 H   0  0  0  0  0  0
  -24.8923  -32.2892   26.4885 H   0  0  0  0  0  0
  -25.8050  -30.8895   27.0226 H   0  0  0  0  0  0
  -26.2907  -29.6762   24.1207 H   0  0  0  0  0  0
  -27.4029  -29.7264   25.4687 H   0  0  0  0  0  0
  -27.8779  -30.4291   23.9407 H   0  0  0  0  0  0
  -27.2666  -33.3618   26.2077 H   0  0  0  0  0  0
  -28.3864  -32.6881   25.0327 H   0  0  0  0  0  0
  -28.0722  -31.8443   26.5414 H   0  0  0  0  0  0
  -28.2599  -38.0100   24.7509 H   0  0  0  0  0  0
  -28.1073  -36.2631   24.6294 H   0  0  0  0  0  0
  -27.2298  -37.1456   25.8868 H   0  0  0  0  0  0
  -20.9367  -29.8773   21.6895 H   0  0  0  0  0  0
  -26.0176  -38.2855   24.1401 H   0  0  0  0  0  0
  -32.0671  -17.3700   20.6429 H   0  0  0  0  0  0
  -32.0626  -19.8258   20.5039 H   0  0  0  0  0  0
  -27.7601  -19.8494   20.4918 H   0  0  0  0  0  0
  -29.6470  -24.1729   21.3364 H   0  0  0  0  0  0
  -30.0761  -24.1424   19.6539 H   0  0  0  0  0  0
  -27.2506  -24.7435   20.6531 H   0  0  0  0  0  0
  -27.7948  -24.8125   18.9934 H   0  0  0  0  0  0
  -28.4094  -22.1808   19.3285 H   0  0  0  0  0  0
  -28.1566  -22.1770   21.0583 H   0  0  0  0  0  0
  -28.8555  -15.3945   21.0126 H   0  0  0  0  0  0
  1 25  1  0  0  0
  1 30  2  0  0  0
  1 80  1  0  0  0
  2  3  1  0  0  0
  2 25  1  0  0  0
  2 83  1  0  0  0
  2 84  1  0  0  0
  3  4  1  0  0  0
  3 85  1  0  0  0
  3 86  1  0  0  0
  4  5  1  0  0  0
  4 87  1  0  0  0
  4 88  1  0  0  0
  5  6  1  0  0  0
  5 26  1  0  0  0
  5 89  1  0  0  0
  6 25  1  0  0  0
  6 90  1  0  0  0
  6 91  1  0  0  0
  7  8  2  0  0  0
  7 26  1  0  0  0
  7 29  1  0  0  0
  8  9  1  0  0  0
  8 22  1  0  0  0
  9 10  1  0  0  0
  9 27  2  0  0  0
 10 11  2  0  0  0
 10 15  1  0  0  0
 11 12  1  0  0  0
 11 92  1  0  0  0
 12 13  2  0  0  0
 12 93  1  0  0  0
 13 14  1  0  0  0
 13 31  1  0  0  0
 14 15  2  0  0  0
 14 94  1  0  0  0
 15 95  1  0  0  0
 16 17  2  0  0  0
 16 21  1  0  0  0
 16 31  1  0  0  0
 17 18  1  0  0  0
 17 96  1  0  0  0
 18 19  2  0  0  0
 18 97  1  0  0  0
 19 20  1  0  0  0
 19 24  1  0  0  0
 20 21  2  0  0  0
 20 98  1  0  0  0
 21 23  1  0  0  0
 22 28  1  0  0  0
 22 32  2  0  0  0
 26 27  1  0  0  0
 28 99  1  0  0  0
 28100  1  0  0  0
 29101  1  0  0  0
 29102  1  0  0  0
 33 34  1  0  0  0
 33 66  1  0  0  0
 33 70  2  0  0  0
 34 36  1  0  0  0
 34 59  1  0  0  0
 34103  1  0  0  0
 35 44  2  0  0  0
 35 45  1  0  0  0
 35 68  1  0  0  0
 36 56  1  0  0  0
 36104  1  0  0  0
 37 39  1  0  0  0
 37 47  1  0  0  0
 37 66  1  0  0  0
 37105  1  0  0  0
 38 43  2  0  0  0
 38 46  1  0  0  0
 38 47  1  0  0  0
 39 64  1  0  0  0
 39 67  2  0  0  0
 40 52  1  0  0  0
 40 53  2  0  0  0
 40 58  1  0  0  0
 41106  1  0  0  0
 41107  1  0  0  0
 41108  1  0  0  0
 41 48  1  0  0  0
 42 43  1  0  0  0
 42 66  1  0  0  0
 42109  1  0  0  0
 42110  1  0  0  0
 43 44  1  0  0  0
 44111  1  0  0  0
 45 46  2  0  0  0
 45112  1  0  0  0
 46113  1  0  0  0
 47114  1  0  0  0
 47115  1  0  0  0
 48 56  1  0  0  0
 48 65  1  0  0  0
 48116  1  0  0  0
 49 50  1  0  0  0
 49 53  1  0  0  0
 49 64  1  0  0  0
 49117  1  0  0  0
 50 51  1  0  0  0
 50118  1  0  0  0
 50119  1  0  0  0
 51 52  1  0  0  0
 51120  1  0  0  0
 51121  1  0  0  0
 52122  1  0  0  0
 52123  1  0  0  0
 53 54  1  0  0  0
 54 55  2  0  0  0
 54124  1  0  0  0
 55 57  1  0  0  0
 55125  1  0  0  0
 56 69  2  0  0  0
 57 58  2  0  0  0
 57126  1  0  0  0
 58127  1  0  0  0
 59 60  1  0  0  0
 59 61  1  0  0  0
 59 62  1  0  0  0
 60128  1  0  0  0
 60129  1  0  0  0
 60130  1  0  0  0
 61131  1  0  0  0
 61132  1  0  0  0
 61133  1  0  0  0
 62134  1  0  0  0
 62135  1  0  0  0
 62136  1  0  0  0
 63 65  1  0  0  0
 63137  1  0  0  0
 63138  1  0  0  0
 63139  1  0  0  0
 64140  1  0  0  0
 65141  1  0  0  0
 68 78  1  0  0  0
 71 72  2  0  0  0
 71 74  1  0  0  0
 71142  1  0  0  0
 72 75  1  0  0  0
 72143  1  0  0  0
 73 75  2  0  0  0
 73 76  1  0  0  0
 73144  1  0  0  0
 74 76  2  0  0  0
 74 80  1  0  0  0
 75 81  1  0  0  0
 76 82  1  0  0  0
 77 78  1  0  0  0
 77 79  1  0  0  0
 77145  1  0  0  0
 77146  1  0  0  0
 78147  1  0  0  0
 78148  1  0  0  0
 79 81  1  0  0  0
 79149  1  0  0  0
 79150  1  0  0  0
 80151  1  0  0  0
M  ISO  4   1 100  68 101  78 101  80 100
M  END
> <chiral flag>
0

> <version>
0

> <s_m_source_file>
/data/baiqing/PycharmProjects/Reinvent-master-3.2/result/LINK_invent/BTK/process_docking_weight1_custom_product_contain_oxygen_bond_distance_aromatic_linkinvent_7_9_3/rearranged_h_0011.sdf

> <i_m_source_file_index>
37

> <r_mmod_Potential_Energy-OPLS-2005>
8.48562717437744

> <r_mmod_Stretch_Energy-OPLS-2005>
78.0414810180664

> <r_mmod_Bend_Energy-OPLS-2005>
145.352081298828

> <r_mmod_Torsional_Energy-OPLS-2005>
209.226409912109

> <r_mmod_Improper_Torsional_Energy-OPLS-2005>
4.5839262008667

> <r_mmod_Van_der_Waal_Energy-OPLS-2005>
144.377670288086

> <r_mmod_Electrostatic_Energy-OPLS-2005>
-422.268218994141

> <r_mmod_Solvation_Energy-OPLS-2005>
-201.274765014648

> <b_mmod_Minimization_Converged-OPLS-2005>
0

> <r_mmod_RMS_Derivative-OPLS-2005>
0.238112762570381

$$$$
37
                    3D
 Structure written by MMmdl.
151159  0  0  1  0            999 V2000
  -30.6215  -14.6492   20.4477 C   0  0  0  0  0  0
  -30.4275  -12.3810   19.4734 C   0  0  0  0  0  0
  -29.5099  -12.4986   18.2352 C   0  0  0  0  0  0
  -28.0306  -12.3465   18.6432 C   0  0  0  0  0  0
  -27.6507  -13.2230   19.8669 C   0  0  2  0  0  0
  -28.6941  -13.1038   21.0043 C   0  0  0  0  0  0
  -25.2533  -13.8202   20.5707 C   0  0  0  0  0  0
  -24.1808  -13.0439   20.9201 C   0  0  0  0  0  0
  -24.6390  -11.6922   20.8762 C   0  0  0  0  0  0
  -23.9078  -10.4284   21.0402 C   0  0  0  0  0  0
  -24.3626   -9.4210   21.9187 C   0  0  0  0  0  0
  -23.6294   -8.2251   22.0753 C   0  0  0  0  0  0
  -22.4289   -8.0277   21.3532 C   0  0  0  0  0  0
  -21.9916   -9.0261   20.4642 C   0  0  0  0  0  0
  -22.7247  -10.2135   20.3049 C   0  0  0  0  0  0
  -21.6852   -6.0738   22.5274 C   0  0  0  0  0  0
  -21.4025   -6.5641   23.8211 C   0  0  0  0  0  0
  -21.3665   -5.6787   24.9168 C   0  0  0  0  0  0
  -21.6033   -4.3050   24.7214 C   0  0  0  0  0  0
  -21.8827   -3.8147   23.4337 C   0  0  0  0  0  0
  -21.9203   -4.6966   22.3400 C   0  0  0  0  0  0
  -22.7819  -13.5225   21.1848 C   0  0  0  0  0  0
  -22.1660   -4.2147   21.0980 F   0  0  0  0  0  0
  -21.5629   -3.4543   25.7732 F   0  0  0  0  0  0
  -30.0094  -13.4232   20.4332 N   0  0  0  0  0  0
  -26.2965  -12.9392   20.3348 N   0  0  0  0  0  0
  -25.9320  -11.6541   20.5792 N   0  0  0  0  0  0
  -22.0487  -12.8222   22.0414 N   0  0  0  0  0  0
  -25.4253  -15.1930   20.4161 N   0  0  0  0  0  0
  -31.7872  -14.7798   20.0701 O   0  0  0  0  0  0
  -21.6643   -6.8884   21.4229 O   0  0  0  0  0  0
  -22.3500  -14.5539   20.6693 O   0  0  0  0  0  0
  -24.6235  -31.8587   23.2016 C   0  0  0  0  0  0
  -25.9099  -32.4776   23.8336 C   0  0  1  0  0  0
  -27.2385  -27.3275   20.1077 C   0  0  0  0  0  0
  -25.5910  -33.8575   24.2274 N   0  0  0  0  0  0
  -23.4180  -30.4806   21.5421 C   0  0  2  0  0  0
  -24.8655  -28.9282   20.1102 C   0  0  0  0  0  0
  -22.7452  -29.4625   22.4921 C   0  0  0  0  0  0
  -18.0285  -28.1385   22.8487 C   0  0  0  0  0  0
  -24.1488  -36.7295   23.2645 C   0  0  0  0  0  0
  -25.9553  -30.7898   21.3711 C   0  0  0  0  0  0
  -26.0296  -29.4151   20.7163 C   0  0  0  0  0  0
  -27.2125  -28.6230   20.7104 C   0  0  0  0  0  0
  -26.0491  -26.8779   19.4927 C   0  0  0  0  0  0
  -24.8766  -27.6643   19.4941 C   0  0  0  0  0  0
  -23.6315  -29.8072   20.1585 C   0  0  0  0  0  0
  -25.4113  -36.3080   24.0328 C   0  0  1  0  0  0
  -20.5890  -28.3688   23.1276 C   0  0  2  0  0  0
  -20.6783  -26.9412   22.5383 C   0  0  0  0  0  0
  -19.5759  -26.6405   21.5187 C   0  0  0  0  0  0
  -18.1934  -26.7947   22.1597 C   0  0  0  0  0  0
  -19.1546  -28.8844   23.2890 C   0  0  0  0  0  0
  -18.9476  -30.1437   23.8911 C   0  0  0  0  0  0
  -17.6476  -30.6567   24.0562 C   0  0  0  0  0  0
  -25.9047  -34.9450   23.5105 C   0  0  0  0  0  0
  -16.5357  -29.9076   23.6330 C   0  0  0  0  0  0
  -16.7273  -28.6499   23.0343 C   0  0  0  0  0  0
  -26.4493  -31.6584   25.0706 C   0  0  0  0  0  0
  -25.3728  -31.3703   26.1441 C   0  0  0  0  0  0
  -27.0335  -30.3004   24.6143 C   0  0  0  0  0  0
  -27.6038  -32.4330   25.7489 C   0  0  0  0  0  0
  -27.5577  -37.1803   24.8470 C   0  0  0  0  0  0
  -21.4166  -29.3057   22.3664 N   0  0  0  0  0  0
  -26.4291  -37.3770   23.9409 N   0  0  0  0  0  0
  -24.6847  -31.0599   22.0962 N   0  0  0  0  0  0
  -23.4173  -28.8167   23.3008 O   0  0  0  0  0  0
  -28.3918  -26.5347   20.1747 O   0  0  0  0  0  0
  -26.5618  -34.8915   22.4675 O   0  0  0  0  0  0
  -23.5398  -32.1379   23.7349 O   0  0  0  0  0  0
  -30.4792  -19.3825   20.9136 C   0  0  0  0  0  0
  -30.3697  -20.8030   20.9617 C   0  0  0  0  0  0
  -28.4566  -20.7329   19.5146 C   0  0  0  0  0  0
  -29.6065  -18.5851   20.1268 C   0  0  0  0  0  0
  -29.3631  -21.5269   20.2663 C   0  0  0  0  0  0
  -28.5870  -19.3107   19.4359 C   0  0  0  0  0  0
  -29.8451  -17.0406   19.8407 C   0  0  0  0  0  0
  -28.5459  -25.2436   19.4750 C   0  0  0  0  0  0
  -28.2580  -23.8332   20.1684 C   0  0  0  0  0  0
  -29.8109  -15.7459   20.6304 N   0  0  0  0  0  0
  -29.4158  -22.9391   20.3006 O   0  0  0  0  0  0
  -27.7311  -18.6335   18.6361 F   0  0  0  0  0  0
  -31.4746  -12.4849   19.1817 H   0  0  0  0  0  0
  -30.3467  -11.3896   19.9248 H   0  0  0  0  0  0
  -29.7726  -11.7377   17.4974 H   0  0  0  0  0  0
  -29.6663  -13.4628   17.7513 H   0  0  0  0  0  0
  -27.8615  -11.2936   18.8810 H   0  0  0  0  0  0
  -27.3810  -12.5753   17.7984 H   0  0  0  0  0  0
  -27.6655  -14.2535   19.5146 H   0  0  0  0  0  0
  -28.6945  -12.0988   21.4279 H   0  0  0  0  0  0
  -28.4500  -13.7786   21.8288 H   0  0  0  0  0  0
  -25.2776   -9.5689   22.4761 H   0  0  0  0  0  0
  -24.0000   -7.4643   22.7477 H   0  0  0  0  0  0
  -21.0851   -8.8785   19.8948 H   0  0  0  0  0  0
  -22.3713  -10.9675   19.6155 H   0  0  0  0  0  0
  -21.2016   -7.6151   23.9710 H   0  0  0  0  0  0
  -21.1477   -6.0523   25.9068 H   0  0  0  0  0  0
  -22.0602   -2.7609   23.2846 H   0  0  0  0  0  0
  -22.4092  -11.9876   22.4799 H   0  0  0  0  0  0
  -21.1088  -13.1205   22.2621 H   0  0  0  0  0  0
  -24.6576  -15.8473   20.5300 H   0  0  0  0  0  0
  -26.2762  -15.6383   20.0920 H   0  0  0  0  0  0
  -26.7159  -32.5438   23.1071 H   0  0  0  0  0  0
  -25.0034  -33.9712   25.0409 H   0  0  0  0  0  0
  -22.7123  -31.2999   21.3966 H   0  0  0  0  0  0
  -23.3746  -35.9635   23.3316 H   0  0  0  0  0  0
  -24.3577  -36.8908   22.2058 H   0  0  0  0  0  0
  -23.7247  -37.6498   23.6669 H   0  0  0  0  0  0
  -26.0828  -31.5516   20.6003 H   0  0  0  0  0  0
  -26.8380  -30.8422   21.9969 H   0  0  0  0  0  0
  -28.1068  -28.9932   21.1921 H   0  0  0  0  0  0
  -25.9993  -25.9030   19.0294 H   0  0  0  0  0  0
  -23.9817  -27.2811   19.0239 H   0  0  0  0  0  0
  -23.7488  -30.5803   19.3984 H   0  0  0  0  0  0
  -22.7523  -29.2311   19.8600 H   0  0  0  0  0  0
  -25.1304  -36.1925   25.0817 H   0  0  0  0  0  0
  -20.9977  -28.3238   24.1413 H   0  0  0  0  0  0
  -21.6647  -26.7437   22.1164 H   0  0  0  0  0  0
  -20.5677  -26.2280   23.3556 H   0  0  0  0  0  0
  -19.6886  -25.6326   21.1195 H   0  0  0  0  0  0
  -19.6724  -27.3262   20.6755 H   0  0  0  0  0  0
  -17.4208  -26.6691   21.4003 H   0  0  0  0  0  0
  -18.0284  -26.0080   22.8972 H   0  0  0  0  0  0
  -19.7948  -30.7255   24.2288 H   0  0  0  0  0  0
  -17.5051  -31.6236   24.5171 H   0  0  0  0  0  0
  -15.5353  -30.2993   23.7667 H   0  0  0  0  0  0
  -15.8674  -28.0809   22.7040 H   0  0  0  0  0  0
  -24.5915  -30.7040   25.7772 H   0  0  0  0  0  0
  -24.8910  -32.2856   26.4881 H   0  0  0  0  0  0
  -25.8069  -30.8873   27.0206 H   0  0  0  0  0  0
  -26.2889  -29.6754   24.1188 H   0  0  0  0  0  0
  -27.4065  -29.7270   25.4646 H   0  0  0  0  0  0
  -27.8760  -30.4316   23.9344 H   0  0  0  0  0  0
  -27.2633  -33.3638   26.2050 H   0  0  0  0  0  0
  -28.3861  -32.6869   25.0323 H   0  0  0  0  0  0
  -28.0690  -31.8454   26.5418 H   0  0  0  0  0  0
  -28.2603  -38.0087   24.7500 H   0  0  0  0  0  0
  -28.1054  -36.2615   24.6324 H   0  0  0  0  0  0
  -27.2289  -37.1499   25.8868 H   0  0  0  0  0  0
  -20.9331  -29.8780   21.6882 H   0  0  0  0  0  0
  -26.0174  -38.2847   24.1390 H   0  0  0  0  0  0
  -31.2948  -18.9099   21.4409 H   0  0  0  0  0  0
  -31.1036  -21.3562   21.5332 H   0  0  0  0  0  0
  -27.6841  -21.2047   18.9279 H   0  0  0  0  0  0
  -28.9769  -17.0770   20.5012 H   0  0  0  0  0  0
  -30.8887  -17.1609   20.1257 H   0  0  0  0  0  0
  -28.0493  -25.2824   18.5066 H   0  0  0  0  0  0
  -29.6013  -25.2260   19.2040 H   0  0  0  0  0  0
  -27.4521  -23.3397   19.6279 H   0  0  0  0  0  0
  -27.8713  -24.0108   21.1719 H   0  0  0  0  0  0
  -28.9104  -15.5259   21.0240 H   0  0  0  0  0  0
  1 25  1  0  0  0
  1 30  2  0  0  0
  1 80  1  0  0  0
  2  3  1  0  0  0
  2 25  1  0  0  0
  2 83  1  0  0  0
  2 84  1  0  0  0
  3  4  1  0  0  0
  3 85  1  0  0  0
  3 86  1  0  0  0
  4  5  1  0  0  0
  4 87  1  0  0  0
  4 88  1  0  0  0
  5  6  1  0  0  0
  5 26  1  0  0  0
  5 89  1  0  0  0
  6 25  1  0  0  0
  6 90  1  0  0  0
  6 91  1  0  0  0
  7  8  2  0  0  0
  7 26  1  0  0  0
  7 29  1  0  0  0
  8  9  1  0  0  0
  8 22  1  0  0  0
  9 10  1  0  0  0
  9 27  2  0  0  0
 10 11  2  0  0  0
 10 15  1  0  0  0
 11 12  1  0  0  0
 11 92  1  0  0  0
 12 13  2  0  0  0
 12 93  1  0  0  0
 13 14  1  0  0  0
 13 31  1  0  0  0
 14 15  2  0  0  0
 14 94  1  0  0  0
 15 95  1  0  0  0
 16 17  2  0  0  0
 16 21  1  0  0  0
 16 31  1  0  0  0
 17 18  1  0  0  0
 17 96  1  0  0  0
 18 19  2  0  0  0
 18 97  1  0  0  0
 19 20  1  0  0  0
 19 24  1  0  0  0
 20 21  2  0  0  0
 20 98  1  0  0  0
 21 23  1  0  0  0
 22 28  1  0  0  0
 22 32  2  0  0  0
 26 27  1  0  0  0
 28 99  1  0  0  0
 28100  1  0  0  0
 29101  1  0  0  0
 29102  1  0  0  0
 33 34  1  0  0  0
 33 66  1  0  0  0
 33 70  2  0  0  0
 34 36  1  0  0  0
 34 59  1  0  0  0
 34103  1  0  0  0
 35 44  2  0  0  0
 35 45  1  0  0  0
 35 68  1  0  0  0
 36 56  1  0  0  0
 36104  1  0  0  0
 37 39  1  0  0  0
 37 47  1  0  0  0
 37 66  1  0  0  0
 37105  1  0  0  0
 38 43  2  0  0  0
 38 46  1  0  0  0
 38 47  1  0  0  0
 39 64  1  0  0  0
 39 67  2  0  0  0
 40 52  1  0  0  0
 40 53  2  0  0  0
 40 58  1  0  0  0
 41106  1  0  0  0
 41107  1  0  0  0
 41108  1  0  0  0
 41 48  1  0  0  0
 42 43  1  0  0  0
 42 66  1  0  0  0
 42109  1  0  0  0
 42110  1  0  0  0
 43 44  1  0  0  0
 44111  1  0  0  0
 45 46  2  0  0  0
 45112  1  0  0  0
 46113  1  0  0  0
 47114  1  0  0  0
 47115  1  0  0  0
 48 56  1  0  0  0
 48 65  1  0  0  0
 48116  1  0  0  0
 49 50  1  0  0  0
 49 53  1  0  0  0
 49 64  1  0  0  0
 49117  1  0  0  0
 50 51  1  0  0  0
 50118  1  0  0  0
 50119  1  0  0  0
 51 52  1  0  0  0
 51120  1  0  0  0
 51121  1  0  0  0
 52122  1  0  0  0
 52123  1  0  0  0
 53 54  1  0  0  0
 54 55  2  0  0  0
 54124  1  0  0  0
 55 57  1  0  0  0
 55125  1  0  0  0
 56 69  2  0  0  0
 57 58  2  0  0  0
 57126  1  0  0  0
 58127  1  0  0  0
 59 60  1  0  0  0
 59 61  1  0  0  0
 59 62  1  0  0  0
 60128  1  0  0  0
 60129  1  0  0  0
 60130  1  0  0  0
 61131  1  0  0  0
 61132  1  0  0  0
 61133  1  0  0  0
 62134  1  0  0  0
 62135  1  0  0  0
 62136  1  0  0  0
 63 65  1  0  0  0
 63137  1  0  0  0
 63138  1  0  0  0
 63139  1  0  0  0
 64140  1  0  0  0
 65141  1  0  0  0
 68 78  1  0  0  0
 71 72  2  0  0  0
 71 74  1  0  0  0
 71142  1  0  0  0
 72 75  1  0  0  0
 72143  1  0  0  0
 73 75  2  0  0  0
 73 76  1  0  0  0
 73144  1  0  0  0
 74 76  2  0  0  0
 74 77  1  0  0  0
 75 81  1  0  0  0
 76 82  1  0  0  0
 77 80  1  0  0  0
 77145  1  0  0  0
 77146  1  0  0  0
 78 79  1  0  0  0
 78147  1  0  0  0
 78148  1  0  0  0
 79 81  1  0  0  0
 79149  1  0  0  0
 79150  1  0  0  0
 80151  1  0  0  0
M  ISO  4   1 100  68 101  78 101  80 100
M  END
> <chiral flag>
0

> <version>
0

> <s_m_source_file>
/data/baiqing/PycharmProjects/Reinvent-master-3.2/result/LINK_invent/BTK/process_docking_weight1_custom_product_contain_oxygen_bond_distance_aromatic_linkinvent_7_9_3/rearranged_h_0011.sdf

> <i_m_source_file_index>
38

> <r_mmod_Potential_Energy-OPLS-2005>
303.300933837891

> <r_mmod_Stretch_Energy-OPLS-2005>
83.030647277832

> <r_mmod_Bend_Energy-OPLS-2005>
379.425720214844

> <r_mmod_Torsional_Energy-OPLS-2005>
228.444473266602

> <r_mmod_Improper_Torsional_Energy-OPLS-2005>
9.71850299835205

> <r_mmod_Van_der_Waal_Energy-OPLS-2005>
146.954132080078

> <r_mmod_Electrostatic_Energy-OPLS-2005>
-379.869842529297

> <r_mmod_Solvation_Energy-OPLS-2005>
-212.534759521484

> <b_mmod_Minimization_Converged-OPLS-2005>
0

> <r_mmod_RMS_Derivative-OPLS-2005>
4.19597911834717

$$$$
38
                    3D
 Structure written by MMmdl.
155164  0  0  1  0            999 V2000
  -30.5942  -14.7849   20.3192 C   0  0  0  0  0  0
  -30.4575  -12.4338   19.4911 C   0  0  0  0  0  0
  -29.5277  -12.3260   18.2631 C   0  0  0  0  0  0
  -28.0340  -12.2921   18.6551 C   0  0  0  0  0  0
  -27.6404  -13.2232   19.8369 C   0  0  2  0  0  0
  -28.6992  -13.2155   20.9566 C   0  0  0  0  0  0
  -25.2556  -13.8167   20.5707 C   0  0  0  0  0  0
  -24.1828  -13.0431   20.9230 C   0  0  0  0  0  0
  -24.6416  -11.6900   20.8792 C   0  0  0  0  0  0
  -23.9074  -10.4283   21.0420 C   0  0  0  0  0  0
  -24.3615   -9.4181   21.9176 C   0  0  0  0  0  0
  -23.6288   -8.2212   22.0735 C   0  0  0  0  0  0
  -22.4275   -8.0259   21.3522 C   0  0  0  0  0  0
  -21.9928   -9.0248   20.4632 C   0  0  0  0  0  0
  -22.7259  -10.2127   20.3051 C   0  0  0  0  0  0
  -21.6847   -6.0736   22.5295 C   0  0  0  0  0  0
  -21.4002   -6.5629   23.8241 C   0  0  0  0  0  0
  -21.3665   -5.6768   24.9190 C   0  0  0  0  0  0
  -21.6050   -4.3039   24.7226 C   0  0  0  0  0  0
  -21.8810   -3.8141   23.4345 C   0  0  0  0  0  0
  -21.9174   -4.6961   22.3402 C   0  0  0  0  0  0
  -22.7840  -13.5214   21.1861 C   0  0  0  0  0  0
  -22.1638   -4.2154   21.0970 F   0  0  0  0  0  0
  -21.5665   -3.4514   25.7737 F   0  0  0  0  0  0
  -29.9819  -13.5496   20.3319 N   0  0  0  0  0  0
  -26.2993  -12.9365   20.3341 N   0  0  0  0  0  0
  -25.9363  -11.6530   20.5882 N   0  0  0  0  0  0
  -22.0458  -12.8219   22.0410 N   0  0  0  0  0  0
  -25.4253  -15.1872   20.4088 N   0  0  0  0  0  0
  -31.8273  -14.8469   20.2819 O   0  0  0  0  0  0
  -21.6613   -6.8871   21.4245 O   0  0  0  0  0  0
  -22.3532  -14.5491   20.6664 O   0  0  0  0  0  0
  -24.6277  -31.8601   23.1981 C   0  0  0  0  0  0
  -25.9082  -32.4801   23.8354 C   0  0  1  0  0  0
  -27.2178  -27.2798   20.1240 C   0  0  0  0  0  0
  -25.5878  -33.8596   24.2290 N   0  0  0  0  0  0
  -23.4236  -30.4777   21.5451 C   0  0  2  0  0  0
  -24.8696  -28.9264   20.1163 C   0  0  0  0  0  0
  -22.7482  -29.4618   22.4968 C   0  0  0  0  0  0
  -18.0266  -28.1397   22.8472 C   0  0  0  0  0  0
  -24.1486  -36.7293   23.2638 C   0  0  0  0  0  0
  -25.9667  -30.7819   21.3661 C   0  0  0  0  0  0
  -26.0441  -29.4032   20.7144 C   0  0  0  0  0  0
  -27.2249  -28.5937   20.7016 C   0  0  0  0  0  0
  -26.0184  -26.8614   19.5111 C   0  0  0  0  0  0
  -24.8620  -27.6620   19.5062 C   0  0  0  0  0  0
  -23.6355  -29.8068   20.1642 C   0  0  0  0  0  0
  -25.4109  -36.3117   24.0338 C   0  0  1  0  0  0
  -20.5868  -28.3695   23.1288 C   0  0  2  0  0  0
  -20.6764  -26.9407   22.5430 C   0  0  0  0  0  0
  -19.5750  -26.6386   21.5213 C   0  0  0  0  0  0
  -18.1925  -26.7933   22.1629 C   0  0  0  0  0  0
  -19.1527  -28.8863   23.2875 C   0  0  0  0  0  0
  -18.9461  -30.1461   23.8880 C   0  0  0  0  0  0
  -17.6464  -30.6612   24.0560 C   0  0  0  0  0  0
  -25.9036  -34.9473   23.5118 C   0  0  0  0  0  0
  -16.5354  -29.9106   23.6327 C   0  0  0  0  0  0
  -16.7254  -28.6535   23.0332 C   0  0  0  0  0  0
  -26.4437  -31.6617   25.0725 C   0  0  0  0  0  0
  -25.3667  -31.3795   26.1467 C   0  0  0  0  0  0
  -27.0286  -30.3063   24.6144 C   0  0  0  0  0  0
  -27.6053  -32.4314   25.7461 C   0  0  0  0  0  0
  -27.5597  -37.1812   24.8449 C   0  0  0  0  0  0
  -21.4207  -29.3033   22.3689 N   0  0  0  0  0  0
  -26.4307  -37.3805   23.9408 N   0  0  0  0  0  0
  -24.6933  -31.0568   22.0936 N   0  0  0  0  0  0
  -23.4197  -28.8179   23.3081 O   0  0  0  0  0  0
  -28.3125  -26.3930   20.1545 O   0  0  0  0  0  0
  -26.5657  -34.8945   22.4712 O   0  0  0  0  0  0
  -23.5423  -32.1406   23.7275 O   0  0  0  0  0  0
  -30.5582  -19.5043   20.7320 C   0  0  0  0  0  0
  -28.5557  -19.4352   19.4332 C   0  0  0  0  0  0
  -30.6172  -18.0677   20.7587 C   0  0  0  0  0  0
  -28.6200  -18.0025   19.4459 C   0  0  0  0  0  0
  -29.5645  -20.2458   20.0218 C   0  0  0  0  0  0
  -29.6918  -17.2581   20.0432 C   0  0  0  0  0  0
  -29.2551  -24.0737   20.8767 C   0  0  0  0  0  0
  -27.9713  -23.8624   19.2891 C   0  0  0  0  0  0
  -28.0284  -24.9385   20.4149 C   0  0  2  0  0  0
  -29.7882  -15.6268   18.2356 C   0  0  0  0  0  0
  -29.7859  -21.7853   19.6522 C   0  0  0  0  0  0
  -28.9457  -22.9965   20.0415 N   0  0  0  0  0  0
  -29.8688  -15.8159   19.7033 N   0  0  0  0  0  0
  -30.1920  -24.2276   21.6376 O   0  0  0  0  0  0
  -31.4892  -12.5835   19.1664 H   0  0  0  0  0  0
  -30.4574  -11.5033   20.0607 H   0  0  0  0  0  0
  -29.7714  -11.4127   17.7184 H   0  0  0  0  0  0
  -29.7239  -13.1134   17.5480 H   0  0  0  0  0  0
  -27.8120  -11.2615   18.9267 H   0  0  0  0  0  0
  -27.4193  -12.5052   17.7812 H   0  0  0  0  0  0
  -27.6027  -14.2318   19.4367 H   0  0  0  0  0  0
  -28.7440  -12.2444   21.4541 H   0  0  0  0  0  0
  -28.4503  -13.9554   21.7194 H   0  0  0  0  0  0
  -25.2765   -9.5658   22.4760 H   0  0  0  0  0  0
  -23.9999   -7.4592   22.7450 H   0  0  0  0  0  0
  -21.0874   -8.8801   19.8918 H   0  0  0  0  0  0
  -22.3753  -10.9677   19.6171 H   0  0  0  0  0  0
  -21.1972   -7.6128   23.9782 H   0  0  0  0  0  0
  -21.1516   -6.0468   25.9106 H   0  0  0  0  0  0
  -22.0580   -2.7604   23.2835 H   0  0  0  0  0  0
  -22.4085  -11.9911   22.4860 H   0  0  0  0  0  0
  -21.1077  -13.1263   22.2609 H   0  0  0  0  0  0
  -24.6592  -15.8402   20.5306 H   0  0  0  0  0  0
  -26.2852  -15.6330   20.1174 H   0  0  0  0  0  0
  -26.7144  -32.5461   23.1109 H   0  0  0  0  0  0
  -24.9860  -33.9746   25.0318 H   0  0  0  0  0  0
  -22.7173  -31.2980   21.4001 H   0  0  0  0  0  0
  -23.3764  -35.9611   23.3321 H   0  0  0  0  0  0
  -24.3574  -36.8889   22.2049 H   0  0  0  0  0  0
  -23.7224  -37.6485   23.6654 H   0  0  0  0  0  0
  -26.0807  -31.5408   20.5898 H   0  0  0  0  0  0
  -26.8542  -30.8496   21.9850 H   0  0  0  0  0  0
  -28.1280  -28.9571   21.1719 H   0  0  0  0  0  0
  -25.9592  -25.8881   19.0434 H   0  0  0  0  0  0
  -23.9615  -27.2890   19.0422 H   0  0  0  0  0  0
  -23.7447  -30.5823   19.4038 H   0  0  0  0  0  0
  -22.7579  -29.2281   19.8704 H   0  0  0  0  0  0
  -25.1290  -36.1981   25.0838 H   0  0  0  0  0  0
  -20.9945  -28.3270   24.1426 H   0  0  0  0  0  0
  -20.5626  -26.2308   23.3636 H   0  0  0  0  0  0
  -21.6632  -26.7417   22.1248 H   0  0  0  0  0  0
  -19.6917  -25.6287   21.1267 H   0  0  0  0  0  0
  -19.6707  -27.3177   20.6725 H   0  0  0  0  0  0
  -17.4184  -26.6644   21.4046 H   0  0  0  0  0  0
  -18.0367  -26.0087   22.9050 H   0  0  0  0  0  0
  -19.7936  -30.7286   24.2269 H   0  0  0  0  0  0
  -17.5014  -31.6278   24.5170 H   0  0  0  0  0  0
  -15.5353  -30.3024   23.7641 H   0  0  0  0  0  0
  -15.8663  -28.0860   22.7044 H   0  0  0  0  0  0
  -24.5813  -30.7179   25.7781 H   0  0  0  0  0  0
  -24.8874  -32.2982   26.4879 H   0  0  0  0  0  0
  -25.7947  -30.8973   27.0266 H   0  0  0  0  0  0
  -26.2941  -29.6897   24.0958 H   0  0  0  0  0  0
  -27.3798  -29.7237   25.4663 H   0  0  0  0  0  0
  -27.8858  -30.4385   23.9541 H   0  0  0  0  0  0
  -27.2738  -33.3615   26.2088 H   0  0  0  0  0  0
  -28.3810  -32.6850   25.0225 H   0  0  0  0  0  0
  -28.0770  -31.8385   26.5305 H   0  0  0  0  0  0
  -28.2607  -38.0107   24.7492 H   0  0  0  0  0  0
  -28.1131  -36.2659   24.6303 H   0  0  0  0  0  0
  -27.2346  -37.1457   25.8857 H   0  0  0  0  0  0
  -20.9416  -29.8740   21.6855 H   0  0  0  0  0  0
  -26.0208  -38.2898   24.1393 H   0  0  0  0  0  0
  -31.3720  -20.0447   21.2007 H   0  0  0  0  0  0
  -27.7652  -19.9062   18.8656 H   0  0  0  0  0  0
  -31.4565  -17.5991   21.2532 H   0  0  0  0  0  0
  -27.8656  -17.4615   18.8879 H   0  0  0  0  0  0
  -28.3467  -24.2200   18.3285 H   0  0  0  0  0  0
  -26.9794  -23.4223   19.1648 H   0  0  0  0  0  0
  -27.1895  -24.8294   21.1042 H   0  0  0  0  0  0
  -29.8946  -16.5586   17.6745 H   0  0  0  0  0  0
  -28.8331  -15.1943   17.9422 H   0  0  0  0  0  0
  -30.5908  -15.0023   17.8437 H   0  0  0  0  0  0
  -29.8210  -21.8053   18.5630 H   0  0  0  0  0  0
  -30.8132  -22.0199   19.9360 H   0  0  0  0  0  0
  1 25  1  0  0  0
  1 30  2  0  0  0
  1 83  1  0  0  0
  2  3  1  0  0  0
  2 25  1  0  0  0
  2 85  1  0  0  0
  2 86  1  0  0  0
  3  4  1  0  0  0
  3 87  1  0  0  0
  3 88  1  0  0  0
  4  5  1  0  0  0
  4 89  1  0  0  0
  4 90  1  0  0  0
  5  6  1  0  0  0
  5 26  1  0  0  0
  5 91  1  0  0  0
  6 25  1  0  0  0
  6 92  1  0  0  0
  6 93  1  0  0  0
  7  8  2  0  0  0
  7 26  1  0  0  0
  7 29  1  0  0  0
  8  9  1  0  0  0
  8 22  1  0  0  0
  9 10  1  0  0  0
  9 27  2  0  0  0
 10 11  2  0  0  0
 10 15  1  0  0  0
 11 12  1  0  0  0
 11 94  1  0  0  0
 12 13  2  0  0  0
 12 95  1  0  0  0
 13 14  1  0  0  0
 13 31  1  0  0  0
 14 15  2  0  0  0
 14 96  1  0  0  0
 15 97  1  0  0  0
 16 17  2  0  0  0
 16 21  1  0  0  0
 16 31  1  0  0  0
 17 18  1  0  0  0
 17 98  1  0  0  0
 18 19  2  0  0  0
 18 99  1  0  0  0
 19 20  1  0  0  0
 19 24  1  0  0  0
 20 21  2  0  0  0
 20100  1  0  0  0
 21 23  1  0  0  0
 22 28  1  0  0  0
 22 32  2  0  0  0
 26 27  1  0  0  0
 28101  1  0  0  0
 28102  1  0  0  0
 29103  1  0  0  0
 29104  1  0  0  0
 33 34  1  0  0  0
 33 66  1  0  0  0
 33 70  2  0  0  0
 34 36  1  0  0  0
 34 59  1  0  0  0
 34105  1  0  0  0
 35 44  2  0  0  0
 35 45  1  0  0  0
 35 68  1  0  0  0
 36 56  1  0  0  0
 36106  1  0  0  0
 37 39  1  0  0  0
 37 47  1  0  0  0
 37 66  1  0  0  0
 37107  1  0  0  0
 38 43  2  0  0  0
 38 46  1  0  0  0
 38 47  1  0  0  0
 39 64  1  0  0  0
 39 67  2  0  0  0
 40 52  1  0  0  0
 40 53  2  0  0  0
 40 58  1  0  0  0
 41108  1  0  0  0
 41109  1  0  0  0
 41110  1  0  0  0
 41 48  1  0  0  0
 42 43  1  0  0  0
 42 66  1  0  0  0
 42111  1  0  0  0
 42112  1  0  0  0
 43 44  1  0  0  0
 44113  1  0  0  0
 45 46  2  0  0  0
 45114  1  0  0  0
 46115  1  0  0  0
 47116  1  0  0  0
 47117  1  0  0  0
 48 56  1  0  0  0
 48 65  1  0  0  0
 48118  1  0  0  0
 49 50  1  0  0  0
 49 53  1  0  0  0
 49 64  1  0  0  0
 49119  1  0  0  0
 50 51  1  0  0  0
 50120  1  0  0  0
 50121  1  0  0  0
 51 52  1  0  0  0
 51122  1  0  0  0
 51123  1  0  0  0
 52124  1  0  0  0
 52125  1  0  0  0
 53 54  1  0  0  0
 54 55  2  0  0  0
 54126  1  0  0  0
 55 57  1  0  0  0
 55127  1  0  0  0
 56 69  2  0  0  0
 57 58  2  0  0  0
 57128  1  0  0  0
 58129  1  0  0  0
 59 60  1  0  0  0
 59 61  1  0  0  0
 59 62  1  0  0  0
 60130  1  0  0  0
 60131  1  0  0  0
 60132  1  0  0  0
 61133  1  0  0  0
 61134  1  0  0  0
 61135  1  0  0  0
 62136  1  0  0  0
 62137  1  0  0  0
 62138  1  0  0  0
 63 65  1  0  0  0
 63139  1  0  0  0
 63140  1  0  0  0
 63141  1  0  0  0
 64142  1  0  0  0
 65143  1  0  0  0
 68 79  1  0  0  0
 71 73  2  0  0  0
 71 75  1  0  0  0
 71144  1  0  0  0
 72 74  1  0  0  0
 72 75  2  0  0  0
 72145  1  0  0  0
 73 76  1  0  0  0
 73146  1  0  0  0
 74 76  2  0  0  0
 74147  1  0  0  0
 75 81  1  0  0  0
 76 83  1  0  0  0
 77 79  1  0  0  0
 77 82  1  0  0  0
 77 84  2  0  0  0
 78 79  1  0  0  0
 78 82  1  0  0  0
 78148  1  0  0  0
 78149  1  0  0  0
 79150  1  0  0  0
 80 83  1  0  0  0
 80151  1  0  0  0
 80152  1  0  0  0
 80153  1  0  0  0
 81 82  1  0  0  0
 81154  1  0  0  0
 81155  1  0  0  0
M  ISO  4   1 100  68 101  79 101  83 100
M  END
> <chiral flag>
0

> <version>
0

> <s_m_source_file>
/data/baiqing/PycharmProjects/Reinvent-master-3.2/result/LINK_invent/BTK/process_docking_weight1_custom_product_contain_oxygen_bond_distance_aromatic_linkinvent_7_9_3/rearranged_h_0011.sdf

> <i_m_source_file_index>
39

> <r_mmod_Potential_Energy-OPLS-2005>
432.774230957031

> <r_mmod_Stretch_Energy-OPLS-2005>
112.284942626953

> <r_mmod_Bend_Energy-OPLS-2005>
193.416595458984

> <r_mmod_Torsional_Energy-OPLS-2005>
358.508728027344

> <r_mmod_Improper_Torsional_Energy-OPLS-2005>
31.3656444549561

> <r_mmod_Van_der_Waal_Energy-OPLS-2005>
142.194091796875

> <r_mmod_Electrostatic_Energy-OPLS-2005>
-286.58203125

> <r_mmod_Solvation_Energy-OPLS-2005>
-225.79248046875

> <b_mmod_Minimization_Converged-OPLS-2005>
0

> <r_mmod_RMS_Derivative-OPLS-2005>
5.63979721069336

$$$$
39
                    3D
 Structure written by MMmdl.
155163  0  0  1  0            999 V2000
  -31.4756  -14.5217   21.2300 C   0  0  0  0  0  0
  -30.6641  -14.8214   18.8458 C   0  0  0  0  0  0
  -29.1314  -15.1314   17.5470 C   0  0  0  0  0  0
  -27.1632  -14.9983   18.3252 C   0  0  0  0  0  0
  -27.0611  -14.6194   20.3947 C   0  0  2  0  0  0
  -28.7366  -14.3607   21.4315 C   0  0  0  0  0  0
  -24.8259  -14.0469   20.5563 C   0  0  0  0  0  0
  -23.9739  -13.0837   20.9128 C   0  0  0  0  0  0
  -24.6677  -11.8344   20.8860 C   0  0  0  0  0  0
  -24.0084  -10.4846   21.0177 C   0  0  0  0  0  0
  -24.4276   -9.4732   21.9152 C   0  0  0  0  0  0
  -23.6789   -8.2764   22.0840 C   0  0  0  0  0  0
  -22.4784   -8.0654   21.3606 C   0  0  0  0  0  0
  -22.0639   -9.0593   20.4571 C   0  0  0  0  0  0
  -22.8159  -10.2391   20.2870 C   0  0  0  0  0  0
  -21.7102   -6.0972   22.5260 C   0  0  0  0  0  0
  -21.4195   -6.5789   23.8205 C   0  0  0  0  0  0
  -21.3687   -5.6897   24.9118 C   0  0  0  0  0  0
  -21.6002   -4.3151   24.7140 C   0  0  0  0  0  0
  -21.8814   -3.8290   23.4248 C   0  0  0  0  0  0
  -21.9275   -4.7150   22.3335 C   0  0  0  0  0  0
  -22.5565  -13.4206   21.1793 C   0  0  0  0  0  0
  -22.1699   -4.2333   21.0915 F   0  0  0  0  0  0
  -21.5557   -3.4596   25.7631 F   0  0  0  0  0  0
  -30.3352  -14.5429   20.6261 N   0  0  0  0  0  0
  -26.0433  -13.5269   20.5780 N   0  0  0  0  0  0
  -26.0008  -12.1139   20.6896 N   0  0  0  0  0  0
  -21.9136  -12.7133   22.0866 N   0  0  0  0  0  0
  -24.6418  -15.3941   20.2582 N   0  0  0  0  0  0
  -32.4951  -14.4936   20.5543 O   0  0  0  0  0  0
  -21.7021   -6.9262   21.4302 O   0  0  0  0  0  0
  -22.0489  -14.4195   20.6661 O   0  0  0  0  0  0
  -24.7971  -31.6353   23.0485 C   0  0  0  0  0  0
  -25.9935  -32.3673   23.7490 C   0  0  1  0  0  0
  -27.0758  -25.4493   20.1327 C   0  0  0  0  0  0
  -25.6005  -33.7578   24.1208 N   0  0  0  0  0  0
  -23.6529  -30.1979   21.4370 C   0  0  2  0  0  0
  -25.0590  -28.2783   20.1020 C   0  0  0  0  0  0
  -22.8159  -29.3486   22.4401 C   0  0  0  0  0  0
  -18.0370  -28.1440   22.8399 C   0  0  0  0  0  0
  -24.1521  -36.6814   23.2688 C   0  0  0  0  0  0
  -26.2493  -29.9324   21.4831 C   0  0  0  0  0  0
  -26.2568  -28.3693   20.8101 C   0  0  0  0  0  0
  -27.1933  -27.0257   20.7757 C   0  0  0  0  0  0
  -25.8880  -25.8877   19.3766 C   0  0  0  0  0  0
  -24.9852  -27.0665   19.3649 C   0  0  0  0  0  0
  -23.9347  -29.3965   20.1115 C   0  0  0  0  0  0
  -25.4205  -36.2422   24.0200 C   0  0  1  0  0  0
  -20.6049  -28.3816   23.0965 C   0  0  2  0  0  0
  -20.6772  -26.9373   22.5449 C   0  0  0  0  0  0
  -19.5801  -26.6306   21.5220 C   0  0  0  0  0  0
  -18.1969  -26.7950   22.1574 C   0  0  0  0  0  0
  -19.1662  -28.8983   23.2633 C   0  0  0  0  0  0
  -18.9571  -30.1537   23.8728 C   0  0  0  0  0  0
  -17.6558  -30.6618   24.0513 C   0  0  0  0  0  0
  -25.9244  -34.8851   23.4648 C   0  0  0  0  0  0
  -16.5437  -29.9087   23.6368 C   0  0  0  0  0  0
  -16.7345  -28.6500   23.0407 C   0  0  0  0  0  0
  -26.4771  -31.6272   25.0593 C   0  0  0  0  0  0
  -25.3601  -31.3897   26.1050 C   0  0  0  0  0  0
  -27.0882  -30.2539   24.7260 C   0  0  0  0  0  0
  -27.5962  -32.4452   25.7450 C   0  0  0  0  0  0
  -27.5540  -37.1533   24.8463 C   0  0  0  0  0  0
  -21.4719  -29.2807   22.3128 N   0  0  0  0  0  0
  -26.4218  -37.3326   23.9427 N   0  0  0  0  0  0
  -24.9471  -30.6554   22.0410 N   0  0  0  0  0  0
  -23.4088  -28.7322   23.3262 O   0  0  0  0  0  0
  -27.7817  -23.6630   20.1261 O   0  0  0  0  0  0
  -26.6095  -34.8690   22.4416 O   0  0  0  0  0  0
  -23.6777  -32.0023   23.4727 O   0  0  0  0  0  0
  -31.7770  -17.7175   21.2070 C   0  0  0  0  0  0
  -30.7925  -17.5749   20.2080 C   0  0  0  0  0  0
  -30.0831  -17.4276   22.9091 C   0  0  0  0  0  0
  -31.4273  -17.3057   22.5078 C   0  0  0  0  0  0
  -29.5115  -17.0808   20.5709 C   0  0  0  0  0  0
  -29.1006  -17.3019   21.9147 C   0  0  0  0  0  0
  -28.7296  -13.7328   19.2327 C   0  0  0  0  0  0
  -32.1547  -16.0782   23.0360 C   0  0  0  0  0  0
  -27.9783  -18.5698   19.5991 C   0  0  0  0  0  0
  -27.9887  -21.2951   19.6762 C   0  0  0  0  0  0
  -31.4339  -14.8926   22.5201 N   0  0  0  0  0  0
  -28.6776  -16.3944   19.6326 N   0  0  0  0  0  0
  -27.8035  -17.1775   22.2871 F   0  0  0  0  0  0
  -31.3939  -15.6109   18.6832 H   0  0  0  0  0  0
  -31.2245  -13.9619   18.4655 H   0  0  0  0  0  0
  -29.2418  -14.4959   16.6647 H   0  0  0  0  0  0
  -29.2422  -16.1346   17.1292 H   0  0  0  0  0  0
  -26.5947  -14.2406   17.7842 H   0  0  0  0  0  0
  -26.6231  -15.9170   18.0936 H   0  0  0  0  0  0
  -26.7786  -15.5229   20.9328 H   0  0  0  0  0  0
  -28.7405  -13.3423   21.8270 H   0  0  0  0  0  0
  -28.6836  -14.9049   22.3702 H   0  0  0  0  0  0
  -25.3232   -9.6322   22.4994 H   0  0  0  0  0  0
  -24.0373   -7.5313   22.7796 H   0  0  0  0  0  0
  -21.1584   -8.9153   19.8855 H   0  0  0  0  0  0
  -22.4541  -10.9840   19.5927 H   0  0  0  0  0  0
  -21.2294   -7.6321   23.9728 H   0  0  0  0  0  0
  -21.1470   -6.0632   25.9018 H   0  0  0  0  0  0
  -22.0556   -2.7754   23.2683 H   0  0  0  0  0  0
  -22.3416  -11.9208   22.5418 H   0  0  0  0  0  0
  -20.9704  -12.9777   22.3323 H   0  0  0  0  0  0
  -23.7138  -15.7987   20.1973 H   0  0  0  0  0  0
  -25.3808  -15.9957   19.9147 H   0  0  0  0  0  0
  -26.8214  -32.3996   23.0379 H   0  0  0  0  0  0
  -24.9819  -33.8396   24.9143 H   0  0  0  0  0  0
  -23.0506  -31.0670   21.1650 H   0  0  0  0  0  0
  -23.3828  -35.9084   23.3134 H   0  0  0  0  0  0
  -24.3576  -36.8763   22.2147 H   0  0  0  0  0  0
  -23.7247  -37.5864   23.7011 H   0  0  0  0  0  0
  -26.6156  -30.5922   20.6956 H   0  0  0  0  0  0
  -27.0477  -29.9625   22.2089 H   0  0  0  0  0  0
  -28.0712  -27.1355   21.3954 H   0  0  0  0  0  0
  -25.5183  -25.0994   18.7381 H   0  0  0  0  0  0
  -24.1168  -26.9612   18.7298 H   0  0  0  0  0  0
  -24.1987  -30.1118   19.3303 H   0  0  0  0  0  0
  -23.0035  -28.9443   19.7676 H   0  0  0  0  0  0
  -25.1474  -36.0986   25.0678 H   0  0  0  0  0  0
  -21.0101  -28.3533   24.1107 H   0  0  0  0  0  0
  -20.5491  -26.2463   23.3796 H   0  0  0  0  0  0
  -21.6632  -26.7111   22.1370 H   0  0  0  0  0  0
  -19.6946  -25.6181   21.1344 H   0  0  0  0  0  0
  -19.6821  -27.3036   20.6702 H   0  0  0  0  0  0
  -17.4251  -26.6688   21.3963 H   0  0  0  0  0  0
  -18.0316  -26.0118   22.8989 H   0  0  0  0  0  0
  -19.8058  -30.7362   24.2049 H   0  0  0  0  0  0
  -17.5121  -31.6288   24.5135 H   0  0  0  0  0  0
  -15.5437  -30.2961   23.7799 H   0  0  0  0  0  0
  -15.8726  -28.0769   22.7273 H   0  0  0  0  0  0
  -24.5874  -30.7132   25.7387 H   0  0  0  0  0  0
  -24.8725  -32.3198   26.3950 H   0  0  0  0  0  0
  -25.7603  -30.9437   27.0168 H   0  0  0  0  0  0
  -26.3681  -29.5730   24.2717 H   0  0  0  0  0  0
  -27.4324  -29.7529   25.6320 H   0  0  0  0  0  0
  -27.9649  -30.3463   24.0860 H   0  0  0  0  0  0
  -27.2318  -33.3973   26.1331 H   0  0  0  0  0  0
  -28.4088  -32.6654   25.0512 H   0  0  0  0  0  0
  -28.0268  -31.9086   26.5911 H   0  0  0  0  0  0
  -28.2395  -37.9970   24.7546 H   0  0  0  0  0  0
  -28.1194  -36.2465   24.6233 H   0  0  0  0  0  0
  -27.2264  -37.1064   25.8865 H   0  0  0  0  0  0
  -21.0282  -29.8230   21.5857 H   0  0  0  0  0  0
  -25.9920  -38.2307   24.1476 H   0  0  0  0  0  0
  -32.8140  -17.7679   20.9030 H   0  0  0  0  0  0
  -31.0969  -17.6283   19.1762 H   0  0  0  0  0  0
  -29.7823  -17.2480   23.9307 H   0  0  0  0  0  0
  -29.5772  -13.0275   19.2729 H   0  0  0  0  0  0
  -28.4164  -13.2257   18.2980 H   0  0  0  0  0  0
  -28.2224  -12.9409   19.7963 H   0  0  0  0  0  0
  -33.1966  -16.0718   22.7138 H   0  0  0  0  0  0
  -32.1505  -16.0903   24.1274 H   0  0  0  0  0  0
  -27.7393  -18.5172   18.5362 H   0  0  0  0  0  0
  -27.0201  -18.4093   20.0955 H   0  0  0  0  0  0
  -27.1935  -21.3590   18.9350 H   0  0  0  0  0  0
  -28.9182  -21.4112   19.1189 H   0  0  0  0  0  0
  -30.5249  -14.7611   22.9357 H   0  0  0  0  0  0
  1 25  1  0  0  0
  1 30  2  0  0  0
  1 81  1  0  0  0
  2  3  1  0  0  0
  2 25  1  0  0  0
  2 84  1  0  0  0
  2 85  1  0  0  0
  3  4  1  0  0  0
  3 86  1  0  0  0
  3 87  1  0  0  0
  4  5  1  0  0  0
  4 88  1  0  0  0
  4 89  1  0  0  0
  5  6  1  0  0  0
  5 26  1  0  0  0
  5 90  1  0  0  0
  6 25  1  0  0  0
  6 91  1  0  0  0
  6 92  1  0  0  0
  7  8  2  0  0  0
  7 26  1  0  0  0
  7 29  1  0  0  0
  8  9  1  0  0  0
  8 22  1  0  0  0
  9 10  1  0  0  0
  9 27  2  0  0  0
 10 11  2  0  0  0
 10 15  1  0  0  0
 11 12  1  0  0  0
 11 93  1  0  0  0
 12 13  2  0  0  0
 12 94  1  0  0  0
 13 14  1  0  0  0
 13 31  1  0  0  0
 14 15  2  0  0  0
 14 95  1  0  0  0
 15 96  1  0  0  0
 16 17  2  0  0  0
 16 21  1  0  0  0
 16 31  1  0  0  0
 17 18  1  0  0  0
 17 97  1  0  0  0
 18 19  2  0  0  0
 18 98  1  0  0  0
 19 20  1  0  0  0
 19 24  1  0  0  0
 20 21  2  0  0  0
 20 99  1  0  0  0
 21 23  1  0  0  0
 22 28  1  0  0  0
 22 32  2  0  0  0
 26 27  1  0  0  0
 28100  1  0  0  0
 28101  1  0  0  0
 29102  1  0  0  0
 29103  1  0  0  0
 33 34  1  0  0  0
 33 66  1  0  0  0
 33 70  2  0  0  0
 34 36  1  0  0  0
 34 59  1  0  0  0
 34104  1  0  0  0
 35 44  2  0  0  0
 35 45  1  0  0  0
 35 68  1  0  0  0
 36 56  1  0  0  0
 36105  1  0  0  0
 37 39  1  0  0  0
 37 47  1  0  0  0
 37 66  1  0  0  0
 37106  1  0  0  0
 38 43  2  0  0  0
 38 46  1  0  0  0
 38 47  1  0  0  0
 39 64  1  0  0  0
 39 67  2  0  0  0
 40 52  1  0  0  0
 40 53  2  0  0  0
 40 58  1  0  0  0
 41107  1  0  0  0
 41108  1  0  0  0
 41109  1  0  0  0
 41 48  1  0  0  0
 42 43  1  0  0  0
 42 66  1  0  0  0
 42110  1  0  0  0
 42111  1  0  0  0
 43 44  1  0  0  0
 44112  1  0  0  0
 45 46  2  0  0  0
 45113  1  0  0  0
 46114  1  0  0  0
 47115  1  0  0  0
 47116  1  0  0  0
 48 56  1  0  0  0
 48 65  1  0  0  0
 48117  1  0  0  0
 49 50  1  0  0  0
 49 53  1  0  0  0
 49 64  1  0  0  0
 49118  1  0  0  0
 50 51  1  0  0  0
 50119  1  0  0  0
 50120  1  0  0  0
 51 52  1  0  0  0
 51121  1  0  0  0
 51122  1  0  0  0
 52123  1  0  0  0
 52124  1  0  0  0
 53 54  1  0  0  0
 54 55  2  0  0  0
 54125  1  0  0  0
 55 57  1  0  0  0
 55126  1  0  0  0
 56 69  2  0  0  0
 57 58  2  0  0  0
 57127  1  0  0  0
 58128  1  0  0  0
 59 60  1  0  0  0
 59 61  1  0  0  0
 59 62  1  0  0  0
 60129  1  0  0  0
 60130  1  0  0  0
 60131  1  0  0  0
 61132  1  0  0  0
 61133  1  0  0  0
 61134  1  0  0  0
 62135  1  0  0  0
 62136  1  0  0  0
 62137  1  0  0  0
 63 65  1  0  0  0
 63138  1  0  0  0
 63139  1  0  0  0
 63140  1  0  0  0
 64141  1  0  0  0
 65142  1  0  0  0
 68 80  1  0  0  0
 71 72  2  0  0  0
 71 74  1  0  0  0
 71143  1  0  0  0
 72 75  1  0  0  0
 72144  1  0  0  0
 73 74  2  0  0  0
 73 76  1  0  0  0
 73145  1  0  0  0
 74 78  1  0  0  0
 75 76  2  0  0  0
 75 82  1  0  0  0
 76 83  1  0  0  0
 77 82  1  0  0  0
 77146  1  0  0  0
 77147  1  0  0  0
 77148  1  0  0  0
 78 81  1  0  0  0
 78149  1  0  0  0
 78150  1  0  0  0
 79 80  1  0  0  0
 79 82  1  0  0  0
 79151  1  0  0  0
 79152  1  0  0  0
 80153  1  0  0  0
 80154  1  0  0  0
 81155  1  0  0  0
M  ISO  4   1 100  68 101  80 101  81 100
M  END
> <chiral flag>
0

> <version>
0

> <s_m_source_file>
/data/baiqing/PycharmProjects/Reinvent-master-3.2/result/LINK_invent/BTK/process_docking_weight1_custom_product_contain_oxygen_bond_distance_aromatic_linkinvent_7_9_3/rearranged_h_0011.sdf

> <i_m_source_file_index>
40

> <r_mmod_Potential_Energy-OPLS-2005>
18346.44921875

> <r_mmod_Stretch_Energy-OPLS-2005>
9306.9267578125

> <r_mmod_Bend_Energy-OPLS-2005>
1699.658203125

> <r_mmod_Torsional_Energy-OPLS-2005>
458.653686523438

> <r_mmod_Improper_Torsional_Energy-OPLS-2005>
31.3084278106689

> <r_mmod_Van_der_Waal_Energy-OPLS-2005>
1949.84741210938

> <r_mmod_Electrostatic_Energy-OPLS-2005>
-376.603912353516

> <r_mmod_Solvation_Energy-OPLS-2005>
-208.171829223633

> <b_mmod_Minimization_Converged-OPLS-2005>
0

> <r_mmod_RMS_Derivative-OPLS-2005>
6.33034324645996

$$$$
40
                    3D
 Structure written by MMmdl.
152161  0  0  1  0            999 V2000
  -30.5088  -14.9329   20.4132 C   0  0  0  0  0  0
  -30.4520  -12.5725   19.4863 C   0  0  0  0  0  0
  -29.5222  -12.5301   18.2492 C   0  0  0  0  0  0
  -28.0560  -12.3144   18.6711 C   0  0  0  0  0  0
  -27.6380  -13.2375   19.8435 C   0  0  2  0  0  0
  -28.6841  -13.2326   20.9797 C   0  0  0  0  0  0
  -25.2515  -13.8204   20.5711 C   0  0  0  0  0  0
  -24.1807  -13.0453   20.9231 C   0  0  0  0  0  0
  -24.6403  -11.6930   20.8759 C   0  0  0  0  0  0
  -23.9072  -10.4306   21.0412 C   0  0  0  0  0  0
  -24.3617   -9.4218   21.9186 C   0  0  0  0  0  0
  -23.6290   -8.2254   22.0753 C   0  0  0  0  0  0
  -22.4270   -8.0291   21.3545 C   0  0  0  0  0  0
  -21.9899   -9.0273   20.4650 C   0  0  0  0  0  0
  -22.7239  -10.2147   20.3064 C   0  0  0  0  0  0
  -21.6858   -6.0725   22.5276 C   0  0  0  0  0  0
  -21.4014   -6.5626   23.8207 C   0  0  0  0  0  0
  -21.3666   -5.6782   24.9169 C   0  0  0  0  0  0
  -21.6048   -4.3043   24.7234 C   0  0  0  0  0  0
  -21.8820   -3.8135   23.4351 C   0  0  0  0  0  0
  -21.9197   -4.6947   22.3400 C   0  0  0  0  0  0
  -22.7832  -13.5240   21.1896 C   0  0  0  0  0  0
  -22.1666   -4.2129   21.0980 F   0  0  0  0  0  0
  -21.5627   -3.4535   25.7752 F   0  0  0  0  0  0
  -29.9657  -13.6510   20.3903 N   0  0  0  0  0  0
  -26.2930  -12.9412   20.3265 N   0  0  0  0  0  0
  -25.9334  -11.6555   20.5742 N   0  0  0  0  0  0
  -22.0463  -12.8238   22.0441 N   0  0  0  0  0  0
  -25.4192  -15.1934   20.4115 N   0  0  0  0  0  0
  -31.6986  -15.0638   20.0990 O   0  0  0  0  0  0
  -21.6640   -6.8883   21.4242 O   0  0  0  0  0  0
  -22.3531  -14.5553   20.6751 O   0  0  0  0  0  0
  -24.6449  -31.8436   23.1890 C   0  0  0  0  0  0
  -25.9215  -32.4696   23.8285 C   0  0  1  0  0  0
  -27.2198  -27.1261   20.1400 C   0  0  0  0  0  0
  -25.5965  -33.8502   24.2204 N   0  0  0  0  0  0
  -23.4501  -30.4633   21.5348 C   0  0  2  0  0  0
  -24.9014  -28.8938   20.1064 C   0  0  0  0  0  0
  -22.7584  -29.4538   22.4854 C   0  0  0  0  0  0
  -18.0312  -28.1393   22.8488 C   0  0  0  0  0  0
  -24.1483  -36.7247   23.2642 C   0  0  0  0  0  0
  -26.0092  -30.7096   21.3951 C   0  0  0  0  0  0
  -26.0784  -29.3211   20.7338 C   0  0  0  0  0  0
  -27.2353  -28.4513   20.7408 C   0  0  0  0  0  0
  -26.0232  -26.8195   19.4529 C   0  0  0  0  0  0
  -24.8873  -27.6553   19.4504 C   0  0  0  0  0  0
  -23.6785  -29.7973   20.1523 C   0  0  0  0  0  0
  -25.4113  -36.3037   24.0323 C   0  0  1  0  0  0
  -20.5929  -28.3718   23.1234 C   0  0  2  0  0  0
  -20.6795  -26.9413   22.5409 C   0  0  0  0  0  0
  -19.5759  -26.6376   21.5222 C   0  0  0  0  0  0
  -18.1942  -26.7933   22.1640 C   0  0  0  0  0  0
  -19.1569  -28.8872   23.2857 C   0  0  0  0  0  0
  -18.9486  -30.1470   23.8884 C   0  0  0  0  0  0
  -17.6475  -30.6586   24.0554 C   0  0  0  0  0  0
  -25.9072  -34.9408   23.5071 C   0  0  0  0  0  0
  -16.5366  -29.9076   23.6330 C   0  0  0  0  0  0
  -16.7294  -28.6493   23.0358 C   0  0  0  0  0  0
  -26.4516  -31.6574   25.0740 C   0  0  0  0  0  0
  -25.3707  -31.3790   26.1454 C   0  0  0  0  0  0
  -27.0364  -30.2958   24.6346 C   0  0  0  0  0  0
  -27.6065  -32.4320   25.7507 C   0  0  0  0  0  0
  -27.5575  -37.1773   24.8458 C   0  0  0  0  0  0
  -21.4274  -29.3038   22.3602 N   0  0  0  0  0  0
  -26.4276  -37.3752   23.9417 N   0  0  0  0  0  0
  -24.7211  -31.0269   22.0938 N   0  0  0  0  0  0
  -23.4221  -28.8081   23.3006 O   0  0  0  0  0  0
  -28.2574  -26.1184   20.2239 O   0  0  0  0  0  0
  -26.5649  -34.8907   22.4646 O   0  0  0  0  0  0
  -23.5560  -32.1321   23.7094 O   0  0  0  0  0  0
  -30.1571  -20.0066   20.0100 C   0  0  0  0  0  0
  -28.0283  -19.5908   20.9060 C   0  0  0  0  0  0
  -30.4524  -18.5633   20.0570 C   0  0  0  0  0  0
  -28.3184  -18.1766   20.9581 C   0  0  0  0  0  0
  -28.9143  -20.6202   20.4314 C   0  0  0  0  0  0
  -29.5354  -17.5548   20.5390 C   0  0  0  0  0  0
  -29.0225  -23.3662   20.0937 C   0  0  0  0  0  0
  -26.8629  -23.9690   20.8133 C   0  0  0  0  0  0
  -27.0536  -22.4274   20.7080 C   0  0  0  0  0  0
  -27.9583  -24.6042   19.9543 C   0  0  1  0  0  0
  -28.4568  -22.1066   20.3909 N   0  0  0  0  0  0
  -29.6298  -16.0228   20.6348 N   0  0  0  0  0  0
  -30.2325  -23.5454   19.9162 O   0  0  0  0  0  0
  -31.4831  -12.7403   19.1718 H   0  0  0  0  0  0
  -30.4502  -11.6119   20.0040 H   0  0  0  0  0  0
  -29.8334  -11.7359   17.5694 H   0  0  0  0  0  0
  -29.6107  -13.4635   17.6922 H   0  0  0  0  0  0
  -27.9521  -11.2720   18.9726 H   0  0  0  0  0  0
  -27.3903  -12.4558   17.8188 H   0  0  0  0  0  0
  -27.6109  -14.2437   19.4271 H   0  0  0  0  0  0
  -28.7664  -12.2434   21.4320 H   0  0  0  0  0  0
  -28.3845  -13.9096   21.7816 H   0  0  0  0  0  0
  -25.2759   -9.5688   22.4763 H   0  0  0  0  0  0
  -23.9996   -7.4643   22.7476 H   0  0  0  0  0  0
  -21.0816   -8.8817   19.8963 H   0  0  0  0  0  0
  -22.3707  -10.9696   19.6178 H   0  0  0  0  0  0
  -21.1998   -7.6133   23.9707 H   0  0  0  0  0  0
  -21.1481   -6.0507   25.9071 H   0  0  0  0  0  0
  -22.0589   -2.7594   23.2869 H   0  0  0  0  0  0
  -22.4055  -11.9901   22.4850 H   0  0  0  0  0  0
  -21.1088  -13.1292   22.2646 H   0  0  0  0  0  0
  -24.6422  -15.8385   20.5017 H   0  0  0  0  0  0
  -26.2443  -15.6268   20.0183 H   0  0  0  0  0  0
  -26.7289  -32.5295   23.1017 H   0  0  0  0  0  0
  -25.0090  -33.9599   25.0339 H   0  0  0  0  0  0
  -22.7537  -31.2900   21.3807 H   0  0  0  0  0  0
  -23.3758  -35.9568   23.3292 H   0  0  0  0  0  0
  -24.3569  -36.8874   22.2057 H   0  0  0  0  0  0
  -23.7218  -37.6437   23.6671 H   0  0  0  0  0  0
  -26.1730  -31.4646   20.6245 H   0  0  0  0  0  0
  -26.8763  -30.7557   22.0425 H   0  0  0  0  0  0
  -28.1255  -28.7682   21.2653 H   0  0  0  0  0  0
  -25.9254  -25.8886   18.9172 H   0  0  0  0  0  0
  -23.9954  -27.3284   18.9338 H   0  0  0  0  0  0
  -23.8183  -30.5741   19.3995 H   0  0  0  0  0  0
  -22.7926  -29.2425   19.8379 H   0  0  0  0  0  0
  -25.1291  -36.1871   25.0816 H   0  0  0  0  0  0
  -21.0029  -28.3309   24.1350 H   0  0  0  0  0  0
  -20.5679  -26.2321   23.3627 H   0  0  0  0  0  0
  -21.6664  -26.7398   22.1205 H   0  0  0  0  0  0
  -19.6895  -25.6280   21.1262 H   0  0  0  0  0  0
  -19.6684  -27.3181   20.6747 H   0  0  0  0  0  0
  -17.4206  -26.6684   21.4052 H   0  0  0  0  0  0
  -18.0322  -26.0080   22.9036 H   0  0  0  0  0  0
  -19.7960  -30.7297   24.2248 H   0  0  0  0  0  0
  -17.5023  -31.6270   24.5146 H   0  0  0  0  0  0
  -15.5362  -30.2960   23.7664 H   0  0  0  0  0  0
  -15.8703  -28.0791   22.7085 H   0  0  0  0  0  0
  -24.5831  -30.7192   25.7791 H   0  0  0  0  0  0
  -24.8971  -32.2991   26.4890 H   0  0  0  0  0  0
  -25.7991  -30.8941   27.0235 H   0  0  0  0  0  0
  -26.2982  -29.6691   24.1334 H   0  0  0  0  0  0
  -27.3926  -29.7253   25.4934 H   0  0  0  0  0  0
  -27.8921  -30.4169   23.9700 H   0  0  0  0  0  0
  -27.2680  -33.3630   26.2059 H   0  0  0  0  0  0
  -28.3891  -32.6852   25.0346 H   0  0  0  0  0  0
  -28.0722  -31.8465   26.5442 H   0  0  0  0  0  0
  -28.2589  -38.0077   24.7533 H   0  0  0  0  0  0
  -28.1075  -36.2614   24.6245 H   0  0  0  0  0  0
  -27.2299  -37.1380   25.8862 H   0  0  0  0  0  0
  -20.9477  -29.8754   21.6789 H   0  0  0  0  0  0
  -26.0147  -38.2819   24.1441 H   0  0  0  0  0  0
  -30.9271  -20.6541   19.6128 H   0  0  0  0  0  0
  -27.0446  -19.8637   21.2551 H   0  0  0  0  0  0
  -31.4176  -18.2345   19.6965 H   0  0  0  0  0  0
  -27.5357  -17.5374   21.3435 H   0  0  0  0  0  0
  -26.9795  -24.2932   21.8478 H   0  0  0  0  0  0
  -25.8597  -24.2533   20.5000 H   0  0  0  0  0  0
  -26.4300  -22.0266   19.9060 H   0  0  0  0  0  0
  -26.7356  -21.9644   21.6419 H   0  0  0  0  0  0
  -27.6598  -24.5415   18.9080 H   0  0  0  0  0  0
  -28.7431  -15.6307   20.9116 H   0  0  0  0  0  0
  1 25  1  0  0  0
  1 30  2  0  0  0
  1 82  1  0  0  0
  2  3  1  0  0  0
  2 25  1  0  0  0
  2 84  1  0  0  0
  2 85  1  0  0  0
  3  4  1  0  0  0
  3 86  1  0  0  0
  3 87  1  0  0  0
  4  5  1  0  0  0
  4 88  1  0  0  0
  4 89  1  0  0  0
  5  6  1  0  0  0
  5 26  1  0  0  0
  5 90  1  0  0  0
  6 25  1  0  0  0
  6 91  1  0  0  0
  6 92  1  0  0  0
  7  8  2  0  0  0
  7 26  1  0  0  0
  7 29  1  0  0  0
  8  9  1  0  0  0
  8 22  1  0  0  0
  9 10  1  0  0  0
  9 27  2  0  0  0
 10 11  2  0  0  0
 10 15  1  0  0  0
 11 12  1  0  0  0
 11 93  1  0  0  0
 12 13  2  0  0  0
 12 94  1  0  0  0
 13 14  1  0  0  0
 13 31  1  0  0  0
 14 15  2  0  0  0
 14 95  1  0  0  0
 15 96  1  0  0  0
 16 17  2  0  0  0
 16 21  1  0  0  0
 16 31  1  0  0  0
 17 18  1  0  0  0
 17 97  1  0  0  0
 18 19  2  0  0  0
 18 98  1  0  0  0
 19 20  1  0  0  0
 19 24  1  0  0  0
 20 21  2  0  0  0
 20 99  1  0  0  0
 21 23  1  0  0  0
 22 28  1  0  0  0
 22 32  2  0  0  0
 26 27  1  0  0  0
 28100  1  0  0  0
 28101  1  0  0  0
 29102  1  0  0  0
 29103  1  0  0  0
 33 34  1  0  0  0
 33 66  1  0  0  0
 33 70  2  0  0  0
 34 36  1  0  0  0
 34 59  1  0  0  0
 34104  1  0  0  0
 35 44  2  0  0  0
 35 45  1  0  0  0
 35 68  1  0  0  0
 36 56  1  0  0  0
 36105  1  0  0  0
 37 39  1  0  0  0
 37 47  1  0  0  0
 37 66  1  0  0  0
 37106  1  0  0  0
 38 43  2  0  0  0
 38 46  1  0  0  0
 38 47  1  0  0  0
 39 64  1  0  0  0
 39 67  2  0  0  0
 40 52  1  0  0  0
 40 53  2  0  0  0
 40 58  1  0  0  0
 41107  1  0  0  0
 41108  1  0  0  0
 41109  1  0  0  0
 41 48  1  0  0  0
 42 43  1  0  0  0
 42 66  1  0  0  0
 42110  1  0  0  0
 42111  1  0  0  0
 43 44  1  0  0  0
 44112  1  0  0  0
 45 46  2  0  0  0
 45113  1  0  0  0
 46114  1  0  0  0
 47115  1  0  0  0
 47116  1  0  0  0
 48 56  1  0  0  0
 48 65  1  0  0  0
 48117  1  0  0  0
 49 50  1  0  0  0
 49 53  1  0  0  0
 49 64  1  0  0  0
 49118  1  0  0  0
 50 51  1  0  0  0
 50119  1  0  0  0
 50120  1  0  0  0
 51 52  1  0  0  0
 51121  1  0  0  0
 51122  1  0  0  0
 52123  1  0  0  0
 52124  1  0  0  0
 53 54  1  0  0  0
 54 55  2  0  0  0
 54125  1  0  0  0
 55 57  1  0  0  0
 55126  1  0  0  0
 56 69  2  0  0  0
 57 58  2  0  0  0
 57127  1  0  0  0
 58128  1  0  0  0
 59 60  1  0  0  0
 59 61  1  0  0  0
 59 62  1  0  0  0
 60129  1  0  0  0
 60130  1  0  0  0
 60131  1  0  0  0
 61132  1  0  0  0
 61133  1  0  0  0
 61134  1  0  0  0
 62135  1  0  0  0
 62136  1  0  0  0
 62137  1  0  0  0
 63 65  1  0  0  0
 63138  1  0  0  0
 63139  1  0  0  0
 63140  1  0  0  0
 64141  1  0  0  0
 65142  1  0  0  0
 68 80  1  0  0  0
 71 73  2  0  0  0
 71 75  1  0  0  0
 71143  1  0  0  0
 72 74  1  0  0  0
 72 75  2  0  0  0
 72144  1  0  0  0
 73 76  1  0  0  0
 73145  1  0  0  0
 74 76  2  0  0  0
 74146  1  0  0  0
 75 81  1  0  0  0
 76 82  1  0  0  0
 77 80  1  0  0  0
 77 81  1  0  0  0
 77 83  2  0  0  0
 78 79  1  0  0  0
 78 80  1  0  0  0
 78147  1  0  0  0
 78148  1  0  0  0
 79 81  1  0  0  0
 79149  1  0  0  0
 79150  1  0  0  0
 80151  1  0  0  0
 82152  1  0  0  0
M  ISO  4   1 100  68 101  80 101  82 100
M  END
> <chiral flag>
0

> <version>
0

> <s_m_source_file>
/data/baiqing/PycharmProjects/Reinvent-master-3.2/result/LINK_invent/BTK/process_docking_weight1_custom_product_contain_oxygen_bond_distance_aromatic_linkinvent_7_9_3/rearranged_h_0011.sdf

> <i_m_source_file_index>
41

> <r_mmod_Potential_Energy-OPLS-2005>
578.300842285156

> <r_mmod_Stretch_Energy-OPLS-2005>
232.756225585938

> <r_mmod_Bend_Energy-OPLS-2005>
320.357879638672

> <r_mmod_Torsional_Energy-OPLS-2005>
246.945434570312

> <r_mmod_Improper_Torsional_Energy-OPLS-2005>
4.10524368286133

> <r_mmod_Van_der_Waal_Energy-OPLS-2005>
130.211456298828

> <r_mmod_Electrostatic_Energy-OPLS-2005>
-317.91796875

> <r_mmod_Solvation_Energy-OPLS-2005>
-233.450637817383

> <b_mmod_Minimization_Converged-OPLS-2005>
0

> <r_mmod_RMS_Derivative-OPLS-2005>
2.13818335533142

$$$$
41
                    3D
 Structure written by MMmdl.
163172  0  0  1  0            999 V2000
  -30.5864  -14.6404   20.5243 C   0  0  0  0  0  0
  -30.4438  -12.4000   19.4439 C   0  0  0  0  0  0
  -29.5044  -12.5195   18.2211 C   0  0  0  0  0  0
  -28.0249  -12.3545   18.6306 C   0  0  0  0  0  0
  -27.6516  -13.2084   19.8709 C   0  0  2  0  0  0
  -28.6968  -13.0275   20.9937 C   0  0  0  0  0  0
  -25.2544  -13.8142   20.5713 C   0  0  0  0  0  0
  -24.1802  -13.0417   20.9183 C   0  0  0  0  0  0
  -24.6355  -11.6885   20.8733 C   0  0  0  0  0  0
  -23.9018  -10.4274   21.0389 C   0  0  0  0  0  0
  -24.3578   -9.4198   21.9174 C   0  0  0  0  0  0
  -23.6272   -8.2224   22.0737 C   0  0  0  0  0  0
  -22.4253   -8.0255   21.3538 C   0  0  0  0  0  0
  -21.9879   -9.0214   20.4629 C   0  0  0  0  0  0
  -22.7182  -10.2109   20.3043 C   0  0  0  0  0  0
  -21.6852   -6.0715   22.5274 C   0  0  0  0  0  0
  -21.4013   -6.5623   23.8202 C   0  0  0  0  0  0
  -21.3667   -5.6784   24.9170 C   0  0  0  0  0  0
  -21.6041   -4.3044   24.7225 C   0  0  0  0  0  0
  -21.8822   -3.8129   23.4348 C   0  0  0  0  0  0
  -21.9193   -4.6943   22.3401 C   0  0  0  0  0  0
  -22.7824  -13.5215   21.1872 C   0  0  0  0  0  0
  -22.1659   -4.2125   21.0979 F   0  0  0  0  0  0
  -21.5637   -3.4529   25.7740 F   0  0  0  0  0  0
  -30.0093  -13.4002   20.4379 N   0  0  0  0  0  0
  -26.2962  -12.9308   20.3349 N   0  0  0  0  0  0
  -25.9277  -11.6469   20.5748 N   0  0  0  0  0  0
  -22.0482  -12.8197   22.0429 N   0  0  0  0  0  0
  -25.4291  -15.1862   20.4173 N   0  0  0  0  0  0
  -31.7473  -14.8450   20.1538 O   0  0  0  0  0  0
  -21.6628   -6.8852   21.4234 O   0  0  0  0  0  0
  -22.3505  -14.5540   20.6741 O   0  0  0  0  0  0
  -24.6248  -31.8608   23.2060 C   0  0  0  0  0  0
  -25.9105  -32.4776   23.8385 C   0  0  1  0  0  0
  -27.2186  -27.3101   20.1291 C   0  0  0  0  0  0
  -25.5925  -33.8573   24.2309 N   0  0  0  0  0  0
  -23.4226  -30.4847   21.5465 C   0  0  2  0  0  0
  -24.8675  -28.9352   20.1239 C   0  0  0  0  0  0
  -22.7452  -29.4639   22.4913 C   0  0  0  0  0  0
  -18.0368  -28.1408   22.8495 C   0  0  0  0  0  0
  -24.1498  -36.7293   23.2641 C   0  0  0  0  0  0
  -25.9671  -30.7795   21.3894 C   0  0  0  0  0  0
  -26.0344  -29.4019   20.7458 C   0  0  0  0  0  0
  -27.2149  -28.5961   20.7521 C   0  0  0  0  0  0
  -26.0495  -26.9277   19.4453 C   0  0  0  0  0  0
  -24.8754  -27.6982   19.4661 C   0  0  0  0  0  0
  -23.6383  -29.8179   20.1652 C   0  0  0  0  0  0
  -25.4111  -36.3074   24.0340 C   0  0  1  0  0  0
  -20.5949  -28.3765   23.1417 C   0  0  2  0  0  0
  -20.6800  -26.9365   22.5889 C   0  0  0  0  0  0
  -19.6032  -26.6357   21.5422 C   0  0  0  0  0  0
  -18.2103  -26.7993   22.1554 C   0  0  0  0  0  0
  -19.1576  -28.8880   23.2979 C   0  0  0  0  0  0
  -18.9469  -30.1457   23.9013 C   0  0  0  0  0  0
  -17.6458  -30.6604   24.0584 C   0  0  0  0  0  0
  -25.9038  -34.9440   23.5119 C   0  0  0  0  0  0
  -16.5369  -29.9098   23.6297 C   0  0  0  0  0  0
  -16.7330  -28.6523   23.0318 C   0  0  0  0  0  0
  -26.4492  -31.6573   25.0756 C   0  0  0  0  0  0
  -25.3747  -31.3684   26.1500 C   0  0  0  0  0  0
  -27.0343  -30.2996   24.6216 C   0  0  0  0  0  0
  -27.6046  -32.4298   25.7525 C   0  0  0  0  0  0
  -27.5579  -37.1796   24.8466 C   0  0  0  0  0  0
  -21.4187  -29.2962   22.3572 N   0  0  0  0  0  0
  -26.4293  -37.3761   23.9404 N   0  0  0  0  0  0
  -24.6895  -31.0596   22.1023 N   0  0  0  0  0  0
  -23.4137  -28.8239   23.3079 O   0  0  0  0  0  0
  -28.3307  -26.4739   19.9855 O   0  0  0  0  0  0
  -26.5597  -34.8892   22.4686 O   0  0  0  0  0  0
  -23.5409  -32.1431   23.7379 O   0  0  0  0  0  0
  -30.1276  -19.3645   21.6604 C   0  0  0  0  0  0
  -30.3934  -17.9627   21.6516 C   0  0  0  0  0  0
  -28.8953  -17.7346   19.8077 C   0  0  0  0  0  0
  -29.2130  -20.0263   20.7812 C   0  0  0  0  0  0
  -28.6515  -19.1480   19.7799 C   0  0  0  0  0  0
  -29.7465  -17.0959   20.7424 C   0  0  0  0  0  0
  -25.9212  -23.3999   20.0259 C   0  0  0  0  0  0
  -26.4207  -24.1073   21.2727 C   0  0  0  0  0  0
  -26.9514  -22.3054   19.7838 C   0  0  0  0  0  0
  -27.9449  -23.9863   21.1815 C   0  0  2  0  0  0
  -27.7840  -19.5983   18.6184 C   0  0  0  0  0  0
  -28.8796  -21.5493   21.1957 C   0  0  0  0  0  0
  -28.6933  -25.3959   20.9314 C   0  0  0  0  0  0
  -29.7258  -15.6425   20.8871 N   0  0  0  0  0  0
  -28.2536  -22.6986   20.3823 N   0  3  1  0  0  0
  -31.4806  -12.5534   19.1397 H   0  0  0  0  0  0
  -30.4006  -11.3956   19.8663 H   0  0  0  0  0  0
  -29.7656  -11.7751   17.4672 H   0  0  0  0  0  0
  -29.6411  -13.4921   17.7475 H   0  0  0  0  0  0
  -27.8541  -11.2989   18.8454 H   0  0  0  0  0  0
  -27.3726  -12.6035   17.7924 H   0  0  0  0  0  0
  -27.6758  -14.2489   19.5493 H   0  0  0  0  0  0
  -28.7134  -11.9893   21.3290 H   0  0  0  0  0  0
  -28.4388  -13.6156   21.8751 H   0  0  0  0  0  0
  -25.2730   -9.5682   22.4734 H   0  0  0  0  0  0
  -23.9983   -7.4622   22.7457 H   0  0  0  0  0  0
  -21.0812   -8.8716   19.8940 H   0  0  0  0  0  0
  -22.3630  -10.9636   19.6142 H   0  0  0  0  0  0
  -21.2003   -7.6130   23.9701 H   0  0  0  0  0  0
  -21.1494   -6.0513   25.9076 H   0  0  0  0  0  0
  -22.0602   -2.7586   23.2852 H   0  0  0  0  0  0
  -22.4103  -11.9839   22.4789 H   0  0  0  0  0  0
  -21.1104  -13.1210   22.2681 H   0  0  0  0  0  0
  -24.6702  -15.8467   20.5483 H   0  0  0  0  0  0
  -26.2842  -15.6276   20.1057 H   0  0  0  0  0  0
  -26.7160  -32.5432   23.1116 H   0  0  0  0  0  0
  -25.0115  -33.9734   25.0472 H   0  0  0  0  0  0
  -22.7203  -31.3082   21.4018 H   0  0  0  0  0  0
  -23.3752  -35.9638   23.3298 H   0  0  0  0  0  0
  -24.3600  -36.8909   22.2058 H   0  0  0  0  0  0
  -23.7270  -37.6498   23.6661 H   0  0  0  0  0  0
  -26.1150  -31.5361   20.6157 H   0  0  0  0  0  0
  -26.8443  -30.8217   22.0209 H   0  0  0  0  0  0
  -28.1187  -28.9596   21.2191 H   0  0  0  0  0  0
  -26.0535  -26.0308   18.8558 H   0  0  0  0  0  0
  -23.9969  -27.3482   18.9455 H   0  0  0  0  0  0
  -23.7610  -30.5960   19.4118 H   0  0  0  0  0  0
  -22.7562  -29.2487   19.8624 H   0  0  0  0  0  0
  -25.1300  -36.1933   25.0836 H   0  0  0  0  0  0
  -21.0136  -28.3611   24.1511 H   0  0  0  0  0  0
  -21.6790  -26.7145   22.2124 H   0  0  0  0  0  0
  -20.5248  -26.2516   23.4236 H   0  0  0  0  0  0
  -19.7209  -25.6238   21.1531 H   0  0  0  0  0  0
  -19.7269  -27.3181   20.6996 H   0  0  0  0  0  0
  -17.4545  -26.6829   21.3781 H   0  0  0  0  0  0
  -18.0325  -26.0061   22.8824 H   0  0  0  0  0  0
  -19.7928  -30.7243   24.2449 H   0  0  0  0  0  0
  -17.4974  -31.6292   24.5180 H   0  0  0  0  0  0
  -15.5358  -30.2994   23.7570 H   0  0  0  0  0  0
  -15.8717  -28.0849   22.7004 H   0  0  0  0  0  0
  -24.5944  -30.7005   25.7848 H   0  0  0  0  0  0
  -24.8936  -32.2834   26.4950 H   0  0  0  0  0  0
  -25.8117  -30.8869   27.0265 H   0  0  0  0  0  0
  -26.2940  -29.6736   24.1237 H   0  0  0  0  0  0
  -27.4025  -29.7250   25.4722 H   0  0  0  0  0  0
  -27.8809  -30.4269   23.9478 H   0  0  0  0  0  0
  -27.2661  -33.3597   26.2104 H   0  0  0  0  0  0
  -28.3865  -32.6847   25.0362 H   0  0  0  0  0  0
  -28.0707  -31.8431   26.5447 H   0  0  0  0  0  0
  -28.2597  -38.0094   24.7512 H   0  0  0  0  0  0
  -28.1083  -36.2623   24.6303 H   0  0  0  0  0  0
  -27.2308  -37.1465   25.8874 H   0  0  0  0  0  0
  -20.9376  -29.8335   21.6481 H   0  0  0  0  0  0
  -26.0177  -38.2847   24.1356 H   0  0  0  0  0  0
  -30.6040  -19.9457   22.4386 H   0  0  0  0  0  0
  -31.0468  -17.5546   22.4104 H   0  0  0  0  0  0
  -28.3865  -17.1029   19.0946 H   0  0  0  0  0  0
  -25.8973  -24.0486   19.1577 H   0  0  0  0  0  0
  -24.9148  -22.9972   20.1416 H   0  0  0  0  0  0
  -26.0622  -23.5741   22.1548 H   0  0  0  0  0  0
  -26.0684  -25.1322   21.3754 H   0  0  0  0  0  0
  -27.0424  -22.1351   18.7141 H   0  0  0  0  0  0
  -26.5773  -21.4082   20.2754 H   0  0  0  0  0  0
  -28.2685  -23.7566   22.1966 H   0  0  0  0  0  0
  -27.7445  -18.8227   17.8517 H   0  0  0  0  0  0
  -28.2124  -20.4654   18.1214 H   0  0  0  0  0  0
  -26.7491  -19.7668   18.9107 H   0  0  0  0  0  0
  -29.8137  -21.9567   21.5823 H   0  0  0  0  0  0
  -28.2458  -21.4343   22.0785 H   0  0  0  0  0  0
  -29.7411  -25.1712   20.7299 H   0  0  0  0  0  0
  -28.7255  -25.8989   21.8999 H   0  0  0  0  0  0
  -28.8088  -15.2697   21.0847 H   0  0  0  0  0  0
  -28.8919  -22.9266   19.6338 H   0  0  0  0  0  0
  1 25  1  0  0  0
  1 30  2  0  0  0
  1 84  1  0  0  0
  2  3  1  0  0  0
  2 25  1  0  0  0
  2 86  1  0  0  0
  2 87  1  0  0  0
  3  4  1  0  0  0
  3 88  1  0  0  0
  3 89  1  0  0  0
  4  5  1  0  0  0
  4 90  1  0  0  0
  4 91  1  0  0  0
  5  6  1  0  0  0
  5 26  1  0  0  0
  5 92  1  0  0  0
  6 25  1  0  0  0
  6 93  1  0  0  0
  6 94  1  0  0  0
  7  8  2  0  0  0
  7 26  1  0  0  0
  7 29  1  0  0  0
  8  9  1  0  0  0
  8 22  1  0  0  0
  9 10  1  0  0  0
  9 27  2  0  0  0
 10 11  2  0  0  0
 10 15  1  0  0  0
 11 12  1  0  0  0
 11 95  1  0  0  0
 12 13  2  0  0  0
 12 96  1  0  0  0
 13 14  1  0  0  0
 13 31  1  0  0  0
 14 15  2  0  0  0
 14 97  1  0  0  0
 15 98  1  0  0  0
 16 17  2  0  0  0
 16 21  1  0  0  0
 16 31  1  0  0  0
 17 18  1  0  0  0
 17 99  1  0  0  0
 18 19  2  0  0  0
 18100  1  0  0  0
 19 20  1  0  0  0
 19 24  1  0  0  0
 20 21  2  0  0  0
 20101  1  0  0  0
 21 23  1  0  0  0
 22 28  1  0  0  0
 22 32  2  0  0  0
 26 27  1  0  0  0
 28102  1  0  0  0
 28103  1  0  0  0
 29104  1  0  0  0
 29105  1  0  0  0
 33 34  1  0  0  0
 33 66  1  0  0  0
 33 70  2  0  0  0
 34 36  1  0  0  0
 34 59  1  0  0  0
 34106  1  0  0  0
 35 44  2  0  0  0
 35 45  1  0  0  0
 35 68  1  0  0  0
 36 56  1  0  0  0
 36107  1  0  0  0
 37 39  1  0  0  0
 37 47  1  0  0  0
 37 66  1  0  0  0
 37108  1  0  0  0
 38 43  2  0  0  0
 38 46  1  0  0  0
 38 47  1  0  0  0
 39 64  1  0  0  0
 39 67  2  0  0  0
 40 52  1  0  0  0
 40 53  2  0  0  0
 40 58  1  0  0  0
 41109  1  0  0  0
 41110  1  0  0  0
 41111  1  0  0  0
 41 48  1  0  0  0
 42 43  1  0  0  0
 42 66  1  0  0  0
 42112  1  0  0  0
 42113  1  0  0  0
 43 44  1  0  0  0
 44114  1  0  0  0
 45 46  2  0  0  0
 45115  1  0  0  0
 46116  1  0  0  0
 47117  1  0  0  0
 47118  1  0  0  0
 48 56  1  0  0  0
 48 65  1  0  0  0
 48119  1  0  0  0
 49 50  1  0  0  0
 49 53  1  0  0  0
 49 64  1  0  0  0
 49120  1  0  0  0
 50 51  1  0  0  0
 50121  1  0  0  0
 50122  1  0  0  0
 51 52  1  0  0  0
 51123  1  0  0  0
 51124  1  0  0  0
 52125  1  0  0  0
 52126  1  0  0  0
 53 54  1  0  0  0
 54 55  2  0  0  0
 54127  1  0  0  0
 55 57  1  0  0  0
 55128  1  0  0  0
 56 69  2  0  0  0
 57 58  2  0  0  0
 57129  1  0  0  0
 58130  1  0  0  0
 59 60  1  0  0  0
 59 61  1  0  0  0
 59 62  1  0  0  0
 60131  1  0  0  0
 60132  1  0  0  0
 60133  1  0  0  0
 61134  1  0  0  0
 61135  1  0  0  0
 61136  1  0  0  0
 62137  1  0  0  0
 62138  1  0  0  0
 62139  1  0  0  0
 63 65  1  0  0  0
 63140  1  0  0  0
 63141  1  0  0  0
 63142  1  0  0  0
 64143  1  0  0  0
 65144  1  0  0  0
 68 83  1  0  0  0
 71 72  2  0  0  0
 71 74  1  0  0  0
 71145  1  0  0  0
 72 76  1  0  0  0
 72146  1  0  0  0
 73 75  1  0  0  0
 73 76  2  0  0  0
 73147  1  0  0  0
 74 75  2  0  0  0
 74 82  1  0  0  0
 75 81  1  0  0  0
 76 84  1  0  0  0
 77 78  1  0  0  0
 77 79  1  0  0  0
 77148  1  0  0  0
 77149  1  0  0  0
 78 80  1  0  0  0
 78150  1  0  0  0
 78151  1  0  0  0
 79 85  1  0  0  0
 79152  1  0  0  0
 79153  1  0  0  0
 80 83  1  0  0  0
 80 85  1  0  0  0
 80154  1  0  0  0
 81155  1  0  0  0
 81156  1  0  0  0
 81157  1  0  0  0
 82158  1  0  0  0
 82159  1  0  0  0
 82 85  1  0  0  0
 83160  1  0  0  0
 83161  1  0  0  0
 84162  1  0  0  0
 85163  1  0  0  0
M  CHG  1  85   1
M  ISO  4   1 100  68 101  83 101  84 100
M  END
> <chiral flag>
0

> <version>
0

> <s_m_source_file>
/data/baiqing/PycharmProjects/Reinvent-master-3.2/result/LINK_invent/BTK/process_docking_weight1_custom_product_contain_oxygen_bond_distance_aromatic_linkinvent_7_9_3/rearranged_h_0011.sdf

> <i_m_source_file_index>
42

> <r_mmod_Potential_Energy-OPLS-2005>
265.282257080078

> <r_mmod_Stretch_Energy-OPLS-2005>
100.241539001465

> <r_mmod_Bend_Energy-OPLS-2005>
267.979187011719

> <r_mmod_Torsional_Energy-OPLS-2005>
351.821838378906

> <r_mmod_Improper_Torsional_Energy-OPLS-2005>
7.52517986297607

> <r_mmod_Van_der_Waal_Energy-OPLS-2005>
143.770355224609

> <r_mmod_Electrostatic_Energy-OPLS-2005>
-226.263168334961

> <r_mmod_Solvation_Energy-OPLS-2005>
-429.647186279297

> <b_mmod_Minimization_Converged-OPLS-2005>
0

> <r_mmod_RMS_Derivative-OPLS-2005>
4.07464742660522

$$$$
42
                    3D
 Structure written by MMmdl.
151159  0  0  1  0            999 V2000
  -30.6215  -14.6467   20.4927 C   0  0  0  0  0  0
  -30.4407  -12.3957   19.4503 C   0  0  0  0  0  0
  -29.5080  -12.5074   18.2234 C   0  0  0  0  0  0
  -28.0310  -12.3448   18.6369 C   0  0  0  0  0  0
  -27.6531  -13.2179   19.8634 C   0  0  2  0  0  0
  -28.7004  -13.0767   20.9916 C   0  0  0  0  0  0
  -25.2552  -13.8167   20.5692 C   0  0  0  0  0  0
  -24.1817  -13.0425   20.9166 C   0  0  0  0  0  0
  -24.6396  -11.6902   20.8726 C   0  0  0  0  0  0
  -23.9065  -10.4286   21.0398 C   0  0  0  0  0  0
  -24.3615   -9.4205   21.9181 C   0  0  0  0  0  0
  -23.6291   -8.2241   22.0754 C   0  0  0  0  0  0
  -22.4273   -8.0278   21.3545 C   0  0  0  0  0  0
  -21.9906   -9.0250   20.4646 C   0  0  0  0  0  0
  -22.7236  -10.2128   20.3050 C   0  0  0  0  0  0
  -21.6852   -6.0733   22.5280 C   0  0  0  0  0  0
  -21.4013   -6.5637   23.8213 C   0  0  0  0  0  0
  -21.3660   -5.6791   24.9175 C   0  0  0  0  0  0
  -21.6045   -4.3053   24.7225 C   0  0  0  0  0  0
  -21.8819   -3.8144   23.4346 C   0  0  0  0  0  0
  -21.9192   -4.6961   22.3403 C   0  0  0  0  0  0
  -22.7841  -13.5220   21.1842 C   0  0  0  0  0  0
  -22.1662   -4.2147   21.0981 F   0  0  0  0  0  0
  -21.5630   -3.4537   25.7739 F   0  0  0  0  0  0
  -30.0151  -13.4189   20.4251 N   0  0  0  0  0  0
  -26.2995  -12.9359   20.3338 N   0  0  0  0  0  0
  -25.9330  -11.6508   20.5761 N   0  0  0  0  0  0
  -22.0489  -12.8217   22.0407 N   0  0  0  0  0  0
  -25.4214  -15.1896   20.4180 N   0  0  0  0  0  0
  -31.7915  -14.8056   20.1326 O   0  0  0  0  0  0
  -21.6637   -6.8876   21.4242 O   0  0  0  0  0  0
  -22.3520  -14.5528   20.6698 O   0  0  0  0  0  0
  -24.6266  -31.8601   23.2031 C   0  0  0  0  0  0
  -25.9113  -32.4780   23.8358 C   0  0  1  0  0  0
  -27.2236  -27.3176   20.1118 C   0  0  0  0  0  0
  -25.5926  -33.8581   24.2283 N   0  0  0  0  0  0
  -23.4199  -30.4850   21.5463 C   0  0  2  0  0  0
  -24.8656  -28.9422   20.1113 C   0  0  0  0  0  0
  -22.7476  -29.4628   22.4939 C   0  0  0  0  0  0
  -18.0286  -28.1384   22.8487 C   0  0  0  0  0  0
  -24.1489  -36.7296   23.2639 C   0  0  0  0  0  0
  -25.9621  -30.7907   21.3744 C   0  0  0  0  0  0
  -26.0362  -29.4188   20.7147 C   0  0  0  0  0  0
  -27.2183  -28.6189   20.7045 C   0  0  0  0  0  0
  -26.0260  -26.8968   19.4857 C   0  0  0  0  0  0
  -24.8626  -27.6866   19.4884 C   0  0  0  0  0  0
  -23.6342  -29.8222   20.1610 C   0  0  0  0  0  0
  -25.4113  -36.3085   24.0330 C   0  0  1  0  0  0
  -20.5886  -28.3689   23.1283 C   0  0  2  0  0  0
  -20.6775  -26.9414   22.5408 C   0  0  0  0  0  0
  -19.5750  -26.6385   21.5212 C   0  0  0  0  0  0
  -18.1931  -26.7926   22.1626 C   0  0  0  0  0  0
  -19.1538  -28.8853   23.2880 C   0  0  0  0  0  0
  -18.9460  -30.1455   23.8897 C   0  0  0  0  0  0
  -17.6461  -30.6587   24.0563 C   0  0  0  0  0  0
  -25.9051  -34.9454   23.5107 C   0  0  0  0  0  0
  -16.5352  -29.9086   23.6329 C   0  0  0  0  0  0
  -16.7273  -28.6503   23.0352 C   0  0  0  0  0  0
  -26.4494  -31.6587   25.0728 C   0  0  0  0  0  0
  -25.3727  -31.3725   26.1454 C   0  0  0  0  0  0
  -27.0334  -30.3010   24.6182 C   0  0  0  0  0  0
  -27.6054  -32.4320   25.7498 C   0  0  0  0  0  0
  -27.5580  -37.1804   24.8465 C   0  0  0  0  0  0
  -21.4189  -29.3045   22.3680 N   0  0  0  0  0  0
  -26.4293  -37.3779   23.9407 N   0  0  0  0  0  0
  -24.6885  -31.0614   22.0981 N   0  0  0  0  0  0
  -23.4201  -28.8163   23.3014 O   0  0  0  0  0  0
  -28.3403  -26.4633   20.1602 O   0  0  0  0  0  0
  -26.5620  -34.8919   22.4674 O   0  0  0  0  0  0
  -23.5429  -32.1399   23.7358 O   0  0  0  0  0  0
  -31.1180  -17.8849   20.6034 C   0  0  0  0  0  0
  -31.1123  -19.3107   20.5262 C   0  0  0  0  0  0
  -28.7106  -19.3389   20.5192 C   0  0  0  0  0  0
  -29.9083  -17.1463   20.6525 C   0  0  0  0  0  0
  -29.9190  -20.0843   20.4854 C   0  0  0  0  0  0
  -28.7114  -17.9126   20.6067 C   0  0  0  0  0  0
  -29.2528  -23.9564   20.3436 C   0  0  0  0  0  0
  -28.1015  -25.0048   20.0220 C   0  0  0  0  0  0
  -28.8904  -22.3990   20.2827 C   0  0  0  0  0  0
  -29.7931  -15.6941   20.7921 N   0  0  0  0  0  0
  -30.0305  -21.4919   20.4337 O   0  0  0  0  0  0
  -27.5271  -17.2553   20.6481 F   0  0  0  0  0  0
  -31.4812  -12.5238   19.1468 H   0  0  0  0  0  0
  -30.3783  -11.4007   19.8940 H   0  0  0  0  0  0
  -29.7724  -11.7555   17.4787 H   0  0  0  0  0  0
  -29.6485  -13.4764   17.7417 H   0  0  0  0  0  0
  -27.8691  -11.2920   18.8707 H   0  0  0  0  0  0
  -27.3755  -12.5722   17.7955 H   0  0  0  0  0  0
  -27.6666  -14.2522   19.5190 H   0  0  0  0  0  0
  -28.7131  -12.0565   21.3781 H   0  0  0  0  0  0
  -28.4480  -13.7124   21.8419 H   0  0  0  0  0  0
  -25.2760   -9.5683   22.4755 H   0  0  0  0  0  0
  -23.9999   -7.4633   22.7474 H   0  0  0  0  0  0
  -21.0836   -8.8767   19.8954 H   0  0  0  0  0  0
  -22.3693  -10.9665   19.6157 H   0  0  0  0  0  0
  -21.2003   -7.6146   23.9716 H   0  0  0  0  0  0
  -21.1485   -6.0521   25.9079 H   0  0  0  0  0  0
  -22.0598   -2.7606   23.2846 H   0  0  0  0  0  0
  -22.4103  -11.9877   22.4793 H   0  0  0  0  0  0
  -21.1112  -13.1253   22.2622 H   0  0  0  0  0  0
  -24.6550  -15.8367   20.5619 H   0  0  0  0  0  0
  -26.2902  -15.6637   20.1983 H   0  0  0  0  0  0
  -26.7180  -32.5450   23.1107 H   0  0  0  0  0  0
  -25.0065  -33.9725   25.0423 H   0  0  0  0  0  0
  -22.7139  -31.3059   21.4047 H   0  0  0  0  0  0
  -23.3749  -35.9632   23.3306 H   0  0  0  0  0  0
  -24.3580  -36.8912   22.2052 H   0  0  0  0  0  0
  -23.7246  -37.6502   23.6657 H   0  0  0  0  0  0
  -26.0942  -31.5552   20.6075 H   0  0  0  0  0  0
  -26.8423  -30.8379   22.0041 H   0  0  0  0  0  0
  -28.1158  -28.9808   21.1864 H   0  0  0  0  0  0
  -25.9527  -25.9397   18.9927 H   0  0  0  0  0  0
  -23.9657  -27.3159   19.0113 H   0  0  0  0  0  0
  -23.7534  -30.5997   19.4055 H   0  0  0  0  0  0
  -22.7537  -29.2525   19.8581 H   0  0  0  0  0  0
  -25.1293  -36.1940   25.0823 H   0  0  0  0  0  0
  -20.9979  -28.3261   24.1404 H   0  0  0  0  0  0
  -20.5679  -26.2299   23.3607 H   0  0  0  0  0  0
  -21.6643  -26.7445   22.1199 H   0  0  0  0  0  0
  -19.6913  -25.6296   21.1242 H   0  0  0  0  0  0
  -19.6686  -27.3195   20.6741 H   0  0  0  0  0  0
  -17.4200  -26.6671   21.4030 H   0  0  0  0  0  0
  -18.0335  -26.0069   22.9023 H   0  0  0  0  0  0
  -19.7937  -30.7270   24.2269 H   0  0  0  0  0  0
  -17.5016  -31.6267   24.5164 H   0  0  0  0  0  0
  -15.5352  -30.2988   23.7651 H   0  0  0  0  0  0
  -15.8672  -28.0822   22.7068 H   0  0  0  0  0  0
  -24.5898  -30.7080   25.7780 H   0  0  0  0  0  0
  -24.8923  -32.2892   26.4885 H   0  0  0  0  0  0
  -25.8050  -30.8895   27.0226 H   0  0  0  0  0  0
  -26.2907  -29.6762   24.1207 H   0  0  0  0  0  0
  -27.4029  -29.7264   25.4687 H   0  0  0  0  0  0
  -27.8779  -30.4291   23.9407 H   0  0  0  0  0  0
  -27.2666  -33.3618   26.2077 H   0  0  0  0  0  0
  -28.3864  -32.6881   25.0327 H   0  0  0  0  0  0
  -28.0722  -31.8443   26.5414 H   0  0  0  0  0  0
  -28.2599  -38.0100   24.7509 H   0  0  0  0  0  0
  -28.1073  -36.2631   24.6294 H   0  0  0  0  0  0
  -27.2298  -37.1456   25.8868 H   0  0  0  0  0  0
  -20.9367  -29.8773   21.6895 H   0  0  0  0  0  0
  -26.0176  -38.2855   24.1401 H   0  0  0  0  0  0
  -32.0671  -17.3700   20.6429 H   0  0  0  0  0  0
  -32.0626  -19.8258   20.5039 H   0  0  0  0  0  0
  -27.7601  -19.8494   20.4918 H   0  0  0  0  0  0
  -29.6470  -24.1729   21.3364 H   0  0  0  0  0  0
  -30.0761  -24.1424   19.6539 H   0  0  0  0  0  0
  -27.2506  -24.7435   20.6531 H   0  0  0  0  0  0
  -27.7948  -24.8125   18.9934 H   0  0  0  0  0  0
  -28.4094  -22.1808   19.3285 H   0  0  0  0  0  0
  -28.1566  -22.1770   21.0583 H   0  0  0  0  0  0
  -28.8555  -15.3945   21.0126 H   0  0  0  0  0  0
  1 25  1  0  0  0
  1 30  2  0  0  0
  1 80  1  0  0  0
  2  3  1  0  0  0
  2 25  1  0  0  0
  2 83  1  0  0  0
  2 84  1  0  0  0
  3  4  1  0  0  0
  3 85  1  0  0  0
  3 86  1  0  0  0
  4  5  1  0  0  0
  4 87  1  0  0  0
  4 88  1  0  0  0
  5  6  1  0  0  0
  5 26  1  0  0  0
  5 89  1  0  0  0
  6 25  1  0  0  0
  6 90  1  0  0  0
  6 91  1  0  0  0
  7  8  2  0  0  0
  7 26  1  0  0  0
  7 29  1  0  0  0
  8  9  1  0  0  0
  8 22  1  0  0  0
  9 10  1  0  0  0
  9 27  2  0  0  0
 10 11  2  0  0  0
 10 15  1  0  0  0
 11 12  1  0  0  0
 11 92  1  0  0  0
 12 13  2  0  0  0
 12 93  1  0  0  0
 13 14  1  0  0  0
 13 31  1  0  0  0
 14 15  2  0  0  0
 14 94  1  0  0  0
 15 95  1  0  0  0
 16 17  2  0  0  0
 16 21  1  0  0  0
 16 31  1  0  0  0
 17 18  1  0  0  0
 17 96  1  0  0  0
 18 19  2  0  0  0
 18 97  1  0  0  0
 19 20  1  0  0  0
 19 24  1  0  0  0
 20 21  2  0  0  0
 20 98  1  0  0  0
 21 23  1  0  0  0
 22 28  1  0  0  0
 22 32  2  0  0  0
 26 27  1  0  0  0
 28 99  1  0  0  0
 28100  1  0  0  0
 29101  1  0  0  0
 29102  1  0  0  0
 33 34  1  0  0  0
 33 66  1  0  0  0
 33 70  2  0  0  0
 34 36  1  0  0  0
 34 59  1  0  0  0
 34103  1  0  0  0
 35 44  2  0  0  0
 35 45  1  0  0  0
 35 68  1  0  0  0
 36 56  1  0  0  0
 36104  1  0  0  0
 37 39  1  0  0  0
 37 47  1  0  0  0
 37 66  1  0  0  0
 37105  1  0  0  0
 38 43  2  0  0  0
 38 46  1  0  0  0
 38 47  1  0  0  0
 39 64  1  0  0  0
 39 67  2  0  0  0
 40 52  1  0  0  0
 40 53  2  0  0  0
 40 58  1  0  0  0
 41106  1  0  0  0
 41107  1  0  0  0
 41108  1  0  0  0
 41 48  1  0  0  0
 42 43  1  0  0  0
 42 66  1  0  0  0
 42109  1  0  0  0
 42110  1  0  0  0
 43 44  1  0  0  0
 44111  1  0  0  0
 45 46  2  0  0  0
 45112  1  0  0  0
 46113  1  0  0  0
 47114  1  0  0  0
 47115  1  0  0  0
 48 56  1  0  0  0
 48 65  1  0  0  0
 48116  1  0  0  0
 49 50  1  0  0  0
 49 53  1  0  0  0
 49 64  1  0  0  0
 49117  1  0  0  0
 50 51  1  0  0  0
 50118  1  0  0  0
 50119  1  0  0  0
 51 52  1  0  0  0
 51120  1  0  0  0
 51121  1  0  0  0
 52122  1  0  0  0
 52123  1  0  0  0
 53 54  1  0  0  0
 54 55  2  0  0  0
 54124  1  0  0  0
 55 57  1  0  0  0
 55125  1  0  0  0
 56 69  2  0  0  0
 57 58  2  0  0  0
 57126  1  0  0  0
 58127  1  0  0  0
 59 60  1  0  0  0
 59 61  1  0  0  0
 59 62  1  0  0  0
 60128  1  0  0  0
 60129  1  0  0  0
 60130  1  0  0  0
 61131  1  0  0  0
 61132  1  0  0  0
 61133  1  0  0  0
 62134  1  0  0  0
 62135  1  0  0  0
 62136  1  0  0  0
 63 65  1  0  0  0
 63137  1  0  0  0
 63138  1  0  0  0
 63139  1  0  0  0
 64140  1  0  0  0
 65141  1  0  0  0
 68 78  1  0  0  0
 71 72  2  0  0  0
 71 74  1  0  0  0
 71142  1  0  0  0
 72 75  1  0  0  0
 72143  1  0  0  0
 73 75  2  0  0  0
 73 76  1  0  0  0
 73144  1  0  0  0
 74 76  2  0  0  0
 74 80  1  0  0  0
 75 81  1  0  0  0
 76 82  1  0  0  0
 77 78  1  0  0  0
 77 79  1  0  0  0
 77145  1  0  0  0
 77146  1  0  0  0
 78147  1  0  0  0
 78148  1  0  0  0
 79 81  1  0  0  0
 79149  1  0  0  0
 79150  1  0  0  0
 80151  1  0  0  0
M  ISO  4   1 100  68 101  78 101  80 100
M  END
> <chiral flag>
0

> <version>
0

> <s_m_source_file>
/data/baiqing/PycharmProjects/Reinvent-master-3.2/result/LINK_invent/BTK/process_docking_weight1_custom_product_contain_oxygen_bond_distance_aromatic_linkinvent_7_9_3/rearranged_h_0011.sdf

> <i_m_source_file_index>
43

> <r_mmod_Potential_Energy-OPLS-2005>
8.48562717437744

> <r_mmod_Stretch_Energy-OPLS-2005>
78.0414810180664

> <r_mmod_Bend_Energy-OPLS-2005>
145.352081298828

> <r_mmod_Torsional_Energy-OPLS-2005>
209.226409912109

> <r_mmod_Improper_Torsional_Energy-OPLS-2005>
4.5839262008667

> <r_mmod_Van_der_Waal_Energy-OPLS-2005>
144.377670288086

> <r_mmod_Electrostatic_Energy-OPLS-2005>
-422.268218994141

> <r_mmod_Solvation_Energy-OPLS-2005>
-201.274765014648

> <b_mmod_Minimization_Converged-OPLS-2005>
0

> <r_mmod_RMS_Derivative-OPLS-2005>
0.238112762570381

$$$$
43
                    3D
 Structure written by MMmdl.
148156  0  0  1  0            999 V2000
  -30.5205  -15.0264   20.4016 C   0  0  0  0  0  0
  -30.4388  -12.6399   19.5030 C   0  0  0  0  0  0
  -29.5228  -12.5359   18.2613 C   0  0  0  0  0  0
  -28.0594  -12.3085   18.6834 C   0  0  0  0  0  0
  -27.6237  -13.2547   19.8321 C   0  0  2  0  0  0
  -28.6657  -13.3235   20.9682 C   0  0  0  0  0  0
  -25.2437  -13.8224   20.5717 C   0  0  0  0  0  0
  -24.1766  -13.0437   20.9241 C   0  0  0  0  0  0
  -24.6393  -11.6927   20.8761 C   0  0  0  0  0  0
  -23.9081  -10.4293   21.0409 C   0  0  0  0  0  0
  -24.3628   -9.4206   21.9186 C   0  0  0  0  0  0
  -23.6298   -8.2243   22.0754 C   0  0  0  0  0  0
  -22.4281   -8.0282   21.3544 C   0  0  0  0  0  0
  -21.9920   -9.0257   20.4646 C   0  0  0  0  0  0
  -22.7253  -10.2134   20.3057 C   0  0  0  0  0  0
  -21.6855   -6.0736   22.5278 C   0  0  0  0  0  0
  -21.4016   -6.5640   23.8211 C   0  0  0  0  0  0
  -21.3659   -5.6792   24.9173 C   0  0  0  0  0  0
  -21.6044   -4.3055   24.7224 C   0  0  0  0  0  0
  -21.8819   -3.8146   23.4346 C   0  0  0  0  0  0
  -21.9193   -4.6963   22.3401 C   0  0  0  0  0  0
  -22.7786  -13.5202   21.1892 C   0  0  0  0  0  0
  -22.1661   -4.2149   21.0980 F   0  0  0  0  0  0
  -21.5628   -3.4538   25.7738 F   0  0  0  0  0  0
  -29.9294  -13.7564   20.3577 N   0  0  0  0  0  0
  -26.2861  -12.9466   20.3233 N   0  0  0  0  0  0
  -25.9326  -11.6590   20.5739 N   0  0  0  0  0  0
  -22.0439  -12.8187   22.0446 N   0  0  0  0  0  0
  -25.4080  -15.1955   20.4126 N   0  0  0  0  0  0
  -31.7341  -15.0537   20.1650 O   0  0  0  0  0  0
  -21.6642   -6.8880   21.4240 O   0  0  0  0  0  0
  -22.3467  -14.5505   20.6734 O   0  0  0  0  0  0
  -24.6491  -31.8384   23.1832 C   0  0  0  0  0  0
  -25.9238  -32.4664   23.8242 C   0  0  1  0  0  0
  -27.2152  -27.0784   20.1593 C   0  0  0  0  0  0
  -25.5962  -33.8472   24.2155 N   0  0  0  0  0  0
  -23.4556  -30.4559   21.5300 C   0  0  2  0  0  0
  -24.9054  -28.8722   20.1108 C   0  0  0  0  0  0
  -22.7597  -29.4517   22.4836 C   0  0  0  0  0  0
  -18.0309  -28.1399   22.8473 C   0  0  0  0  0  0
  -24.1492  -36.7241   23.2644 C   0  0  0  0  0  0
  -26.0157  -30.6939   21.3903 C   0  0  0  0  0  0
  -26.0858  -29.2996   20.7319 C   0  0  0  0  0  0
  -27.2411  -28.4207   20.7352 C   0  0  0  0  0  0
  -26.0064  -26.7659   19.4989 C   0  0  0  0  0  0
  -24.8820  -27.6210   19.4772 C   0  0  0  0  0  0
  -23.6855  -29.7822   20.1511 C   0  0  0  0  0  0
  -25.4127  -36.3013   24.0311 C   0  0  1  0  0  0
  -20.5926  -28.3729   23.1221 C   0  0  2  0  0  0
  -20.6792  -26.9426   22.5402 C   0  0  0  0  0  0
  -19.5765  -26.6380   21.5212 C   0  0  0  0  0  0
  -18.1946  -26.7934   22.1624 C   0  0  0  0  0  0
  -19.1567  -28.8883   23.2836 C   0  0  0  0  0  0
  -18.9483  -30.1477   23.8866 C   0  0  0  0  0  0
  -17.6479  -30.6594   24.0557 C   0  0  0  0  0  0
  -25.9082  -34.9391   23.5047 C   0  0  0  0  0  0
  -16.5369  -29.9084   23.6340 C   0  0  0  0  0  0
  -16.7293  -28.6504   23.0359 C   0  0  0  0  0  0
  -26.4538  -31.6555   25.0710 C   0  0  0  0  0  0
  -25.3705  -31.3765   26.1393 C   0  0  0  0  0  0
  -27.0414  -30.2943   24.6337 C   0  0  0  0  0  0
  -27.6054  -32.4336   25.7503 C   0  0  0  0  0  0
  -27.5574  -37.1776   24.8466 C   0  0  0  0  0  0
  -21.4282  -29.3046   22.3587 N   0  0  0  0  0  0
  -26.4284  -37.3733   23.9409 N   0  0  0  0  0  0
  -24.7272  -31.0188   22.0892 N   0  0  0  0  0  0
  -23.4213  -28.8070   23.3012 O   0  0  0  0  0  0
  -28.2523  -26.0582   20.2291 O   0  0  0  0  0  0
  -26.5674  -34.8900   22.4630 O   0  0  0  0  0  0
  -23.5597  -32.1286   23.7018 O   0  0  0  0  0  0
  -31.7700  -19.5441   20.5721 C   0  0  0  0  0  0
  -31.3857  -18.1810   20.5604 C   0  0  0  0  0  0
  -30.8520  -20.6180   20.4816 C   0  0  0  0  0  0
  -29.1018  -18.9472   20.3640 C   0  0  0  0  0  0
  -30.0374  -17.7691   20.4575 C   0  0  0  0  0  0
  -29.4615  -20.4115   20.3680 C   0  0  0  0  0  0
  -27.9614  -24.5038   20.1070 C   0  0  0  0  0  0
  -28.9765  -23.1286   20.3248 C   0  0  0  0  0  0
  -29.7366  -16.2366   20.4835 N   0  0  0  0  0  0
  -28.5804  -21.6011   20.2654 O   0  0  0  0  0  0
  -31.4693  -12.8061   19.1854 H   0  0  0  0  0  0
  -30.4485  -11.7011   20.0590 H   0  0  0  0  0  0
  -29.8554  -11.7267   17.6098 H   0  0  0  0  0  0
  -29.5967  -13.4529   17.6746 H   0  0  0  0  0  0
  -27.9707  -11.2716   19.0096 H   0  0  0  0  0  0
  -27.3938  -12.4159   17.8261 H   0  0  0  0  0  0
  -27.5734  -14.2472   19.3833 H   0  0  0  0  0  0
  -28.7736  -12.3592   21.4670 H   0  0  0  0  0  0
  -28.3527  -14.0363   21.7330 H   0  0  0  0  0  0
  -25.2770   -9.5681   22.4766 H   0  0  0  0  0  0
  -24.0004   -7.4634   22.7476 H   0  0  0  0  0  0
  -21.0852   -8.8780   19.8951 H   0  0  0  0  0  0
  -22.3712  -10.9674   19.6168 H   0  0  0  0  0  0
  -21.2010   -7.6148   23.9715 H   0  0  0  0  0  0
  -21.1481   -6.0522   25.9077 H   0  0  0  0  0  0
  -22.0598   -2.7609   23.2846 H   0  0  0  0  0  0
  -22.4066  -11.9853   22.4835 H   0  0  0  0  0  0
  -21.1053  -13.1199   22.2651 H   0  0  0  0  0  0
  -24.6338  -15.8423   20.5186 H   0  0  0  0  0  0
  -26.2411  -15.6362   20.0460 H   0  0  0  0  0  0
  -26.7302  -32.5250   23.0964 H   0  0  0  0  0  0
  -25.0079  -33.9576   25.0283 H   0  0  0  0  0  0
  -22.7612  -31.2836   21.3714 H   0  0  0  0  0  0
  -23.3762  -35.9565   23.3289 H   0  0  0  0  0  0
  -24.3575  -36.8895   22.2061 H   0  0  0  0  0  0
  -23.7242  -37.6428   23.6698 H   0  0  0  0  0  0
  -26.1785  -31.4453   20.6166 H   0  0  0  0  0  0
  -26.8831  -30.7448   22.0368 H   0  0  0  0  0  0
  -28.1389  -28.7436   21.2432 H   0  0  0  0  0  0
  -25.8933  -25.8099   19.0111 H   0  0  0  0  0  0
  -23.9815  -27.2887   18.9791 H   0  0  0  0  0  0
  -23.8280  -30.5554   19.3951 H   0  0  0  0  0  0
  -22.7984  -29.2283   19.8384 H   0  0  0  0  0  0
  -25.1317  -36.1831   25.0803 H   0  0  0  0  0  0
  -21.0014  -28.3324   24.1344 H   0  0  0  0  0  0
  -20.5683  -26.2343   23.3628 H   0  0  0  0  0  0
  -21.6656  -26.7424   22.1200 H   0  0  0  0  0  0
  -19.6927  -25.6283   21.1261 H   0  0  0  0  0  0
  -19.6704  -27.3175   20.6729 H   0  0  0  0  0  0
  -17.4214  -26.6677   21.4029 H   0  0  0  0  0  0
  -18.0345  -26.0085   22.9030 H   0  0  0  0  0  0
  -19.7960  -30.7300   24.2221 H   0  0  0  0  0  0
  -17.5033  -31.6271   24.5163 H   0  0  0  0  0  0
  -15.5368  -30.2975   23.7683 H   0  0  0  0  0  0
  -15.8694  -28.0812   22.7090 H   0  0  0  0  0  0
  -24.5893  -30.7105   25.7712 H   0  0  0  0  0  0
  -24.8886  -32.2953   26.4742 H   0  0  0  0  0  0
  -25.7970  -30.8987   27.0222 H   0  0  0  0  0  0
  -26.3047  -29.6649   24.1331 H   0  0  0  0  0  0
  -27.3989  -29.7263   25.4937 H   0  0  0  0  0  0
  -27.8970  -30.4161   23.9693 H   0  0  0  0  0  0
  -27.2638  -33.3668   26.1994 H   0  0  0  0  0  0
  -28.3910  -32.6847   25.0363 H   0  0  0  0  0  0
  -28.0671  -31.8519   26.5491 H   0  0  0  0  0  0
  -28.2576  -38.0085   24.7513 H   0  0  0  0  0  0
  -28.1083  -36.2614   24.6292 H   0  0  0  0  0  0
  -27.2290  -37.1419   25.8868 H   0  0  0  0  0  0
  -20.9504  -29.8756   21.6755 H   0  0  0  0  0  0
  -26.0146  -38.2798   24.1416 H   0  0  0  0  0  0
  -32.8222  -19.7769   20.6574 H   0  0  0  0  0  0
  -32.1724  -17.4461   20.6451 H   0  0  0  0  0  0
  -31.2468  -21.6234   20.4994 H   0  0  0  0  0  0
  -28.0487  -18.7195   20.2832 H   0  0  0  0  0  0
  -27.1135  -24.3371   20.7719 H   0  0  0  0  0  0
  -27.5561  -24.3759   19.1037 H   0  0  0  0  0  0
  -29.4489  -23.2554   21.2989 H   0  0  0  0  0  0
  -29.7877  -23.2451   19.6062 H   0  0  0  0  0  0
  -28.7533  -16.0263   20.5640 H   0  0  0  0  0  0
  1 25  1  0  0  0
  1 30  2  0  0  0
  1 79  1  0  0  0
  2  3  1  0  0  0
  2 25  1  0  0  0
  2 81  1  0  0  0
  2 82  1  0  0  0
  3  4  1  0  0  0
  3 83  1  0  0  0
  3 84  1  0  0  0
  4  5  1  0  0  0
  4 85  1  0  0  0
  4 86  1  0  0  0
  5  6  1  0  0  0
  5 26  1  0  0  0
  5 87  1  0  0  0
  6 25  1  0  0  0
  6 88  1  0  0  0
  6 89  1  0  0  0
  7  8  2  0  0  0
  7 26  1  0  0  0
  7 29  1  0  0  0
  8  9  1  0  0  0
  8 22  1  0  0  0
  9 10  1  0  0  0
  9 27  2  0  0  0
 10 11  2  0  0  0
 10 15  1  0  0  0
 11 12  1  0  0  0
 11 90  1  0  0  0
 12 13  2  0  0  0
 12 91  1  0  0  0
 13 14  1  0  0  0
 13 31  1  0  0  0
 14 15  2  0  0  0
 14 92  1  0  0  0
 15 93  1  0  0  0
 16 17  2  0  0  0
 16 21  1  0  0  0
 16 31  1  0  0  0
 17 18  1  0  0  0
 17 94  1  0  0  0
 18 19  2  0  0  0
 18 95  1  0  0  0
 19 20  1  0  0  0
 19 24  1  0  0  0
 20 21  2  0  0  0
 20 96  1  0  0  0
 21 23  1  0  0  0
 22 28  1  0  0  0
 22 32  2  0  0  0
 26 27  1  0  0  0
 28 97  1  0  0  0
 28 98  1  0  0  0
 29 99  1  0  0  0
 29100  1  0  0  0
 33 34  1  0  0  0
 33 66  1  0  0  0
 33 70  2  0  0  0
 34 36  1  0  0  0
 34 59  1  0  0  0
 34101  1  0  0  0
 35 44  2  0  0  0
 35 45  1  0  0  0
 35 68  1  0  0  0
 36 56  1  0  0  0
 36102  1  0  0  0
 37 39  1  0  0  0
 37 47  1  0  0  0
 37 66  1  0  0  0
 37103  1  0  0  0
 38 43  2  0  0  0
 38 46  1  0  0  0
 38 47  1  0  0  0
 39 64  1  0  0  0
 39 67  2  0  0  0
 40 52  1  0  0  0
 40 53  2  0  0  0
 40 58  1  0  0  0
 41104  1  0  0  0
 41105  1  0  0  0
 41106  1  0  0  0
 41 48  1  0  0  0
 42 43  1  0  0  0
 42 66  1  0  0  0
 42107  1  0  0  0
 42108  1  0  0  0
 43 44  1  0  0  0
 44109  1  0  0  0
 45 46  2  0  0  0
 45110  1  0  0  0
 46111  1  0  0  0
 47112  1  0  0  0
 47113  1  0  0  0
 48 56  1  0  0  0
 48 65  1  0  0  0
 48114  1  0  0  0
 49 50  1  0  0  0
 49 53  1  0  0  0
 49 64  1  0  0  0
 49115  1  0  0  0
 50 51  1  0  0  0
 50116  1  0  0  0
 50117  1  0  0  0
 51 52  1  0  0  0
 51118  1  0  0  0
 51119  1  0  0  0
 52120  1  0  0  0
 52121  1  0  0  0
 53 54  1  0  0  0
 54 55  2  0  0  0
 54122  1  0  0  0
 55 57  1  0  0  0
 55123  1  0  0  0
 56 69  2  0  0  0
 57 58  2  0  0  0
 57124  1  0  0  0
 58125  1  0  0  0
 59 60  1  0  0  0
 59 61  1  0  0  0
 59 62  1  0  0  0
 60126  1  0  0  0
 60127  1  0  0  0
 60128  1  0  0  0
 61129  1  0  0  0
 61130  1  0  0  0
 61131  1  0  0  0
 62132  1  0  0  0
 62133  1  0  0  0
 62134  1  0  0  0
 63 65  1  0  0  0
 63135  1  0  0  0
 63136  1  0  0  0
 63137  1  0  0  0
 64138  1  0  0  0
 65139  1  0  0  0
 68 77  1  0  0  0
 71 72  2  0  0  0
 71 73  1  0  0  0
 71140  1  0  0  0
 72 75  1  0  0  0
 72141  1  0  0  0
 73 76  2  0  0  0
 73142  1  0  0  0
 74 75  2  0  0  0
 74 76  1  0  0  0
 74143  1  0  0  0
 75 79  1  0  0  0
 76 80  1  0  0  0
 77 78  1  0  0  0
 77144  1  0  0  0
 77145  1  0  0  0
 78 80  1  0  0  0
 78146  1  0  0  0
 78147  1  0  0  0
 79148  1  0  0  0
M  ISO  4   1 100  68 101  77 101  79 100
M  END
> <chiral flag>
0

> <version>
0

> <s_m_source_file>
/data/baiqing/PycharmProjects/Reinvent-master-3.2/result/LINK_invent/BTK/process_docking_weight1_custom_product_contain_oxygen_bond_distance_aromatic_linkinvent_7_9_3/rearranged_h_0011.sdf

> <i_m_source_file_index>
44

> <r_mmod_Potential_Energy-OPLS-2005>
646.360778808594

> <r_mmod_Stretch_Energy-OPLS-2005>
330.501342773438

> <r_mmod_Bend_Energy-OPLS-2005>
281.674163818359

> <r_mmod_Torsional_Energy-OPLS-2005>
210.216598510742

> <r_mmod_Improper_Torsional_Energy-OPLS-2005>
4.87754726409912

> <r_mmod_Van_der_Waal_Energy-OPLS-2005>
132.894073486328

> <r_mmod_Electrostatic_Energy-OPLS-2005>
-348.155517578125

> <r_mmod_Solvation_Energy-OPLS-2005>
-214.931076049805

> <b_mmod_Minimization_Converged-OPLS-2005>
0

> <r_mmod_RMS_Derivative-OPLS-2005>
0.254653602838516

$$$$
44
                    3D
 Structure written by MMmdl.
154163  0  0  1  0            999 V2000
  -30.4289  -15.2979   20.3444 C   0  0  0  0  0  0
  -30.4358  -12.8217   19.5421 C   0  0  0  0  0  0
  -29.5429  -12.5763   18.2977 C   0  0  0  0  0  0
  -28.0890  -12.2967   18.7157 C   0  0  0  0  0  0
  -27.6028  -13.2829   19.8052 C   0  0  2  0  0  0
  -28.6257  -13.4884   20.9372 C   0  0  0  0  0  0
  -25.2361  -13.8252   20.5737 C   0  0  0  0  0  0
  -24.1725  -13.0432   20.9247 C   0  0  0  0  0  0
  -24.6396  -11.6934   20.8741 C   0  0  0  0  0  0
  -23.9097  -10.4291   21.0396 C   0  0  0  0  0  0
  -24.3642   -9.4207   21.9178 C   0  0  0  0  0  0
  -23.6310   -8.2245   22.0753 C   0  0  0  0  0  0
  -22.4290   -8.0283   21.3544 C   0  0  0  0  0  0
  -21.9929   -9.0257   20.4644 C   0  0  0  0  0  0
  -22.7266  -10.2132   20.3048 C   0  0  0  0  0  0
  -21.6856   -6.0740   22.5281 C   0  0  0  0  0  0
  -21.4017   -6.5643   23.8216 C   0  0  0  0  0  0
  -21.3661   -5.6794   24.9177 C   0  0  0  0  0  0
  -21.6044   -4.3057   24.7223 C   0  0  0  0  0  0
  -21.8820   -3.8149   23.4346 C   0  0  0  0  0  0
  -21.9194   -4.6967   22.3403 C   0  0  0  0  0  0
  -22.7746  -13.5184   21.1908 C   0  0  0  0  0  0
  -22.1660   -4.2153   21.0980 F   0  0  0  0  0  0
  -21.5629   -3.4541   25.7736 F   0  0  0  0  0  0
  -29.8702  -13.9830   20.3283 N   0  0  0  0  0  0
  -26.2774  -12.9542   20.3122 N   0  0  0  0  0  0
  -25.9325  -11.6643   20.5656 N   0  0  0  0  0  0
  -22.0412  -12.8162   22.0463 N   0  0  0  0  0  0
  -25.4007  -15.1988   20.4243 N   0  0  0  0  0  0
  -31.6608  -15.2502   20.1938 O   0  0  0  0  0  0
  -21.6648   -6.8884   21.4243 O   0  0  0  0  0  0
  -22.3426  -14.5489   20.6756 O   0  0  0  0  0  0
  -24.6628  -31.8213   23.1667 C   0  0  0  0  0  0
  -25.9306  -32.4573   23.8143 C   0  0  1  0  0  0
  -27.2188  -26.9067   20.2046 C   0  0  0  0  0  0
  -25.5970  -33.8387   24.2053 N   0  0  0  0  0  0
  -23.4773  -30.4298   21.5172 C   0  0  2  0  0  0
  -24.9269  -28.8000   20.1237 C   0  0  0  0  0  0
  -22.7657  -29.4431   22.4790 C   0  0  0  0  0  0
  -18.0319  -28.1408   22.8467 C   0  0  0  0  0  0
  -24.1498  -36.7206   23.2652 C   0  0  0  0  0  0
  -26.0451  -30.6233   21.3953 C   0  0  0  0  0  0
  -26.1107  -29.2064   20.7501 C   0  0  0  0  0  0
  -27.2511  -28.2845   20.7537 C   0  0  0  0  0  0
  -26.0003  -26.6434   19.5413 C   0  0  0  0  0  0
  -24.8967  -27.5397   19.5000 C   0  0  0  0  0  0
  -23.7167  -29.7346   20.1477 C   0  0  0  0  0  0
  -25.4142  -36.2958   24.0296 C   0  0  1  0  0  0
  -20.5943  -28.3750   23.1193 C   0  0  2  0  0  0
  -20.6795  -26.9432   22.5404 C   0  0  0  0  0  0
  -19.5770  -26.6377   21.5214 C   0  0  0  0  0  0
  -18.1952  -26.7941   22.1620 C   0  0  0  0  0  0
  -19.1580  -28.8900   23.2818 C   0  0  0  0  0  0
  -18.9492  -30.1491   23.8850 C   0  0  0  0  0  0
  -17.6486  -30.6598   24.0556 C   0  0  0  0  0  0
  -25.9099  -34.9340   23.4999 C   0  0  0  0  0  0
  -16.5376  -29.9086   23.6344 C   0  0  0  0  0  0
  -16.7302  -28.6507   23.0361 C   0  0  0  0  0  0
  -26.4556  -31.6526   25.0679 C   0  0  0  0  0  0
  -25.3683  -31.3781   26.1337 C   0  0  0  0  0  0
  -27.0456  -30.2894   24.6412 C   0  0  0  0  0  0
  -27.6044  -32.4339   25.7485 C   0  0  0  0  0  0
  -27.5564  -37.1774   24.8475 C   0  0  0  0  0  0
  -21.4328  -29.3039   22.3542 N   0  0  0  0  0  0
  -26.4290  -37.3688   23.9388 N   0  0  0  0  0  0
  -24.7503  -30.9865   22.0804 N   0  0  0  0  0  0
  -23.4203  -28.8014   23.3045 O   0  0  0  0  0  0
  -28.3035  -25.8826   20.1832 O   0  0  0  0  0  0
  -26.5716  -34.8879   22.4599 O   0  0  0  0  0  0
  -23.5699  -32.1188   23.6759 O   0  0  0  0  0  0
  -28.7378  -18.8932   19.1184 C   0  0  0  0  0  0
  -28.5487  -23.6084   21.8278 C   0  0  0  0  0  0
  -28.7856  -17.2454   19.3122 C   0  0  0  0  0  0
  -29.1136  -22.0973   21.8046 C   0  0  0  0  0  0
  -28.3223  -22.6763   19.6903 C   0  0  0  0  0  0
  -28.5160  -24.2340   20.4098 C   0  0  1  0  0  0
  -28.8456  -19.7773   20.4327 C   0  0  2  0  0  0
  -29.7128  -16.7145   20.3986 N   0  0  0  0  0  0
  -29.0746  -21.4525   20.4444 N   0  3  2  0  0  0
  -31.4676  -18.7626   20.6911 O   0  0  0  0  0  0
  -29.8995  -18.2731   22.6188 O   0  0  0  0  0  0
  -30.1239  -18.3891   21.1672 S   0  0  0  0  0  0
  -31.4580  -13.0166   19.2154 H   0  0  0  0  0  0
  -30.4947  -11.9247   20.1608 H   0  0  0  0  0  0
  -29.9312  -11.7439   17.7092 H   0  0  0  0  0  0
  -29.5751  -13.4526   17.6487 H   0  0  0  0  0  0
  -28.0488  -11.2774   19.1013 H   0  0  0  0  0  0
  -27.4275  -12.3223   17.8490 H   0  0  0  0  0  0
  -27.5078  -14.2402   19.2917 H   0  0  0  0  0  0
  -28.7883  -12.5686   21.5013 H   0  0  0  0  0  0
  -28.2552  -14.2278   21.6493 H   0  0  0  0  0  0
  -25.2784   -9.5686   22.4759 H   0  0  0  0  0  0
  -24.0015   -7.4639   22.7479 H   0  0  0  0  0  0
  -21.0857   -8.8782   19.8954 H   0  0  0  0  0  0
  -22.3721  -10.9674   19.6161 H   0  0  0  0  0  0
  -21.2011   -7.6151   23.9720 H   0  0  0  0  0  0
  -21.1481   -6.0524   25.9081 H   0  0  0  0  0  0
  -22.0596   -2.7610   23.2843 H   0  0  0  0  0  0
  -22.4040  -11.9826   22.4844 H   0  0  0  0  0  0
  -21.1023  -13.1165   22.2670 H   0  0  0  0  0  0
  -24.6361  -15.8519   20.5575 H   0  0  0  0  0  0
  -26.2552  -15.6425   20.1197 H   0  0  0  0  0  0
  -26.7374  -32.5106   23.0855 H   0  0  0  0  0  0
  -25.0060  -33.9463   25.0165 H   0  0  0  0  0  0
  -22.7915  -31.2613   21.3413 H   0  0  0  0  0  0
  -23.3749  -35.9552   23.3326 H   0  0  0  0  0  0
  -24.3562  -36.8838   22.2063 H   0  0  0  0  0  0
  -23.7278  -37.6409   23.6701 H   0  0  0  0  0  0
  -26.2209  -31.3585   20.6089 H   0  0  0  0  0  0
  -26.9073  -30.6874   22.0471 H   0  0  0  0  0  0
  -28.1605  -28.6070   21.2404 H   0  0  0  0  0  0
  -25.8863  -25.6860   19.0528 H   0  0  0  0  0  0
  -23.9960  -27.2232   18.9918 H   0  0  0  0  0  0
  -23.8769  -30.4971   19.3846 H   0  0  0  0  0  0
  -22.8252  -29.1902   19.8313 H   0  0  0  0  0  0
  -25.1348  -36.1758   25.0790 H   0  0  0  0  0  0
  -21.0029  -28.3354   24.1317 H   0  0  0  0  0  0
  -20.5671  -26.2369   23.3644 H   0  0  0  0  0  0
  -21.6659  -26.7407   22.1212 H   0  0  0  0  0  0
  -19.6931  -25.6277   21.1271 H   0  0  0  0  0  0
  -19.6711  -27.3164   20.6726 H   0  0  0  0  0  0
  -17.4222  -26.6684   21.4024 H   0  0  0  0  0  0
  -18.0348  -26.0097   22.9029 H   0  0  0  0  0  0
  -19.7969  -30.7321   24.2195 H   0  0  0  0  0  0
  -17.5038  -31.6273   24.5168 H   0  0  0  0  0  0
  -15.5374  -30.2973   23.7698 H   0  0  0  0  0  0
  -15.8702  -28.0811   22.7101 H   0  0  0  0  0  0
  -24.5877  -30.7119   25.7645 H   0  0  0  0  0  0
  -24.8863  -32.2986   26.4639 H   0  0  0  0  0  0
  -25.7915  -30.9026   27.0195 H   0  0  0  0  0  0
  -26.3122  -29.6562   24.1408 H   0  0  0  0  0  0
  -27.3981  -29.7264   25.5065 H   0  0  0  0  0  0
  -27.9061  -30.4078   23.9825 H   0  0  0  0  0  0
  -27.2607  -33.3680   26.1937 H   0  0  0  0  0  0
  -28.3922  -32.6831   25.0364 H   0  0  0  0  0  0
  -28.0639  -31.8549   26.5506 H   0  0  0  0  0  0
  -28.2600  -38.0047   24.7449 H   0  0  0  0  0  0
  -28.1036  -36.2566   24.6397 H   0  0  0  0  0  0
  -27.2265  -37.1533   25.8877 H   0  0  0  0  0  0
  -20.9585  -29.8715   21.6658 H   0  0  0  0  0  0
  -26.0137  -38.2756   24.1346 H   0  0  0  0  0  0
  -27.8438  -19.1688   18.5586 H   0  0  0  0  0  0
  -29.5735  -19.1664   18.4725 H   0  0  0  0  0  0
  -29.1356  -24.2234   22.5098 H   0  0  0  0  0  0
  -27.5317  -23.6034   22.2195 H   0  0  0  0  0  0
  -29.0561  -16.7858   18.3607 H   0  0  0  0  0  0
  -27.7803  -16.8929   19.5376 H   0  0  0  0  0  0
  -28.5556  -21.4922   22.5190 H   0  0  0  0  0  0
  -30.1499  -22.0859   22.1430 H   0  0  0  0  0  0
  -28.6503  -22.7019   18.6514 H   0  0  0  0  0  0
  -27.2578  -22.4428   19.6634 H   0  0  0  0  0  0
  -29.5818  -24.3280   20.1976 H   0  0  0  0  0  0
  -27.9211  -19.6137   20.9834 H   0  0  0  0  0  0
  -30.0282  -21.5334   20.1193 H   0  0  0  0  0  0
  1 25  1  0  0  0
  1 30  2  0  0  0
  1 78  1  0  0  0
  2  3  1  0  0  0
  2 25  1  0  0  0
  2 83  1  0  0  0
  2 84  1  0  0  0
  3  4  1  0  0  0
  3 85  1  0  0  0
  3 86  1  0  0  0
  4  5  1  0  0  0
  4 87  1  0  0  0
  4 88  1  0  0  0
  5  6  1  0  0  0
  5 26  1  0  0  0
  5 89  1  0  0  0
  6 25  1  0  0  0
  6 90  1  0  0  0
  6 91  1  0  0  0
  7  8  2  0  0  0
  7 26  1  0  0  0
  7 29  1  0  0  0
  8  9  1  0  0  0
  8 22  1  0  0  0
  9 10  1  0  0  0
  9 27  2  0  0  0
 10 11  2  0  0  0
 10 15  1  0  0  0
 11 12  1  0  0  0
 11 92  1  0  0  0
 12 13  2  0  0  0
 12 93  1  0  0  0
 13 14  1  0  0  0
 13 31  1  0  0  0
 14 15  2  0  0  0
 14 94  1  0  0  0
 15 95  1  0  0  0
 16 17  2  0  0  0
 16 21  1  0  0  0
 16 31  1  0  0  0
 17 18  1  0  0  0
 17 96  1  0  0  0
 18 19  2  0  0  0
 18 97  1  0  0  0
 19 20  1  0  0  0
 19 24  1  0  0  0
 20 21  2  0  0  0
 20 98  1  0  0  0
 21 23  1  0  0  0
 22 28  1  0  0  0
 22 32  2  0  0  0
 26 27  1  0  0  0
 28 99  1  0  0  0
 28100  1  0  0  0
 29101  1  0  0  0
 29102  1  0  0  0
 33 34  1  0  0  0
 33 66  1  0  0  0
 33 70  2  0  0  0
 34 36  1  0  0  0
 34 59  1  0  0  0
 34103  1  0  0  0
 35 44  2  0  0  0
 35 45  1  0  0  0
 35 68  1  0  0  0
 36 56  1  0  0  0
 36104  1  0  0  0
 37 39  1  0  0  0
 37 47  1  0  0  0
 37 66  1  0  0  0
 37105  1  0  0  0
 38 43  2  0  0  0
 38 46  1  0  0  0
 38 47  1  0  0  0
 39 64  1  0  0  0
 39 67  2  0  0  0
 40 52  1  0  0  0
 40 53  2  0  0  0
 40 58  1  0  0  0
 41106  1  0  0  0
 41107  1  0  0  0
 41108  1  0  0  0
 41 48  1  0  0  0
 42 43  1  0  0  0
 42 66  1  0  0  0
 42109  1  0  0  0
 42110  1  0  0  0
 43 44  1  0  0  0
 44111  1  0  0  0
 45 46  2  0  0  0
 45112  1  0  0  0
 46113  1  0  0  0
 47114  1  0  0  0
 47115  1  0  0  0
 48 56  1  0  0  0
 48 65  1  0  0  0
 48116  1  0  0  0
 49 50  1  0  0  0
 49 53  1  0  0  0
 49 64  1  0  0  0
 49117  1  0  0  0
 50 51  1  0  0  0
 50118  1  0  0  0
 50119  1  0  0  0
 51 52  1  0  0  0
 51120  1  0  0  0
 51121  1  0  0  0
 52122  1  0  0  0
 52123  1  0  0  0
 53 54  1  0  0  0
 54 55  2  0  0  0
 54124  1  0  0  0
 55 57  1  0  0  0
 55125  1  0  0  0
 56 69  2  0  0  0
 57 58  2  0  0  0
 57126  1  0  0  0
 58127  1  0  0  0
 59 60  1  0  0  0
 59 61  1  0  0  0
 59 62  1  0  0  0
 60128  1  0  0  0
 60129  1  0  0  0
 60130  1  0  0  0
 61131  1  0  0  0
 61132  1  0  0  0
 61133  1  0  0  0
 62134  1  0  0  0
 62135  1  0  0  0
 62136  1  0  0  0
 63 65  1  0  0  0
 63137  1  0  0  0
 63138  1  0  0  0
 63139  1  0  0  0
 64140  1  0  0  0
 65141  1  0  0  0
 68 76  1  0  0  0
 71 73  1  0  0  0
 71142  1  0  0  0
 71143  1  0  0  0
 71 77  1  0  0  0
 72 74  1  0  0  0
 72 76  1  0  0  0
 72144  1  0  0  0
 72145  1  0  0  0
 73 78  1  0  0  0
 73146  1  0  0  0
 73147  1  0  0  0
 74148  1  0  0  0
 74149  1  0  0  0
 74 79  1  0  0  0
 75 76  1  0  0  0
 75 79  1  0  0  0
 75150  1  0  0  0
 75151  1  0  0  0
 76152  1  0  0  0
 77 79  1  0  0  0
 77 82  1  0  0  0
 77153  1  0  0  0
 78 82  1  0  0  0
 79154  1  0  0  0
 80 82  2  0  0  0
 81 82  2  0  0  0
M  CHG  1  79   1
M  ISO  4   1 100  68 101  76 101  78 100
M  END
> <chiral flag>
0

> <version>
0

> <s_m_source_file>
/data/baiqing/PycharmProjects/Reinvent-master-3.2/result/LINK_invent/BTK/process_docking_weight1_custom_product_contain_oxygen_bond_distance_aromatic_linkinvent_7_9_3/rearranged_h_0011.sdf

> <i_m_source_file_index>
45

> <r_mmod_Potential_Energy-OPLS-2005>
1155.83764648438

> <r_mmod_Stretch_Energy-OPLS-2005>
525.487365722656

> <r_mmod_Bend_Energy-OPLS-2005>
636.89501953125

> <r_mmod_Torsional_Energy-OPLS-2005>
305.568664550781

> <r_mmod_Improper_Torsional_Energy-OPLS-2005>
3.96937847137451

> <r_mmod_Van_der_Waal_Energy-OPLS-2005>
90.8198623657227

> <r_mmod_Electrostatic_Energy-OPLS-2005>
-366.760070800781

> <r_mmod_Solvation_Energy-OPLS-2005>
-510.027587890625

> <b_mmod_Minimization_Converged-OPLS-2005>
0

> <r_mmod_RMS_Derivative-OPLS-2005>
0.44829073548317

$$$$
45
                    3D
 Structure written by MMmdl.
137144  0  0  1  0            999 V2000
  -29.9622  -16.5635   20.2664 C   0  0  0  0  0  0
  -30.3146  -13.7964   19.5233 C   0  0  0  0  0  0
  -29.5702  -12.9451   18.4142 C   0  0  0  0  0  0
  -28.2376  -12.3814   18.9086 C   0  0  0  0  0  0
  -27.5746  -13.4257   19.8177 C   0  0  2  0  0  0
  -28.5152  -14.1357   20.8613 C   0  0  0  0  0  0
  -25.2174  -13.8479   20.5951 C   0  0  0  0  0  0
  -24.1675  -13.0467   20.9341 C   0  0  0  0  0  0
  -24.6541  -11.7031   20.8745 C   0  0  0  0  0  0
  -23.9255  -10.4321   21.0342 C   0  0  0  0  0  0
  -24.3739   -9.4228   21.9149 C   0  0  0  0  0  0
  -23.6364   -8.2283   22.0747 C   0  0  0  0  0  0
  -22.4340   -8.0323   21.3544 C   0  0  0  0  0  0
  -22.0014   -9.0304   20.4634 C   0  0  0  0  0  0
  -22.7395  -10.2158   20.3018 C   0  0  0  0  0  0
  -21.6878   -6.0765   22.5277 C   0  0  0  0  0  0
  -21.4033   -6.5657   23.8214 C   0  0  0  0  0  0
  -21.3665   -5.6802   24.9171 C   0  0  0  0  0  0
  -21.6043   -4.3064   24.7217 C   0  0  0  0  0  0
  -21.8816   -3.8163   23.4335 C   0  0  0  0  0  0
  -21.9200   -4.6987   22.3396 C   0  0  0  0  0  0
  -22.7650  -13.5092   21.1938 C   0  0  0  0  0  0
  -22.1663   -4.2170   21.0973 F   0  0  0  0  0  0
  -21.5624   -3.4543   25.7727 F   0  0  0  0  0  0
  -29.5188  -15.0444   20.1465 N   0  0  0  0  0  0
  -26.2805  -13.0063   20.3476 N   0  0  0  0  0  0
  -25.9548  -11.6990   20.5678 N   0  0  0  0  0  0
  -22.0351  -12.8040   22.0489 N   0  0  0  0  0  0
  -25.3555  -15.2242   20.4383 N   0  0  0  0  0  0
  -31.2063  -16.3142   20.2293 O   0  0  0  0  0  0
  -21.6677   -6.8928   21.4248 O   0  0  0  0  0  0
  -22.3283  -14.5375   20.6771 O   0  0  0  0  0  0
  -24.7449  -31.7216   23.0979 C   0  0  0  0  0  0
  -25.9712  -32.4091   23.7768 C   0  0  1  0  0  0
  -27.2626  -26.0606   20.2671 C   0  0  0  0  0  0
  -25.6018  -33.7953   24.1581 N   0  0  0  0  0  0
  -23.5996  -30.2922   21.4680 C   0  0  2  0  0  0
  -25.0624  -28.4936   20.1392 C   0  0  0  0  0  0
  -22.8035  -29.3895   22.4550 C   0  0  0  0  0  0
  -18.0376  -28.1454   22.8421 C   0  0  0  0  0  0
  -24.1496  -36.6992   23.2671 C   0  0  0  0  0  0
  -26.1999  -30.2411   21.4589 C   0  0  0  0  0  0
  -26.2597  -28.7329   20.8212 C   0  0  0  0  0  0
  -27.3097  -27.5690   20.8335 C   0  0  0  0  0  0
  -26.0272  -26.1946   19.5192 C   0  0  0  0  0  0
  -25.0234  -27.2541   19.4619 C   0  0  0  0  0  0
  -23.8874  -29.5253   20.1333 C   0  0  0  0  0  0
  -25.4170  -36.2677   24.0236 C   0  0  1  0  0  0
  -20.6038  -28.3836   23.1031 C   0  0  2  0  0  0
  -20.6806  -26.9436   22.5420 C   0  0  0  0  0  0
  -19.5796  -26.6348   21.5224 C   0  0  0  0  0  0
  -18.1977  -26.7969   22.1607 C   0  0  0  0  0  0
  -19.1657  -28.8984   23.2686 C   0  0  0  0  0  0
  -18.9553  -30.1552   23.8759 C   0  0  0  0  0  0
  -17.6536  -30.6619   24.0537 C   0  0  0  0  0  0
  -25.9187  -34.9084   23.4798 C   0  0  0  0  0  0
  -16.5422  -29.9090   23.6366 C   0  0  0  0  0  0
  -16.7352  -28.6518   23.0376 C   0  0  0  0  0  0
  -26.4693  -31.6408   25.0652 C   0  0  0  0  0  0
  -25.3596  -31.3898   26.1149 C   0  0  0  0  0  0
  -27.0730  -30.2690   24.7003 C   0  0  0  0  0  0
  -27.6017  -32.4426   25.7501 C   0  0  0  0  0  0
  -27.5543  -37.1648   24.8466 C   0  0  0  0  0  0
  -21.4628  -29.2949   22.3282 N   0  0  0  0  0  0
  -26.4242  -37.3509   23.9408 N   0  0  0  0  0  0
  -24.8802  -30.8007   22.0600 N   0  0  0  0  0  0
  -23.4175  -28.7613   23.3197 O   0  0  0  0  0  0
  -28.1668  -24.5661   20.3212 O   0  0  0  0  0  0
  -26.5925  -34.8791   22.4483 O   0  0  0  0  0  0
  -23.6336  -32.0588   23.5524 O   0  0  0  0  0  0
  -29.2006  -20.3375   20.3201 C   0  0  0  0  0  0
  -28.2004  -22.4649   20.2188 C   0  0  0  0  0  0
  -29.3170  -18.2279   20.2702 N   0  0  0  0  0  0
  -31.2155  -14.1817   19.0448 H   0  0  0  0  0  0
  -30.7050  -13.1434   20.3066 H   0  0  0  0  0  0
  -30.2109  -12.1390   18.0541 H   0  0  0  0  0  0
  -29.3823  -13.5901   17.5547 H   0  0  0  0  0  0
  -28.4305  -11.4738   19.4819 H   0  0  0  0  0  0
  -27.5913  -12.1016   18.0755 H   0  0  0  0  0  0
  -27.3204  -14.2160   19.1091 H   0  0  0  0  0  0
  -28.9720  -13.4238   21.5512 H   0  0  0  0  0  0
  -27.9168  -14.7884   21.4973 H   0  0  0  0  0  0
  -25.2871   -9.5690   22.4748 H   0  0  0  0  0  0
  -24.0047   -7.4683   22.7489 H   0  0  0  0  0  0
  -21.0938   -8.8851   19.8945 H   0  0  0  0  0  0
  -22.3854  -10.9697   19.6127 H   0  0  0  0  0  0
  -21.2035   -7.6165   23.9725 H   0  0  0  0  0  0
  -21.1486   -6.0529   25.9075 H   0  0  0  0  0  0
  -22.0587   -2.7625   23.2829 H   0  0  0  0  0  0
  -22.4039  -11.9742   22.4895 H   0  0  0  0  0  0
  -21.0937  -13.0980   22.2674 H   0  0  0  0  0  0
  -24.5768  -15.8638   20.5540 H   0  0  0  0  0  0
  -26.2060  -15.6839   20.1380 H   0  0  0  0  0  0
  -26.7876  -32.4443   23.0543 H   0  0  0  0  0  0
  -24.9961  -33.8879   24.9601 H   0  0  0  0  0  0
  -22.9629  -31.1444   21.2211 H   0  0  0  0  0  0
  -23.3792  -35.9283   23.3224 H   0  0  0  0  0  0
  -24.3542  -36.8804   22.2107 H   0  0  0  0  0  0
  -23.7229  -37.6104   23.6874 H   0  0  0  0  0  0
  -26.4659  -30.9211   20.6487 H   0  0  0  0  0  0
  -27.0298  -30.3291   22.1459 H   0  0  0  0  0  0
  -28.1985  -27.7908   21.4071 H   0  0  0  0  0  0
  -25.7596  -25.3099   18.9588 H   0  0  0  0  0  0
  -24.1415  -27.0455   18.8719 H   0  0  0  0  0  0
  -24.1127  -30.2559   19.3556 H   0  0  0  0  0  0
  -22.9802  -29.0216   19.7958 H   0  0  0  0  0  0
  -25.1411  -36.1346   25.0723 H   0  0  0  0  0  0
  -21.0093  -28.3507   24.1170 H   0  0  0  0  0  0
  -20.5606  -26.2478   23.3738 H   0  0  0  0  0  0
  -21.6663  -26.7276   22.1281 H   0  0  0  0  0  0
  -19.6940  -25.6222   21.1342 H   0  0  0  0  0  0
  -19.6763  -27.3084   20.6699 H   0  0  0  0  0  0
  -17.4253  -26.6718   21.4002 H   0  0  0  0  0  0
  -18.0338  -26.0144   22.9029 H   0  0  0  0  0  0
  -19.8031  -30.7398   24.2071 H   0  0  0  0  0  0
  -17.5087  -31.6284   24.5168 H   0  0  0  0  0  0
  -15.5417  -30.2952   23.7771 H   0  0  0  0  0  0
  -15.8752  -28.0794   22.7169 H   0  0  0  0  0  0
  -24.5845  -30.7190   25.7424 H   0  0  0  0  0  0
  -24.8725  -32.3171   26.4173 H   0  0  0  0  0  0
  -25.7627  -30.9316   27.0189 H   0  0  0  0  0  0
  -26.3552  -29.6093   24.2123 H   0  0  0  0  0  0
  -27.4038  -29.7408   25.5956 H   0  0  0  0  0  0
  -27.9570  -30.3690   24.0706 H   0  0  0  0  0  0
  -27.2476  -33.3875   26.1635 H   0  0  0  0  0  0
  -28.4042  -32.6752   25.0488 H   0  0  0  0  0  0
  -28.0450  -31.8868   26.5774 H   0  0  0  0  0  0
  -28.2488  -38.0006   24.7515 H   0  0  0  0  0  0
  -28.1107  -36.2518   24.6291 H   0  0  0  0  0  0
  -27.2256  -37.1265   25.8866 H   0  0  0  0  0  0
  -21.0089  -29.8498   21.6159 H   0  0  0  0  0  0
  -26.0011  -38.2526   24.1435 H   0  0  0  0  0  0
  -30.0015  -20.5173   19.6027 H   0  0  0  0  0  0
  -29.6902  -20.4553   21.2869 H   0  0  0  0  0  0
  -27.7199  -22.3753   19.2446 H   0  0  0  0  0  0
  -27.3860  -22.2933   20.9225 H   0  0  0  0  0  0
  -30.3181  -18.3884   20.2986 H   0  0  0  0  0  0
  1 25  1  0  0  0
  1 30  2  0  0  0
  1 73  1  0  0  0
  2  3  1  0  0  0
  2 25  1  0  0  0
  2 74  1  0  0  0
  2 75  1  0  0  0
  3  4  1  0  0  0
  3 76  1  0  0  0
  3 77  1  0  0  0
  4  5  1  0  0  0
  4 78  1  0  0  0
  4 79  1  0  0  0
  5  6  1  0  0  0
  5 26  1  0  0  0
  5 80  1  0  0  0
  6 25  1  0  0  0
  6 81  1  0  0  0
  6 82  1  0  0  0
  7  8  2  0  0  0
  7 26  1  0  0  0
  7 29  1  0  0  0
  8  9  1  0  0  0
  8 22  1  0  0  0
  9 10  1  0  0  0
  9 27  2  0  0  0
 10 11  2  0  0  0
 10 15  1  0  0  0
 11 12  1  0  0  0
 11 83  1  0  0  0
 12 13  2  0  0  0
 12 84  1  0  0  0
 13 14  1  0  0  0
 13 31  1  0  0  0
 14 15  2  0  0  0
 14 85  1  0  0  0
 15 86  1  0  0  0
 16 17  2  0  0  0
 16 21  1  0  0  0
 16 31  1  0  0  0
 17 18  1  0  0  0
 17 87  1  0  0  0
 18 19  2  0  0  0
 18 88  1  0  0  0
 19 20  1  0  0  0
 19 24  1  0  0  0
 20 21  2  0  0  0
 20 89  1  0  0  0
 21 23  1  0  0  0
 22 28  1  0  0  0
 22 32  2  0  0  0
 26 27  1  0  0  0
 28 90  1  0  0  0
 28 91  1  0  0  0
 29 92  1  0  0  0
 29 93  1  0  0  0
 33 34  1  0  0  0
 33 66  1  0  0  0
 33 70  2  0  0  0
 34 36  1  0  0  0
 34 59  1  0  0  0
 34 94  1  0  0  0
 35 44  2  0  0  0
 35 45  1  0  0  0
 35 68  1  0  0  0
 36 56  1  0  0  0
 36 95  1  0  0  0
 37 39  1  0  0  0
 37 47  1  0  0  0
 37 66  1  0  0  0
 37 96  1  0  0  0
 38 43  2  0  0  0
 38 46  1  0  0  0
 38 47  1  0  0  0
 39 64  1  0  0  0
 39 67  2  0  0  0
 40 52  1  0  0  0
 40 53  2  0  0  0
 40 58  1  0  0  0
 41 97  1  0  0  0
 41 98  1  0  0  0
 41 99  1  0  0  0
 41 48  1  0  0  0
 42 43  1  0  0  0
 42 66  1  0  0  0
 42100  1  0  0  0
 42101  1  0  0  0
 43 44  1  0  0  0
 44102  1  0  0  0
 45 46  2  0  0  0
 45103  1  0  0  0
 46104  1  0  0  0
 47105  1  0  0  0
 47106  1  0  0  0
 48 56  1  0  0  0
 48 65  1  0  0  0
 48107  1  0  0  0
 49 50  1  0  0  0
 49 53  1  0  0  0
 49 64  1  0  0  0
 49108  1  0  0  0
 50 51  1  0  0  0
 50109  1  0  0  0
 50110  1  0  0  0
 51 52  1  0  0  0
 51111  1  0  0  0
 51112  1  0  0  0
 52113  1  0  0  0
 52114  1  0  0  0
 53 54  1  0  0  0
 54 55  2  0  0  0
 54115  1  0  0  0
 55 57  1  0  0  0
 55116  1  0  0  0
 56 69  2  0  0  0
 57 58  2  0  0  0
 57117  1  0  0  0
 58118  1  0  0  0
 59 60  1  0  0  0
 59 61  1  0  0  0
 59 62  1  0  0  0
 60119  1  0  0  0
 60120  1  0  0  0
 60121  1  0  0  0
 61122  1  0  0  0
 61123  1  0  0  0
 61124  1  0  0  0
 62125  1  0  0  0
 62126  1  0  0  0
 62127  1  0  0  0
 63 65  1  0  0  0
 63128  1  0  0  0
 63129  1  0  0  0
 63130  1  0  0  0
 64131  1  0  0  0
 65132  1  0  0  0
 68 72  1  0  0  0
 71 72  1  0  0  0
 71 73  1  0  0  0
 71133  1  0  0  0
 71134  1  0  0  0
 72135  1  0  0  0
 72136  1  0  0  0
 73137  1  0  0  0
M  ISO  4   1 100  68 101  72 101  73 100
M  END
> <chiral flag>
0

> <version>
0

> <s_m_source_file>
/data/baiqing/PycharmProjects/Reinvent-master-3.2/result/LINK_invent/BTK/process_docking_weight1_custom_product_contain_oxygen_bond_distance_aromatic_linkinvent_7_9_3/rearranged_h_0011.sdf

> <i_m_source_file_index>
46

> <r_mmod_Potential_Energy-OPLS-2005>
6948.9697265625

> <r_mmod_Stretch_Energy-OPLS-2005>
3136.46411132812

> <r_mmod_Bend_Energy-OPLS-2005>
1268.50207519531

> <r_mmod_Torsional_Energy-OPLS-2005>
217.324829101562

> <r_mmod_Improper_Torsional_Energy-OPLS-2005>
4.82364273071289

> <r_mmod_Van_der_Waal_Energy-OPLS-2005>
120.95548248291

> <r_mmod_Electrostatic_Energy-OPLS-2005>
-391.247985839844

> <r_mmod_Solvation_Energy-OPLS-2005>
-221.174652099609

> <b_mmod_Minimization_Converged-OPLS-2005>
1

> <r_mmod_RMS_Derivative-OPLS-2005>
0.042349461466074

$$$$
46
                    3D
 Structure written by MMmdl.
159168  0  0  1  0            999 V2000
  -30.6569  -14.6781   20.4982 C   0  0  0  0  0  0
  -30.4179  -12.4234   19.4621 C   0  0  0  0  0  0
  -29.4985  -12.5058   18.2265 C   0  0  0  0  0  0
  -28.0259  -12.3350   18.6432 C   0  0  0  0  0  0
  -27.6398  -13.2288   19.8518 C   0  0  2  0  0  0
  -28.6831  -13.1481   20.9865 C   0  0  0  0  0  0
  -25.2491  -13.8192   20.5689 C   0  0  0  0  0  0
  -24.1788  -13.0437   20.9213 C   0  0  0  0  0  0
  -24.6382  -11.6917   20.8757 C   0  0  0  0  0  0
  -23.9064  -10.4293   21.0413 C   0  0  0  0  0  0
  -24.3617   -9.4208   21.9188 C   0  0  0  0  0  0
  -23.6293   -8.2242   22.0755 C   0  0  0  0  0  0
  -22.4275   -8.0281   21.3544 C   0  0  0  0  0  0
  -21.9912   -9.0255   20.4646 C   0  0  0  0  0  0
  -22.7239  -10.2134   20.3059 C   0  0  0  0  0  0
  -21.6852   -6.0737   22.5279 C   0  0  0  0  0  0
  -21.4013   -6.5640   23.8213 C   0  0  0  0  0  0
  -21.3659   -5.6792   24.9174 C   0  0  0  0  0  0
  -21.6044   -4.3055   24.7225 C   0  0  0  0  0  0
  -21.8819   -3.8149   23.4345 C   0  0  0  0  0  0
  -21.9192   -4.6965   22.3402 C   0  0  0  0  0  0
  -22.7810  -13.5220   21.1870 C   0  0  0  0  0  0
  -22.1661   -4.2152   21.0979 F   0  0  0  0  0  0
  -21.5629   -3.4539   25.7737 F   0  0  0  0  0  0
  -29.9894  -13.4800   20.4064 N   0  0  0  0  0  0
  -26.2919  -12.9399   20.3289 N   0  0  0  0  0  0
  -25.9310  -11.6544   20.5764 N   0  0  0  0  0  0
  -22.0458  -12.8209   22.0426 N   0  0  0  0  0  0
  -25.4150  -15.1913   20.4077 N   0  0  0  0  0  0
  -31.8295  -14.7562   20.1166 O   0  0  0  0  0  0
  -21.6637   -6.8880   21.4241 O   0  0  0  0  0  0
  -22.3497  -14.5526   20.6716 O   0  0  0  0  0  0
  -24.6260  -31.8563   23.1975 C   0  0  0  0  0  0
  -25.9104  -32.4755   23.8313 C   0  0  1  0  0  0
  -27.2296  -27.3013   20.1212 C   0  0  0  0  0  0
  -25.5917  -33.8557   24.2246 N   0  0  0  0  0  0
  -23.4196  -30.4757   21.5404 C   0  0  2  0  0  0
  -24.8648  -28.9175   20.1111 C   0  0  0  0  0  0
  -22.7467  -29.4600   22.4934 C   0  0  0  0  0  0
  -18.0282  -28.1379   22.8485 C   0  0  0  0  0  0
  -24.1488  -36.7285   23.2641 C   0  0  0  0  0  0
  -25.9580  -30.7832   21.3654 C   0  0  0  0  0  0
  -26.0306  -29.4067   20.7103 C   0  0  0  0  0  0
  -27.2108  -28.6098   20.7004 C   0  0  0  0  0  0
  -26.0358  -26.8488   19.5226 C   0  0  0  0  0  0
  -24.8696  -27.6455   19.5102 C   0  0  0  0  0  0
  -23.6335  -29.8012   20.1577 C   0  0  0  0  0  0
  -25.4114  -36.3069   24.0326 C   0  0  1  0  0  0
  -20.5880  -28.3680   23.1290 C   0  0  2  0  0  0
  -20.6769  -26.9403   22.5416 C   0  0  0  0  0  0
  -19.5749  -26.6380   21.5212 C   0  0  0  0  0  0
  -18.1926  -26.7923   22.1620 C   0  0  0  0  0  0
  -19.1534  -28.8847   23.2882 C   0  0  0  0  0  0
  -18.9460  -30.1449   23.8897 C   0  0  0  0  0  0
  -17.6461  -30.6583   24.0561 C   0  0  0  0  0  0
  -25.9054  -34.9440   23.5092 C   0  0  0  0  0  0
  -16.5351  -29.9084   23.6329 C   0  0  0  0  0  0
  -16.7270  -28.6501   23.0351 C   0  0  0  0  0  0
  -26.4493  -31.6578   25.0694 C   0  0  0  0  0  0
  -25.3729  -31.3716   26.1424 C   0  0  0  0  0  0
  -27.0343  -30.3007   24.6149 C   0  0  0  0  0  0
  -27.6048  -32.4321   25.7468 C   0  0  0  0  0  0
  -27.5578  -37.1792   24.8463 C   0  0  0  0  0  0
  -21.4181  -29.3030   22.3684 N   0  0  0  0  0  0
  -26.4287  -37.3770   23.9411 N   0  0  0  0  0  0
  -24.6869  -31.0562   22.0920 N   0  0  0  0  0  0
  -23.4188  -28.8156   23.3030 O   0  0  0  0  0  0
  -28.3985  -26.5299   20.1893 O   0  0  0  0  0  0
  -26.5633  -34.8917   22.4665 O   0  0  0  0  0  0
  -23.5426  -32.1368   23.7307 O   0  0  0  0  0  0
  -28.5877  -19.1262   21.2066 C   0  0  0  0  0  0
  -28.4474  -20.5497   21.0537 C   0  0  0  0  0  0
  -29.4573  -20.3948   18.8949 C   0  0  0  0  0  0
  -29.1540  -18.2899   20.1981 C   0  0  0  0  0  0
  -28.8488  -21.2378   19.8724 C   0  0  0  0  0  0
  -29.6057  -18.9830   19.0449 C   0  0  0  0  0  0
  -28.4496  -24.7067   18.3085 C   0  0  0  0  0  0
  -28.8839  -23.2202   18.2892 C   0  0  0  0  0  0
  -28.2477  -23.7784   20.5306 C   0  0  0  0  0  0
  -28.6281  -25.1180   19.7702 C   0  0  2  0  0  0
  -30.7152  -16.5234   22.0758 C   0  0  0  0  0  0
  -29.0890  -16.6975   20.2207 C   0  0  0  0  0  0
  -28.6467  -22.6562   19.6239 N   0  0  0  0  0  0
  -30.0225  -15.8013   21.0075 N   0  0  0  0  0  0
  -30.1510  -18.2770   18.0251 F   0  0  0  0  0  0
  -31.4610  -12.5271   19.1590 H   0  0  0  0  0  0
  -30.3437  -11.4423   19.9340 H   0  0  0  0  0  0
  -29.7725  -11.7401   17.4992 H   0  0  0  0  0  0
  -29.6323  -13.4665   17.7267 H   0  0  0  0  0  0
  -27.8779  -11.2852   18.8992 H   0  0  0  0  0  0
  -27.3668  -12.5362   17.7978 H   0  0  0  0  0  0
  -27.6382  -14.2520   19.4784 H   0  0  0  0  0  0
  -28.7053  -12.1497   21.4255 H   0  0  0  0  0  0
  -28.4233  -13.8323   21.7958 H   0  0  0  0  0  0
  -25.2761   -9.5686   22.4763 H   0  0  0  0  0  0
  -24.0003   -7.4634   22.7474 H   0  0  0  0  0  0
  -21.0844   -8.8774   19.8949 H   0  0  0  0  0  0
  -22.3699  -10.9675   19.6169 H   0  0  0  0  0  0
  -21.2005   -7.6148   23.9718 H   0  0  0  0  0  0
  -21.1481   -6.0521   25.9077 H   0  0  0  0  0  0
  -22.0598   -2.7611   23.2844 H   0  0  0  0  0  0
  -22.4078  -11.9872   22.4813 H   0  0  0  0  0  0
  -21.1075  -13.1232   22.2631 H   0  0  0  0  0  0
  -24.6423  -15.8398   20.5130 H   0  0  0  0  0  0
  -26.2551  -15.6311   20.0581 H   0  0  0  0  0  0
  -26.7166  -32.5416   23.1053 H   0  0  0  0  0  0
  -25.0055  -33.9696   25.0385 H   0  0  0  0  0  0
  -22.7138  -31.2957   21.3932 H   0  0  0  0  0  0
  -23.3752  -35.9613   23.3293 H   0  0  0  0  0  0
  -24.3579  -36.8923   22.2057 H   0  0  0  0  0  0
  -23.7239  -37.6479   23.6678 H   0  0  0  0  0  0
  -26.0868  -31.5445   20.5948 H   0  0  0  0  0  0
  -26.8395  -30.8356   21.9932 H   0  0  0  0  0  0
  -28.1099  -28.9851   21.1689 H   0  0  0  0  0  0
  -25.9754  -25.8646   19.0889 H   0  0  0  0  0  0
  -23.9695  -27.2592   19.0522 H   0  0  0  0  0  0
  -23.7530  -30.5735   19.3969 H   0  0  0  0  0  0
  -22.7526  -29.2302   19.8587 H   0  0  0  0  0  0
  -25.1294  -36.1913   25.0817 H   0  0  0  0  0  0
  -20.9968  -28.3255   24.1412 H   0  0  0  0  0  0
  -20.5666  -26.2287   23.3614 H   0  0  0  0  0  0
  -21.6639  -26.7431   22.1214 H   0  0  0  0  0  0
  -19.6913  -25.6293   21.1239 H   0  0  0  0  0  0
  -19.6690  -27.3193   20.6743 H   0  0  0  0  0  0
  -17.4198  -26.6673   21.4020 H   0  0  0  0  0  0
  -18.0324  -26.0061   22.9013 H   0  0  0  0  0  0
  -19.7936  -30.7263   24.2270 H   0  0  0  0  0  0
  -17.5017  -31.6266   24.5160 H   0  0  0  0  0  0
  -15.5354  -30.2987   23.7654 H   0  0  0  0  0  0
  -15.8668  -28.0824   22.7065 H   0  0  0  0  0  0
  -24.5909  -30.7057   25.7758 H   0  0  0  0  0  0
  -24.8911  -32.2878   26.4845 H   0  0  0  0  0  0
  -25.8056  -30.8902   27.0203 H   0  0  0  0  0  0
  -26.2912  -29.6744   24.1196 H   0  0  0  0  0  0
  -27.4075  -29.7275   25.4646 H   0  0  0  0  0  0
  -27.8760  -30.4299   23.9342 H   0  0  0  0  0  0
  -27.2659  -33.3632   26.2021 H   0  0  0  0  0  0
  -28.3870  -32.6864   25.0304 H   0  0  0  0  0  0
  -28.0699  -31.8460   26.5405 H   0  0  0  0  0  0
  -28.2582  -38.0102   24.7526 H   0  0  0  0  0  0
  -28.1088  -36.2634   24.6268 H   0  0  0  0  0  0
  -27.2299  -37.1416   25.8866 H   0  0  0  0  0  0
  -20.9362  -29.8746   21.6886 H   0  0  0  0  0  0
  -26.0163  -38.2839   24.1427 H   0  0  0  0  0  0
  -28.1987  -18.6668   22.1040 H   0  0  0  0  0  0
  -27.9777  -21.1078   21.8513 H   0  0  0  0  0  0
  -29.8107  -20.8151   17.9663 H   0  0  0  0  0  0
  -27.4120  -24.7812   17.9921 H   0  0  0  0  0  0
  -29.0457  -25.3146   17.6271 H   0  0  0  0  0  0
  -29.9493  -23.1526   18.0611 H   0  0  0  0  0  0
  -28.3437  -22.6692   17.5173 H   0  0  0  0  0  0
  -27.1742  -23.7340   20.7187 H   0  0  0  0  0  0
  -28.7596  -23.7097   21.4915 H   0  0  0  0  0  0
  -29.7141  -25.1230   19.8816 H   0  0  0  0  0  0
  -30.0035  -17.0509   22.7107 H   0  0  0  0  0  0
  -31.4142  -17.2508   21.6606 H   0  0  0  0  0  0
  -31.2797  -15.8474   22.7209 H   0  0  0  0  0  0
  -29.1019  -16.3583   19.1834 H   0  0  0  0  0  0
  -28.0881  -16.4511   20.5731 H   0  0  0  0  0  0
  1 25  1  0  0  0
  1 30  2  0  0  0
  1 84  1  0  0  0
  2  3  1  0  0  0
  2 25  1  0  0  0
  2 86  1  0  0  0
  2 87  1  0  0  0
  3  4  1  0  0  0
  3 88  1  0  0  0
  3 89  1  0  0  0
  4  5  1  0  0  0
  4 90  1  0  0  0
  4 91  1  0  0  0
  5  6  1  0  0  0
  5 26  1  0  0  0
  5 92  1  0  0  0
  6 25  1  0  0  0
  6 93  1  0  0  0
  6 94  1  0  0  0
  7  8  2  0  0  0
  7 26  1  0  0  0
  7 29  1  0  0  0
  8  9  1  0  0  0
  8 22  1  0  0  0
  9 10  1  0  0  0
  9 27  2  0  0  0
 10 11  2  0  0  0
 10 15  1  0  0  0
 11 12  1  0  0  0
 11 95  1  0  0  0
 12 13  2  0  0  0
 12 96  1  0  0  0
 13 14  1  0  0  0
 13 31  1  0  0  0
 14 15  2  0  0  0
 14 97  1  0  0  0
 15 98  1  0  0  0
 16 17  2  0  0  0
 16 21  1  0  0  0
 16 31  1  0  0  0
 17 18  1  0  0  0
 17 99  1  0  0  0
 18 19  2  0  0  0
 18100  1  0  0  0
 19 20  1  0  0  0
 19 24  1  0  0  0
 20 21  2  0  0  0
 20101  1  0  0  0
 21 23  1  0  0  0
 22 28  1  0  0  0
 22 32  2  0  0  0
 26 27  1  0  0  0
 28102  1  0  0  0
 28103  1  0  0  0
 29104  1  0  0  0
 29105  1  0  0  0
 33 34  1  0  0  0
 33 66  1  0  0  0
 33 70  2  0  0  0
 34 36  1  0  0  0
 34 59  1  0  0  0
 34106  1  0  0  0
 35 44  2  0  0  0
 35 45  1  0  0  0
 35 68  1  0  0  0
 36 56  1  0  0  0
 36107  1  0  0  0
 37 39  1  0  0  0
 37 47  1  0  0  0
 37 66  1  0  0  0
 37108  1  0  0  0
 38 43  2  0  0  0
 38 46  1  0  0  0
 38 47  1  0  0  0
 39 64  1  0  0  0
 39 67  2  0  0  0
 40 52  1  0  0  0
 40 53  2  0  0  0
 40 58  1  0  0  0
 41109  1  0  0  0
 41110  1  0  0  0
 41111  1  0  0  0
 41 48  1  0  0  0
 42 43  1  0  0  0
 42 66  1  0  0  0
 42112  1  0  0  0
 42113  1  0  0  0
 43 44  1  0  0  0
 44114  1  0  0  0
 45 46  2  0  0  0
 45115  1  0  0  0
 46116  1  0  0  0
 47117  1  0  0  0
 47118  1  0  0  0
 48 56  1  0  0  0
 48 65  1  0  0  0
 48119  1  0  0  0
 49 50  1  0  0  0
 49 53  1  0  0  0
 49 64  1  0  0  0
 49120  1  0  0  0
 50 51  1  0  0  0
 50121  1  0  0  0
 50122  1  0  0  0
 51 52  1  0  0  0
 51123  1  0  0  0
 51124  1  0  0  0
 52125  1  0  0  0
 52126  1  0  0  0
 53 54  1  0  0  0
 54 55  2  0  0  0
 54127  1  0  0  0
 55 57  1  0  0  0
 55128  1  0  0  0
 56 69  2  0  0  0
 57 58  2  0  0  0
 57129  1  0  0  0
 58130  1  0  0  0
 59 60  1  0  0  0
 59 61  1  0  0  0
 59 62  1  0  0  0
 60131  1  0  0  0
 60132  1  0  0  0
 60133  1  0  0  0
 61134  1  0  0  0
 61135  1  0  0  0
 61136  1  0  0  0
 62137  1  0  0  0
 62138  1  0  0  0
 62139  1  0  0  0
 63 65  1  0  0  0
 63140  1  0  0  0
 63141  1  0  0  0
 63142  1  0  0  0
 64143  1  0  0  0
 65144  1  0  0  0
 68 80  1  0  0  0
 71 72  2  0  0  0
 71 74  1  0  0  0
 71145  1  0  0  0
 72 75  1  0  0  0
 72146  1  0  0  0
 73 75  2  0  0  0
 73 76  1  0  0  0
 73147  1  0  0  0
 74 76  2  0  0  0
 74 82  1  0  0  0
 75 83  1  0  0  0
 76 85  1  0  0  0
 77 78  1  0  0  0
 77 80  1  0  0  0
 77148  1  0  0  0
 77149  1  0  0  0
 78 83  1  0  0  0
 78150  1  0  0  0
 78151  1  0  0  0
 79 80  1  0  0  0
 79 83  1  0  0  0
 79152  1  0  0  0
 79153  1  0  0  0
 80154  1  0  0  0
 81 84  1  0  0  0
 81155  1  0  0  0
 81156  1  0  0  0
 81157  1  0  0  0
 82 84  1  0  0  0
 82158  1  0  0  0
 82159  1  0  0  0
M  ISO  4   1 100  68 101  80 101  84 100
M  END
> <chiral flag>
0

> <version>
0

> <s_m_source_file>
/data/baiqing/PycharmProjects/Reinvent-master-3.2/result/LINK_invent/BTK/process_docking_weight1_custom_product_contain_oxygen_bond_distance_aromatic_linkinvent_7_9_3/rearranged_h_0011.sdf

> <i_m_source_file_index>
47

> <r_mmod_Potential_Energy-OPLS-2005>
349.136810302734

> <r_mmod_Stretch_Energy-OPLS-2005>
93.2546920776367

> <r_mmod_Bend_Energy-OPLS-2005>
265.135345458984

> <r_mmod_Torsional_Energy-OPLS-2005>
305.751708984375

> <r_mmod_Improper_Torsional_Energy-OPLS-2005>
4.97612810134888

> <r_mmod_Van_der_Waal_Energy-OPLS-2005>
134.080780029297

> <r_mmod_Electrostatic_Energy-OPLS-2005>
-296.380828857422

> <r_mmod_Solvation_Energy-OPLS-2005>
-214.413299560547

> <b_mmod_Minimization_Converged-OPLS-2005>
0

> <r_mmod_RMS_Derivative-OPLS-2005>
0.283560037612915

$$$$
47
                    3D
 Structure written by MMmdl.
153162  0  0  1  0            999 V2000
  -30.5041  -14.9487   20.4277 C   0  0  0  0  0  0
  -30.4546  -12.5902   19.4880 C   0  0  0  0  0  0
  -29.5250  -12.5287   18.2517 C   0  0  0  0  0  0
  -28.0582  -12.3085   18.6739 C   0  0  0  0  0  0
  -27.6339  -13.2393   19.8399 C   0  0  2  0  0  0
  -28.6783  -13.2464   20.9767 C   0  0  0  0  0  0
  -25.2496  -13.8204   20.5718 C   0  0  0  0  0  0
  -24.1801  -13.0435   20.9234 C   0  0  0  0  0  0
  -24.6400  -11.6915   20.8762 C   0  0  0  0  0  0
  -23.9078  -10.4289   21.0417 C   0  0  0  0  0  0
  -24.3627   -9.4204   21.9189 C   0  0  0  0  0  0
  -23.6299   -8.2241   22.0758 C   0  0  0  0  0  0
  -22.4280   -8.0284   21.3547 C   0  0  0  0  0  0
  -21.9918   -9.0258   20.4646 C   0  0  0  0  0  0
  -22.7253  -10.2133   20.3058 C   0  0  0  0  0  0
  -21.6852   -6.0742   22.5281 C   0  0  0  0  0  0
  -21.4013   -6.5643   23.8215 C   0  0  0  0  0  0
  -21.3659   -5.6793   24.9174 C   0  0  0  0  0  0
  -21.6043   -4.3057   24.7221 C   0  0  0  0  0  0
  -21.8819   -3.8149   23.4342 C   0  0  0  0  0  0
  -21.9192   -4.6969   22.3402 C   0  0  0  0  0  0
  -22.7816  -13.5211   21.1889 C   0  0  0  0  0  0
  -22.1658   -4.2157   21.0981 F   0  0  0  0  0  0
  -21.5629   -3.4539   25.7733 F   0  0  0  0  0  0
  -29.9540  -13.6702   20.3818 N   0  0  0  0  0  0
  -26.2908  -12.9410   20.3238 N   0  0  0  0  0  0
  -25.9330  -11.6549   20.5738 N   0  0  0  0  0  0
  -22.0458  -12.8197   22.0434 N   0  0  0  0  0  0
  -25.4149  -15.1943   20.4162 N   0  0  0  0  0  0
  -31.7096  -15.0666   20.1789 O   0  0  0  0  0  0
  -21.6640   -6.8886   21.4242 O   0  0  0  0  0  0
  -22.3499  -14.5522   20.6739 O   0  0  0  0  0  0
  -24.6432  -31.8427   23.1850 C   0  0  0  0  0  0
  -25.9197  -32.4697   23.8249 C   0  0  1  0  0  0
  -27.2259  -27.1367   20.1660 C   0  0  0  0  0  0
  -25.5945  -33.8500   24.2180 N   0  0  0  0  0  0
  -23.4479  -30.4591   21.5304 C   0  0  2  0  0  0
  -24.8984  -28.8748   20.1182 C   0  0  0  0  0  0
  -22.7566  -29.4542   22.4858 C   0  0  0  0  0  0
  -18.0300  -28.1404   22.8483 C   0  0  0  0  0  0
  -24.1480  -36.7244   23.2642 C   0  0  0  0  0  0
  -26.0014  -30.7197   21.3784 C   0  0  0  0  0  0
  -26.0754  -29.3263   20.7290 C   0  0  0  0  0  0
  -27.2427  -28.4757   20.7276 C   0  0  0  0  0  0
  -26.0215  -26.7733   19.5305 C   0  0  0  0  0  0
  -24.8829  -27.6117   19.5033 C   0  0  0  0  0  0
  -23.6752  -29.7783   20.1534 C   0  0  0  0  0  0
  -25.4111  -36.3028   24.0319 C   0  0  1  0  0  0
  -20.5915  -28.3722   23.1240 C   0  0  2  0  0  0
  -20.6783  -26.9425   22.5405 C   0  0  0  0  0  0
  -19.5754  -26.6387   21.5216 C   0  0  0  0  0  0
  -18.1935  -26.7946   22.1625 C   0  0  0  0  0  0
  -19.1558  -28.8879   23.2857 C   0  0  0  0  0  0
  -18.9481  -30.1477   23.8882 C   0  0  0  0  0  0
  -17.6479  -30.6603   24.0566 C   0  0  0  0  0  0
  -25.9068  -34.9410   23.5059 C   0  0  0  0  0  0
  -16.5367  -29.9101   23.6342 C   0  0  0  0  0  0
  -16.7285  -28.6518   23.0363 C   0  0  0  0  0  0
  -26.4524  -31.6563   25.0689 C   0  0  0  0  0  0
  -25.3722  -31.3760   26.1398 C   0  0  0  0  0  0
  -27.0376  -30.2964   24.6237 C   0  0  0  0  0  0
  -27.6060  -32.4319   25.7476 C   0  0  0  0  0  0
  -27.5572  -37.1764   24.8460 C   0  0  0  0  0  0
  -21.4258  -29.3055   22.3613 N   0  0  0  0  0  0
  -26.4267  -37.3751   23.9432 N   0  0  0  0  0  0
  -24.7178  -31.0284   22.0876 N   0  0  0  0  0  0
  -23.4207  -28.8095   23.3016 O   0  0  0  0  0  0
  -28.3080  -26.1877   20.1615 O   0  0  0  0  0  0
  -26.5656  -34.8913   22.4638 O   0  0  0  0  0  0
  -23.5550  -32.1284   23.7075 O   0  0  0  0  0  0
  -30.2724  -19.9540   21.1842 C   0  0  0  0  0  0
  -30.4759  -18.5089   21.1566 C   0  0  0  0  0  0
  -28.4171  -19.7578   19.7614 C   0  0  0  0  0  0
  -29.2301  -20.6841   20.4977 C   0  0  0  0  0  0
  -29.6301  -17.5898   20.4517 C   0  0  0  0  0  0
  -28.5875  -18.3078   19.7625 C   0  0  0  0  0  0
  -29.2036  -24.3813   21.6978 C   0  0  0  0  0  0
  -29.2786  -22.8317   21.9033 C   0  0  0  0  0  0
  -28.4313  -23.2906   19.7547 C   0  0  0  0  0  0
  -28.1731  -24.6957   20.5955 C   0  0  2  0  0  0
  -29.0260  -22.1660   20.6225 N   0  0  0  0  0  0
  -29.6201  -16.0545   20.5264 N   0  0  0  0  0  0
  -27.6779  -17.5666   19.0837 F   0  0  0  0  0  0
  -31.4824  -12.7750   19.1718 H   0  0  0  0  0  0
  -30.4699  -11.6337   20.0126 H   0  0  0  0  0  0
  -29.8448  -11.7327   17.5778 H   0  0  0  0  0  0
  -29.6054  -13.4584   17.6865 H   0  0  0  0  0  0
  -27.9592  -11.2672   18.9830 H   0  0  0  0  0  0
  -27.3916  -12.4364   17.8201 H   0  0  0  0  0  0
  -27.6001  -14.2432   19.4162 H   0  0  0  0  0  0
  -28.7685  -12.2610   21.4366 H   0  0  0  0  0  0
  -28.3779  -13.9302   21.7728 H   0  0  0  0  0  0
  -25.2775   -9.5681   22.4761 H   0  0  0  0  0  0
  -24.0007   -7.4633   22.7479 H   0  0  0  0  0  0
  -21.0850   -8.8780   19.8949 H   0  0  0  0  0  0
  -22.3720  -10.9673   19.6164 H   0  0  0  0  0  0
  -21.2003   -7.6151   23.9722 H   0  0  0  0  0  0
  -21.1480   -6.0521   25.9079 H   0  0  0  0  0  0
  -22.0599   -2.7611   23.2838 H   0  0  0  0  0  0
  -22.4066  -11.9845   22.4809 H   0  0  0  0  0  0
  -21.1074  -13.1221   22.2641 H   0  0  0  0  0  0
  -24.6406  -15.8370   20.5432 H   0  0  0  0  0  0
  -26.2372  -15.6466   20.0374 H   0  0  0  0  0  0
  -26.7264  -32.5309   23.0978 H   0  0  0  0  0  0
  -25.0088  -33.9609   25.0330 H   0  0  0  0  0  0
  -22.7514  -31.2845   21.3702 H   0  0  0  0  0  0
  -23.3760  -35.9558   23.3274 H   0  0  0  0  0  0
  -24.3570  -36.8896   22.2061 H   0  0  0  0  0  0
  -23.7203  -37.6424   23.6686 H   0  0  0  0  0  0
  -26.1457  -31.4684   20.5980 H   0  0  0  0  0  0
  -26.8771  -30.7813   22.0130 H   0  0  0  0  0  0
  -28.1477  -28.8247   21.2046 H   0  0  0  0  0  0
  -25.9524  -25.8025   19.0594 H   0  0  0  0  0  0
  -23.9827  -27.2592   19.0189 H   0  0  0  0  0  0
  -23.8138  -30.5472   19.3925 H   0  0  0  0  0  0
  -22.7910  -29.2178   19.8442 H   0  0  0  0  0  0
  -25.1292  -36.1846   25.0810 H   0  0  0  0  0  0
  -21.0006  -28.3305   24.1361 H   0  0  0  0  0  0
  -20.5671  -26.2338   23.3626 H   0  0  0  0  0  0
  -21.6647  -26.7426   22.1200 H   0  0  0  0  0  0
  -19.6915  -25.6295   21.1250 H   0  0  0  0  0  0
  -19.6694  -27.3197   20.6747 H   0  0  0  0  0  0
  -17.4205  -26.6696   21.4028 H   0  0  0  0  0  0
  -18.0329  -26.0097   22.9026 H   0  0  0  0  0  0
  -19.7960  -30.7299   24.2240 H   0  0  0  0  0  0
  -17.5038  -31.6284   24.5167 H   0  0  0  0  0  0
  -15.5369  -30.3004   23.7684 H   0  0  0  0  0  0
  -15.8680  -28.0836   22.7093 H   0  0  0  0  0  0
  -24.5904  -30.7097   25.7730 H   0  0  0  0  0  0
  -24.8917  -32.2953   26.4757 H   0  0  0  0  0  0
  -25.8021  -30.8982   27.0210 H   0  0  0  0  0  0
  -26.2974  -29.6698   24.1247 H   0  0  0  0  0  0
  -27.4017  -29.7241   25.4780 H   0  0  0  0  0  0
  -27.8868  -30.4213   23.9515 H   0  0  0  0  0  0
  -27.2669  -33.3665   26.1953 H   0  0  0  0  0  0
  -28.3934  -32.6790   25.0344 H   0  0  0  0  0  0
  -28.0651  -31.8498   26.5475 H   0  0  0  0  0  0
  -28.2545  -38.0106   24.7564 H   0  0  0  0  0  0
  -28.1109  -36.2635   24.6205 H   0  0  0  0  0  0
  -27.2306  -37.1310   25.8866 H   0  0  0  0  0  0
  -20.9464  -29.8775   21.6799 H   0  0  0  0  0  0
  -26.0126  -38.2803   24.1496 H   0  0  0  0  0  0
  -30.9723  -20.5185   21.7831 H   0  0  0  0  0  0
  -31.2846  -18.1031   21.7470 H   0  0  0  0  0  0
  -27.5822  -20.1552   19.2042 H   0  0  0  0  0  0
  -30.1810  -24.7370   21.3703 H   0  0  0  0  0  0
  -28.9774  -24.9026   22.6282 H   0  0  0  0  0  0
  -28.5104  -22.5178   22.6114 H   0  0  0  0  0  0
  -30.2415  -22.5510   22.3301 H   0  0  0  0  0  0
  -29.1354  -23.4884   18.9457 H   0  0  0  0  0  0
  -27.5066  -22.9572   19.2810 H   0  0  0  0  0  0
  -27.1868  -24.6017   21.0531 H   0  0  0  0  0  0
  -28.6743  -15.7065   20.5422 H   0  0  0  0  0  0
  1 25  1  0  0  0
  1 30  2  0  0  0
  1 82  1  0  0  0
  2  3  1  0  0  0
  2 25  1  0  0  0
  2 84  1  0  0  0
  2 85  1  0  0  0
  3  4  1  0  0  0
  3 86  1  0  0  0
  3 87  1  0  0  0
  4  5  1  0  0  0
  4 88  1  0  0  0
  4 89  1  0  0  0
  5  6  1  0  0  0
  5 26  1  0  0  0
  5 90  1  0  0  0
  6 25  1  0  0  0
  6 91  1  0  0  0
  6 92  1  0  0  0
  7  8  2  0  0  0
  7 26  1  0  0  0
  7 29  1  0  0  0
  8  9  1  0  0  0
  8 22  1  0  0  0
  9 10  1  0  0  0
  9 27  2  0  0  0
 10 11  2  0  0  0
 10 15  1  0  0  0
 11 12  1  0  0  0
 11 93  1  0  0  0
 12 13  2  0  0  0
 12 94  1  0  0  0
 13 14  1  0  0  0
 13 31  1  0  0  0
 14 15  2  0  0  0
 14 95  1  0  0  0
 15 96  1  0  0  0
 16 17  2  0  0  0
 16 21  1  0  0  0
 16 31  1  0  0  0
 17 18  1  0  0  0
 17 97  1  0  0  0
 18 19  2  0  0  0
 18 98  1  0  0  0
 19 20  1  0  0  0
 19 24  1  0  0  0
 20 21  2  0  0  0
 20 99  1  0  0  0
 21 23  1  0  0  0
 22 28  1  0  0  0
 22 32  2  0  0  0
 26 27  1  0  0  0
 28100  1  0  0  0
 28101  1  0  0  0
 29102  1  0  0  0
 29103  1  0  0  0
 33 34  1  0  0  0
 33 66  1  0  0  0
 33 70  2  0  0  0
 34 36  1  0  0  0
 34 59  1  0  0  0
 34104  1  0  0  0
 35 44  2  0  0  0
 35 45  1  0  0  0
 35 68  1  0  0  0
 36 56  1  0  0  0
 36105  1  0  0  0
 37 39  1  0  0  0
 37 47  1  0  0  0
 37 66  1  0  0  0
 37106  1  0  0  0
 38 43  2  0  0  0
 38 46  1  0  0  0
 38 47  1  0  0  0
 39 64  1  0  0  0
 39 67  2  0  0  0
 40 52  1  0  0  0
 40 53  2  0  0  0
 40 58  1  0  0  0
 41107  1  0  0  0
 41108  1  0  0  0
 41109  1  0  0  0
 41 48  1  0  0  0
 42 43  1  0  0  0
 42 66  1  0  0  0
 42110  1  0  0  0
 42111  1  0  0  0
 43 44  1  0  0  0
 44112  1  0  0  0
 45 46  2  0  0  0
 45113  1  0  0  0
 46114  1  0  0  0
 47115  1  0  0  0
 47116  1  0  0  0
 48 56  1  0  0  0
 48 65  1  0  0  0
 48117  1  0  0  0
 49 50  1  0  0  0
 49 53  1  0  0  0
 49 64  1  0  0  0
 49118  1  0  0  0
 50 51  1  0  0  0
 50119  1  0  0  0
 50120  1  0  0  0
 51 52  1  0  0  0
 51121  1  0  0  0
 51122  1  0  0  0
 52123  1  0  0  0
 52124  1  0  0  0
 53 54  1  0  0  0
 54 55  2  0  0  0
 54125  1  0  0  0
 55 57  1  0  0  0
 55126  1  0  0  0
 56 69  2  0  0  0
 57 58  2  0  0  0
 57127  1  0  0  0
 58128  1  0  0  0
 59 60  1  0  0  0
 59 61  1  0  0  0
 59 62  1  0  0  0
 60129  1  0  0  0
 60130  1  0  0  0
 60131  1  0  0  0
 61132  1  0  0  0
 61133  1  0  0  0
 61134  1  0  0  0
 62135  1  0  0  0
 62136  1  0  0  0
 62137  1  0  0  0
 63 65  1  0  0  0
 63138  1  0  0  0
 63139  1  0  0  0
 63140  1  0  0  0
 64141  1  0  0  0
 65142  1  0  0  0
 68 80  1  0  0  0
 71 72  2  0  0  0
 71 74  1  0  0  0
 71143  1  0  0  0
 72 75  1  0  0  0
 72144  1  0  0  0
 73 74  2  0  0  0
 73 76  1  0  0  0
 73145  1  0  0  0
 74 81  1  0  0  0
 75 76  2  0  0  0
 75 82  1  0  0  0
 76 83  1  0  0  0
 77 78  1  0  0  0
 77 80  1  0  0  0
 77146  1  0  0  0
 77147  1  0  0  0
 78 81  1  0  0  0
 78148  1  0  0  0
 78149  1  0  0  0
 79 80  1  0  0  0
 79 81  1  0  0  0
 79150  1  0  0  0
 79151  1  0  0  0
 80152  1  0  0  0
 82153  1  0  0  0
M  ISO  4   1 100  68 101  80 101  82 100
M  END
> <chiral flag>
0

> <version>
0

> <s_m_source_file>
/data/baiqing/PycharmProjects/Reinvent-master-3.2/result/LINK_invent/BTK/process_docking_weight1_custom_product_contain_oxygen_bond_distance_aromatic_linkinvent_7_9_3/rearranged_h_0011.sdf

> <i_m_source_file_index>
48

> <r_mmod_Potential_Energy-OPLS-2005>
511.134216308594

> <r_mmod_Stretch_Energy-OPLS-2005>
215.138229370117

> <r_mmod_Bend_Energy-OPLS-2005>
311.854766845703

> <r_mmod_Torsional_Energy-OPLS-2005>
297.146484375

> <r_mmod_Improper_Torsional_Energy-OPLS-2005>
6.74517917633057

> <r_mmod_Van_der_Waal_Energy-OPLS-2005>
122.15104675293

> <r_mmod_Electrostatic_Energy-OPLS-2005>
-410.138092041016

> <r_mmod_Solvation_Energy-OPLS-2005>
-221.11376953125

> <b_mmod_Minimization_Converged-OPLS-2005>
0

> <r_mmod_RMS_Derivative-OPLS-2005>
0.983909428119659

$$$$
48
                    3D
 Structure written by MMmdl.
154162  0  0  1  0            999 V2000
  -30.6702  -14.6205   20.5064 C   0  0  0  0  0  0
  -30.4157  -12.3824   19.4565 C   0  0  0  0  0  0
  -29.5025  -12.5044   18.2178 C   0  0  0  0  0  0
  -28.0238  -12.3513   18.6228 C   0  0  0  0  0  0
  -27.6477  -13.2208   19.8537 C   0  0  2  0  0  0
  -28.6867  -13.0694   20.9819 C   0  0  0  0  0  0
  -25.2546  -13.8170   20.5682 C   0  0  0  0  0  0
  -24.1820  -13.0432   20.9147 C   0  0  0  0  0  0
  -24.6393  -11.6894   20.8713 C   0  0  0  0  0  0
  -23.9051  -10.4285   21.0398 C   0  0  0  0  0  0
  -24.3602   -9.4200   21.9176 C   0  0  0  0  0  0
  -23.6276   -8.2236   22.0756 C   0  0  0  0  0  0
  -22.4258   -8.0271   21.3546 C   0  0  0  0  0  0
  -21.9892   -9.0244   20.4650 C   0  0  0  0  0  0
  -22.7219  -10.2123   20.3053 C   0  0  0  0  0  0
  -21.6864   -6.0725   22.5271 C   0  0  0  0  0  0
  -21.4024   -6.5636   23.8202 C   0  0  0  0  0  0
  -21.3669   -5.6795   24.9159 C   0  0  0  0  0  0
  -21.6058   -4.3053   24.7220 C   0  0  0  0  0  0
  -21.8817   -3.8144   23.4340 C   0  0  0  0  0  0
  -21.9191   -4.6959   22.3394 C   0  0  0  0  0  0
  -22.7836  -13.5227   21.1815 C   0  0  0  0  0  0
  -22.1661   -4.2143   21.0974 F   0  0  0  0  0  0
  -21.5628   -3.4540   25.7731 F   0  0  0  0  0  0
  -29.9963  -13.4242   20.4197 N   0  0  0  0  0  0
  -26.2964  -12.9369   20.3267 N   0  0  0  0  0  0
  -25.9319  -11.6514   20.5720 N   0  0  0  0  0  0
  -22.0463  -12.8233   22.0363 N   0  0  0  0  0  0
  -25.4288  -15.1885   20.4132 N   0  0  0  0  0  0
  -31.8343  -14.6889   20.0994 O   0  0  0  0  0  0
  -21.6637   -6.8862   21.4228 O   0  0  0  0  0  0
  -22.3543  -14.5549   20.6665 O   0  0  0  0  0  0
  -24.6287  -31.8628   23.2053 C   0  0  0  0  0  0
  -25.9138  -32.4790   23.8389 C   0  0  1  0  0  0
  -27.2002  -27.3098   20.0977 C   0  0  0  0  0  0
  -25.5969  -33.8590   24.2324 N   0  0  0  0  0  0
  -23.4194  -30.4901   21.5508 C   0  0  2  0  0  0
  -24.8570  -28.9534   20.1070 C   0  0  0  0  0  0
  -22.7481  -29.4636   22.4957 C   0  0  0  0  0  0
  -18.0293  -28.1356   22.8528 C   0  0  0  0  0  0
  -24.1478  -36.7267   23.2641 C   0  0  0  0  0  0
  -25.9660  -30.7830   21.3842 C   0  0  0  0  0  0
  -26.0305  -29.4139   20.7197 C   0  0  0  0  0  0
  -27.2051  -28.6028   20.7110 C   0  0  0  0  0  0
  -26.0019  -26.9190   19.4498 C   0  0  0  0  0  0
  -24.8443  -27.7108   19.4653 C   0  0  0  0  0  0
  -23.6299  -29.8365   20.1615 C   0  0  0  0  0  0
  -25.4098  -36.3080   24.0349 C   0  0  1  0  0  0
  -20.5901  -28.3669   23.1291 C   0  0  2  0  0  0
  -20.6775  -26.9400   22.5393 C   0  0  0  0  0  0
  -19.5738  -26.6377   21.5213 C   0  0  0  0  0  0
  -18.1924  -26.7911   22.1643 C   0  0  0  0  0  0
  -19.1549  -28.8828   23.2915 C   0  0  0  0  0  0
  -18.9479  -30.1433   23.8921 C   0  0  0  0  0  0
  -17.6478  -30.6579   24.0551 C   0  0  0  0  0  0
  -25.9056  -34.9460   23.5127 C   0  0  0  0  0  0
  -16.5369  -29.9071   23.6325 C   0  0  0  0  0  0
  -16.7283  -28.6463   23.0402 C   0  0  0  0  0  0
  -26.4506  -31.6576   25.0764 C   0  0  0  0  0  0
  -25.3733  -31.3705   26.1482 C   0  0  0  0  0  0
  -27.0314  -30.3000   24.6177 C   0  0  0  0  0  0
  -27.6071  -32.4294   25.7532 C   0  0  0  0  0  0
  -27.5570  -37.1797   24.8484 C   0  0  0  0  0  0
  -21.4196  -29.3025   22.3681 N   0  0  0  0  0  0
  -26.4272  -37.3777   23.9429 N   0  0  0  0  0  0
  -24.6905  -31.0609   22.1032 N   0  0  0  0  0  0
  -23.4209  -28.8192   23.3051 O   0  0  0  0  0  0
  -28.2910  -26.4211   20.1556 O   0  0  0  0  0  0
  -26.5609  -34.8939   22.4684 O   0  0  0  0  0  0
  -23.5449  -32.1430   23.7379 O   0  0  0  0  0  0
  -30.5161  -19.5460   20.5981 C   0  0  0  0  0  0
  -28.4117  -18.7917   19.7065 C   0  0  0  0  0  0
  -30.0508  -20.8968   20.6001 C   0  0  0  0  0  0
  -27.9477  -20.1379   19.7164 C   0  0  0  0  0  0
  -29.7203  -18.4599   20.1347 C   0  0  0  0  0  0
  -28.7534  -21.2294   20.1364 C   0  0  0  0  0  0
  -29.2797  -16.0693   21.9619 C   0  0  0  0  0  0
  -30.3444  -17.0325   19.9153 C   0  0  0  0  0  0
  -28.9351  -23.7697   20.2648 C   0  0  0  0  0  0
  -27.9840  -24.9893   19.9061 C   0  0  0  0  0  0
  -29.9570  -15.7948   20.6922 N   0  0  0  0  0  0
  -28.2016  -22.5200   20.0560 O   0  0  0  0  0  0
  -31.4642  -12.4687   19.1651 H   0  0  0  0  0  0
  -30.3200  -11.3920   19.9047 H   0  0  0  0  0  0
  -29.7673  -11.7477   17.4781 H   0  0  0  0  0  0
  -29.6563  -13.4710   17.7349 H   0  0  0  0  0  0
  -27.8543  -11.2975   18.8498 H   0  0  0  0  0  0
  -27.3762  -12.5903   17.7793 H   0  0  0  0  0  0
  -27.6688  -14.2584   19.5179 H   0  0  0  0  0  0
  -28.6995  -12.0424   21.3527 H   0  0  0  0  0  0
  -28.4107  -13.6751   21.8393 H   0  0  0  0  0  0
  -25.2744   -9.5675   22.4746 H   0  0  0  0  0  0
  -23.9987   -7.4625   22.7479 H   0  0  0  0  0  0
  -21.0815   -8.8751   19.8963 H   0  0  0  0  0  0
  -22.3662  -10.9653   19.6163 H   0  0  0  0  0  0
  -21.2029   -7.6146   23.9697 H   0  0  0  0  0  0
  -21.1512   -6.0526   25.9064 H   0  0  0  0  0  0
  -22.0600   -2.7607   23.2832 H   0  0  0  0  0  0
  -22.4076  -11.9878   22.4723 H   0  0  0  0  0  0
  -21.1084  -13.1265   22.2580 H   0  0  0  0  0  0
  -24.6664  -15.8480   20.5236 H   0  0  0  0  0  0
  -26.2963  -15.6244   20.1284 H   0  0  0  0  0  0
  -26.7211  -32.5475   23.1137 H   0  0  0  0  0  0
  -25.0195  -33.9723   25.0527 H   0  0  0  0  0  0
  -22.7122  -31.3106   21.4138 H   0  0  0  0  0  0
  -23.3759  -35.9585   23.3319 H   0  0  0  0  0  0
  -24.3573  -36.8854   22.2051 H   0  0  0  0  0  0
  -23.7215  -37.6482   23.6620 H   0  0  0  0  0  0
  -26.1064  -31.5460   20.6176 H   0  0  0  0  0  0
  -26.8450  -30.8235   22.0149 H   0  0  0  0  0  0
  -28.1001  -28.9471   21.2118 H   0  0  0  0  0  0
  -25.9083  -25.9775   18.9308 H   0  0  0  0  0  0
  -23.9450  -27.3545   18.9788 H   0  0  0  0  0  0
  -23.7562  -30.6177   19.4122 H   0  0  0  0  0  0
  -22.7437  -29.2762   19.8563 H   0  0  0  0  0  0
  -25.1259  -36.1918   25.0835 H   0  0  0  0  0  0
  -21.0012  -28.3207   24.1407 H   0  0  0  0  0  0
  -20.5670  -26.2274   23.3584 H   0  0  0  0  0  0
  -21.6649  -26.7426   22.1188 H   0  0  0  0  0  0
  -19.6898  -25.6294   21.1214 H   0  0  0  0  0  0
  -19.6661  -27.3209   20.6751 H   0  0  0  0  0  0
  -17.4201  -26.6720   21.4015 H   0  0  0  0  0  0
  -18.0310  -26.0018   22.8991 H   0  0  0  0  0  0
  -19.7951  -30.7248   24.2308 H   0  0  0  0  0  0
  -17.5026  -31.6274   24.5131 H   0  0  0  0  0  0
  -15.5367  -30.2987   23.7590 H   0  0  0  0  0  0
  -15.8691  -28.0740   22.7166 H   0  0  0  0  0  0
  -24.5950  -30.6999   25.7816 H   0  0  0  0  0  0
  -24.8868  -32.2860   26.4860 H   0  0  0  0  0  0
  -25.8080  -30.8926   27.0273 H   0  0  0  0  0  0
  -26.2881  -29.6813   24.1134 H   0  0  0  0  0  0
  -27.3943  -29.7180   25.4653 H   0  0  0  0  0  0
  -27.8790  -30.4299   23.9449 H   0  0  0  0  0  0
  -27.2699  -33.3604   26.2097 H   0  0  0  0  0  0
  -28.3895  -32.6818   25.0368 H   0  0  0  0  0  0
  -28.0731  -31.8419   26.5459 H   0  0  0  0  0  0
  -28.2606  -38.0077   24.7513 H   0  0  0  0  0  0
  -28.1044  -36.2608   24.6306 H   0  0  0  0  0  0
  -27.2297  -37.1469   25.8895 H   0  0  0  0  0  0
  -20.9366  -29.8738   21.6886 H   0  0  0  0  0  0
  -26.0159  -38.2849   24.1427 H   0  0  0  0  0  0
  -31.5319  -19.3521   20.9158 H   0  0  0  0  0  0
  -27.7622  -18.0219   19.3132 H   0  0  0  0  0  0
  -30.7112  -21.6779   20.9490 H   0  0  0  0  0  0
  -26.9458  -20.3411   19.3613 H   0  0  0  0  0  0
  -29.5558  -15.3500   22.7354 H   0  0  0  0  0  0
  -28.1963  -16.0451   21.8287 H   0  0  0  0  0  0
  -29.5543  -17.0488   22.3547 H   0  0  0  0  0  0
  -31.4270  -17.1533   19.9896 H   0  0  0  0  0  0
  -30.1712  -16.7915   18.8651 H   0  0  0  0  0  0
  -29.2587  -23.8325   21.3040 H   0  0  0  0  0  0
  -29.8299  -23.7886   19.6394 H   0  0  0  0  0  0
  -27.0617  -24.7663   20.4459 H   0  0  0  0  0  0
  -27.7592  -24.8811   18.8437 H   0  0  0  0  0  0
  1 25  1  0  0  0
  1 30  2  0  0  0
  1 81  1  0  0  0
  2  3  1  0  0  0
  2 25  1  0  0  0
  2 83  1  0  0  0
  2 84  1  0  0  0
  3  4  1  0  0  0
  3 85  1  0  0  0
  3 86  1  0  0  0
  4  5  1  0  0  0
  4 87  1  0  0  0
  4 88  1  0  0  0
  5  6  1  0  0  0
  5 26  1  0  0  0
  5 89  1  0  0  0
  6 25  1  0  0  0
  6 90  1  0  0  0
  6 91  1  0  0  0
  7  8  2  0  0  0
  7 26  1  0  0  0
  7 29  1  0  0  0
  8  9  1  0  0  0
  8 22  1  0  0  0
  9 10  1  0  0  0
  9 27  2  0  0  0
 10 11  2  0  0  0
 10 15  1  0  0  0
 11 12  1  0  0  0
 11 92  1  0  0  0
 12 13  2  0  0  0
 12 93  1  0  0  0
 13 14  1  0  0  0
 13 31  1  0  0  0
 14 15  2  0  0  0
 14 94  1  0  0  0
 15 95  1  0  0  0
 16 17  2  0  0  0
 16 21  1  0  0  0
 16 31  1  0  0  0
 17 18  1  0  0  0
 17 96  1  0  0  0
 18 19  2  0  0  0
 18 97  1  0  0  0
 19 20  1  0  0  0
 19 24  1  0  0  0
 20 21  2  0  0  0
 20 98  1  0  0  0
 21 23  1  0  0  0
 22 28  1  0  0  0
 22 32  2  0  0  0
 26 27  1  0  0  0
 28 99  1  0  0  0
 28100  1  0  0  0
 29101  1  0  0  0
 29102  1  0  0  0
 33 34  1  0  0  0
 33 66  1  0  0  0
 33 70  2  0  0  0
 34 36  1  0  0  0
 34 59  1  0  0  0
 34103  1  0  0  0
 35 44  2  0  0  0
 35 45  1  0  0  0
 35 68  1  0  0  0
 36 56  1  0  0  0
 36104  1  0  0  0
 37 39  1  0  0  0
 37 47  1  0  0  0
 37 66  1  0  0  0
 37105  1  0  0  0
 38 43  2  0  0  0
 38 46  1  0  0  0
 38 47  1  0  0  0
 39 64  1  0  0  0
 39 67  2  0  0  0
 40 52  1  0  0  0
 40 53  2  0  0  0
 40 58  1  0  0  0
 41106  1  0  0  0
 41107  1  0  0  0
 41108  1  0  0  0
 41 48  1  0  0  0
 42 43  1  0  0  0
 42 66  1  0  0  0
 42109  1  0  0  0
 42110  1  0  0  0
 43 44  1  0  0  0
 44111  1  0  0  0
 45 46  2  0  0  0
 45112  1  0  0  0
 46113  1  0  0  0
 47114  1  0  0  0
 47115  1  0  0  0
 48 56  1  0  0  0
 48 65  1  0  0  0
 48116  1  0  0  0
 49 50  1  0  0  0
 49 53  1  0  0  0
 49 64  1  0  0  0
 49117  1  0  0  0
 50 51  1  0  0  0
 50118  1  0  0  0
 50119  1  0  0  0
 51 52  1  0  0  0
 51120  1  0  0  0
 51121  1  0  0  0
 52122  1  0  0  0
 52123  1  0  0  0
 53 54  1  0  0  0
 54 55  2  0  0  0
 54124  1  0  0  0
 55 57  1  0  0  0
 55125  1  0  0  0
 56 69  2  0  0  0
 57 58  2  0  0  0
 57126  1  0  0  0
 58127  1  0  0  0
 59 60  1  0  0  0
 59 61  1  0  0  0
 59 62  1  0  0  0
 60128  1  0  0  0
 60129  1  0  0  0
 60130  1  0  0  0
 61131  1  0  0  0
 61132  1  0  0  0
 61133  1  0  0  0
 62134  1  0  0  0
 62135  1  0  0  0
 62136  1  0  0  0
 63 65  1  0  0  0
 63137  1  0  0  0
 63138  1  0  0  0
 63139  1  0  0  0
 64140  1  0  0  0
 65141  1  0  0  0
 68 80  1  0  0  0
 71 73  2  0  0  0
 71 75  1  0  0  0
 71142  1  0  0  0
 72 74  1  0  0  0
 72 75  2  0  0  0
 72143  1  0  0  0
 73 76  1  0  0  0
 73144  1  0  0  0
 74 76  2  0  0  0
 74145  1  0  0  0
 75 78  1  0  0  0
 76 82  1  0  0  0
 77 81  1  0  0  0
 77146  1  0  0  0
 77147  1  0  0  0
 77148  1  0  0  0
 78 81  1  0  0  0
 78149  1  0  0  0
 78150  1  0  0  0
 79 80  1  0  0  0
 79 82  1  0  0  0
 79151  1  0  0  0
 79152  1  0  0  0
 80153  1  0  0  0
 80154  1  0  0  0
M  ISO  4   1 100  68 101  80 101  81 100
M  END
> <chiral flag>
0

> <version>
0

> <s_m_source_file>
/data/baiqing/PycharmProjects/Reinvent-master-3.2/result/LINK_invent/BTK/process_docking_weight1_custom_product_contain_oxygen_bond_distance_aromatic_linkinvent_7_9_3/rearranged_h_0011.sdf

> <i_m_source_file_index>
49

> <r_mmod_Potential_Energy-OPLS-2005>
209.510620117188

> <r_mmod_Stretch_Energy-OPLS-2005>
80.5047912597656

> <r_mmod_Bend_Energy-OPLS-2005>
163.700119018555

> <r_mmod_Torsional_Energy-OPLS-2005>
257.510955810547

> <r_mmod_Improper_Torsional_Energy-OPLS-2005>
12.3535089492798

> <r_mmod_Van_der_Waal_Energy-OPLS-2005>
157.001739501953

> <r_mmod_Electrostatic_Energy-OPLS-2005>
-313.582061767578

> <r_mmod_Solvation_Energy-OPLS-2005>
-198.59684753418

> <b_mmod_Minimization_Converged-OPLS-2005>
0

> <r_mmod_RMS_Derivative-OPLS-2005>
2.68109083175659

$$$$
49
                    3D
 Structure written by MMmdl.
156165  0  0  1  0            999 V2000
  -30.6146  -14.7574   20.4231 C   0  0  0  0  0  0
  -30.4253  -12.4561   19.4717 C   0  0  0  0  0  0
  -29.5032  -12.4849   18.2333 C   0  0  0  0  0  0
  -28.0303  -12.3139   18.6540 C   0  0  0  0  0  0
  -27.6340  -13.2322   19.8410 C   0  0  2  0  0  0
  -28.6809  -13.2057   20.9741 C   0  0  0  0  0  0
  -25.2494  -13.8211   20.5704 C   0  0  0  0  0  0
  -24.1780  -13.0452   20.9200 C   0  0  0  0  0  0
  -24.6372  -11.6926   20.8754 C   0  0  0  0  0  0
  -23.9057  -10.4298   21.0409 C   0  0  0  0  0  0
  -24.3613   -9.4216   21.9187 C   0  0  0  0  0  0
  -23.6287   -8.2253   22.0756 C   0  0  0  0  0  0
  -22.4270   -8.0287   21.3545 C   0  0  0  0  0  0
  -21.9903   -9.0258   20.4648 C   0  0  0  0  0  0
  -22.7226  -10.2141   20.3060 C   0  0  0  0  0  0
  -21.6860   -6.0734   22.5273 C   0  0  0  0  0  0
  -21.4016   -6.5637   23.8204 C   0  0  0  0  0  0
  -21.3657   -5.6792   24.9167 C   0  0  0  0  0  0
  -21.6044   -4.3054   24.7219 C   0  0  0  0  0  0
  -21.8817   -3.8144   23.4340 C   0  0  0  0  0  0
  -21.9188   -4.6959   22.3396 C   0  0  0  0  0  0
  -22.7804  -13.5238   21.1856 C   0  0  0  0  0  0
  -22.1656   -4.2135   21.0975 F   0  0  0  0  0  0
  -21.5624   -3.4542   25.7736 F   0  0  0  0  0  0
  -29.9745  -13.5404   20.3725 N   0  0  0  0  0  0
  -26.2908  -12.9410   20.3281 N   0  0  0  0  0  0
  -25.9307  -11.6552   20.5778 N   0  0  0  0  0  0
  -22.0451  -12.8241   22.0420 N   0  0  0  0  0  0
  -25.4225  -15.1931   20.4139 N   0  0  0  0  0  0
  -31.8344  -14.8007   20.2264 O   0  0  0  0  0  0
  -21.6643   -6.8878   21.4237 O   0  0  0  0  0  0
  -22.3484  -14.5532   20.6691 O   0  0  0  0  0  0
  -24.6323  -31.8546   23.1968 C   0  0  0  0  0  0
  -25.9149  -32.4748   23.8314 C   0  0  1  0  0  0
  -27.2137  -27.2549   20.1395 C   0  0  0  0  0  0
  -25.5944  -33.8551   24.2249 N   0  0  0  0  0  0
  -23.4294  -30.4763   21.5410 C   0  0  2  0  0  0
  -24.8766  -28.9213   20.1090 C   0  0  0  0  0  0
  -22.7513  -29.4601   22.4918 C   0  0  0  0  0  0
  -18.0305  -28.1397   22.8482 C   0  0  0  0  0  0
  -24.1489  -36.7279   23.2636 C   0  0  0  0  0  0
  -25.9750  -30.7649   21.3770 C   0  0  0  0  0  0
  -26.0485  -29.3871   20.7202 C   0  0  0  0  0  0
  -27.2238  -28.5678   20.7213 C   0  0  0  0  0  0
  -26.0264  -26.8617   19.4870 C   0  0  0  0  0  0
  -24.8709  -27.6676   19.4777 C   0  0  0  0  0  0
  -23.6471  -29.8086   20.1574 C   0  0  0  0  0  0
  -25.4114  -36.3064   24.0322 C   0  0  1  0  0  0
  -20.5911  -28.3705   23.1282 C   0  0  2  0  0  0
  -20.6793  -26.9433   22.5407 C   0  0  0  0  0  0
  -19.5774  -26.6417   21.5200 C   0  0  0  0  0  0
  -18.1950  -26.7955   22.1591 C   0  0  0  0  0  0
  -19.1558  -28.8861   23.2885 C   0  0  0  0  0  0
  -18.9483  -30.1463   23.8914 C   0  0  0  0  0  0
  -17.6490  -30.6595   24.0577 C   0  0  0  0  0  0
  -25.9059  -34.9440   23.5091 C   0  0  0  0  0  0
  -16.5382  -29.9099   23.6331 C   0  0  0  0  0  0
  -16.7290  -28.6509   23.0347 C   0  0  0  0  0  0
  -26.4513  -31.6573   25.0707 C   0  0  0  0  0  0
  -25.3724  -31.3736   26.1416 C   0  0  0  0  0  0
  -27.0364  -30.2987   24.6208 C   0  0  0  0  0  0
  -27.6067  -32.4309   25.7477 C   0  0  0  0  0  0
  -27.5577  -37.1794   24.8466 C   0  0  0  0  0  0
  -21.4213  -29.3065   22.3681 N   0  0  0  0  0  0
  -26.4291  -37.3761   23.9405 N   0  0  0  0  0  0
  -24.6983  -31.0503   22.0946 N   0  0  0  0  0  0
  -23.4208  -28.8144   23.3020 O   0  0  0  0  0  0
  -28.2958  -26.3460   20.1674 O   0  0  0  0  0  0
  -26.5632  -34.8923   22.4662 O   0  0  0  0  0  0
  -23.5475  -32.1377   23.7262 O   0  0  0  0  0  0
  -29.1048  -18.3137   23.0174 C   0  0  0  0  0  0
  -29.4184  -17.0849   22.3886 C   0  0  0  0  0  0
  -29.0025  -19.5321   22.2949 C   0  0  0  0  0  0
  -29.5139  -18.3125   20.2874 C   0  0  0  0  0  0
  -29.6226  -17.0758   20.9987 C   0  0  0  0  0  0
  -29.2187  -19.6056   20.8951 C   0  0  0  0  0  0
  -29.7401  -18.0032   18.8335 C   0  0  0  0  0  0
  -29.8779  -16.4439   18.7774 C   0  0  0  0  0  0
  -28.7954  -23.6149   20.0572 C   0  0  0  0  0  0
  -28.5886  -22.1821   20.8042 C   0  0  0  0  0  0
  -28.0414  -24.9344   20.6400 C   0  0  0  0  0  0
  -29.8597  -15.9047   20.1585 N   0  0  0  0  0  0
  -29.1464  -20.8906   20.2144 N   0  0  0  0  0  0
  -31.4654  -12.5769   19.1647 H   0  0  0  0  0  0
  -30.3675  -11.4913   19.9783 H   0  0  0  0  0  0
  -29.7866  -11.6973   17.5341 H   0  0  0  0  0  0
  -29.6255  -13.4286   17.6990 H   0  0  0  0  0  0
  -27.8942  -11.2696   18.9387 H   0  0  0  0  0  0
  -27.3681  -12.4859   17.8043 H   0  0  0  0  0  0
  -27.6162  -14.2448   19.4386 H   0  0  0  0  0  0
  -28.7194  -12.2284   21.4535 H   0  0  0  0  0  0
  -28.4238  -13.9286   21.7498 H   0  0  0  0  0  0
  -25.2756   -9.5693   22.4761 H   0  0  0  0  0  0
  -23.9987   -7.4652   22.7485 H   0  0  0  0  0  0
  -21.0828   -8.8782   19.8966 H   0  0  0  0  0  0
  -22.3674  -10.9682   19.6173 H   0  0  0  0  0  0
  -21.2017   -7.6147   23.9701 H   0  0  0  0  0  0
  -21.1478   -6.0529   25.9071 H   0  0  0  0  0  0
  -22.0595   -2.7603   23.2851 H   0  0  0  0  0  0
  -22.4086  -11.9926   22.4840 H   0  0  0  0  0  0
  -21.1068  -13.1274   22.2616 H   0  0  0  0  0  0
  -24.6674  -15.8563   20.5478 H   0  0  0  0  0  0
  -26.2904  -15.6316   20.1332 H   0  0  0  0  0  0
  -26.7216  -32.5397   23.1053 H   0  0  0  0  0  0
  -25.0097  -33.9674   25.0400 H   0  0  0  0  0  0
  -22.7265  -31.2986   21.3950 H   0  0  0  0  0  0
  -23.3749  -35.9612   23.3297 H   0  0  0  0  0  0
  -24.3589  -36.8906   22.2053 H   0  0  0  0  0  0
  -23.7246  -37.6483   23.6661 H   0  0  0  0  0  0
  -26.1160  -31.5242   20.6066 H   0  0  0  0  0  0
  -26.8511  -30.8140   22.0119 H   0  0  0  0  0  0
  -28.1224  -28.9178   21.2109 H   0  0  0  0  0  0
  -25.9806  -25.9036   18.9888 H   0  0  0  0  0  0
  -23.9776  -27.3107   18.9822 H   0  0  0  0  0  0
  -23.7706  -30.5840   19.4002 H   0  0  0  0  0  0
  -22.7657  -29.2411   19.8529 H   0  0  0  0  0  0
  -25.1294  -36.1914   25.0812 H   0  0  0  0  0  0
  -21.0009  -28.3276   24.1396 H   0  0  0  0  0  0
  -20.5703  -26.2318   23.3602 H   0  0  0  0  0  0
  -21.6659  -26.7472   22.1193 H   0  0  0  0  0  0
  -19.6933  -25.6346   21.1196 H   0  0  0  0  0  0
  -19.6742  -27.3258   20.6759 H   0  0  0  0  0  0
  -17.4232  -26.6735   21.3970 H   0  0  0  0  0  0
  -18.0332  -26.0079   22.8948 H   0  0  0  0  0  0
  -19.7965  -30.7275   24.2286 H   0  0  0  0  0  0
  -17.5052  -31.6263   24.5202 H   0  0  0  0  0  0
  -15.5383  -30.3002   23.7665 H   0  0  0  0  0  0
  -15.8687  -28.0835   22.7062 H   0  0  0  0  0  0
  -24.5898  -30.7088   25.7735 H   0  0  0  0  0  0
  -24.8907  -32.2910   26.4808 H   0  0  0  0  0  0
  -25.8020  -30.8928   27.0211 H   0  0  0  0  0  0
  -26.2951  -29.6722   24.1229 H   0  0  0  0  0  0
  -27.4042  -29.7268   25.4737 H   0  0  0  0  0  0
  -27.8835  -30.4256   23.9460 H   0  0  0  0  0  0
  -27.2677  -33.3610   26.2049 H   0  0  0  0  0  0
  -28.3878  -32.6861   25.0302 H   0  0  0  0  0  0
  -28.0732  -31.8432   26.5395 H   0  0  0  0  0  0
  -28.2595  -38.0089   24.7507 H   0  0  0  0  0  0
  -28.1073  -36.2623   24.6295 H   0  0  0  0  0  0
  -27.2302  -37.1451   25.8872 H   0  0  0  0  0  0
  -20.9410  -29.8823   21.6917 H   0  0  0  0  0  0
  -26.0174  -38.2841   24.1394 H   0  0  0  0  0  0
  -28.9289  -18.3270   24.0840 H   0  0  0  0  0  0
  -29.4685  -16.1742   22.9676 H   0  0  0  0  0  0
  -28.7567  -20.4189   22.8593 H   0  0  0  0  0  0
  -30.6489  -18.4985   18.4913 H   0  0  0  0  0  0
  -28.9056  -18.3619   18.2300 H   0  0  0  0  0  0
  -30.7786  -16.1621   18.2289 H   0  0  0  0  0  0
  -29.0342  -16.0159   18.2347 H   0  0  0  0  0  0
  -28.5029  -23.5032   19.0123 H   0  0  0  0  0  0
  -29.8636  -23.8284   20.0374 H   0  0  0  0  0  0
  -27.5154  -22.0266   20.9278 H   0  0  0  0  0  0
  -28.9833  -22.2974   21.8145 H   0  0  0  0  0  0
  -28.2556  -24.9643   21.7092 H   0  0  0  0  0  0
  -26.9751  -24.7163   20.5977 H   0  0  0  0  0  0
  -29.3467  -20.8978   19.2164 H   0  0  0  0  0  0
  1 25  1  0  0  0
  1 30  2  0  0  0
  1 82  1  0  0  0
  2  3  1  0  0  0
  2 25  1  0  0  0
  2 84  1  0  0  0
  2 85  1  0  0  0
  3  4  1  0  0  0
  3 86  1  0  0  0
  3 87  1  0  0  0
  4  5  1  0  0  0
  4 88  1  0  0  0
  4 89  1  0  0  0
  5  6  1  0  0  0
  5 26  1  0  0  0
  5 90  1  0  0  0
  6 25  1  0  0  0
  6 91  1  0  0  0
  6 92  1  0  0  0
  7  8  2  0  0  0
  7 26  1  0  0  0
  7 29  1  0  0  0
  8  9  1  0  0  0
  8 22  1  0  0  0
  9 10  1  0  0  0
  9 27  2  0  0  0
 10 11  2  0  0  0
 10 15  1  0  0  0
 11 12  1  0  0  0
 11 93  1  0  0  0
 12 13  2  0  0  0
 12 94  1  0  0  0
 13 14  1  0  0  0
 13 31  1  0  0  0
 14 15  2  0  0  0
 14 95  1  0  0  0
 15 96  1  0  0  0
 16 17  2  0  0  0
 16 21  1  0  0  0
 16 31  1  0  0  0
 17 18  1  0  0  0
 17 97  1  0  0  0
 18 19  2  0  0  0
 18 98  1  0  0  0
 19 20  1  0  0  0
 19 24  1  0  0  0
 20 21  2  0  0  0
 20 99  1  0  0  0
 21 23  1  0  0  0
 22 28  1  0  0  0
 22 32  2  0  0  0
 26 27  1  0  0  0
 28100  1  0  0  0
 28101  1  0  0  0
 29102  1  0  0  0
 29103  1  0  0  0
 33 34  1  0  0  0
 33 66  1  0  0  0
 33 70  2  0  0  0
 34 36  1  0  0  0
 34 59  1  0  0  0
 34104  1  0  0  0
 35 44  2  0  0  0
 35 45  1  0  0  0
 35 68  1  0  0  0
 36 56  1  0  0  0
 36105  1  0  0  0
 37 39  1  0  0  0
 37 47  1  0  0  0
 37 66  1  0  0  0
 37106  1  0  0  0
 38 43  2  0  0  0
 38 46  1  0  0  0
 38 47  1  0  0  0
 39 64  1  0  0  0
 39 67  2  0  0  0
 40 52  1  0  0  0
 40 53  2  0  0  0
 40 58  1  0  0  0
 41107  1  0  0  0
 41108  1  0  0  0
 41109  1  0  0  0
 41 48  1  0  0  0
 42 43  1  0  0  0
 42 66  1  0  0  0
 42110  1  0  0  0
 42111  1  0  0  0
 43 44  1  0  0  0
 44112  1  0  0  0
 45 46  2  0  0  0
 45113  1  0  0  0
 46114  1  0  0  0
 47115  1  0  0  0
 47116  1  0  0  0
 48 56  1  0  0  0
 48 65  1  0  0  0
 48117  1  0  0  0
 49 50  1  0  0  0
 49 53  1  0  0  0
 49 64  1  0  0  0
 49118  1  0  0  0
 50 51  1  0  0  0
 50119  1  0  0  0
 50120  1  0  0  0
 51 52  1  0  0  0
 51121  1  0  0  0
 51122  1  0  0  0
 52123  1  0  0  0
 52124  1  0  0  0
 53 54  1  0  0  0
 54 55  2  0  0  0
 54125  1  0  0  0
 55 57  1  0  0  0
 55126  1  0  0  0
 56 69  2  0  0  0
 57 58  2  0  0  0
 57127  1  0  0  0
 58128  1  0  0  0
 59 60  1  0  0  0
 59 61  1  0  0  0
 59 62  1  0  0  0
 60129  1  0  0  0
 60130  1  0  0  0
 60131  1  0  0  0
 61132  1  0  0  0
 61133  1  0  0  0
 61134  1  0  0  0
 62135  1  0  0  0
 62136  1  0  0  0
 62137  1  0  0  0
 63 65  1  0  0  0
 63138  1  0  0  0
 63139  1  0  0  0
 63140  1  0  0  0
 64141  1  0  0  0
 65142  1  0  0  0
 68 81  1  0  0  0
 71 72  2  0  0  0
 71 73  1  0  0  0
 71143  1  0  0  0
 72 75  1  0  0  0
 72144  1  0  0  0
 73 76  2  0  0  0
 73145  1  0  0  0
 74 75  2  0  0  0
 74 76  1  0  0  0
 74 77  1  0  0  0
 75 82  1  0  0  0
 76 83  1  0  0  0
 77 78  1  0  0  0
 77146  1  0  0  0
 77147  1  0  0  0
 78 82  1  0  0  0
 78148  1  0  0  0
 78149  1  0  0  0
 79 80  1  0  0  0
 79 81  1  0  0  0
 79150  1  0  0  0
 79151  1  0  0  0
 80 83  1  0  0  0
 80152  1  0  0  0
 80153  1  0  0  0
 81154  1  0  0  0
 81155  1  0  0  0
 83156  1  0  0  0
M  ISO  4   1 100  68 101  81 101  82 100
M  END
> <chiral flag>
0

> <version>
0

> <s_m_source_file>
/data/baiqing/PycharmProjects/Reinvent-master-3.2/result/LINK_invent/BTK/process_docking_weight1_custom_product_contain_oxygen_bond_distance_aromatic_linkinvent_7_9_3/rearranged_h_0011.sdf

> <i_m_source_file_index>
50

> <r_mmod_Potential_Energy-OPLS-2005>
394.981689453125

> <r_mmod_Stretch_Energy-OPLS-2005>
122.17359161377

> <r_mmod_Bend_Energy-OPLS-2005>
222.308471679688

> <r_mmod_Torsional_Energy-OPLS-2005>
299.368316650391

> <r_mmod_Improper_Torsional_Energy-OPLS-2005>
20.6238384246826

> <r_mmod_Van_der_Waal_Energy-OPLS-2005>
127.105224609375

> <r_mmod_Electrostatic_Energy-OPLS-2005>
-285.675811767578

> <r_mmod_Solvation_Energy-OPLS-2005>
-206.929534912109

> <b_mmod_Minimization_Converged-OPLS-2005>
0

> <r_mmod_RMS_Derivative-OPLS-2005>
1.80987417697906

$$$$
50
                    3D
 Structure written by MMmdl.
163171  0  0  1  0            999 V2000
  -30.7192  -14.3851   20.6300 C   0  0  0  0  0  0
  -30.4252  -12.2648   19.4140 C   0  0  0  0  0  0
  -29.5013  -12.5116   18.2047 C   0  0  0  0  0  0
  -28.0201  -12.3742   18.6115 C   0  0  0  0  0  0
  -27.6723  -13.1948   19.8822 C   0  0  2  0  0  0
  -28.7044  -12.9197   21.0000 C   0  0  0  0  0  0
  -25.2638  -13.8139   20.5670 C   0  0  0  0  0  0
  -24.1854  -13.0437   20.9140 C   0  0  0  0  0  0
  -24.6383  -11.6896   20.8689 C   0  0  0  0  0  0
  -23.9045  -10.4285   21.0367 C   0  0  0  0  0  0
  -24.3594   -9.4208   21.9155 C   0  0  0  0  0  0
  -23.6272   -8.2246   22.0741 C   0  0  0  0  0  0
  -22.4254   -8.0274   21.3535 C   0  0  0  0  0  0
  -21.9881   -9.0241   20.4633 C   0  0  0  0  0  0
  -22.7211  -10.2125   20.3029 C   0  0  0  0  0  0
  -21.6852   -6.0723   22.5278 C   0  0  0  0  0  0
  -21.4015   -6.5627   23.8209 C   0  0  0  0  0  0
  -21.3664   -5.6781   24.9171 C   0  0  0  0  0  0
  -21.6047   -4.3042   24.7223 C   0  0  0  0  0  0
  -21.8817   -3.8133   23.4344 C   0  0  0  0  0  0
  -21.9191   -4.6951   22.3399 C   0  0  0  0  0  0
  -22.7883  -13.5251   21.1822 C   0  0  0  0  0  0
  -22.1660   -4.2137   21.0977 F   0  0  0  0  0  0
  -21.5626   -3.4527   25.7734 F   0  0  0  0  0  0
  -30.0542  -13.2111   20.4749 N   0  0  0  0  0  0
  -26.3070  -12.9288   20.3348 N   0  0  0  0  0  0
  -25.9305  -11.6457   20.5712 N   0  0  0  0  0  0
  -22.0523  -12.8249   22.0383 N   0  0  0  0  0  0
  -25.4392  -15.1857   20.4134 N   0  0  0  0  0  0
  -31.7729  -14.6623   20.0466 O   0  0  0  0  0  0
  -21.6634   -6.8863   21.4236 O   0  0  0  0  0  0
  -22.3577  -14.5569   20.6683 O   0  0  0  0  0  0
  -24.6123  -31.8724   23.2171 C   0  0  0  0  0  0
  -25.9036  -32.4849   23.8438 C   0  0  1  0  0  0
  -27.2331  -27.4666   20.0686 C   0  0  0  0  0  0
  -25.5909  -33.8642   24.2367 N   0  0  0  0  0  0
  -23.3971  -30.4991   21.5582 C   0  0  2  0  0  0
  -24.8406  -28.9762   20.1149 C   0  0  0  0  0  0
  -22.7401  -29.4681   22.5034 C   0  0  0  0  0  0
  -18.0304  -28.1334   22.8473 C   0  0  0  0  0  0
  -24.1494  -36.7330   23.2632 C   0  0  0  0  0  0
  -25.9260  -30.8434   21.3694 C   0  0  0  0  0  0
  -26.0008  -29.4819   20.7131 C   0  0  0  0  0  0
  -27.1957  -28.7300   20.6976 C   0  0  0  0  0  0
  -26.0537  -26.9855   19.4492 C   0  0  0  0  0  0
  -24.8598  -27.7227   19.4860 C   0  0  0  0  0  0
  -23.6023  -29.8394   20.1703 C   0  0  0  0  0  0
  -25.4111  -36.3130   24.0343 C   0  0  1  0  0  0
  -20.5884  -28.3635   23.1361 C   0  0  2  0  0  0
  -20.6835  -26.9411   22.5363 C   0  0  0  0  0  0
  -19.5832  -26.6448   21.5131 C   0  0  0  0  0  0
  -18.1978  -26.7947   22.1468 C   0  0  0  0  0  0
  -19.1535  -28.8774   23.2939 C   0  0  0  0  0  0
  -18.9455  -30.1359   23.8989 C   0  0  0  0  0  0
  -17.6467  -30.6522   24.0602 C   0  0  0  0  0  0
  -25.9035  -34.9490   23.5150 C   0  0  0  0  0  0
  -16.5364  -29.9041   23.6315 C   0  0  0  0  0  0
  -16.7291  -28.6469   23.0319 C   0  0  0  0  0  0
  -26.4470  -31.6615   25.0753 C   0  0  0  0  0  0
  -25.3748  -31.3715   26.1516 C   0  0  0  0  0  0
  -27.0297  -30.3069   24.6097 C   0  0  0  0  0  0
  -27.6062  -32.4323   25.7503 C   0  0  0  0  0  0
  -27.5589  -37.1819   24.8461 C   0  0  0  0  0  0
  -21.4122  -29.3071   22.3825 N   0  0  0  0  0  0
  -26.4303  -37.3809   23.9396 N   0  0  0  0  0  0
  -24.6634  -31.0846   22.1066 N   0  0  0  0  0  0
  -23.4199  -28.8159   23.2999 O   0  0  0  0  0  0
  -28.4175  -26.7545   20.0975 O   0  0  0  0  0  0
  -26.5580  -34.8921   22.4703 O   0  0  0  0  0  0
  -23.5327  -32.1469   23.7585 O   0  0  0  0  0  0
  -27.9224  -18.2555   21.5713 C   0  0  0  0  0  0
  -28.7170  -18.0151   19.2883 C   0  0  0  0  0  0
  -28.7033  -17.1520   21.9613 C   0  0  0  0  0  0
  -29.5096  -16.9178   19.6766 C   0  0  0  0  0  0
  -27.8974  -18.6794   20.2234 C   0  0  0  0  0  0
  -29.4809  -16.4560   21.0154 C   0  0  0  0  0  0
  -27.0160  -19.7592   19.7514 C   0  0  0  0  0  0
  -26.1301  -20.4403   20.5003 C   0  0  0  0  0  0
  -24.4673  -23.7876   20.5314 C   0  0  0  0  0  0
  -25.2162  -21.5264   19.9718 C   0  0  0  0  0  0
  -27.5803  -24.4695   20.5502 C   0  0  0  0  0  0
  -26.7951  -23.4057   19.7518 C   0  0  0  0  0  0
  -28.4213  -25.3991   19.6413 C   0  0  0  0  0  0
  -30.1225  -15.2639   21.4435 N   0  0  0  0  0  0
  -25.6229  -22.8541   20.4886 N   0  3  1  0  0  0
  -31.4736  -12.3534   19.1226 H   0  0  0  0  0  0
  -30.3072  -11.2423   19.7762 H   0  0  0  0  0  0
  -29.7337  -11.8048   17.4070 H   0  0  0  0  0  0
  -29.6848  -13.5078   17.7967 H   0  0  0  0  0  0
  -27.8215  -11.3164   18.7931 H   0  0  0  0  0  0
  -27.3737  -12.6636   17.7819 H   0  0  0  0  0  0
  -27.7373  -14.2498   19.6149 H   0  0  0  0  0  0
  -28.6580  -11.8720   21.2993 H   0  0  0  0  0  0
  -28.4533  -13.4801   21.9008 H   0  0  0  0  0  0
  -25.2736   -9.5696   22.4732 H   0  0  0  0  0  0
  -23.9976   -7.4642   22.7474 H   0  0  0  0  0  0
  -21.0805   -8.8757   19.8949 H   0  0  0  0  0  0
  -22.3651  -10.9656   19.6134 H   0  0  0  0  0  0
  -21.2015   -7.6135   23.9714 H   0  0  0  0  0  0
  -21.1488   -6.0505   25.9076 H   0  0  0  0  0  0
  -22.0595   -2.7598   23.2847 H   0  0  0  0  0  0
  -22.4127  -11.9903   22.4771 H   0  0  0  0  0  0
  -21.1141  -13.1285   22.2574 H   0  0  0  0  0  0
  -24.6817  -15.8455   20.5468 H   0  0  0  0  0  0
  -26.3118  -15.6310   20.1558 H   0  0  0  0  0  0
  -26.7114  -32.5563   23.1204 H   0  0  0  0  0  0
  -25.0095  -33.9816   25.0537 H   0  0  0  0  0  0
  -22.6858  -31.3161   21.4259 H   0  0  0  0  0  0
  -23.3754  -35.9672   23.3312 H   0  0  0  0  0  0
  -24.3580  -36.8916   22.2041 H   0  0  0  0  0  0
  -23.7256  -37.6543   23.6632 H   0  0  0  0  0  0
  -26.0379  -31.6119   20.6035 H   0  0  0  0  0  0
  -26.8154  -30.8944   21.9846 H   0  0  0  0  0  0
  -28.0892  -29.1114   21.1727 H   0  0  0  0  0  0
  -26.0221  -26.0444   18.9279 H   0  0  0  0  0  0
  -23.9692  -27.3279   19.0180 H   0  0  0  0  0  0
  -23.7072  -30.6184   19.4145 H   0  0  0  0  0  0
  -22.7269  -29.2587   19.8739 H   0  0  0  0  0  0
  -25.1280  -36.2016   25.0840 H   0  0  0  0  0  0
  -20.9971  -28.3141   24.1481 H   0  0  0  0  0  0
  -20.5789  -26.2196   23.3476 H   0  0  0  0  0  0
  -21.6701  -26.7571   22.1094 H   0  0  0  0  0  0
  -19.7005  -25.6397   21.1075 H   0  0  0  0  0  0
  -19.6810  -27.3336   20.6727 H   0  0  0  0  0  0
  -17.4352  -26.6873   21.3742 H   0  0  0  0  0  0
  -18.0265  -25.9934   22.8664 H   0  0  0  0  0  0
  -19.7934  -30.7119   24.2435 H   0  0  0  0  0  0
  -17.5011  -31.6201   24.5218 H   0  0  0  0  0  0
  -15.5372  -30.2960   23.7612 H   0  0  0  0  0  0
  -15.8691  -28.0837   22.6959 H   0  0  0  0  0  0
  -24.5911  -30.7071   25.7853 H   0  0  0  0  0  0
  -24.8952  -32.2871   26.4993 H   0  0  0  0  0  0
  -25.8101  -30.8863   27.0263 H   0  0  0  0  0  0
  -26.2835  -29.6846   24.1144 H   0  0  0  0  0  0
  -27.4081  -29.7280   25.4530 H   0  0  0  0  0  0
  -27.8666  -30.4403   23.9237 H   0  0  0  0  0  0
  -27.2695  -33.3602   26.2140 H   0  0  0  0  0  0
  -28.3836  -32.6913   25.0302 H   0  0  0  0  0  0
  -28.0787  -31.8420   26.5365 H   0  0  0  0  0  0
  -28.2613  -38.0110   24.7495 H   0  0  0  0  0  0
  -28.1072  -36.2631   24.6305 H   0  0  0  0  0  0
  -27.2292  -37.1496   25.8862 H   0  0  0  0  0  0
  -20.9236  -29.8932   21.7199 H   0  0  0  0  0  0
  -26.0204  -38.2894   24.1390 H   0  0  0  0  0  0
  -27.3254  -18.7447   22.3247 H   0  0  0  0  0  0
  -28.7192  -18.3273   18.2532 H   0  0  0  0  0  0
  -28.6706  -16.8270   22.9912 H   0  0  0  0  0  0
  -30.0945  -16.4194   18.9174 H   0  0  0  0  0  0
  -27.0969  -20.0064   18.7016 H   0  0  0  0  0  0
  -26.0195  -20.2301   21.5530 H   0  0  0  0  0  0
  -23.6623  -23.3845   21.1476 H   0  0  0  0  0  0
  -24.0660  -23.9587   19.5314 H   0  0  0  0  0  0
  -24.7306  -24.7544   20.9564 H   0  0  0  0  0  0
  -24.2052  -21.2765   20.2963 H   0  0  0  0  0  0
  -25.1967  -21.5311   18.8809 H   0  0  0  0  0  0
  -28.2289  -23.9824   21.2789 H   0  0  0  0  0  0
  -26.9026  -25.0676   21.1551 H   0  0  0  0  0  0
  -27.4926  -22.6089   19.4889 H   0  0  0  0  0  0
  -26.4419  -23.8041   18.8001 H   0  0  0  0  0  0
  -28.1058  -25.3660   18.5975 H   0  0  0  0  0  0
  -29.4542  -25.0489   19.6349 H   0  0  0  0  0  0
  -29.6534  -14.8227   22.2208 H   0  0  0  0  0  0
  -25.9099  -22.7055   21.4451 H   0  0  0  0  0  0
  1 25  1  0  0  0
  1 30  2  0  0  0
  1 84  1  0  0  0
  2  3  1  0  0  0
  2 25  1  0  0  0
  2 86  1  0  0  0
  2 87  1  0  0  0
  3  4  1  0  0  0
  3 88  1  0  0  0
  3 89  1  0  0  0
  4  5  1  0  0  0
  4 90  1  0  0  0
  4 91  1  0  0  0
  5  6  1  0  0  0
  5 26  1  0  0  0
  5 92  1  0  0  0
  6 25  1  0  0  0
  6 93  1  0  0  0
  6 94  1  0  0  0
  7  8  2  0  0  0
  7 26  1  0  0  0
  7 29  1  0  0  0
  8  9  1  0  0  0
  8 22  1  0  0  0
  9 10  1  0  0  0
  9 27  2  0  0  0
 10 11  2  0  0  0
 10 15  1  0  0  0
 11 12  1  0  0  0
 11 95  1  0  0  0
 12 13  2  0  0  0
 12 96  1  0  0  0
 13 14  1  0  0  0
 13 31  1  0  0  0
 14 15  2  0  0  0
 14 97  1  0  0  0
 15 98  1  0  0  0
 16 17  2  0  0  0
 16 21  1  0  0  0
 16 31  1  0  0  0
 17 18  1  0  0  0
 17 99  1  0  0  0
 18 19  2  0  0  0
 18100  1  0  0  0
 19 20  1  0  0  0
 19 24  1  0  0  0
 20 21  2  0  0  0
 20101  1  0  0  0
 21 23  1  0  0  0
 22 28  1  0  0  0
 22 32  2  0  0  0
 26 27  1  0  0  0
 28102  1  0  0  0
 28103  1  0  0  0
 29104  1  0  0  0
 29105  1  0  0  0
 33 34  1  0  0  0
 33 66  1  0  0  0
 33 70  2  0  0  0
 34 36  1  0  0  0
 34 59  1  0  0  0
 34106  1  0  0  0
 35 44  2  0  0  0
 35 45  1  0  0  0
 35 68  1  0  0  0
 36 56  1  0  0  0
 36107  1  0  0  0
 37 39  1  0  0  0
 37 47  1  0  0  0
 37 66  1  0  0  0
 37108  1  0  0  0
 38 43  2  0  0  0
 38 46  1  0  0  0
 38 47  1  0  0  0
 39 64  1  0  0  0
 39 67  2  0  0  0
 40 52  1  0  0  0
 40 53  2  0  0  0
 40 58  1  0  0  0
 41109  1  0  0  0
 41110  1  0  0  0
 41111  1  0  0  0
 41 48  1  0  0  0
 42 43  1  0  0  0
 42 66  1  0  0  0
 42112  1  0  0  0
 42113  1  0  0  0
 43 44  1  0  0  0
 44114  1  0  0  0
 45 46  2  0  0  0
 45115  1  0  0  0
 46116  1  0  0  0
 47117  1  0  0  0
 47118  1  0  0  0
 48 56  1  0  0  0
 48 65  1  0  0  0
 48119  1  0  0  0
 49 50  1  0  0  0
 49 53  1  0  0  0
 49 64  1  0  0  0
 49120  1  0  0  0
 50 51  1  0  0  0
 50121  1  0  0  0
 50122  1  0  0  0
 51 52  1  0  0  0
 51123  1  0  0  0
 51124  1  0  0  0
 52125  1  0  0  0
 52126  1  0  0  0
 53 54  1  0  0  0
 54 55  2  0  0  0
 54127  1  0  0  0
 55 57  1  0  0  0
 55128  1  0  0  0
 56 69  2  0  0  0
 57 58  2  0  0  0
 57129  1  0  0  0
 58130  1  0  0  0
 59 60  1  0  0  0
 59 61  1  0  0  0
 59 62  1  0  0  0
 60131  1  0  0  0
 60132  1  0  0  0
 60133  1  0  0  0
 61134  1  0  0  0
 61135  1  0  0  0
 61136  1  0  0  0
 62137  1  0  0  0
 62138  1  0  0  0
 62139  1  0  0  0
 63 65  1  0  0  0
 63140  1  0  0  0
 63141  1  0  0  0
 63142  1  0  0  0
 64143  1  0  0  0
 65144  1  0  0  0
 68 83  1  0  0  0
 71 73  2  0  0  0
 71 75  1  0  0  0
 71145  1  0  0  0
 72 74  1  0  0  0
 72 75  2  0  0  0
 72146  1  0  0  0
 73 76  1  0  0  0
 73147  1  0  0  0
 74 76  2  0  0  0
 74148  1  0  0  0
 75 77  1  0  0  0
 76 84  1  0  0  0
 77 78  2  0  0  0
 77149  1  0  0  0
 78 80  1  0  0  0
 78150  1  0  0  0
 79151  1  0  0  0
 79152  1  0  0  0
 79153  1  0  0  0
 79 85  1  0  0  0
 80 85  1  0  0  0
 80154  1  0  0  0
 80155  1  0  0  0
 81 82  1  0  0  0
 81 83  1  0  0  0
 81156  1  0  0  0
 81157  1  0  0  0
 82 85  1  0  0  0
 82158  1  0  0  0
 82159  1  0  0  0
 83160  1  0  0  0
 83161  1  0  0  0
 84162  1  0  0  0
 85163  1  0  0  0
M  CHG  1  85   1
M  ISO  4   1 100  68 101  83 101  84 100
M  END
> <chiral flag>
0

> <version>
0

> <s_m_source_file>
/data/baiqing/PycharmProjects/Reinvent-master-3.2/result/LINK_invent/BTK/process_docking_weight1_custom_product_contain_oxygen_bond_distance_aromatic_linkinvent_7_9_3/rearranged_h_0011.sdf

> <i_m_source_file_index>
51

> <r_mmod_Potential_Energy-OPLS-2005>
-154.810455322266

> <r_mmod_Stretch_Energy-OPLS-2005>
33.7255020141602

> <r_mmod_Bend_Energy-OPLS-2005>
98.1935806274414

> <r_mmod_Torsional_Energy-OPLS-2005>
241.309188842773

> <r_mmod_Improper_Torsional_Energy-OPLS-2005>
5.4062671661377

> <r_mmod_Van_der_Waal_Energy-OPLS-2005>
159.668914794922

> <r_mmod_Electrostatic_Energy-OPLS-2005>
-257.695587158203

> <r_mmod_Solvation_Energy-OPLS-2005>
-444.424835205078

> <b_mmod_Minimization_Converged-OPLS-2005>
0

> <r_mmod_RMS_Derivative-OPLS-2005>
1.99751758575439

$$$$
51
                    3D
 Structure written by MMmdl.
153162  0  0  1  0            999 V2000
  -30.5011  -14.9501   20.4203 C   0  0  0  0  0  0
  -30.4530  -12.5884   19.4893 C   0  0  0  0  0  0
  -29.5251  -12.5277   18.2517 C   0  0  0  0  0  0
  -28.0575  -12.3110   18.6714 C   0  0  0  0  0  0
  -27.6331  -13.2385   19.8397 C   0  0  2  0  0  0
  -28.6776  -13.2460   20.9761 C   0  0  0  0  0  0
  -25.2477  -13.8187   20.5677 C   0  0  0  0  0  0
  -24.1791  -13.0427   20.9230 C   0  0  0  0  0  0
  -24.6398  -11.6911   20.8769 C   0  0  0  0  0  0
  -23.9076  -10.4287   21.0422 C   0  0  0  0  0  0
  -24.3628   -9.4201   21.9197 C   0  0  0  0  0  0
  -23.6300   -8.2239   22.0761 C   0  0  0  0  0  0
  -22.4281   -8.0283   21.3548 C   0  0  0  0  0  0
  -21.9920   -9.0255   20.4648 C   0  0  0  0  0  0
  -22.7253  -10.2132   20.3065 C   0  0  0  0  0  0
  -21.6850   -6.0743   22.5281 C   0  0  0  0  0  0
  -21.4010   -6.5646   23.8215 C   0  0  0  0  0  0
  -21.3659   -5.6795   24.9173 C   0  0  0  0  0  0
  -21.6042   -4.3058   24.7219 C   0  0  0  0  0  0
  -21.8820   -3.8151   23.4342 C   0  0  0  0  0  0
  -21.9191   -4.6971   22.3401 C   0  0  0  0  0  0
  -22.7810  -13.5208   21.1884 C   0  0  0  0  0  0
  -22.1661   -4.2158   21.0980 F   0  0  0  0  0  0
  -21.5629   -3.4540   25.7732 F   0  0  0  0  0  0
  -29.9521  -13.6702   20.3811 N   0  0  0  0  0  0
  -26.2901  -12.9402   20.3235 N   0  0  0  0  0  0
  -25.9327  -11.6542   20.5746 N   0  0  0  0  0  0
  -22.0455  -12.8198   22.0431 N   0  0  0  0  0  0
  -25.4114  -15.1914   20.4036 N   0  0  0  0  0  0
  -31.7072  -15.0665   20.1732 O   0  0  0  0  0  0
  -21.6642   -6.8885   21.4244 O   0  0  0  0  0  0
  -22.3504  -14.5521   20.6734 O   0  0  0  0  0  0
  -24.6432  -31.8435   23.1855 C   0  0  0  0  0  0
  -25.9197  -32.4696   23.8254 C   0  0  1  0  0  0
  -27.2229  -27.1404   20.1613 C   0  0  0  0  0  0
  -25.5949  -33.8501   24.2183 N   0  0  0  0  0  0
  -23.4469  -30.4603   21.5316 C   0  0  2  0  0  0
  -24.8964  -28.8774   20.1176 C   0  0  0  0  0  0
  -22.7559  -29.4548   22.4862 C   0  0  0  0  0  0
  -18.0299  -28.1400   22.8484 C   0  0  0  0  0  0
  -24.1489  -36.7251   23.2640 C   0  0  0  0  0  0
  -26.0008  -30.7199   21.3795 C   0  0  0  0  0  0
  -26.0737  -29.3282   20.7284 C   0  0  0  0  0  0
  -27.2411  -28.4780   20.7251 C   0  0  0  0  0  0
  -26.0180  -26.7780   19.5255 C   0  0  0  0  0  0
  -24.8797  -27.6154   19.5013 C   0  0  0  0  0  0
  -23.6729  -29.7806   20.1544 C   0  0  0  0  0  0
  -25.4120  -36.3033   24.0317 C   0  0  1  0  0  0
  -20.5916  -28.3722   23.1243 C   0  0  2  0  0  0
  -20.6787  -26.9423   22.5409 C   0  0  0  0  0  0
  -19.5760  -26.6387   21.5218 C   0  0  0  0  0  0
  -18.1940  -26.7944   22.1626 C   0  0  0  0  0  0
  -19.1557  -28.8878   23.2861 C   0  0  0  0  0  0
  -18.9477  -30.1476   23.8884 C   0  0  0  0  0  0
  -17.6474  -30.6600   24.0565 C   0  0  0  0  0  0
  -25.9068  -34.9408   23.5059 C   0  0  0  0  0  0
  -16.5361  -29.9097   23.6339 C   0  0  0  0  0  0
  -16.7283  -28.6512   23.0362 C   0  0  0  0  0  0
  -26.4508  -31.6559   25.0697 C   0  0  0  0  0  0
  -25.3698  -31.3813   26.1415 C   0  0  0  0  0  0
  -27.0303  -30.2927   24.6268 C   0  0  0  0  0  0
  -27.6084  -32.4275   25.7463 C   0  0  0  0  0  0
  -27.5576  -37.1780   24.8465 C   0  0  0  0  0  0
  -21.4251  -29.3050   22.3614 N   0  0  0  0  0  0
  -26.4283  -37.3748   23.9414 N   0  0  0  0  0  0
  -24.7170  -31.0295   22.0881 N   0  0  0  0  0  0
  -23.4200  -28.8098   23.3017 O   0  0  0  0  0  0
  -28.3026  -26.1907   20.1578 O   0  0  0  0  0  0
  -26.5654  -34.8910   22.4638 O   0  0  0  0  0  0
  -23.5549  -32.1295   23.7082 O   0  0  0  0  0  0
  -30.1427  -19.9397   21.3229 C   0  0  0  0  0  0
  -28.5452  -19.7942   19.6124 C   0  0  0  0  0  0
  -30.3499  -18.4954   21.2873 C   0  0  0  0  0  0
  -28.7245  -18.3453   19.5989 C   0  0  0  0  0  0
  -29.2234  -20.6946   20.5007 C   0  0  0  0  0  0
  -29.6367  -17.5955   20.4284 C   0  0  0  0  0  0
  -29.1146  -24.3827   21.7327 C   0  0  0  0  0  0
  -29.1946  -22.8331   21.9267 C   0  0  0  0  0  0
  -28.4721  -23.3054   19.7362 C   0  0  0  0  0  0
  -28.1508  -24.6972   20.5732 C   0  0  2  0  0  0
  -29.0037  -22.1726   20.6318 N   0  0  0  0  0  0
  -29.6152  -16.0593   20.5055 N   0  0  0  0  0  0
  -31.4814  -12.7721   19.1743 H   0  0  0  0  0  0
  -30.4663  -11.6321   20.0142 H   0  0  0  0  0  0
  -29.8446  -11.7305   17.5790 H   0  0  0  0  0  0
  -29.6087  -13.4565   17.6854 H   0  0  0  0  0  0
  -27.9547  -11.2689   18.9764 H   0  0  0  0  0  0
  -27.3923  -12.4445   17.8173 H   0  0  0  0  0  0
  -27.6001  -14.2428   19.4174 H   0  0  0  0  0  0
  -28.7672  -12.2606   21.4366 H   0  0  0  0  0  0
  -28.3766  -13.9301   21.7718 H   0  0  0  0  0  0
  -25.2772   -9.5677   22.4773 H   0  0  0  0  0  0
  -24.0006   -7.4627   22.7478 H   0  0  0  0  0  0
  -21.0852   -8.8776   19.8948 H   0  0  0  0  0  0
  -22.3718  -10.9675   19.6173 H   0  0  0  0  0  0
  -21.2002   -7.6155   23.9720 H   0  0  0  0  0  0
  -21.1479   -6.0525   25.9076 H   0  0  0  0  0  0
  -22.0600   -2.7613   23.2835 H   0  0  0  0  0  0
  -22.4068  -11.9851   22.4808 H   0  0  0  0  0  0
  -21.1071  -13.1225   22.2634 H   0  0  0  0  0  0
  -24.6289  -15.8305   20.4959 H   0  0  0  0  0  0
  -26.2282  -15.6289   19.9990 H   0  0  0  0  0  0
  -26.7269  -32.5304   23.0989 H   0  0  0  0  0  0
  -25.0087  -33.9612   25.0328 H   0  0  0  0  0  0
  -22.7506  -31.2867   21.3731 H   0  0  0  0  0  0
  -23.3773  -35.9559   23.3256 H   0  0  0  0  0  0
  -24.3585  -36.8916   22.2062 H   0  0  0  0  0  0
  -23.7205  -37.6422   23.6692 H   0  0  0  0  0  0
  -26.1490  -31.4697   20.6011 H   0  0  0  0  0  0
  -26.8747  -30.7783   22.0165 H   0  0  0  0  0  0
  -28.1466  -28.8255   21.2021 H   0  0  0  0  0  0
  -25.9483  -25.8090   19.0513 H   0  0  0  0  0  0
  -23.9782  -27.2644   19.0178 H   0  0  0  0  0  0
  -23.8097  -30.5496   19.3934 H   0  0  0  0  0  0
  -22.7882  -29.2198   19.8469 H   0  0  0  0  0  0
  -25.1305  -36.1857   25.0808 H   0  0  0  0  0  0
  -21.0011  -28.3307   24.1363 H   0  0  0  0  0  0
  -20.5673  -26.2333   23.3628 H   0  0  0  0  0  0
  -21.6650  -26.7427   22.1208 H   0  0  0  0  0  0
  -19.6922  -25.6294   21.1251 H   0  0  0  0  0  0
  -19.6703  -27.3199   20.6751 H   0  0  0  0  0  0
  -17.4208  -26.6684   21.4030 H   0  0  0  0  0  0
  -18.0342  -26.0094   22.9031 H   0  0  0  0  0  0
  -19.7951  -30.7300   24.2239 H   0  0  0  0  0  0
  -17.5028  -31.6280   24.5170 H   0  0  0  0  0  0
  -15.5363  -30.3000   23.7677 H   0  0  0  0  0  0
  -15.8678  -28.0830   22.7090 H   0  0  0  0  0  0
  -24.5830  -30.7208   25.7754 H   0  0  0  0  0  0
  -24.8957  -32.3036   26.4786 H   0  0  0  0  0  0
  -25.7969  -30.9002   27.0224 H   0  0  0  0  0  0
  -26.2874  -29.6698   24.1275 H   0  0  0  0  0  0
  -27.3884  -29.7193   25.4828 H   0  0  0  0  0  0
  -27.8816  -30.4116   23.9566 H   0  0  0  0  0  0
  -27.2774  -33.3700   26.1836 H   0  0  0  0  0  0
  -28.4015  -32.6591   25.0342 H   0  0  0  0  0  0
  -28.0583  -31.8481   26.5534 H   0  0  0  0  0  0
  -28.2586  -38.0084   24.7515 H   0  0  0  0  0  0
  -28.1075  -36.2612   24.6280 H   0  0  0  0  0  0
  -27.2300  -37.1416   25.8869 H   0  0  0  0  0  0
  -20.9453  -29.8756   21.6792 H   0  0  0  0  0  0
  -26.0148  -38.2812   24.1433 H   0  0  0  0  0  0
  -30.7354  -20.4797   22.0459 H   0  0  0  0  0  0
  -27.8115  -20.2111   18.9372 H   0  0  0  0  0  0
  -31.0500  -18.0717   21.9936 H   0  0  0  0  0  0
  -28.0961  -17.7890   18.9180 H   0  0  0  0  0  0
  -30.1064  -24.7516   21.4683 H   0  0  0  0  0  0
  -28.8263  -24.8931   22.6526 H   0  0  0  0  0  0
  -28.4038  -22.5049   22.6032 H   0  0  0  0  0  0
  -30.1454  -22.5639   22.3871 H   0  0  0  0  0  0
  -29.2327  -23.5138   18.9827 H   0  0  0  0  0  0
  -27.5843  -22.9767   19.1936 H   0  0  0  0  0  0
  -27.1394  -24.5886   20.9679 H   0  0  0  0  0  0
  -28.6724  -15.7064   20.5518 H   0  0  0  0  0  0
  1 25  1  0  0  0
  1 30  2  0  0  0
  1 82  1  0  0  0
  2  3  1  0  0  0
  2 25  1  0  0  0
  2 83  1  0  0  0
  2 84  1  0  0  0
  3  4  1  0  0  0
  3 85  1  0  0  0
  3 86  1  0  0  0
  4  5  1  0  0  0
  4 87  1  0  0  0
  4 88  1  0  0  0
  5  6  1  0  0  0
  5 26  1  0  0  0
  5 89  1  0  0  0
  6 25  1  0  0  0
  6 90  1  0  0  0
  6 91  1  0  0  0
  7  8  2  0  0  0
  7 26  1  0  0  0
  7 29  1  0  0  0
  8  9  1  0  0  0
  8 22  1  0  0  0
  9 10  1  0  0  0
  9 27  2  0  0  0
 10 11  2  0  0  0
 10 15  1  0  0  0
 11 12  1  0  0  0
 11 92  1  0  0  0
 12 13  2  0  0  0
 12 93  1  0  0  0
 13 14  1  0  0  0
 13 31  1  0  0  0
 14 15  2  0  0  0
 14 94  1  0  0  0
 15 95  1  0  0  0
 16 17  2  0  0  0
 16 21  1  0  0  0
 16 31  1  0  0  0
 17 18  1  0  0  0
 17 96  1  0  0  0
 18 19  2  0  0  0
 18 97  1  0  0  0
 19 20  1  0  0  0
 19 24  1  0  0  0
 20 21  2  0  0  0
 20 98  1  0  0  0
 21 23  1  0  0  0
 22 28  1  0  0  0
 22 32  2  0  0  0
 26 27  1  0  0  0
 28 99  1  0  0  0
 28100  1  0  0  0
 29101  1  0  0  0
 29102  1  0  0  0
 33 34  1  0  0  0
 33 66  1  0  0  0
 33 70  2  0  0  0
 34 36  1  0  0  0
 34 59  1  0  0  0
 34103  1  0  0  0
 35 44  2  0  0  0
 35 45  1  0  0  0
 35 68  1  0  0  0
 36 56  1  0  0  0
 36104  1  0  0  0
 37 39  1  0  0  0
 37 47  1  0  0  0
 37 66  1  0  0  0
 37105  1  0  0  0
 38 43  2  0  0  0
 38 46  1  0  0  0
 38 47  1  0  0  0
 39 64  1  0  0  0
 39 67  2  0  0  0
 40 52  1  0  0  0
 40 53  2  0  0  0
 40 58  1  0  0  0
 41106  1  0  0  0
 41107  1  0  0  0
 41108  1  0  0  0
 41 48  1  0  0  0
 42 43  1  0  0  0
 42 66  1  0  0  0
 42109  1  0  0  0
 42110  1  0  0  0
 43 44  1  0  0  0
 44111  1  0  0  0
 45 46  2  0  0  0
 45112  1  0  0  0
 46113  1  0  0  0
 47114  1  0  0  0
 47115  1  0  0  0
 48 56  1  0  0  0
 48 65  1  0  0  0
 48116  1  0  0  0
 49 50  1  0  0  0
 49 53  1  0  0  0
 49 64  1  0  0  0
 49117  1  0  0  0
 50 51  1  0  0  0
 50118  1  0  0  0
 50119  1  0  0  0
 51 52  1  0  0  0
 51120  1  0  0  0
 51121  1  0  0  0
 52122  1  0  0  0
 52123  1  0  0  0
 53 54  1  0  0  0
 54 55  2  0  0  0
 54124  1  0  0  0
 55 57  1  0  0  0
 55125  1  0  0  0
 56 69  2  0  0  0
 57 58  2  0  0  0
 57126  1  0  0  0
 58127  1  0  0  0
 59 60  1  0  0  0
 59 61  1  0  0  0
 59 62  1  0  0  0
 60128  1  0  0  0
 60129  1  0  0  0
 60130  1  0  0  0
 61131  1  0  0  0
 61132  1  0  0  0
 61133  1  0  0  0
 62134  1  0  0  0
 62135  1  0  0  0
 62136  1  0  0  0
 63 65  1  0  0  0
 63137  1  0  0  0
 63138  1  0  0  0
 63139  1  0  0  0
 64140  1  0  0  0
 65141  1  0  0  0
 68 80  1  0  0  0
 71 73  2  0  0  0
 71 75  1  0  0  0
 71142  1  0  0  0
 72 74  1  0  0  0
 72 75  2  0  0  0
 72143  1  0  0  0
 73 76  1  0  0  0
 73144  1  0  0  0
 74 76  2  0  0  0
 74145  1  0  0  0
 75 81  1  0  0  0
 76 82  1  0  0  0
 77 78  1  0  0  0
 77 80  1  0  0  0
 77146  1  0  0  0
 77147  1  0  0  0
 78 81  1  0  0  0
 78148  1  0  0  0
 78149  1  0  0  0
 79 80  1  0  0  0
 79 81  1  0  0  0
 79150  1  0  0  0
 79151  1  0  0  0
 80152  1  0  0  0
 82153  1  0  0  0
M  ISO  4   1 100  68 101  80 101  82 100
M  END
> <chiral flag>
0

> <version>
0

> <s_m_source_file>
/data/baiqing/PycharmProjects/Reinvent-master-3.2/result/LINK_invent/BTK/process_docking_weight1_custom_product_contain_oxygen_bond_distance_aromatic_linkinvent_7_9_3/rearranged_h_0011.sdf

> <i_m_source_file_index>
52

> <r_mmod_Potential_Energy-OPLS-2005>
525.946105957031

> <r_mmod_Stretch_Energy-OPLS-2005>
213.858779907227

> <r_mmod_Bend_Energy-OPLS-2005>
307.925323486328

> <r_mmod_Torsional_Energy-OPLS-2005>
299.310577392578

> <r_mmod_Improper_Torsional_Energy-OPLS-2005>
7.30253410339355

> <r_mmod_Van_der_Waal_Energy-OPLS-2005>
124.300971984863

> <r_mmod_Electrostatic_Energy-OPLS-2005>
-383.096618652344

> <r_mmod_Solvation_Energy-OPLS-2005>
-232.282287597656

> <b_mmod_Minimization_Converged-OPLS-2005>
0

> <r_mmod_RMS_Derivative-OPLS-2005>
0.949168264865875

$$$$
52
                    3D
 Structure written by MMmdl.
151160  0  0  1  0            999 V2000
  -30.4916  -15.2404   20.3665 C   0  0  0  0  0  0
  -30.4372  -12.7859   19.5518 C   0  0  0  0  0  0
  -29.5493  -12.5604   18.3042 C   0  0  0  0  0  0
  -28.0948  -12.2887   18.7250 C   0  0  0  0  0  0
  -27.6134  -13.2804   19.8133 C   0  0  2  0  0  0
  -28.6375  -13.4771   20.9477 C   0  0  0  0  0  0
  -25.2390  -13.8262   20.5719 C   0  0  0  0  0  0
  -24.1734  -13.0442   20.9227 C   0  0  0  0  0  0
  -24.6398  -11.6937   20.8729 C   0  0  0  0  0  0
  -23.9088  -10.4293   21.0372 C   0  0  0  0  0  0
  -24.3629   -9.4205   21.9152 C   0  0  0  0  0  0
  -23.6308   -8.2245   22.0729 C   0  0  0  0  0  0
  -22.4288   -8.0282   21.3526 C   0  0  0  0  0  0
  -21.9920   -9.0254   20.4632 C   0  0  0  0  0  0
  -22.7260  -10.2134   20.3043 C   0  0  0  0  0  0
  -21.6857   -6.0730   22.5275 C   0  0  0  0  0  0
  -21.4023   -6.5626   23.8217 C   0  0  0  0  0  0
  -21.3667   -5.6768   24.9167 C   0  0  0  0  0  0
  -21.6064   -4.3040   24.7221 C   0  0  0  0  0  0
  -21.8814   -3.8137   23.4333 C   0  0  0  0  0  0
  -21.9184   -4.6953   22.3395 C   0  0  0  0  0  0
  -22.7751  -13.5190   21.1876 C   0  0  0  0  0  0
  -22.1652   -4.2133   21.0974 F   0  0  0  0  0  0
  -21.5622   -3.4527   25.7742 F   0  0  0  0  0  0
  -29.8874  -13.9520   20.3377 N   0  0  0  0  0  0
  -26.2827  -12.9544   20.3156 N   0  0  0  0  0  0
  -25.9341  -11.6645   20.5704 N   0  0  0  0  0  0
  -22.0421  -12.8193   22.0443 N   0  0  0  0  0  0
  -25.4048  -15.2000   20.4165 N   0  0  0  0  0  0
  -31.7118  -15.1733   20.1516 O   0  0  0  0  0  0
  -21.6648   -6.8880   21.4240 O   0  0  0  0  0  0
  -22.3432  -14.5480   20.6705 O   0  0  0  0  0  0
  -24.6610  -31.8267   23.1702 C   0  0  0  0  0  0
  -25.9300  -32.4599   23.8180 C   0  0  1  0  0  0
  -27.2268  -26.9539   20.1845 C   0  0  0  0  0  0
  -25.5965  -33.8414   24.2103 N   0  0  0  0  0  0
  -23.4769  -30.4379   21.5197 C   0  0  2  0  0  0
  -24.9289  -28.8218   20.1179 C   0  0  0  0  0  0
  -22.7668  -29.4476   22.4797 C   0  0  0  0  0  0
  -18.0339  -28.1404   22.8490 C   0  0  0  0  0  0
  -24.1501  -36.7226   23.2647 C   0  0  0  0  0  0
  -26.0430  -30.6420   21.3955 C   0  0  0  0  0  0
  -26.1127  -29.2315   20.7443 C   0  0  0  0  0  0
  -27.2581  -28.3201   20.7473 C   0  0  0  0  0  0
  -26.0108  -26.6867   19.5168 C   0  0  0  0  0  0
  -24.9001  -27.5690   19.4856 C   0  0  0  0  0  0
  -23.7159  -29.7481   20.1488 C   0  0  0  0  0  0
  -25.4131  -36.2972   24.0308 C   0  0  1  0  0  0
  -20.5951  -28.3754   23.1191 C   0  0  2  0  0  0
  -20.6805  -26.9440   22.5391 C   0  0  0  0  0  0
  -19.5768  -26.6382   21.5219 C   0  0  0  0  0  0
  -18.1963  -26.7936   22.1649 C   0  0  0  0  0  0
  -19.1594  -28.8897   23.2829 C   0  0  0  0  0  0
  -18.9500  -30.1487   23.8858 C   0  0  0  0  0  0
  -17.6489  -30.6598   24.0546 C   0  0  0  0  0  0
  -25.9088  -34.9354   23.5028 C   0  0  0  0  0  0
  -16.5384  -29.9090   23.6332 C   0  0  0  0  0  0
  -16.7315  -28.6506   23.0365 C   0  0  0  0  0  0
  -26.4542  -31.6533   25.0711 C   0  0  0  0  0  0
  -25.3691  -31.3792   26.1399 C   0  0  0  0  0  0
  -27.0411  -30.2894   24.6424 C   0  0  0  0  0  0
  -27.6054  -32.4324   25.7504 C   0  0  0  0  0  0
  -27.5577  -37.1764   24.8471 C   0  0  0  0  0  0
  -21.4334  -29.3057   22.3541 N   0  0  0  0  0  0
  -26.4280  -37.3704   23.9402 N   0  0  0  0  0  0
  -24.7486  -30.9950   22.0830 N   0  0  0  0  0  0
  -23.4219  -28.8040   23.3029 O   0  0  0  0  0  0
  -28.2632  -25.8890   20.2035 O   0  0  0  0  0  0
  -26.5705  -34.8883   22.4625 O   0  0  0  0  0  0
  -23.5682  -32.1227   23.6809 O   0  0  0  0  0  0
  -29.8092  -17.7001   21.5746 C   0  0  0  0  0  0
  -29.5680  -17.6847   19.2931 C   0  0  0  0  0  0
  -29.4824  -19.1510   21.5880 C   0  0  0  0  0  0
  -29.2585  -19.1452   19.3056 C   0  0  0  0  0  0
  -29.8625  -16.8021   20.4281 C   0  0  0  0  0  0
  -29.1827  -20.0345   20.4623 C   0  0  0  0  0  0
  -28.3958  -23.7398   21.7849 C   0  0  0  0  0  0
  -28.4047  -22.1461   21.8390 C   0  0  0  0  0  0
  -28.8198  -22.8685   19.6828 C   0  0  0  0  0  0
  -28.0677  -24.2647   20.3636 C   0  0  2  0  0  0
  -28.8509  -21.5509   20.5632 N   0  0  0  0  0  0
  -31.4650  -12.9567   19.2344 H   0  0  0  0  0  0
  -30.4742  -11.8905   20.1726 H   0  0  0  0  0  0
  -29.9401  -11.7296   17.7128 H   0  0  0  0  0  0
  -29.5879  -13.4439   17.6634 H   0  0  0  0  0  0
  -28.0545  -11.2717   19.1190 H   0  0  0  0  0  0
  -27.4333  -12.3086   17.8587 H   0  0  0  0  0  0
  -27.5305  -14.2428   19.3050 H   0  0  0  0  0  0
  -28.7902  -12.5607   21.5171 H   0  0  0  0  0  0
  -28.2811  -14.2243   21.6546 H   0  0  0  0  0  0
  -25.2766   -9.5708   22.4722 H   0  0  0  0  0  0
  -24.0017   -7.4650   22.7465 H   0  0  0  0  0  0
  -21.0839   -8.8793   19.8964 H   0  0  0  0  0  0
  -22.3703  -10.9665   19.6167 H   0  0  0  0  0  0
  -21.2040   -7.6140   23.9716 H   0  0  0  0  0  0
  -21.1493   -6.0493   25.9067 H   0  0  0  0  0  0
  -22.0592   -2.7605   23.2834 H   0  0  0  0  0  0
  -22.4044  -11.9901   22.4916 H   0  0  0  0  0  0
  -21.1044  -13.1243   22.2632 H   0  0  0  0  0  0
  -24.6404  -15.8554   20.5368 H   0  0  0  0  0  0
  -26.2649  -15.6478   20.1235 H   0  0  0  0  0  0
  -26.7380  -32.5140   23.0912 H   0  0  0  0  0  0
  -25.0017  -33.9483   25.0188 H   0  0  0  0  0  0
  -22.7901  -31.2686   21.3474 H   0  0  0  0  0  0
  -23.3754  -35.9565   23.3288 H   0  0  0  0  0  0
  -24.3592  -36.8891   22.2066 H   0  0  0  0  0  0
  -23.7271  -37.6417   23.6712 H   0  0  0  0  0  0
  -26.2167  -31.3792   20.6103 H   0  0  0  0  0  0
  -26.9048  -30.7015   22.0486 H   0  0  0  0  0  0
  -28.1598  -28.6367   21.2514 H   0  0  0  0  0  0
  -25.8952  -25.7323   19.0241 H   0  0  0  0  0  0
  -24.0005  -27.2504   18.9773 H   0  0  0  0  0  0
  -23.8690  -30.5113   19.3862 H   0  0  0  0  0  0
  -22.8262  -29.2016   19.8337 H   0  0  0  0  0  0
  -25.1323  -36.1775   25.0796 H   0  0  0  0  0  0
  -21.0060  -28.3347   24.1304 H   0  0  0  0  0  0
  -20.5713  -26.2365   23.3623 H   0  0  0  0  0  0
  -21.6657  -26.7424   22.1169 H   0  0  0  0  0  0
  -19.6911  -25.6287   21.1272 H   0  0  0  0  0  0
  -19.6672  -27.3164   20.6721 H   0  0  0  0  0  0
  -17.4208  -26.6665   21.4074 H   0  0  0  0  0  0
  -18.0373  -26.0100   22.9073 H   0  0  0  0  0  0
  -19.7968  -30.7319   24.2207 H   0  0  0  0  0  0
  -17.5037  -31.6273   24.5162 H   0  0  0  0  0  0
  -15.5378  -30.2963   23.7679 H   0  0  0  0  0  0
  -15.8724  -28.0798   22.7097 H   0  0  0  0  0  0
  -24.5732  -30.7340   25.7673 H   0  0  0  0  0  0
  -24.9056  -32.3011   26.4909 H   0  0  0  0  0  0
  -25.7894  -30.8808   27.0144 H   0  0  0  0  0  0
  -26.3048  -29.6584   24.1434 H   0  0  0  0  0  0
  -27.3941  -29.7254   25.5069 H   0  0  0  0  0  0
  -27.8999  -30.4074   23.9819 H   0  0  0  0  0  0
  -27.2621  -33.3621   26.2049 H   0  0  0  0  0  0
  -28.3861  -32.6901   25.0343 H   0  0  0  0  0  0
  -28.0730  -31.8487   26.5442 H   0  0  0  0  0  0
  -28.2568  -38.0081   24.7492 H   0  0  0  0  0  0
  -28.1088  -36.2601   24.6311 H   0  0  0  0  0  0
  -27.2292  -37.1429   25.8874 H   0  0  0  0  0  0
  -20.9598  -29.8741   21.6658 H   0  0  0  0  0  0
  -26.0139  -38.2768   24.1374 H   0  0  0  0  0  0
  -30.0746  -17.2657   22.5282 H   0  0  0  0  0  0
  -29.5979  -17.2221   18.3165 H   0  0  0  0  0  0
  -29.5072  -19.6187   22.5627 H   0  0  0  0  0  0
  -29.0642  -19.5943   18.3423 H   0  0  0  0  0  0
  -29.3890  -24.1042   22.0469 H   0  0  0  0  0  0
  -27.7159  -24.1506   22.5319 H   0  0  0  0  0  0
  -27.3921  -21.7879   22.0306 H   0  0  0  0  0  0
  -29.0185  -21.8053   22.6760 H   0  0  0  0  0  0
  -29.8619  -23.1181   19.4735 H   0  0  0  0  0  0
  -28.3835  -22.6505   18.7072 H   0  0  0  0  0  0
  -27.0006  -24.1029   20.2110 H   0  0  0  0  0  0
  1 25  1  0  0  0
  1 30  2  0  0  0
  1 75  1  0  0  0
  2  3  1  0  0  0
  2 25  1  0  0  0
  2 82  1  0  0  0
  2 83  1  0  0  0
  3  4  1  0  0  0
  3 84  1  0  0  0
  3 85  1  0  0  0
  4  5  1  0  0  0
  4 86  1  0  0  0
  4 87  1  0  0  0
  5  6  1  0  0  0
  5 26  1  0  0  0
  5 88  1  0  0  0
  6 25  1  0  0  0
  6 89  1  0  0  0
  6 90  1  0  0  0
  7  8  2  0  0  0
  7 26  1  0  0  0
  7 29  1  0  0  0
  8  9  1  0  0  0
  8 22  1  0  0  0
  9 10  1  0  0  0
  9 27  2  0  0  0
 10 11  2  0  0  0
 10 15  1  0  0  0
 11 12  1  0  0  0
 11 91  1  0  0  0
 12 13  2  0  0  0
 12 92  1  0  0  0
 13 14  1  0  0  0
 13 31  1  0  0  0
 14 15  2  0  0  0
 14 93  1  0  0  0
 15 94  1  0  0  0
 16 17  2  0  0  0
 16 21  1  0  0  0
 16 31  1  0  0  0
 17 18  1  0  0  0
 17 95  1  0  0  0
 18 19  2  0  0  0
 18 96  1  0  0  0
 19 20  1  0  0  0
 19 24  1  0  0  0
 20 21  2  0  0  0
 20 97  1  0  0  0
 21 23  1  0  0  0
 22 28  1  0  0  0
 22 32  2  0  0  0
 26 27  1  0  0  0
 28 98  1  0  0  0
 28 99  1  0  0  0
 29100  1  0  0  0
 29101  1  0  0  0
 33 34  1  0  0  0
 33 66  1  0  0  0
 33 70  2  0  0  0
 34 36  1  0  0  0
 34 59  1  0  0  0
 34102  1  0  0  0
 35 44  2  0  0  0
 35 45  1  0  0  0
 35 68  1  0  0  0
 36 56  1  0  0  0
 36103  1  0  0  0
 37 39  1  0  0  0
 37 47  1  0  0  0
 37 66  1  0  0  0
 37104  1  0  0  0
 38 43  2  0  0  0
 38 46  1  0  0  0
 38 47  1  0  0  0
 39 64  1  0  0  0
 39 67  2  0  0  0
 40 52  1  0  0  0
 40 53  2  0  0  0
 40 58  1  0  0  0
 41105  1  0  0  0
 41106  1  0  0  0
 41107  1  0  0  0
 41 48  1  0  0  0
 42 43  1  0  0  0
 42 66  1  0  0  0
 42108  1  0  0  0
 42109  1  0  0  0
 43 44  1  0  0  0
 44110  1  0  0  0
 45 46  2  0  0  0
 45111  1  0  0  0
 46112  1  0  0  0
 47113  1  0  0  0
 47114  1  0  0  0
 48 56  1  0  0  0
 48 65  1  0  0  0
 48115  1  0  0  0
 49 50  1  0  0  0
 49 53  1  0  0  0
 49 64  1  0  0  0
 49116  1  0  0  0
 50 51  1  0  0  0
 50117  1  0  0  0
 50118  1  0  0  0
 51 52  1  0  0  0
 51119  1  0  0  0
 51120  1  0  0  0
 52121  1  0  0  0
 52122  1  0  0  0
 53 54  1  0  0  0
 54 55  2  0  0  0
 54123  1  0  0  0
 55 57  1  0  0  0
 55124  1  0  0  0
 56 69  2  0  0  0
 57 58  2  0  0  0
 57125  1  0  0  0
 58126  1  0  0  0
 59 60  1  0  0  0
 59 61  1  0  0  0
 59 62  1  0  0  0
 60127  1  0  0  0
 60128  1  0  0  0
 60129  1  0  0  0
 61130  1  0  0  0
 61131  1  0  0  0
 61132  1  0  0  0
 62133  1  0  0  0
 62134  1  0  0  0
 62135  1  0  0  0
 63 65  1  0  0  0
 63136  1  0  0  0
 63137  1  0  0  0
 63138  1  0  0  0
 64139  1  0  0  0
 65140  1  0  0  0
 68 80  1  0  0  0
 71 73  2  0  0  0
 71 75  1  0  0  0
 71141  1  0  0  0
 72 74  1  0  0  0
 72 75  2  0  0  0
 72142  1  0  0  0
 73 76  1  0  0  0
 73143  1  0  0  0
 74 76  2  0  0  0
 74144  1  0  0  0
 76 81  1  0  0  0
 77 78  1  0  0  0
 77 80  1  0  0  0
 77145  1  0  0  0
 77146  1  0  0  0
 78 81  1  0  0  0
 78147  1  0  0  0
 78148  1  0  0  0
 79 80  1  0  0  0
 79 81  1  0  0  0
 79149  1  0  0  0
 79150  1  0  0  0
 80151  1  0  0  0
M  ISO  4   1 100  68 101  75 100  80 101
M  END
> <chiral flag>
0

> <version>
0

> <s_m_source_file>
/data/baiqing/PycharmProjects/Reinvent-master-3.2/result/LINK_invent/BTK/process_docking_weight1_custom_product_contain_oxygen_bond_distance_aromatic_linkinvent_7_9_3/rearranged_h_0011.sdf

> <i_m_source_file_index>
53

> <r_mmod_Potential_Energy-OPLS-2005>
1219.52648925781

> <r_mmod_Stretch_Energy-OPLS-2005>
437.022155761719

> <r_mmod_Bend_Energy-OPLS-2005>
469.806427001953

> <r_mmod_Torsional_Energy-OPLS-2005>
270.7431640625

> <r_mmod_Improper_Torsional_Energy-OPLS-2005>
5.72375822067261

> <r_mmod_Van_der_Waal_Energy-OPLS-2005>
126.64037322998

> <r_mmod_Electrostatic_Energy-OPLS-2005>
-292.311431884766

> <r_mmod_Solvation_Energy-OPLS-2005>
-215.667816162109

> <b_mmod_Minimization_Converged-OPLS-2005>
0

> <r_mmod_RMS_Derivative-OPLS-2005>
3.93491458892822

$$$$
53
                    3D
 Structure written by MMmdl.
151159  0  0  1  0            999 V2000
  -30.6305  -14.6455   20.5040 C   0  0  0  0  0  0
  -30.4376  -12.3963   19.4575 C   0  0  0  0  0  0
  -29.5085  -12.5103   18.2282 C   0  0  0  0  0  0
  -28.0315  -12.3480   18.6393 C   0  0  0  0  0  0
  -27.6534  -13.2200   19.8663 C   0  0  2  0  0  0
  -28.6987  -13.0800   20.9967 C   0  0  0  0  0  0
  -25.2518  -13.8143   20.5628 C   0  0  0  0  0  0
  -24.1805  -13.0410   20.9163 C   0  0  0  0  0  0
  -24.6398  -11.6892   20.8740 C   0  0  0  0  0  0
  -23.9069  -10.4279   21.0406 C   0  0  0  0  0  0
  -24.3617   -9.4197   21.9186 C   0  0  0  0  0  0
  -23.6289   -8.2235   22.0756 C   0  0  0  0  0  0
  -22.4272   -8.0276   21.3544 C   0  0  0  0  0  0
  -21.9908   -9.0249   20.4646 C   0  0  0  0  0  0
  -22.7240  -10.2126   20.3055 C   0  0  0  0  0  0
  -21.6850   -6.0733   22.5279 C   0  0  0  0  0  0
  -21.4013   -6.5637   23.8212 C   0  0  0  0  0  0
  -21.3658   -5.6791   24.9174 C   0  0  0  0  0  0
  -21.6044   -4.3054   24.7225 C   0  0  0  0  0  0
  -21.8820   -3.8145   23.4347 C   0  0  0  0  0  0
  -21.9192   -4.6961   22.3403 C   0  0  0  0  0  0
  -22.7830  -13.5206   21.1839 C   0  0  0  0  0  0
  -22.1661   -4.2147   21.0980 F   0  0  0  0  0  0
  -21.5629   -3.4538   25.7739 F   0  0  0  0  0  0
  -30.0157  -13.4209   20.4346 N   0  0  0  0  0  0
  -26.2989  -12.9357   20.3341 N   0  0  0  0  0  0
  -25.9339  -11.6507   20.5789 N   0  0  0  0  0  0
  -22.0486  -12.8204   22.0413 N   0  0  0  0  0  0
  -25.4142  -15.1845   20.3962 N   0  0  0  0  0  0
  -31.7888  -14.7987   20.1064 O   0  0  0  0  0  0
  -21.6635   -6.8875   21.4240 O   0  0  0  0  0  0
  -22.3505  -14.5512   20.6697 O   0  0  0  0  0  0
  -24.6267  -31.8602   23.2032 C   0  0  0  0  0  0
  -25.9113  -32.4781   23.8360 C   0  0  1  0  0  0
  -27.2239  -27.3177   20.1129 C   0  0  0  0  0  0
  -25.5928  -33.8582   24.2284 N   0  0  0  0  0  0
  -23.4201  -30.4852   21.5465 C   0  0  2  0  0  0
  -24.8657  -28.9425   20.1123 C   0  0  0  0  0  0
  -22.7477  -29.4628   22.4938 C   0  0  0  0  0  0
  -18.0288  -28.1383   22.8486 C   0  0  0  0  0  0
  -24.1490  -36.7296   23.2639 C   0  0  0  0  0  0
  -25.9626  -30.7910   21.3746 C   0  0  0  0  0  0
  -26.0368  -29.4193   20.7147 C   0  0  0  0  0  0
  -27.2194  -28.6200   20.7033 C   0  0  0  0  0  0
  -26.0247  -26.8959   19.4902 C   0  0  0  0  0  0
  -24.8619  -27.6860   19.4917 C   0  0  0  0  0  0
  -23.6345  -29.8228   20.1613 C   0  0  0  0  0  0
  -25.4115  -36.3086   24.0329 C   0  0  1  0  0  0
  -20.5888  -28.3688   23.1281 C   0  0  2  0  0  0
  -20.6777  -26.9412   22.5408 C   0  0  0  0  0  0
  -19.5752  -26.6384   21.5211 C   0  0  0  0  0  0
  -18.1933  -26.7926   22.1625 C   0  0  0  0  0  0
  -19.1540  -28.8853   23.2879 C   0  0  0  0  0  0
  -18.9463  -30.1454   23.8896 C   0  0  0  0  0  0
  -17.6462  -30.6585   24.0564 C   0  0  0  0  0  0
  -25.9050  -34.9453   23.5106 C   0  0  0  0  0  0
  -16.5354  -29.9084   23.6329 C   0  0  0  0  0  0
  -16.7274  -28.6502   23.0350 C   0  0  0  0  0  0
  -26.4495  -31.6590   25.0729 C   0  0  0  0  0  0
  -25.3729  -31.3727   26.1456 C   0  0  0  0  0  0
  -27.0338  -30.3014   24.6182 C   0  0  0  0  0  0
  -27.6053  -32.4325   25.7501 C   0  0  0  0  0  0
  -27.5577  -37.1809   24.8468 C   0  0  0  0  0  0
  -21.4190  -29.3044   22.3678 N   0  0  0  0  0  0
  -26.4295  -37.3777   23.9402 N   0  0  0  0  0  0
  -24.6888  -31.0616   22.0984 N   0  0  0  0  0  0
  -23.4200  -28.8163   23.3014 O   0  0  0  0  0  0
  -28.3420  -26.4649   20.1562 O   0  0  0  0  0  0
  -26.5617  -34.8919   22.4672 O   0  0  0  0  0  0
  -23.5430  -32.1399   23.7360 O   0  0  0  0  0  0
  -31.0217  -17.8487   20.1396 C   0  0  0  0  0  0
  -31.0135  -19.2700   20.0058 C   0  0  0  0  0  0
  -28.8384  -19.3873   21.0097 C   0  0  0  0  0  0
  -29.9338  -17.1508   20.7274 C   0  0  0  0  0  0
  -29.9272  -20.0853   20.4258 C   0  0  0  0  0  0
  -28.8503  -17.9669   21.1677 C   0  0  0  0  0  0
  -29.2752  -23.9615   20.3115 C   0  0  0  0  0  0
  -28.0945  -25.0027   20.0898 C   0  0  0  0  0  0
  -28.8995  -22.4082   20.3875 C   0  0  0  0  0  0
  -29.8409  -15.6947   20.8944 N   0  0  0  0  0  0
  -30.0311  -21.4855   20.2682 O   0  0  0  0  0  0
  -27.4972  -17.2215   21.9397 Cl  0  0  0  0  0  0
  -31.4794  -12.5174   19.1554 H   0  0  0  0  0  0
  -30.3699  -11.4017   19.9010 H   0  0  0  0  0  0
  -29.7734  -11.7581   17.4839 H   0  0  0  0  0  0
  -29.6509  -13.4795   17.7474 H   0  0  0  0  0  0
  -27.8688  -11.2949   18.8718 H   0  0  0  0  0  0
  -27.3772  -12.5768   17.7972 H   0  0  0  0  0  0
  -27.6693  -14.2553   19.5249 H   0  0  0  0  0  0
  -28.7100  -12.0600   21.3837 H   0  0  0  0  0  0
  -28.4420  -13.7154   21.8456 H   0  0  0  0  0  0
  -25.2763   -9.5672   22.4760 H   0  0  0  0  0  0
  -23.9996   -7.4626   22.7476 H   0  0  0  0  0  0
  -21.0839   -8.8771   19.8952 H   0  0  0  0  0  0
  -22.3702  -10.9665   19.6163 H   0  0  0  0  0  0
  -21.2005   -7.6146   23.9715 H   0  0  0  0  0  0
  -21.1479   -6.0521   25.9077 H   0  0  0  0  0  0
  -22.0600   -2.7607   23.2849 H   0  0  0  0  0  0
  -22.4109  -11.9866   22.4796 H   0  0  0  0  0  0
  -21.1110  -13.1235   22.2635 H   0  0  0  0  0  0
  -24.6534  -15.8378   20.5429 H   0  0  0  0  0  0
  -26.2839  -15.6419   20.1572 H   0  0  0  0  0  0
  -26.7181  -32.5450   23.1108 H   0  0  0  0  0  0
  -25.0074  -33.9728   25.0428 H   0  0  0  0  0  0
  -22.7140  -31.3060   21.4049 H   0  0  0  0  0  0
  -23.3745  -35.9637   23.3318 H   0  0  0  0  0  0
  -24.3576  -36.8900   22.2050 H   0  0  0  0  0  0
  -23.7253  -37.6508   23.6650 H   0  0  0  0  0  0
  -26.0952  -31.5557   20.6080 H   0  0  0  0  0  0
  -26.8426  -30.8378   22.0045 H   0  0  0  0  0  0
  -28.1179  -28.9827   21.1827 H   0  0  0  0  0  0
  -25.9473  -25.9394   18.9978 H   0  0  0  0  0  0
  -23.9645  -27.3145   19.0162 H   0  0  0  0  0  0
  -23.7549  -30.6006   19.4063 H   0  0  0  0  0  0
  -22.7541  -29.2537   19.8575 H   0  0  0  0  0  0
  -25.1297  -36.1943   25.0823 H   0  0  0  0  0  0
  -20.9980  -28.3262   24.1402 H   0  0  0  0  0  0
  -20.5679  -26.2298   23.3607 H   0  0  0  0  0  0
  -21.6646  -26.7442   22.1201 H   0  0  0  0  0  0
  -19.6914  -25.6295   21.1239 H   0  0  0  0  0  0
  -19.6687  -27.3195   20.6741 H   0  0  0  0  0  0
  -17.4200  -26.6668   21.4031 H   0  0  0  0  0  0
  -18.0338  -26.0069   22.9024 H   0  0  0  0  0  0
  -19.7939  -30.7270   24.2266 H   0  0  0  0  0  0
  -17.5017  -31.6265   24.5166 H   0  0  0  0  0  0
  -15.5354  -30.2986   23.7653 H   0  0  0  0  0  0
  -15.8675  -28.0822   22.7064 H   0  0  0  0  0  0
  -24.5904  -30.7075   25.7786 H   0  0  0  0  0  0
  -24.8920  -32.2893   26.4882 H   0  0  0  0  0  0
  -25.8055  -30.8905   27.0231 H   0  0  0  0  0  0
  -26.2913  -29.6767   24.1203 H   0  0  0  0  0  0
  -27.4033  -29.7267   25.4686 H   0  0  0  0  0  0
  -27.8784  -30.4301   23.9410 H   0  0  0  0  0  0
  -27.2659  -33.3622   26.2082 H   0  0  0  0  0  0
  -28.3862  -32.6893   25.0331 H   0  0  0  0  0  0
  -28.0722  -31.8450   26.5416 H   0  0  0  0  0  0
  -28.2611  -38.0089   24.7491 H   0  0  0  0  0  0
  -28.1057  -36.2620   24.6327 H   0  0  0  0  0  0
  -27.2290  -37.1499   25.8871 H   0  0  0  0  0  0
  -20.9366  -29.8774   21.6896 H   0  0  0  0  0  0
  -26.0179  -38.2857   24.1386 H   0  0  0  0  0  0
  -31.8850  -17.3072   19.7823 H   0  0  0  0  0  0
  -31.8744  -19.7472   19.5589 H   0  0  0  0  0  0
  -27.9801  -19.9342   21.3692 H   0  0  0  0  0  0
  -29.8093  -24.2268   21.2238 H   0  0  0  0  0  0
  -29.9919  -24.0999   19.5021 H   0  0  0  0  0  0
  -27.3103  -24.7672   20.8112 H   0  0  0  0  0  0
  -27.6903  -24.7693   19.1051 H   0  0  0  0  0  0
  -28.1978  -22.1721   19.5866 H   0  0  0  0  0  0
  -28.3739  -22.2212   21.3243 H   0  0  0  0  0  0
  -28.9506  -15.3964   21.2641 H   0  0  0  0  0  0
  1 25  1  0  0  0
  1 30  2  0  0  0
  1 80  1  0  0  0
  2  3  1  0  0  0
  2 25  1  0  0  0
  2 83  1  0  0  0
  2 84  1  0  0  0
  3  4  1  0  0  0
  3 85  1  0  0  0
  3 86  1  0  0  0
  4  5  1  0  0  0
  4 87  1  0  0  0
  4 88  1  0  0  0
  5  6  1  0  0  0
  5 26  1  0  0  0
  5 89  1  0  0  0
  6 25  1  0  0  0
  6 90  1  0  0  0
  6 91  1  0  0  0
  7  8  2  0  0  0
  7 26  1  0  0  0
  7 29  1  0  0  0
  8  9  1  0  0  0
  8 22  1  0  0  0
  9 10  1  0  0  0
  9 27  2  0  0  0
 10 11  2  0  0  0
 10 15  1  0  0  0
 11 12  1  0  0  0
 11 92  1  0  0  0
 12 13  2  0  0  0
 12 93  1  0  0  0
 13 14  1  0  0  0
 13 31  1  0  0  0
 14 15  2  0  0  0
 14 94  1  0  0  0
 15 95  1  0  0  0
 16 17  2  0  0  0
 16 21  1  0  0  0
 16 31  1  0  0  0
 17 18  1  0  0  0
 17 96  1  0  0  0
 18 19  2  0  0  0
 18 97  1  0  0  0
 19 20  1  0  0  0
 19 24  1  0  0  0
 20 21  2  0  0  0
 20 98  1  0  0  0
 21 23  1  0  0  0
 22 28  1  0  0  0
 22 32  2  0  0  0
 26 27  1  0  0  0
 28 99  1  0  0  0
 28100  1  0  0  0
 29101  1  0  0  0
 29102  1  0  0  0
 33 34  1  0  0  0
 33 66  1  0  0  0
 33 70  2  0  0  0
 34 36  1  0  0  0
 34 59  1  0  0  0
 34103  1  0  0  0
 35 44  2  0  0  0
 35 45  1  0  0  0
 35 68  1  0  0  0
 36 56  1  0  0  0
 36104  1  0  0  0
 37 39  1  0  0  0
 37 47  1  0  0  0
 37 66  1  0  0  0
 37105  1  0  0  0
 38 43  2  0  0  0
 38 46  1  0  0  0
 38 47  1  0  0  0
 39 64  1  0  0  0
 39 67  2  0  0  0
 40 52  1  0  0  0
 40 53  2  0  0  0
 40 58  1  0  0  0
 41106  1  0  0  0
 41107  1  0  0  0
 41108  1  0  0  0
 41 48  1  0  0  0
 42 43  1  0  0  0
 42 66  1  0  0  0
 42109  1  0  0  0
 42110  1  0  0  0
 43 44  1  0  0  0
 44111  1  0  0  0
 45 46  2  0  0  0
 45112  1  0  0  0
 46113  1  0  0  0
 47114  1  0  0  0
 47115  1  0  0  0
 48 56  1  0  0  0
 48 65  1  0  0  0
 48116  1  0  0  0
 49 50  1  0  0  0
 49 53  1  0  0  0
 49 64  1  0  0  0
 49117  1  0  0  0
 50 51  1  0  0  0
 50118  1  0  0  0
 50119  1  0  0  0
 51 52  1  0  0  0
 51120  1  0  0  0
 51121  1  0  0  0
 52122  1  0  0  0
 52123  1  0  0  0
 53 54  1  0  0  0
 54 55  2  0  0  0
 54124  1  0  0  0
 55 57  1  0  0  0
 55125  1  0  0  0
 56 69  2  0  0  0
 57 58  2  0  0  0
 57126  1  0  0  0
 58127  1  0  0  0
 59 60  1  0  0  0
 59 61  1  0  0  0
 59 62  1  0  0  0
 60128  1  0  0  0
 60129  1  0  0  0
 60130  1  0  0  0
 61131  1  0  0  0
 61132  1  0  0  0
 61133  1  0  0  0
 62134  1  0  0  0
 62135  1  0  0  0
 62136  1  0  0  0
 63 65  1  0  0  0
 63137  1  0  0  0
 63138  1  0  0  0
 63139  1  0  0  0
 64140  1  0  0  0
 65141  1  0  0  0
 68 78  1  0  0  0
 71 72  2  0  0  0
 71 74  1  0  0  0
 71142  1  0  0  0
 72 75  1  0  0  0
 72143  1  0  0  0
 73 75  2  0  0  0
 73 76  1  0  0  0
 73144  1  0  0  0
 74 76  2  0  0  0
 74 80  1  0  0  0
 75 81  1  0  0  0
 76 82  1  0  0  0
 77 78  1  0  0  0
 77 79  1  0  0  0
 77145  1  0  0  0
 77146  1  0  0  0
 78147  1  0  0  0
 78148  1  0  0  0
 79 81  1  0  0  0
 79149  1  0  0  0
 79150  1  0  0  0
 80151  1  0  0  0
M  ISO  4   1 100  68 101  78 101  80 100
M  END
> <chiral flag>
0

> <version>
0

> <s_m_source_file>
/data/baiqing/PycharmProjects/Reinvent-master-3.2/result/LINK_invent/BTK/process_docking_weight1_custom_product_contain_oxygen_bond_distance_aromatic_linkinvent_7_9_3/rearranged_h_0011.sdf

> <i_m_source_file_index>
54

> <r_mmod_Potential_Energy-OPLS-2005>
15.4443645477295

> <r_mmod_Stretch_Energy-OPLS-2005>
79.6489486694336

> <r_mmod_Bend_Energy-OPLS-2005>
146.260269165039

> <r_mmod_Torsional_Energy-OPLS-2005>
210.600006103516

> <r_mmod_Improper_Torsional_Energy-OPLS-2005>
3.52094030380249

> <r_mmod_Van_der_Waal_Energy-OPLS-2005>
144.31852722168

> <r_mmod_Electrostatic_Energy-OPLS-2005>
-413.311950683594

> <r_mmod_Solvation_Energy-OPLS-2005>
-204.80029296875

> <b_mmod_Minimization_Converged-OPLS-2005>
0

> <r_mmod_RMS_Derivative-OPLS-2005>
0.137855604290962

$$$$
54
                    3D
 Structure written by MMmdl.
148156  0  0  1  0            999 V2000
  -30.5089  -14.9122   20.4351 C   0  0  0  0  0  0
  -30.4555  -12.5616   19.4901 C   0  0  0  0  0  0
  -29.5264  -12.5317   18.2520 C   0  0  0  0  0  0
  -28.0565  -12.3206   18.6662 C   0  0  0  0  0  0
  -27.6389  -13.2354   19.8464 C   0  0  2  0  0  0
  -28.6835  -13.2119   20.9840 C   0  0  0  0  0  0
  -25.2500  -13.8182   20.5681 C   0  0  0  0  0  0
  -24.1806  -13.0431   20.9230 C   0  0  0  0  0  0
  -24.6402  -11.6911   20.8760 C   0  0  0  0  0  0
  -23.9076  -10.4289   21.0416 C   0  0  0  0  0  0
  -24.3624   -9.4201   21.9190 C   0  0  0  0  0  0
  -23.6294   -8.2240   22.0758 C   0  0  0  0  0  0
  -22.4276   -8.0282   21.3547 C   0  0  0  0  0  0
  -21.9915   -9.0259   20.4652 C   0  0  0  0  0  0
  -22.7249  -10.2135   20.3063 C   0  0  0  0  0  0
  -21.6853   -6.0736   22.5279 C   0  0  0  0  0  0
  -21.4015   -6.5640   23.8212 C   0  0  0  0  0  0
  -21.3659   -5.6793   24.9175 C   0  0  0  0  0  0
  -21.6044   -4.3056   24.7225 C   0  0  0  0  0  0
  -21.8818   -3.8147   23.4347 C   0  0  0  0  0  0
  -21.9192   -4.6963   22.3402 C   0  0  0  0  0  0
  -22.7826  -13.5218   21.1880 C   0  0  0  0  0  0
  -22.1661   -4.2149   21.0979 F   0  0  0  0  0  0
  -21.5626   -3.4539   25.7738 F   0  0  0  0  0  0
  -29.9682  -13.6307   20.4025 N   0  0  0  0  0  0
  -26.2925  -12.9392   20.3247 N   0  0  0  0  0  0
  -25.9332  -11.6537   20.5742 N   0  0  0  0  0  0
  -22.0465  -12.8213   22.0434 N   0  0  0  0  0  0
  -25.4162  -15.1901   20.4026 N   0  0  0  0  0  0
  -31.6970  -15.0562   20.1234 O   0  0  0  0  0  0
  -21.6639   -6.8881   21.4242 O   0  0  0  0  0  0
  -22.3518  -14.5520   20.6717 O   0  0  0  0  0  0
  -24.6422  -31.8456   23.1895 C   0  0  0  0  0  0
  -25.9199  -32.4704   23.8282 C   0  0  1  0  0  0
  -27.2214  -27.1519   20.1469 C   0  0  0  0  0  0
  -25.5952  -33.8509   24.2201 N   0  0  0  0  0  0
  -23.4453  -30.4654   21.5351 C   0  0  2  0  0  0
  -24.8953  -28.8959   20.1105 C   0  0  0  0  0  0
  -22.7562  -29.4552   22.4864 C   0  0  0  0  0  0
  -18.0305  -28.1392   22.8480 C   0  0  0  0  0  0
  -24.1492  -36.7261   23.2642 C   0  0  0  0  0  0
  -26.0006  -30.7245   21.3860 C   0  0  0  0  0  0
  -26.0728  -29.3373   20.7273 C   0  0  0  0  0  0
  -27.2369  -28.4820   20.7280 C   0  0  0  0  0  0
  -26.0152  -26.8096   19.4937 C   0  0  0  0  0  0
  -24.8787  -27.6448   19.4786 C   0  0  0  0  0  0
  -23.6712  -29.7962   20.1539 C   0  0  0  0  0  0
  -25.4122  -36.3038   24.0318 C   0  0  1  0  0  0
  -20.5917  -28.3717   23.1239 C   0  0  2  0  0  0
  -20.6789  -26.9422   22.5403 C   0  0  0  0  0  0
  -19.5760  -26.6380   21.5213 C   0  0  0  0  0  0
  -18.1944  -26.7931   22.1628 C   0  0  0  0  0  0
  -19.1562  -28.8873   23.2853 C   0  0  0  0  0  0
  -18.9477  -30.1469   23.8878 C   0  0  0  0  0  0
  -17.6473  -30.6589   24.0558 C   0  0  0  0  0  0
  -25.9071  -34.9412   23.5068 C   0  0  0  0  0  0
  -16.5365  -29.9082   23.6333 C   0  0  0  0  0  0
  -16.7289  -28.6500   23.0357 C   0  0  0  0  0  0
  -26.4522  -31.6564   25.0716 C   0  0  0  0  0  0
  -25.3712  -31.3749   26.1414 C   0  0  0  0  0  0
  -27.0385  -30.2963   24.6283 C   0  0  0  0  0  0
  -27.6053  -32.4328   25.7502 C   0  0  0  0  0  0
  -27.5575  -37.1788   24.8465 C   0  0  0  0  0  0
  -21.4255  -29.3048   22.3615 N   0  0  0  0  0  0
  -26.4286  -37.3749   23.9408 N   0  0  0  0  0  0
  -24.7158  -31.0325   22.0923 N   0  0  0  0  0  0
  -23.4210  -28.8096   23.3008 O   0  0  0  0  0  0
  -28.2796  -26.1752   20.2158 O   0  0  0  0  0  0
  -26.5655  -34.8906   22.4645 O   0  0  0  0  0  0
  -23.5543  -32.1325   23.7122 O   0  0  0  0  0  0
  -30.4979  -18.5502   20.3681 C   0  0  0  0  0  0
  -30.1918  -19.9876   20.3030 C   0  0  0  0  0  0
  -28.2013  -18.0915   20.6159 C   0  0  0  0  0  0
  -29.5058  -17.5125   20.5303 C   0  0  0  0  0  0
  -28.8604  -20.5427   20.3787 C   0  0  0  0  0  0
  -27.8953  -19.4982   20.5370 C   0  0  0  0  0  0
  -27.9814  -24.6559   20.0800 C   0  0  0  0  0  0
  -28.9666  -23.3090   20.3181 C   0  0  0  0  0  0
  -29.6181  -15.9877   20.6567 N   0  0  0  0  0  0
  -28.3436  -21.9122   20.2867 O   0  0  0  0  0  0
  -26.5907  -19.8568   20.6201 F   0  0  0  0  0  0
  -31.4867  -12.7370   19.1791 H   0  0  0  0  0  0
  -30.4561  -11.5962   19.9987 H   0  0  0  0  0  0
  -29.8377  -11.7454   17.5632 H   0  0  0  0  0  0
  -29.6191  -13.4710   17.7045 H   0  0  0  0  0  0
  -27.9424  -11.2750   18.9545 H   0  0  0  0  0  0
  -27.3955  -12.4747   17.8124 H   0  0  0  0  0  0
  -27.6160  -14.2467   19.4405 H   0  0  0  0  0  0
  -28.7608  -12.2155   21.4218 H   0  0  0  0  0  0
  -28.3869  -13.8773   21.7964 H   0  0  0  0  0  0
  -25.2769   -9.5672   22.4767 H   0  0  0  0  0  0
  -24.0000   -7.4629   22.7477 H   0  0  0  0  0  0
  -21.0844   -8.8784   19.8957 H   0  0  0  0  0  0
  -22.3712  -10.9678   19.6174 H   0  0  0  0  0  0
  -21.2010   -7.6149   23.9716 H   0  0  0  0  0  0
  -21.1480   -6.0523   25.9077 H   0  0  0  0  0  0
  -22.0597   -2.7608   23.2848 H   0  0  0  0  0  0
  -22.4083  -11.9878   22.4830 H   0  0  0  0  0  0
  -21.1084  -13.1242   22.2641 H   0  0  0  0  0  0
  -24.6295  -15.8261   20.4770 H   0  0  0  0  0  0
  -26.2182  -15.6066   19.9499 H   0  0  0  0  0  0
  -26.7265  -32.5316   23.1014 H   0  0  0  0  0  0
  -25.0077  -33.9626   25.0333 H   0  0  0  0  0  0
  -22.7472  -31.2910   21.3818 H   0  0  0  0  0  0
  -23.3757  -35.9590   23.3292 H   0  0  0  0  0  0
  -24.3578  -36.8903   22.2059 H   0  0  0  0  0  0
  -23.7245  -37.6454   23.6684 H   0  0  0  0  0  0
  -26.1536  -31.4794   20.6136 H   0  0  0  0  0  0
  -26.8721  -30.7754   22.0269 H   0  0  0  0  0  0
  -28.1335  -28.8156   21.2313 H   0  0  0  0  0  0
  -25.9102  -25.8553   19.0018 H   0  0  0  0  0  0
  -23.9801  -27.3016   18.9846 H   0  0  0  0  0  0
  -23.8070  -30.5716   19.3992 H   0  0  0  0  0  0
  -22.7864  -29.2380   19.8427 H   0  0  0  0  0  0
  -25.1309  -36.1869   25.0810 H   0  0  0  0  0  0
  -21.0010  -28.3306   24.1360 H   0  0  0  0  0  0
  -20.5685  -26.2330   23.3621 H   0  0  0  0  0  0
  -21.6654  -26.7429   22.1199 H   0  0  0  0  0  0
  -19.6921  -25.6286   21.1255 H   0  0  0  0  0  0
  -19.6694  -27.3179   20.6734 H   0  0  0  0  0  0
  -17.4210  -26.6673   21.4035 H   0  0  0  0  0  0
  -18.0346  -26.0078   22.9030 H   0  0  0  0  0  0
  -19.7952  -30.7291   24.2241 H   0  0  0  0  0  0
  -17.5025  -31.6268   24.5163 H   0  0  0  0  0  0
  -15.5364  -30.2977   23.7663 H   0  0  0  0  0  0
  -15.8691  -28.0808   22.7085 H   0  0  0  0  0  0
  -24.5894  -30.7094   25.7734 H   0  0  0  0  0  0
  -24.8898  -32.2930   26.4792 H   0  0  0  0  0  0
  -25.7998  -30.8952   27.0222 H   0  0  0  0  0  0
  -26.2998  -29.6690   24.1281 H   0  0  0  0  0  0
  -27.3997  -29.7256   25.4848 H   0  0  0  0  0  0
  -27.8906  -30.4204   23.9597 H   0  0  0  0  0  0
  -27.2645  -33.3646   26.2028 H   0  0  0  0  0  0
  -28.3892  -32.6860   25.0352 H   0  0  0  0  0  0
  -28.0689  -31.8488   26.5463 H   0  0  0  0  0  0
  -28.2585  -38.0091   24.7510 H   0  0  0  0  0  0
  -28.1079  -36.2622   24.6295 H   0  0  0  0  0  0
  -27.2293  -37.1437   25.8868 H   0  0  0  0  0  0
  -20.9461  -29.8768   21.6802 H   0  0  0  0  0  0
  -26.0155  -38.2818   24.1409 H   0  0  0  0  0  0
  -31.5349  -18.2525   20.2974 H   0  0  0  0  0  0
  -31.0171  -20.6732   20.1773 H   0  0  0  0  0  0
  -27.3590  -17.4297   20.7477 H   0  0  0  0  0  0
  -27.1214  -24.4889   20.7294 H   0  0  0  0  0  0
  -27.6025  -24.5258   19.0670 H   0  0  0  0  0  0
  -29.4518  -23.4117   21.2888 H   0  0  0  0  0  0
  -29.7707  -23.3307   19.5826 H   0  0  0  0  0  0
  -28.7268  -15.5824   20.8973 H   0  0  0  0  0  0
  1 25  1  0  0  0
  1 30  2  0  0  0
  1 79  1  0  0  0
  2  3  1  0  0  0
  2 25  1  0  0  0
  2 82  1  0  0  0
  2 83  1  0  0  0
  3  4  1  0  0  0
  3 84  1  0  0  0
  3 85  1  0  0  0
  4  5  1  0  0  0
  4 86  1  0  0  0
  4 87  1  0  0  0
  5  6  1  0  0  0
  5 26  1  0  0  0
  5 88  1  0  0  0
  6 25  1  0  0  0
  6 89  1  0  0  0
  6 90  1  0  0  0
  7  8  2  0  0  0
  7 26  1  0  0  0
  7 29  1  0  0  0
  8  9  1  0  0  0
  8 22  1  0  0  0
  9 10  1  0  0  0
  9 27  2  0  0  0
 10 11  2  0  0  0
 10 15  1  0  0  0
 11 12  1  0  0  0
 11 91  1  0  0  0
 12 13  2  0  0  0
 12 92  1  0  0  0
 13 14  1  0  0  0
 13 31  1  0  0  0
 14 15  2  0  0  0
 14 93  1  0  0  0
 15 94  1  0  0  0
 16 17  2  0  0  0
 16 21  1  0  0  0
 16 31  1  0  0  0
 17 18  1  0  0  0
 17 95  1  0  0  0
 18 19  2  0  0  0
 18 96  1  0  0  0
 19 20  1  0  0  0
 19 24  1  0  0  0
 20 21  2  0  0  0
 20 97  1  0  0  0
 21 23  1  0  0  0
 22 28  1  0  0  0
 22 32  2  0  0  0
 26 27  1  0  0  0
 28 98  1  0  0  0
 28 99  1  0  0  0
 29100  1  0  0  0
 29101  1  0  0  0
 33 34  1  0  0  0
 33 66  1  0  0  0
 33 70  2  0  0  0
 34 36  1  0  0  0
 34 59  1  0  0  0
 34102  1  0  0  0
 35 44  2  0  0  0
 35 45  1  0  0  0
 35 68  1  0  0  0
 36 56  1  0  0  0
 36103  1  0  0  0
 37 39  1  0  0  0
 37 47  1  0  0  0
 37 66  1  0  0  0
 37104  1  0  0  0
 38 43  2  0  0  0
 38 46  1  0  0  0
 38 47  1  0  0  0
 39 64  1  0  0  0
 39 67  2  0  0  0
 40 52  1  0  0  0
 40 53  2  0  0  0
 40 58  1  0  0  0
 41105  1  0  0  0
 41106  1  0  0  0
 41107  1  0  0  0
 41 48  1  0  0  0
 42 43  1  0  0  0
 42 66  1  0  0  0
 42108  1  0  0  0
 42109  1  0  0  0
 43 44  1  0  0  0
 44110  1  0  0  0
 45 46  2  0  0  0
 45111  1  0  0  0
 46112  1  0  0  0
 47113  1  0  0  0
 47114  1  0  0  0
 48 56  1  0  0  0
 48 65  1  0  0  0
 48115  1  0  0  0
 49 50  1  0  0  0
 49 53  1  0  0  0
 49 64  1  0  0  0
 49116  1  0  0  0
 50 51  1  0  0  0
 50117  1  0  0  0
 50118  1  0  0  0
 51 52  1  0  0  0
 51119  1  0  0  0
 51120  1  0  0  0
 52121  1  0  0  0
 52122  1  0  0  0
 53 54  1  0  0  0
 54 55  2  0  0  0
 54123  1  0  0  0
 55 57  1  0  0  0
 55124  1  0  0  0
 56 69  2  0  0  0
 57 58  2  0  0  0
 57125  1  0  0  0
 58126  1  0  0  0
 59 60  1  0  0  0
 59 61  1  0  0  0
 59 62  1  0  0  0
 60127  1  0  0  0
 60128  1  0  0  0
 60129  1  0  0  0
 61130  1  0  0  0
 61131  1  0  0  0
 61132  1  0  0  0
 62133  1  0  0  0
 62134  1  0  0  0
 62135  1  0  0  0
 63 65  1  0  0  0
 63136  1  0  0  0
 63137  1  0  0  0
 63138  1  0  0  0
 64139  1  0  0  0
 65140  1  0  0  0
 68 77  1  0  0  0
 71 72  2  0  0  0
 71 74  1  0  0  0
 71141  1  0  0  0
 72 75  1  0  0  0
 72142  1  0  0  0
 73 74  2  0  0  0
 73 76  1  0  0  0
 73143  1  0  0  0
 74 79  1  0  0  0
 75 76  2  0  0  0
 75 80  1  0  0  0
 76 81  1  0  0  0
 77 78  1  0  0  0
 77144  1  0  0  0
 77145  1  0  0  0
 78 80  1  0  0  0
 78146  1  0  0  0
 78147  1  0  0  0
 79148  1  0  0  0
M  ISO  4   1 100  68 101  77 101  79 100
M  END
> <chiral flag>
0

> <version>
0

> <s_m_source_file>
/data/baiqing/PycharmProjects/Reinvent-master-3.2/result/LINK_invent/BTK/process_docking_weight1_custom_product_contain_oxygen_bond_distance_aromatic_linkinvent_7_9_3/rearranged_h_0011.sdf

> <i_m_source_file_index>
55

> <r_mmod_Potential_Energy-OPLS-2005>
491.091247558594

> <r_mmod_Stretch_Energy-OPLS-2005>
216.953765869141

> <r_mmod_Bend_Energy-OPLS-2005>
302.484619140625

> <r_mmod_Torsional_Energy-OPLS-2005>
212.021713256836

> <r_mmod_Improper_Torsional_Energy-OPLS-2005>
4.76716709136963

> <r_mmod_Van_der_Waal_Energy-OPLS-2005>
130.573699951172

> <r_mmod_Electrostatic_Energy-OPLS-2005>
-337.487060546875

> <r_mmod_Solvation_Energy-OPLS-2005>
-212.451721191406

> <b_mmod_Minimization_Converged-OPLS-2005>
0

> <r_mmod_RMS_Derivative-OPLS-2005>
0.366873770952225

$$$$
55
                    3D
 Structure written by MMmdl.
150158  0  0  1  0            999 V2000
  -30.3905  -15.3359   20.3346 C   0  0  0  0  0  0
  -30.4395  -12.8511   19.5583 C   0  0  0  0  0  0
  -29.5469  -12.5853   18.3172 C   0  0  0  0  0  0
  -28.1010  -12.2851   18.7407 C   0  0  0  0  0  0
  -27.6102  -13.2753   19.8246 C   0  0  2  0  0  0
  -28.6293  -13.4959   20.9671 C   0  0  0  0  0  0
  -25.2386  -13.8248   20.5723 C   0  0  0  0  0  0
  -24.1733  -13.0453   20.9272 C   0  0  0  0  0  0
  -24.6363  -11.6957   20.8755 C   0  0  0  0  0  0
  -23.9061  -10.4306   21.0402 C   0  0  0  0  0  0
  -24.3602   -9.4221   21.9179 C   0  0  0  0  0  0
  -23.6287   -8.2245   22.0749 C   0  0  0  0  0  0
  -22.4274   -8.0276   21.3528 C   0  0  0  0  0  0
  -21.9903   -9.0261   20.4629 C   0  0  0  0  0  0
  -22.7227  -10.2142   20.3056 C   0  0  0  0  0  0
  -21.6859   -6.0736   22.5277 C   0  0  0  0  0  0
  -21.4021   -6.5625   23.8217 C   0  0  0  0  0  0
  -21.3656   -5.6765   24.9169 C   0  0  0  0  0  0
  -21.6038   -4.3033   24.7213 C   0  0  0  0  0  0
  -21.8817   -3.8143   23.4326 C   0  0  0  0  0  0
  -21.9190   -4.6966   22.3394 C   0  0  0  0  0  0
  -22.7752  -13.5226   21.1914 C   0  0  0  0  0  0
  -22.1657   -4.2157   21.0966 F   0  0  0  0  0  0
  -21.5627   -3.4506   25.7718 F   0  0  0  0  0  0
  -29.8633  -14.0062   20.3459 N   0  0  0  0  0  0
  -26.2789  -12.9513   20.3204 N   0  0  0  0  0  0
  -25.9300  -11.6615   20.5728 N   0  0  0  0  0  0
  -22.0371  -12.8240   22.0452 N   0  0  0  0  0  0
  -25.4031  -15.1970   20.4095 N   0  0  0  0  0  0
  -31.5996  -15.3549   20.0545 O   0  0  0  0  0  0
  -21.6621   -6.8885   21.4245 O   0  0  0  0  0  0
  -22.3439  -14.5503   20.6713 O   0  0  0  0  0  0
  -24.6673  -31.8205   23.1685 C   0  0  0  0  0  0
  -25.9318  -32.4584   23.8175 C   0  0  1  0  0  0
  -27.2141  -26.8966   20.1716 C   0  0  0  0  0  0
  -25.5974  -33.8398   24.2106 N   0  0  0  0  0  0
  -23.4812  -30.4329   21.5213 C   0  0  2  0  0  0
  -24.9334  -28.8144   20.1063 C   0  0  0  0  0  0
  -22.7681  -29.4467   22.4820 C   0  0  0  0  0  0
  -18.0344  -28.1328   22.8535 C   0  0  0  0  0  0
  -24.1502  -36.7197   23.2653 C   0  0  0  0  0  0
  -26.0538  -30.6133   21.4014 C   0  0  0  0  0  0
  -26.1186  -29.2010   20.7452 C   0  0  0  0  0  0
  -27.2513  -28.2636   20.7505 C   0  0  0  0  0  0
  -26.0020  -26.6714   19.4783 C   0  0  0  0  0  0
  -24.9048  -27.5752   19.4482 C   0  0  0  0  0  0
  -23.7184  -29.7439   20.1492 C   0  0  0  0  0  0
  -25.4130  -36.2973   24.0325 C   0  0  1  0  0  0
  -20.5971  -28.3725   23.1107 C   0  0  2  0  0  0
  -20.6897  -26.9482   22.5100 C   0  0  0  0  0  0
  -19.5640  -26.6333   21.5175 C   0  0  0  0  0  0
  -18.1957  -26.7784   22.1849 C   0  0  0  0  0  0
  -19.1606  -28.8852   23.2805 C   0  0  0  0  0  0
  -18.9506  -30.1451   23.8817 C   0  0  0  0  0  0
  -17.6489  -30.6530   24.0534 C   0  0  0  0  0  0
  -25.9095  -34.9345   23.5036 C   0  0  0  0  0  0
  -16.5375  -29.9020   23.6320 C   0  0  0  0  0  0
  -16.7309  -28.6427   23.0378 C   0  0  0  0  0  0
  -26.4548  -31.6523   25.0690 C   0  0  0  0  0  0
  -25.3694  -31.3747   26.1361 C   0  0  0  0  0  0
  -27.0426  -30.2899   24.6375 C   0  0  0  0  0  0
  -27.6050  -32.4320   25.7473 C   0  0  0  0  0  0
  -27.5573  -37.1759   24.8468 C   0  0  0  0  0  0
  -21.4349  -29.3093   22.3558 N   0  0  0  0  0  0
  -26.4276  -37.3708   23.9415 N   0  0  0  0  0  0
  -24.7559  -30.9830   22.0848 N   0  0  0  0  0  0
  -23.4227  -28.7989   23.3026 O   0  0  0  0  0  0
  -28.2145  -25.7829   20.2789 O   0  0  0  0  0  0
  -26.5697  -34.8849   22.4637 O   0  0  0  0  0  0
  -23.5752  -32.1206   23.6789 O   0  0  0  0  0  0
  -28.2569  -18.7193   19.2013 C   0  0  0  0  0  0
  -27.9034  -20.2939   19.3773 C   0  0  0  0  0  0
  -29.6237  -19.7443   20.8071 C   0  0  0  0  0  0
  -29.5460  -18.2265   19.9816 C   0  0  1  0  0  0
  -28.8274  -22.6200   20.6010 C   0  0  0  0  0  0
  -28.0920  -24.1500   19.9372 C   0  0  0  0  0  0
  -29.5911  -16.5944   20.4526 N   0  0  0  0  0  0
  -29.0215  -21.0359   20.0299 N   0  3  2  0  0  0
  -31.4555  -13.0679   19.2299 H   0  0  0  0  0  0
  -30.5237  -11.9611   20.1853 H   0  0  0  0  0  0
  -29.9525  -11.7609   17.7299 H   0  0  0  0  0  0
  -29.5584  -13.4622   17.6691 H   0  0  0  0  0  0
  -28.0769  -11.2699   19.1369 H   0  0  0  0  0  0
  -27.4349  -12.2948   17.8769 H   0  0  0  0  0  0
  -27.5108  -14.2273   19.3009 H   0  0  0  0  0  0
  -28.8053  -12.5830   21.5382 H   0  0  0  0  0  0
  -28.2426  -14.2357   21.6736 H   0  0  0  0  0  0
  -25.2731   -9.5696   22.4784 H   0  0  0  0  0  0
  -23.9993   -7.4624   22.7463 H   0  0  0  0  0  0
  -21.0836   -8.8757   19.8936 H   0  0  0  0  0  0
  -22.3664  -10.9680   19.6182 H   0  0  0  0  0  0
  -21.2028   -7.6130   23.9733 H   0  0  0  0  0  0
  -21.1481   -6.0477   25.9073 H   0  0  0  0  0  0
  -22.0614   -2.7612   23.2800 H   0  0  0  0  0  0
  -22.3944  -11.9905   22.4868 H   0  0  0  0  0  0
  -21.1004  -13.1340   22.2641 H   0  0  0  0  0  0
  -24.6222  -15.8399   20.4816 H   0  0  0  0  0  0
  -26.2244  -15.6217   20.0028 H   0  0  0  0  0  0
  -26.7377  -32.5090   23.0886 H   0  0  0  0  0  0
  -25.0096  -33.9468   25.0240 H   0  0  0  0  0  0
  -22.7990  -31.2686   21.3515 H   0  0  0  0  0  0
  -23.3773  -35.9529   23.3286 H   0  0  0  0  0  0
  -24.3600  -36.8849   22.2077 H   0  0  0  0  0  0
  -23.7226  -37.6367   23.6704 H   0  0  0  0  0  0
  -26.2334  -31.3476   20.6162 H   0  0  0  0  0  0
  -26.9179  -30.6800   22.0496 H   0  0  0  0  0  0
  -28.1524  -28.5570   21.2721 H   0  0  0  0  0  0
  -25.8588  -25.7242   18.9816 H   0  0  0  0  0  0
  -24.0060  -27.2849   18.9200 H   0  0  0  0  0  0
  -23.8603  -30.5100   19.3867 H   0  0  0  0  0  0
  -22.8245  -29.1937   19.8455 H   0  0  0  0  0  0
  -25.1329  -36.1811   25.0824 H   0  0  0  0  0  0
  -21.0078  -28.3212   24.1206 H   0  0  0  0  0  0
  -20.6258  -26.2236   23.3235 H   0  0  0  0  0  0
  -21.6633  -26.7782   22.0483 H   0  0  0  0  0  0
  -19.6750  -25.6234   21.1191 H   0  0  0  0  0  0
  -19.6265  -27.3139   20.6682 H   0  0  0  0  0  0
  -17.4028  -26.6234   21.4505 H   0  0  0  0  0  0
  -18.0624  -26.0045   22.9435 H   0  0  0  0  0  0
  -19.7964  -30.7323   24.2164 H   0  0  0  0  0  0
  -17.5017  -31.6219   24.5120 H   0  0  0  0  0  0
  -15.5376  -30.2926   23.7644 H   0  0  0  0  0  0
  -15.8717  -28.0704   22.7131 H   0  0  0  0  0  0
  -24.5887  -30.7080   25.7673 H   0  0  0  0  0  0
  -24.8842  -32.2924   26.4688 H   0  0  0  0  0  0
  -25.7939  -30.8975   27.0206 H   0  0  0  0  0  0
  -26.3079  -29.6587   24.1351 H   0  0  0  0  0  0
  -27.3954  -29.7240   25.5005 H   0  0  0  0  0  0
  -27.9034  -30.4081   23.9790 H   0  0  0  0  0  0
  -27.2641  -33.3675   26.1917 H   0  0  0  0  0  0
  -28.3910  -32.6799   25.0326 H   0  0  0  0  0  0
  -28.0671  -31.8530   26.5475 H   0  0  0  0  0  0
  -28.2586  -38.0061   24.7518 H   0  0  0  0  0  0
  -28.1080  -36.2585   24.6321 H   0  0  0  0  0  0
  -27.2283  -37.1427   25.8867 H   0  0  0  0  0  0
  -20.9626  -29.8815   21.6692 H   0  0  0  0  0  0
  -26.0140  -38.2781   24.1397 H   0  0  0  0  0  0
  -28.3735  -18.4982   18.1401 H   0  0  0  0  0  0
  -27.3858  -18.1405   19.5081 H   0  0  0  0  0  0
  -27.0176  -20.3995   20.0038 H   0  0  0  0  0  0
  -27.6535  -20.7494   18.4183 H   0  0  0  0  0  0
  -30.6537  -19.9497   21.0997 H   0  0  0  0  0  0
  -29.0811  -19.6595   21.7491 H   0  0  0  0  0  0
  -30.3595  -18.2759   19.2562 H   0  0  0  0  0  0
  -28.3853  -22.5047   21.5896 H   0  0  0  0  0  0
  -29.8592  -22.9044   20.8126 H   0  0  0  0  0  0
  -27.0199  -23.9528   19.9596 H   0  0  0  0  0  0
  -28.3337  -24.1190   18.8742 H   0  0  0  0  0  0
  -28.6796  -16.3366   20.8022 H   0  0  0  0  0  0
  -29.6810  -21.1623   19.2743 H   0  0  0  0  0  0
  1 25  1  0  0  0
  1 30  2  0  0  0
  1 77  1  0  0  0
  2  3  1  0  0  0
  2 25  1  0  0  0
  2 79  1  0  0  0
  2 80  1  0  0  0
  3  4  1  0  0  0
  3 81  1  0  0  0
  3 82  1  0  0  0
  4  5  1  0  0  0
  4 83  1  0  0  0
  4 84  1  0  0  0
  5  6  1  0  0  0
  5 26  1  0  0  0
  5 85  1  0  0  0
  6 25  1  0  0  0
  6 86  1  0  0  0
  6 87  1  0  0  0
  7  8  2  0  0  0
  7 26  1  0  0  0
  7 29  1  0  0  0
  8  9  1  0  0  0
  8 22  1  0  0  0
  9 10  1  0  0  0
  9 27  2  0  0  0
 10 11  2  0  0  0
 10 15  1  0  0  0
 11 12  1  0  0  0
 11 88  1  0  0  0
 12 13  2  0  0  0
 12 89  1  0  0  0
 13 14  1  0  0  0
 13 31  1  0  0  0
 14 15  2  0  0  0
 14 90  1  0  0  0
 15 91  1  0  0  0
 16 17  2  0  0  0
 16 21  1  0  0  0
 16 31  1  0  0  0
 17 18  1  0  0  0
 17 92  1  0  0  0
 18 19  2  0  0  0
 18 93  1  0  0  0
 19 20  1  0  0  0
 19 24  1  0  0  0
 20 21  2  0  0  0
 20 94  1  0  0  0
 21 23  1  0  0  0
 22 28  1  0  0  0
 22 32  2  0  0  0
 26 27  1  0  0  0
 28 95  1  0  0  0
 28 96  1  0  0  0
 29 97  1  0  0  0
 29 98  1  0  0  0
 33 34  1  0  0  0
 33 66  1  0  0  0
 33 70  2  0  0  0
 34 36  1  0  0  0
 34 59  1  0  0  0
 34 99  1  0  0  0
 35 44  2  0  0  0
 35 45  1  0  0  0
 35 68  1  0  0  0
 36 56  1  0  0  0
 36100  1  0  0  0
 37 39  1  0  0  0
 37 47  1  0  0  0
 37 66  1  0  0  0
 37101  1  0  0  0
 38 43  2  0  0  0
 38 46  1  0  0  0
 38 47  1  0  0  0
 39 64  1  0  0  0
 39 67  2  0  0  0
 40 52  1  0  0  0
 40 53  2  0  0  0
 40 58  1  0  0  0
 41102  1  0  0  0
 41103  1  0  0  0
 41104  1  0  0  0
 41 48  1  0  0  0
 42 43  1  0  0  0
 42 66  1  0  0  0
 42105  1  0  0  0
 42106  1  0  0  0
 43 44  1  0  0  0
 44107  1  0  0  0
 45 46  2  0  0  0
 45108  1  0  0  0
 46109  1  0  0  0
 47110  1  0  0  0
 47111  1  0  0  0
 48 56  1  0  0  0
 48 65  1  0  0  0
 48112  1  0  0  0
 49 50  1  0  0  0
 49 53  1  0  0  0
 49 64  1  0  0  0
 49113  1  0  0  0
 50 51  1  0  0  0
 50114  1  0  0  0
 50115  1  0  0  0
 51 52  1  0  0  0
 51116  1  0  0  0
 51117  1  0  0  0
 52118  1  0  0  0
 52119  1  0  0  0
 53 54  1  0  0  0
 54 55  2  0  0  0
 54120  1  0  0  0
 55 57  1  0  0  0
 55121  1  0  0  0
 56 69  2  0  0  0
 57 58  2  0  0  0
 57122  1  0  0  0
 58123  1  0  0  0
 59 60  1  0  0  0
 59 61  1  0  0  0
 59 62  1  0  0  0
 60124  1  0  0  0
 60125  1  0  0  0
 60126  1  0  0  0
 61127  1  0  0  0
 61128  1  0  0  0
 61129  1  0  0  0
 62130  1  0  0  0
 62131  1  0  0  0
 62132  1  0  0  0
 63 65  1  0  0  0
 63133  1  0  0  0
 63134  1  0  0  0
 63135  1  0  0  0
 64136  1  0  0  0
 65137  1  0  0  0
 68 76  1  0  0  0
 71 72  1  0  0  0
 71 74  1  0  0  0
 71138  1  0  0  0
 71139  1  0  0  0
 72 78  1  0  0  0
 72140  1  0  0  0
 72141  1  0  0  0
 73 74  1  0  0  0
 73 78  1  0  0  0
 73142  1  0  0  0
 73143  1  0  0  0
 74 77  1  0  0  0
 74144  1  0  0  0
 75 76  1  0  0  0
 75145  1  0  0  0
 75146  1  0  0  0
 75 78  1  0  0  0
 76147  1  0  0  0
 76148  1  0  0  0
 77149  1  0  0  0
 78150  1  0  0  0
M  CHG  1  78   1
M  ISO  4   1 100  68 101  76 101  77 100
M  END
> <chiral flag>
0

> <version>
0

> <s_m_source_file>
/data/baiqing/PycharmProjects/Reinvent-master-3.2/result/LINK_invent/BTK/process_docking_weight1_custom_product_contain_oxygen_bond_distance_aromatic_linkinvent_7_9_3/rearranged_h_0011.sdf

> <i_m_source_file_index>
56

> <r_mmod_Potential_Energy-OPLS-2005>
1360.91271972656

> <r_mmod_Stretch_Energy-OPLS-2005>
623.59765625

> <r_mmod_Bend_Energy-OPLS-2005>
521.831970214844

> <r_mmod_Torsional_Energy-OPLS-2005>
273.570373535156

> <r_mmod_Improper_Torsional_Energy-OPLS-2005>
4.57925128936768

> <r_mmod_Van_der_Waal_Energy-OPLS-2005>
105.543487548828

> <r_mmod_Electrostatic_Energy-OPLS-2005>
-234.801788330078

> <r_mmod_Solvation_Energy-OPLS-2005>
-462.451995849609

> <b_mmod_Minimization_Converged-OPLS-2005>
0

> <r_mmod_RMS_Derivative-OPLS-2005>
4.75067710876465

$$$$
56
                    3D
 Structure written by MMmdl.
153162  0  0  1  0            999 V2000
  -30.5011  -14.9501   20.4203 C   0  0  0  0  0  0
  -30.4530  -12.5884   19.4893 C   0  0  0  0  0  0
  -29.5251  -12.5277   18.2517 C   0  0  0  0  0  0
  -28.0575  -12.3110   18.6714 C   0  0  0  0  0  0
  -27.6331  -13.2385   19.8397 C   0  0  2  0  0  0
  -28.6776  -13.2460   20.9761 C   0  0  0  0  0  0
  -25.2477  -13.8187   20.5677 C   0  0  0  0  0  0
  -24.1791  -13.0427   20.9230 C   0  0  0  0  0  0
  -24.6398  -11.6911   20.8769 C   0  0  0  0  0  0
  -23.9076  -10.4287   21.0422 C   0  0  0  0  0  0
  -24.3628   -9.4201   21.9197 C   0  0  0  0  0  0
  -23.6300   -8.2239   22.0761 C   0  0  0  0  0  0
  -22.4281   -8.0283   21.3548 C   0  0  0  0  0  0
  -21.9920   -9.0255   20.4648 C   0  0  0  0  0  0
  -22.7253  -10.2132   20.3065 C   0  0  0  0  0  0
  -21.6850   -6.0743   22.5281 C   0  0  0  0  0  0
  -21.4010   -6.5646   23.8215 C   0  0  0  0  0  0
  -21.3659   -5.6795   24.9173 C   0  0  0  0  0  0
  -21.6042   -4.3058   24.7219 C   0  0  0  0  0  0
  -21.8820   -3.8151   23.4342 C   0  0  0  0  0  0
  -21.9191   -4.6971   22.3401 C   0  0  0  0  0  0
  -22.7810  -13.5208   21.1884 C   0  0  0  0  0  0
  -22.1661   -4.2158   21.0980 F   0  0  0  0  0  0
  -21.5629   -3.4540   25.7732 F   0  0  0  0  0  0
  -29.9521  -13.6702   20.3811 N   0  0  0  0  0  0
  -26.2901  -12.9402   20.3235 N   0  0  0  0  0  0
  -25.9327  -11.6542   20.5746 N   0  0  0  0  0  0
  -22.0455  -12.8198   22.0431 N   0  0  0  0  0  0
  -25.4114  -15.1914   20.4036 N   0  0  0  0  0  0
  -31.7072  -15.0665   20.1732 O   0  0  0  0  0  0
  -21.6642   -6.8885   21.4244 O   0  0  0  0  0  0
  -22.3504  -14.5521   20.6734 O   0  0  0  0  0  0
  -24.6432  -31.8435   23.1855 C   0  0  0  0  0  0
  -25.9197  -32.4696   23.8254 C   0  0  1  0  0  0
  -27.2229  -27.1404   20.1613 C   0  0  0  0  0  0
  -25.5949  -33.8501   24.2183 N   0  0  0  0  0  0
  -23.4469  -30.4603   21.5316 C   0  0  2  0  0  0
  -24.8964  -28.8774   20.1176 C   0  0  0  0  0  0
  -22.7559  -29.4548   22.4862 C   0  0  0  0  0  0
  -18.0299  -28.1400   22.8484 C   0  0  0  0  0  0
  -24.1489  -36.7251   23.2640 C   0  0  0  0  0  0
  -26.0008  -30.7199   21.3795 C   0  0  0  0  0  0
  -26.0737  -29.3282   20.7284 C   0  0  0  0  0  0
  -27.2411  -28.4780   20.7251 C   0  0  0  0  0  0
  -26.0180  -26.7780   19.5255 C   0  0  0  0  0  0
  -24.8797  -27.6154   19.5013 C   0  0  0  0  0  0
  -23.6729  -29.7806   20.1544 C   0  0  0  0  0  0
  -25.4120  -36.3033   24.0317 C   0  0  1  0  0  0
  -20.5916  -28.3722   23.1243 C   0  0  2  0  0  0
  -20.6787  -26.9423   22.5409 C   0  0  0  0  0  0
  -19.5760  -26.6387   21.5218 C   0  0  0  0  0  0
  -18.1940  -26.7944   22.1626 C   0  0  0  0  0  0
  -19.1557  -28.8878   23.2861 C   0  0  0  0  0  0
  -18.9477  -30.1476   23.8884 C   0  0  0  0  0  0
  -17.6474  -30.6600   24.0565 C   0  0  0  0  0  0
  -25.9068  -34.9408   23.5059 C   0  0  0  0  0  0
  -16.5361  -29.9097   23.6339 C   0  0  0  0  0  0
  -16.7283  -28.6512   23.0362 C   0  0  0  0  0  0
  -26.4508  -31.6559   25.0697 C   0  0  0  0  0  0
  -25.3698  -31.3813   26.1415 C   0  0  0  0  0  0
  -27.0303  -30.2927   24.6268 C   0  0  0  0  0  0
  -27.6084  -32.4275   25.7463 C   0  0  0  0  0  0
  -27.5576  -37.1780   24.8465 C   0  0  0  0  0  0
  -21.4251  -29.3050   22.3614 N   0  0  0  0  0  0
  -26.4283  -37.3748   23.9414 N   0  0  0  0  0  0
  -24.7170  -31.0295   22.0881 N   0  0  0  0  0  0
  -23.4200  -28.8098   23.3017 O   0  0  0  0  0  0
  -28.3026  -26.1907   20.1578 O   0  0  0  0  0  0
  -26.5654  -34.8910   22.4638 O   0  0  0  0  0  0
  -23.5549  -32.1295   23.7082 O   0  0  0  0  0  0
  -30.1427  -19.9397   21.3229 C   0  0  0  0  0  0
  -28.5452  -19.7942   19.6124 C   0  0  0  0  0  0
  -30.3499  -18.4954   21.2873 C   0  0  0  0  0  0
  -28.7245  -18.3453   19.5989 C   0  0  0  0  0  0
  -29.2234  -20.6946   20.5007 C   0  0  0  0  0  0
  -29.6367  -17.5955   20.4284 C   0  0  0  0  0  0
  -29.1146  -24.3827   21.7327 C   0  0  0  0  0  0
  -29.1946  -22.8331   21.9267 C   0  0  0  0  0  0
  -28.4721  -23.3054   19.7362 C   0  0  0  0  0  0
  -28.1508  -24.6972   20.5732 C   0  0  2  0  0  0
  -29.0037  -22.1726   20.6318 N   0  0  0  0  0  0
  -29.6152  -16.0593   20.5055 N   0  0  0  0  0  0
  -31.4814  -12.7721   19.1743 H   0  0  0  0  0  0
  -30.4663  -11.6321   20.0142 H   0  0  0  0  0  0
  -29.8446  -11.7305   17.5790 H   0  0  0  0  0  0
  -29.6087  -13.4565   17.6854 H   0  0  0  0  0  0
  -27.9547  -11.2689   18.9764 H   0  0  0  0  0  0
  -27.3923  -12.4445   17.8173 H   0  0  0  0  0  0
  -27.6001  -14.2428   19.4174 H   0  0  0  0  0  0
  -28.7672  -12.2606   21.4366 H   0  0  0  0  0  0
  -28.3766  -13.9301   21.7718 H   0  0  0  0  0  0
  -25.2772   -9.5677   22.4773 H   0  0  0  0  0  0
  -24.0006   -7.4627   22.7478 H   0  0  0  0  0  0
  -21.0852   -8.8776   19.8948 H   0  0  0  0  0  0
  -22.3718  -10.9675   19.6173 H   0  0  0  0  0  0
  -21.2002   -7.6155   23.9720 H   0  0  0  0  0  0
  -21.1479   -6.0525   25.9076 H   0  0  0  0  0  0
  -22.0600   -2.7613   23.2835 H   0  0  0  0  0  0
  -22.4068  -11.9851   22.4808 H   0  0  0  0  0  0
  -21.1071  -13.1225   22.2634 H   0  0  0  0  0  0
  -24.6289  -15.8305   20.4959 H   0  0  0  0  0  0
  -26.2282  -15.6289   19.9990 H   0  0  0  0  0  0
  -26.7269  -32.5304   23.0989 H   0  0  0  0  0  0
  -25.0087  -33.9612   25.0328 H   0  0  0  0  0  0
  -22.7506  -31.2867   21.3731 H   0  0  0  0  0  0
  -23.3773  -35.9559   23.3256 H   0  0  0  0  0  0
  -24.3585  -36.8916   22.2062 H   0  0  0  0  0  0
  -23.7205  -37.6422   23.6692 H   0  0  0  0  0  0
  -26.1490  -31.4697   20.6011 H   0  0  0  0  0  0
  -26.8747  -30.7783   22.0165 H   0  0  0  0  0  0
  -28.1466  -28.8255   21.2021 H   0  0  0  0  0  0
  -25.9483  -25.8090   19.0513 H   0  0  0  0  0  0
  -23.9782  -27.2644   19.0178 H   0  0  0  0  0  0
  -23.8097  -30.5496   19.3934 H   0  0  0  0  0  0
  -22.7882  -29.2198   19.8469 H   0  0  0  0  0  0
  -25.1305  -36.1857   25.0808 H   0  0  0  0  0  0
  -21.0011  -28.3307   24.1363 H   0  0  0  0  0  0
  -20.5673  -26.2333   23.3628 H   0  0  0  0  0  0
  -21.6650  -26.7427   22.1208 H   0  0  0  0  0  0
  -19.6922  -25.6294   21.1251 H   0  0  0  0  0  0
  -19.6703  -27.3199   20.6751 H   0  0  0  0  0  0
  -17.4208  -26.6684   21.4030 H   0  0  0  0  0  0
  -18.0342  -26.0094   22.9031 H   0  0  0  0  0  0
  -19.7951  -30.7300   24.2239 H   0  0  0  0  0  0
  -17.5028  -31.6280   24.5170 H   0  0  0  0  0  0
  -15.5363  -30.3000   23.7677 H   0  0  0  0  0  0
  -15.8678  -28.0830   22.7090 H   0  0  0  0  0  0
  -24.5830  -30.7208   25.7754 H   0  0  0  0  0  0
  -24.8957  -32.3036   26.4786 H   0  0  0  0  0  0
  -25.7969  -30.9002   27.0224 H   0  0  0  0  0  0
  -26.2874  -29.6698   24.1275 H   0  0  0  0  0  0
  -27.3884  -29.7193   25.4828 H   0  0  0  0  0  0
  -27.8816  -30.4116   23.9566 H   0  0  0  0  0  0
  -27.2774  -33.3700   26.1836 H   0  0  0  0  0  0
  -28.4015  -32.6591   25.0342 H   0  0  0  0  0  0
  -28.0583  -31.8481   26.5534 H   0  0  0  0  0  0
  -28.2586  -38.0084   24.7515 H   0  0  0  0  0  0
  -28.1075  -36.2612   24.6280 H   0  0  0  0  0  0
  -27.2300  -37.1416   25.8869 H   0  0  0  0  0  0
  -20.9453  -29.8756   21.6792 H   0  0  0  0  0  0
  -26.0148  -38.2812   24.1433 H   0  0  0  0  0  0
  -30.7354  -20.4797   22.0459 H   0  0  0  0  0  0
  -27.8115  -20.2111   18.9372 H   0  0  0  0  0  0
  -31.0500  -18.0717   21.9936 H   0  0  0  0  0  0
  -28.0961  -17.7890   18.9180 H   0  0  0  0  0  0
  -30.1064  -24.7516   21.4683 H   0  0  0  0  0  0
  -28.8263  -24.8931   22.6526 H   0  0  0  0  0  0
  -28.4038  -22.5049   22.6032 H   0  0  0  0  0  0
  -30.1454  -22.5639   22.3871 H   0  0  0  0  0  0
  -29.2327  -23.5138   18.9827 H   0  0  0  0  0  0
  -27.5843  -22.9767   19.1936 H   0  0  0  0  0  0
  -27.1394  -24.5886   20.9679 H   0  0  0  0  0  0
  -28.6724  -15.7064   20.5518 H   0  0  0  0  0  0
  1 25  1  0  0  0
  1 30  2  0  0  0
  1 82  1  0  0  0
  2  3  1  0  0  0
  2 25  1  0  0  0
  2 83  1  0  0  0
  2 84  1  0  0  0
  3  4  1  0  0  0
  3 85  1  0  0  0
  3 86  1  0  0  0
  4  5  1  0  0  0
  4 87  1  0  0  0
  4 88  1  0  0  0
  5  6  1  0  0  0
  5 26  1  0  0  0
  5 89  1  0  0  0
  6 25  1  0  0  0
  6 90  1  0  0  0
  6 91  1  0  0  0
  7  8  2  0  0  0
  7 26  1  0  0  0
  7 29  1  0  0  0
  8  9  1  0  0  0
  8 22  1  0  0  0
  9 10  1  0  0  0
  9 27  2  0  0  0
 10 11  2  0  0  0
 10 15  1  0  0  0
 11 12  1  0  0  0
 11 92  1  0  0  0
 12 13  2  0  0  0
 12 93  1  0  0  0
 13 14  1  0  0  0
 13 31  1  0  0  0
 14 15  2  0  0  0
 14 94  1  0  0  0
 15 95  1  0  0  0
 16 17  2  0  0  0
 16 21  1  0  0  0
 16 31  1  0  0  0
 17 18  1  0  0  0
 17 96  1  0  0  0
 18 19  2  0  0  0
 18 97  1  0  0  0
 19 20  1  0  0  0
 19 24  1  0  0  0
 20 21  2  0  0  0
 20 98  1  0  0  0
 21 23  1  0  0  0
 22 28  1  0  0  0
 22 32  2  0  0  0
 26 27  1  0  0  0
 28 99  1  0  0  0
 28100  1  0  0  0
 29101  1  0  0  0
 29102  1  0  0  0
 33 34  1  0  0  0
 33 66  1  0  0  0
 33 70  2  0  0  0
 34 36  1  0  0  0
 34 59  1  0  0  0
 34103  1  0  0  0
 35 44  2  0  0  0
 35 45  1  0  0  0
 35 68  1  0  0  0
 36 56  1  0  0  0
 36104  1  0  0  0
 37 39  1  0  0  0
 37 47  1  0  0  0
 37 66  1  0  0  0
 37105  1  0  0  0
 38 43  2  0  0  0
 38 46  1  0  0  0
 38 47  1  0  0  0
 39 64  1  0  0  0
 39 67  2  0  0  0
 40 52  1  0  0  0
 40 53  2  0  0  0
 40 58  1  0  0  0
 41106  1  0  0  0
 41107  1  0  0  0
 41108  1  0  0  0
 41 48  1  0  0  0
 42 43  1  0  0  0
 42 66  1  0  0  0
 42109  1  0  0  0
 42110  1  0  0  0
 43 44  1  0  0  0
 44111  1  0  0  0
 45 46  2  0  0  0
 45112  1  0  0  0
 46113  1  0  0  0
 47114  1  0  0  0
 47115  1  0  0  0
 48 56  1  0  0  0
 48 65  1  0  0  0
 48116  1  0  0  0
 49 50  1  0  0  0
 49 53  1  0  0  0
 49 64  1  0  0  0
 49117  1  0  0  0
 50 51  1  0  0  0
 50118  1  0  0  0
 50119  1  0  0  0
 51 52  1  0  0  0
 51120  1  0  0  0
 51121  1  0  0  0
 52122  1  0  0  0
 52123  1  0  0  0
 53 54  1  0  0  0
 54 55  2  0  0  0
 54124  1  0  0  0
 55 57  1  0  0  0
 55125  1  0  0  0
 56 69  2  0  0  0
 57 58  2  0  0  0
 57126  1  0  0  0
 58127  1  0  0  0
 59 60  1  0  0  0
 59 61  1  0  0  0
 59 62  1  0  0  0
 60128  1  0  0  0
 60129  1  0  0  0
 60130  1  0  0  0
 61131  1  0  0  0
 61132  1  0  0  0
 61133  1  0  0  0
 62134  1  0  0  0
 62135  1  0  0  0
 62136  1  0  0  0
 63 65  1  0  0  0
 63137  1  0  0  0
 63138  1  0  0  0
 63139  1  0  0  0
 64140  1  0  0  0
 65141  1  0  0  0
 68 80  1  0  0  0
 71 73  2  0  0  0
 71 75  1  0  0  0
 71142  1  0  0  0
 72 74  1  0  0  0
 72 75  2  0  0  0
 72143  1  0  0  0
 73 76  1  0  0  0
 73144  1  0  0  0
 74 76  2  0  0  0
 74145  1  0  0  0
 75 81  1  0  0  0
 76 82  1  0  0  0
 77 78  1  0  0  0
 77 80  1  0  0  0
 77146  1  0  0  0
 77147  1  0  0  0
 78 81  1  0  0  0
 78148  1  0  0  0
 78149  1  0  0  0
 79 80  1  0  0  0
 79 81  1  0  0  0
 79150  1  0  0  0
 79151  1  0  0  0
 80152  1  0  0  0
 82153  1  0  0  0
M  ISO  4   1 100  68 101  80 101  82 100
M  END
> <chiral flag>
0

> <version>
0

> <s_m_source_file>
/data/baiqing/PycharmProjects/Reinvent-master-3.2/result/LINK_invent/BTK/process_docking_weight1_custom_product_contain_oxygen_bond_distance_aromatic_linkinvent_7_9_3/rearranged_h_0011.sdf

> <i_m_source_file_index>
57

> <r_mmod_Potential_Energy-OPLS-2005>
525.946105957031

> <r_mmod_Stretch_Energy-OPLS-2005>
213.858779907227

> <r_mmod_Bend_Energy-OPLS-2005>
307.925323486328

> <r_mmod_Torsional_Energy-OPLS-2005>
299.310577392578

> <r_mmod_Improper_Torsional_Energy-OPLS-2005>
7.30253410339355

> <r_mmod_Van_der_Waal_Energy-OPLS-2005>
124.300971984863

> <r_mmod_Electrostatic_Energy-OPLS-2005>
-383.096618652344

> <r_mmod_Solvation_Energy-OPLS-2005>
-232.282287597656

> <b_mmod_Minimization_Converged-OPLS-2005>
0

> <r_mmod_RMS_Derivative-OPLS-2005>
0.949168264865875

$$$$
57
                    3D
 Structure written by MMmdl.
171180  0  0  1  0            999 V2000
  -30.8034  -14.3508   20.6252 C   0  0  0  0  0  0
  -30.3996  -12.2583   19.4054 C   0  0  0  0  0  0
  -29.4748  -12.5139   18.1997 C   0  0  0  0  0  0
  -28.0080  -12.3504   18.6336 C   0  0  0  0  0  0
  -27.6691  -13.1997   19.8866 C   0  0  2  0  0  0
  -28.7133  -12.9742   21.0088 C   0  0  0  0  0  0
  -25.2627  -13.8154   20.5709 C   0  0  0  0  0  0
  -24.1842  -13.0430   20.9167 C   0  0  0  0  0  0
  -24.6389  -11.6897   20.8742 C   0  0  0  0  0  0
  -23.9039  -10.4284   21.0432 C   0  0  0  0  0  0
  -24.3597   -9.4190   21.9193 C   0  0  0  0  0  0
  -23.6272   -8.2229   22.0758 C   0  0  0  0  0  0
  -22.4248   -8.0269   21.3562 C   0  0  0  0  0  0
  -21.9881   -9.0249   20.4669 C   0  0  0  0  0  0
  -22.7207  -10.2130   20.3078 C   0  0  0  0  0  0
  -21.6842   -6.0723   22.5272 C   0  0  0  0  0  0
  -21.4022   -6.5630   23.8200 C   0  0  0  0  0  0
  -21.3660   -5.6792   24.9174 C   0  0  0  0  0  0
  -21.6039   -4.3055   24.7232 C   0  0  0  0  0  0
  -21.8814   -3.8134   23.4356 C   0  0  0  0  0  0
  -21.9193   -4.6955   22.3410 C   0  0  0  0  0  0
  -22.7875  -13.5250   21.1836 C   0  0  0  0  0  0
  -22.1654   -4.2130   21.0998 F   0  0  0  0  0  0
  -21.5627   -3.4540   25.7749 F   0  0  0  0  0  0
  -30.0581  -13.2283   20.4579 N   0  0  0  0  0  0
  -26.3070  -12.9309   20.3474 N   0  0  0  0  0  0
  -25.9325  -11.6466   20.5842 N   0  0  0  0  0  0
  -22.0514  -12.8251   22.0406 N   0  0  0  0  0  0
  -25.4408  -15.1851   20.4060 N   0  0  0  0  0  0
  -31.8434  -14.5656   19.9988 O   0  0  0  0  0  0
  -21.6623   -6.8861   21.4224 O   0  0  0  0  0  0
  -22.3571  -14.5552   20.6694 O   0  0  0  0  0  0
  -24.6101  -31.8745   23.2177 C   0  0  0  0  0  0
  -25.9027  -32.4791   23.8460 C   0  0  1  0  0  0
  -27.2241  -27.4721   20.0755 C   0  0  0  0  0  0
  -25.5964  -33.8604   24.2396 N   0  0  0  0  0  0
  -23.3952  -30.5020   21.5546 C   0  0  2  0  0  0
  -24.8366  -28.9710   20.1178 C   0  0  0  0  0  0
  -22.7391  -29.4666   22.4987 C   0  0  0  0  0  0
  -18.0284  -28.1349   22.8477 C   0  0  0  0  0  0
  -24.1543  -36.7275   23.2615 C   0  0  0  0  0  0
  -25.9242  -30.8441   21.3695 C   0  0  0  0  0  0
  -25.9978  -29.4845   20.7097 C   0  0  0  0  0  0
  -27.1969  -28.7413   20.6880 C   0  0  0  0  0  0
  -26.0446  -26.9627   19.4845 C   0  0  0  0  0  0
  -24.8523  -27.7046   19.5050 C   0  0  0  0  0  0
  -23.6021  -29.8409   20.1649 C   0  0  0  0  0  0
  -25.4130  -36.3075   24.0356 C   0  0  1  0  0  0
  -20.5868  -28.3621   23.1307 C   0  0  2  0  0  0
  -20.6732  -26.9342   22.5429 C   0  0  0  0  0  0
  -19.5726  -26.6335   21.5211 C   0  0  0  0  0  0
  -18.1918  -26.7893   22.1623 C   0  0  0  0  0  0
  -19.1535  -28.8800   23.2895 C   0  0  0  0  0  0
  -18.9461  -30.1407   23.8893 C   0  0  0  0  0  0
  -17.6467  -30.6567   24.0556 C   0  0  0  0  0  0
  -25.9060  -34.9438   23.5167 C   0  0  0  0  0  0
  -16.5358  -29.9069   23.6300 C   0  0  0  0  0  0
  -16.7279  -28.6479   23.0325 C   0  0  0  0  0  0
  -26.4431  -31.6500   25.0753 C   0  0  0  0  0  0
  -25.3663  -31.3707   26.1510 C   0  0  0  0  0  0
  -27.0110  -30.2868   24.6100 C   0  0  0  0  0  0
  -27.6103  -32.4087   25.7482 C   0  0  0  0  0  0
  -27.5621  -37.1782   24.8509 C   0  0  0  0  0  0
  -21.4136  -29.3005   22.3715 N   0  0  0  0  0  0
  -26.4334  -37.3747   23.9448 N   0  0  0  0  0  0
  -24.6603  -31.0884   22.1041 N   0  0  0  0  0  0
  -23.4176  -28.8214   23.3015 O   0  0  0  0  0  0
  -28.4038  -26.7663   20.0753 O   0  0  0  0  0  0
  -26.5571  -34.8875   22.4693 O   0  0  0  0  0  0
  -23.5299  -32.1472   23.7575 O   0  0  0  0  0  0
  -30.4135  -21.0134   19.1359 C   0  0  0  0  0  0
  -30.1584  -19.9802   20.0630 C   0  0  0  0  0  0
  -32.1125  -21.9140   20.6125 C   0  0  0  0  0  0
  -31.3996  -21.9842   19.4035 C   0  0  0  0  0  0
  -30.8783  -19.8859   21.2867 C   0  0  0  0  0  0
  -31.8341  -20.9081   21.5516 C   0  0  0  0  0  0
  -31.8902  -16.8148   22.6959 C   0  0  0  0  0  0
  -31.8001  -18.3213   22.9815 C   0  0  0  0  0  0
  -29.8457  -17.6707   21.8850 C   0  0  0  0  0  0
  -30.8860  -16.6117   21.5597 C   0  0  2  0  0  0
  -30.7199  -25.1465   17.4094 C   0  0  0  0  0  0
  -31.6770  -23.1102   18.4169 C   0  0  0  0  0  0
  -29.5610  -24.7752   20.7458 C   0  0  0  0  0  0
  -30.8039  -24.9555   19.8602 C   0  0  0  0  0  0
  -28.2779  -25.3516   20.1442 C   0  0  0  0  0  0
  -30.6491  -18.8386   22.2275 N   0  0  0  0  0  0
  -30.3310  -15.2605   21.4838 N   0  0  0  0  0  0
  -30.7060  -24.2227   18.5662 N   0  3  1  0  0  0
  -32.4979  -20.9700   22.7310 F   0  0  0  0  0  0
  -31.4467  -12.3059   19.1010 H   0  0  0  0  0  0
  -30.2484  -11.2443   19.7816 H   0  0  0  0  0  0
  -29.7017  -11.8184   17.3907 H   0  0  0  0  0  0
  -29.6354  -13.5178   17.8008 H   0  0  0  0  0  0
  -27.8512  -11.2935   18.8587 H   0  0  0  0  0  0
  -27.3303  -12.5921   17.8147 H   0  0  0  0  0  0
  -27.7237  -14.2482   19.5915 H   0  0  0  0  0  0
  -28.6654  -11.9459   21.3720 H   0  0  0  0  0  0
  -28.4826  -13.5942   21.8758 H   0  0  0  0  0  0
  -25.2753   -9.5640   22.4758 H   0  0  0  0  0  0
  -23.9974   -7.4609   22.7462 H   0  0  0  0  0  0
  -21.0809   -8.8782   19.8979 H   0  0  0  0  0  0
  -22.3678  -10.9679   19.6187 H   0  0  0  0  0  0
  -21.2023   -7.6135   23.9696 H   0  0  0  0  0  0
  -21.1484   -6.0534   25.9075 H   0  0  0  0  0  0
  -22.0599   -2.7592   23.2869 H   0  0  0  0  0  0
  -22.4149  -11.9918   22.4780 H   0  0  0  0  0  0
  -21.1156  -13.1330   22.2665 H   0  0  0  0  0  0
  -24.6773  -15.8471   20.4979 H   0  0  0  0  0  0
  -26.3019  -15.6108   20.0865 H   0  0  0  0  0  0
  -26.7087  -32.5493   23.1232 H   0  0  0  0  0  0
  -25.0201  -33.9803   25.0587 H   0  0  0  0  0  0
  -22.6785  -31.3151   21.4213 H   0  0  0  0  0  0
  -23.3808  -35.9613   23.3279 H   0  0  0  0  0  0
  -24.3677  -36.8854   22.2042 H   0  0  0  0  0  0
  -23.7276  -37.6485   23.6578 H   0  0  0  0  0  0
  -26.0373  -31.6146   20.6037 H   0  0  0  0  0  0
  -26.8115  -30.8865   21.9888 H   0  0  0  0  0  0
  -28.0944  -29.1311   21.1501 H   0  0  0  0  0  0
  -26.0300  -25.9998   18.9927 H   0  0  0  0  0  0
  -23.9628  -27.3032   19.0367 H   0  0  0  0  0  0
  -23.7149  -30.6219   19.4132 H   0  0  0  0  0  0
  -22.7267  -29.2643   19.8595 H   0  0  0  0  0  0
  -25.1258  -36.1974   25.0831 H   0  0  0  0  0  0
  -20.9955  -28.3184   24.1428 H   0  0  0  0  0  0
  -20.5533  -26.2243   23.3643 H   0  0  0  0  0  0
  -21.6616  -26.7324   22.1299 H   0  0  0  0  0  0
  -19.6883  -25.6230   21.1274 H   0  0  0  0  0  0
  -19.6670  -27.3093   20.6716 H   0  0  0  0  0  0
  -17.4180  -26.6636   21.4045 H   0  0  0  0  0  0
  -18.0338  -26.0022   22.9002 H   0  0  0  0  0  0
  -19.7954  -30.7236   24.2210 H   0  0  0  0  0  0
  -17.5048  -31.6239   24.5172 H   0  0  0  0  0  0
  -15.5351  -30.2992   23.7619 H   0  0  0  0  0  0
  -15.8691  -28.0833   22.6995 H   0  0  0  0  0  0
  -24.6088  -30.6638   25.8061 H   0  0  0  0  0  0
  -24.8510  -32.2829   26.4549 H   0  0  0  0  0  0
  -25.8073  -30.9405   27.0504 H   0  0  0  0  0  0
  -26.2666  -29.6816   24.0924 H   0  0  0  0  0  0
  -27.3556  -29.6912   25.4571 H   0  0  0  0  0  0
  -27.8657  -30.4055   23.9440 H   0  0  0  0  0  0
  -27.2810  -33.3361   26.2148 H   0  0  0  0  0  0
  -28.3870  -32.6608   25.0224 H   0  0  0  0  0  0
  -28.0765  -31.8076   26.5294 H   0  0  0  0  0  0
  -28.2585  -38.0130   24.7516 H   0  0  0  0  0  0
  -28.1129  -36.2622   24.6333 H   0  0  0  0  0  0
  -27.2329  -37.1476   25.8914 H   0  0  0  0  0  0
  -20.9268  -29.8763   21.6983 H   0  0  0  0  0  0
  -26.0217  -38.2815   24.1468 H   0  0  0  0  0  0
  -29.8455  -21.0577   18.2162 H   0  0  0  0  0  0
  -29.3880  -19.2780   19.7905 H   0  0  0  0  0  0
  -32.8698  -22.6482   20.8511 H   0  0  0  0  0  0
  -31.6011  -16.2546   23.5880 H   0  0  0  0  0  0
  -32.9015  -16.5061   22.4215 H   0  0  0  0  0  0
  -32.7508  -18.7652   22.6848 H   0  0  0  0  0  0
  -31.6588  -18.5053   24.0495 H   0  0  0  0  0  0
  -29.2899  -17.3677   22.7739 H   0  0  0  0  0  0
  -29.1140  -17.7965   21.0933 H   0  0  0  0  0  0
  -31.3508  -16.8968   20.6102 H   0  0  0  0  0  0
  -30.5805  -24.6134   16.4685 H   0  0  0  0  0  0
  -31.6656  -25.6864   17.3533 H   0  0  0  0  0  0
  -29.9160  -25.8768   17.4958 H   0  0  0  0  0  0
  -31.6178  -22.6976   17.4062 H   0  0  0  0  0  0
  -32.6961  -23.4808   18.5387 H   0  0  0  0  0  0
  -29.7447  -25.2769   21.6982 H   0  0  0  0  0  0
  -29.4135  -23.7225   20.9818 H   0  0  0  0  0  0
  -31.6814  -24.6285   20.4171 H   0  0  0  0  0  0
  -30.9678  -26.0203   19.6850 H   0  0  0  0  0  0
  -27.4471  -25.0720   20.7932 H   0  0  0  0  0  0
  -28.0809  -24.9327   19.1567 H   0  0  0  0  0  0
  -29.4940  -15.0411   22.0008 H   0  0  0  0  0  0
  -29.8018  -23.7769   18.5472 H   0  0  0  0  0  0
  1 25  1  0  0  0
  1 30  2  0  0  0
  1 87  1  0  0  0
  2  3  1  0  0  0
  2 25  1  0  0  0
  2 90  1  0  0  0
  2 91  1  0  0  0
  3  4  1  0  0  0
  3 92  1  0  0  0
  3 93  1  0  0  0
  4  5  1  0  0  0
  4 94  1  0  0  0
  4 95  1  0  0  0
  5  6  1  0  0  0
  5 26  1  0  0  0
  5 96  1  0  0  0
  6 25  1  0  0  0
  6 97  1  0  0  0
  6 98  1  0  0  0
  7  8  2  0  0  0
  7 26  1  0  0  0
  7 29  1  0  0  0
  8  9  1  0  0  0
  8 22  1  0  0  0
  9 10  1  0  0  0
  9 27  2  0  0  0
 10 11  2  0  0  0
 10 15  1  0  0  0
 11 12  1  0  0  0
 11 99  1  0  0  0
 12 13  2  0  0  0
 12100  1  0  0  0
 13 14  1  0  0  0
 13 31  1  0  0  0
 14 15  2  0  0  0
 14101  1  0  0  0
 15102  1  0  0  0
 16 17  2  0  0  0
 16 21  1  0  0  0
 16 31  1  0  0  0
 17 18  1  0  0  0
 17103  1  0  0  0
 18 19  2  0  0  0
 18104  1  0  0  0
 19 20  1  0  0  0
 19 24  1  0  0  0
 20 21  2  0  0  0
 20105  1  0  0  0
 21 23  1  0  0  0
 22 28  1  0  0  0
 22 32  2  0  0  0
 26 27  1  0  0  0
 28106  1  0  0  0
 28107  1  0  0  0
 29108  1  0  0  0
 29109  1  0  0  0
 33 34  1  0  0  0
 33 66  1  0  0  0
 33 70  2  0  0  0
 34 36  1  0  0  0
 34 59  1  0  0  0
 34110  1  0  0  0
 35 44  2  0  0  0
 35 45  1  0  0  0
 35 68  1  0  0  0
 36 56  1  0  0  0
 36111  1  0  0  0
 37 39  1  0  0  0
 37 47  1  0  0  0
 37 66  1  0  0  0
 37112  1  0  0  0
 38 43  2  0  0  0
 38 46  1  0  0  0
 38 47  1  0  0  0
 39 64  1  0  0  0
 39 67  2  0  0  0
 40 52  1  0  0  0
 40 53  2  0  0  0
 40 58  1  0  0  0
 41113  1  0  0  0
 41114  1  0  0  0
 41115  1  0  0  0
 41 48  1  0  0  0
 42 43  1  0  0  0
 42 66  1  0  0  0
 42116  1  0  0  0
 42117  1  0  0  0
 43 44  1  0  0  0
 44118  1  0  0  0
 45 46  2  0  0  0
 45119  1  0  0  0
 46120  1  0  0  0
 47121  1  0  0  0
 47122  1  0  0  0
 48 56  1  0  0  0
 48 65  1  0  0  0
 48123  1  0  0  0
 49 50  1  0  0  0
 49 53  1  0  0  0
 49 64  1  0  0  0
 49124  1  0  0  0
 50 51  1  0  0  0
 50125  1  0  0  0
 50126  1  0  0  0
 51 52  1  0  0  0
 51127  1  0  0  0
 51128  1  0  0  0
 52129  1  0  0  0
 52130  1  0  0  0
 53 54  1  0  0  0
 54 55  2  0  0  0
 54131  1  0  0  0
 55 57  1  0  0  0
 55132  1  0  0  0
 56 69  2  0  0  0
 57 58  2  0  0  0
 57133  1  0  0  0
 58134  1  0  0  0
 59 60  1  0  0  0
 59 61  1  0  0  0
 59 62  1  0  0  0
 60135  1  0  0  0
 60136  1  0  0  0
 60137  1  0  0  0
 61138  1  0  0  0
 61139  1  0  0  0
 61140  1  0  0  0
 62141  1  0  0  0
 62142  1  0  0  0
 62143  1  0  0  0
 63 65  1  0  0  0
 63144  1  0  0  0
 63145  1  0  0  0
 63146  1  0  0  0
 64147  1  0  0  0
 65148  1  0  0  0
 68 85  1  0  0  0
 71 72  2  0  0  0
 71 74  1  0  0  0
 71149  1  0  0  0
 72 75  1  0  0  0
 72150  1  0  0  0
 73 74  2  0  0  0
 73 76  1  0  0  0
 73151  1  0  0  0
 74 82  1  0  0  0
 75 76  2  0  0  0
 75 86  1  0  0  0
 76 89  1  0  0  0
 77 78  1  0  0  0
 77 80  1  0  0  0
 77152  1  0  0  0
 77153  1  0  0  0
 78 86  1  0  0  0
 78154  1  0  0  0
 78155  1  0  0  0
 79 80  1  0  0  0
 79 86  1  0  0  0
 79156  1  0  0  0
 79157  1  0  0  0
 80 87  1  0  0  0
 80158  1  0  0  0
 81159  1  0  0  0
 81160  1  0  0  0
 81161  1  0  0  0
 81 88  1  0  0  0
 82 88  1  0  0  0
 82162  1  0  0  0
 82163  1  0  0  0
 83 84  1  0  0  0
 83 85  1  0  0  0
 83164  1  0  0  0
 83165  1  0  0  0
 84 88  1  0  0  0
 84166  1  0  0  0
 84167  1  0  0  0
 85168  1  0  0  0
 85169  1  0  0  0
 87170  1  0  0  0
 88171  1  0  0  0
M  CHG  1  88   1
M  ISO  4   1 100  68 101  85 101  87 100
M  END
> <chiral flag>
0

> <version>
0

> <s_m_source_file>
/data/baiqing/PycharmProjects/Reinvent-master-3.2/result/LINK_invent/BTK/process_docking_weight1_custom_product_contain_oxygen_bond_distance_aromatic_linkinvent_7_9_3/rearranged_h_0011.sdf

> <i_m_source_file_index>
58

> <r_mmod_Potential_Energy-OPLS-2005>
-125.829109191895

> <r_mmod_Stretch_Energy-OPLS-2005>
36.8119277954102

> <r_mmod_Bend_Energy-OPLS-2005>
140.635833740234

> <r_mmod_Torsional_Energy-OPLS-2005>
254.61262512207

> <r_mmod_Improper_Torsional_Energy-OPLS-2005>
6.54060554504395

> <r_mmod_Van_der_Waal_Energy-OPLS-2005>
171.017318725586

> <r_mmod_Electrostatic_Energy-OPLS-2005>
-279.381927490234

> <r_mmod_Solvation_Energy-OPLS-2005>
-466.285736083984

> <b_mmod_Minimization_Converged-OPLS-2005>
0

> <r_mmod_RMS_Derivative-OPLS-2005>
5.41236448287964

$$$$
58
                    3D
 Structure written by MMmdl.
155163  0  0  1  0            999 V2000
  -30.5322  -14.9481   20.5206 C   0  0  0  0  0  0
  -30.4321  -12.6025   19.5427 C   0  0  0  0  0  0
  -29.5364  -12.5558   18.2833 C   0  0  0  0  0  0
  -28.0697  -12.3034   18.6775 C   0  0  0  0  0  0
  -27.6203  -13.2332   19.8323 C   0  0  2  0  0  0
  -28.6339  -13.2711   20.9895 C   0  0  0  0  0  0
  -25.2432  -13.8171   20.5702 C   0  0  0  0  0  0
  -24.1721  -13.0407   20.9216 C   0  0  0  0  0  0
  -24.6305  -11.6894   20.8709 C   0  0  0  0  0  0
  -23.9017  -10.4257   21.0419 C   0  0  0  0  0  0
  -24.3585   -9.4170   21.9200 C   0  0  0  0  0  0
  -23.6249   -8.2210   22.0755 C   0  0  0  0  0  0
  -22.4230   -8.0254   21.3537 C   0  0  0  0  0  0
  -21.9872   -9.0228   20.4636 C   0  0  0  0  0  0
  -22.7199  -10.2102   20.3045 C   0  0  0  0  0  0
  -21.6829   -6.0693   22.5285 C   0  0  0  0  0  0
  -21.4010   -6.5608   23.8215 C   0  0  0  0  0  0
  -21.3672   -5.6767   24.9195 C   0  0  0  0  0  0
  -21.6046   -4.3035   24.7241 C   0  0  0  0  0  0
  -21.8810   -3.8105   23.4359 C   0  0  0  0  0  0
  -21.9178   -4.6925   22.3412 C   0  0  0  0  0  0
  -22.7765  -13.5229   21.1864 C   0  0  0  0  0  0
  -22.1652   -4.2105   21.0990 F   0  0  0  0  0  0
  -21.5628   -3.4518   25.7758 F   0  0  0  0  0  0
  -29.9337  -13.6869   20.4423 N   0  0  0  0  0  0
  -26.2779  -12.9348   20.3109 N   0  0  0  0  0  0
  -25.9206  -11.6492   20.5590 N   0  0  0  0  0  0
  -22.0421  -12.8230   22.0448 N   0  0  0  0  0  0
  -25.4175  -15.1882   20.4231 N   0  0  0  0  0  0
  -31.6747  -15.0520   20.0576 O   0  0  0  0  0  0
  -21.6607   -6.8842   21.4231 O   0  0  0  0  0  0
  -22.3465  -14.5541   20.6729 O   0  0  0  0  0  0
  -24.6423  -31.8458   23.1943 C   0  0  0  0  0  0
  -25.9223  -32.4692   23.8296 C   0  0  1  0  0  0
  -27.2187  -27.1694   20.1402 C   0  0  0  0  0  0
  -25.6010  -33.8496   24.2263 N   0  0  0  0  0  0
  -23.4461  -30.4702   21.5314 C   0  0  2  0  0  0
  -24.9000  -28.9088   20.1029 C   0  0  0  0  0  0
  -22.7569  -29.4569   22.4804 C   0  0  0  0  0  0
  -18.0334  -28.1336   22.8504 C   0  0  0  0  0  0
  -24.1494  -36.7241   23.2640 C   0  0  0  0  0  0
  -26.0023  -30.7288   21.3946 C   0  0  0  0  0  0
  -26.0709  -29.3447   20.7339 C   0  0  0  0  0  0
  -27.2307  -28.4867   20.7444 C   0  0  0  0  0  0
  -26.0266  -26.8359   19.4601 C   0  0  0  0  0  0
  -24.8892  -27.6676   19.4518 C   0  0  0  0  0  0
  -23.6758  -29.8070   20.1477 C   0  0  0  0  0  0
  -25.4123  -36.3035   24.0330 C   0  0  1  0  0  0
  -20.5949  -28.3688   23.1226 C   0  0  2  0  0  0
  -20.6824  -26.9394   22.5362 C   0  0  0  0  0  0
  -19.5750  -26.6340   21.5220 C   0  0  0  0  0  0
  -18.1954  -26.7872   22.1666 C   0  0  0  0  0  0
  -19.1593  -28.8816   23.2867 C   0  0  0  0  0  0
  -18.9505  -30.1411   23.8876 C   0  0  0  0  0  0
  -17.6494  -30.6521   24.0567 C   0  0  0  0  0  0
  -25.9069  -34.9390   23.5095 C   0  0  0  0  0  0
  -16.5387  -29.9015   23.6321 C   0  0  0  0  0  0
  -16.7321  -28.6442   23.0347 C   0  0  0  0  0  0
  -26.4557  -31.6527   25.0712 C   0  0  0  0  0  0
  -25.3776  -31.3698   26.1443 C   0  0  0  0  0  0
  -27.0456  -30.2934   24.6285 C   0  0  0  0  0  0
  -27.6097  -32.4295   25.7472 C   0  0  0  0  0  0
  -27.5577  -37.1783   24.8471 C   0  0  0  0  0  0
  -21.4253  -29.3088   22.3616 N   0  0  0  0  0  0
  -26.4289  -37.3752   23.9410 N   0  0  0  0  0  0
  -24.7151  -31.0364   22.0949 N   0  0  0  0  0  0
  -23.4223  -28.8060   23.2904 O   0  0  0  0  0  0
  -28.2702  -26.1923   20.2193 O   0  0  0  0  0  0
  -26.5609  -34.8880   22.4647 O   0  0  0  0  0  0
  -23.5553  -32.1335   23.7169 O   0  0  0  0  0  0
  -29.8622  -20.0586   21.2706 C   0  0  0  0  0  0
  -30.2168  -18.6579   21.4547 C   0  0  0  0  0  0
  -28.3665  -19.4097   19.5808 C   0  0  0  0  0  0
  -28.8789  -20.5240   20.3408 C   0  0  0  0  0  0
  -29.6759  -17.5359   20.7217 C   0  0  0  0  0  0
  -28.7367  -18.0095   19.7424 C   0  0  0  0  0  0
  -29.9946  -15.9398   22.6100 C   0  0  0  0  0  0
  -26.8758  -21.8450   20.5502 C   0  0  0  0  0  0
  -28.8778  -23.3368   20.4280 C   0  0  0  0  0  0
  -27.9735  -24.6934   19.9893 C   0  0  0  0  0  0
  -29.8957  -16.0645   21.1457 N   0  0  0  0  0  0
  -28.3059  -21.8984   20.2363 N   0  0  0  0  0  0
  -27.9223  -16.8581   18.7505 Cl  0  0  0  0  0  0
  -31.4714  -12.7592   19.2532 H   0  0  0  0  0  0
  -30.4129  -11.6456   20.0699 H   0  0  0  0  0  0
  -29.8815  -11.7836   17.5950 H   0  0  0  0  0  0
  -29.6207  -13.5011   17.7452 H   0  0  0  0  0  0
  -27.9890  -11.2601   18.9892 H   0  0  0  0  0  0
  -27.4176  -12.4186   17.8106 H   0  0  0  0  0  0
  -27.5826  -14.2275   19.3964 H   0  0  0  0  0  0
  -28.6986  -12.3055   21.4941 H   0  0  0  0  0  0
  -28.2646  -13.9802   21.7269 H   0  0  0  0  0  0
  -25.2720   -9.5631   22.4801 H   0  0  0  0  0  0
  -23.9924   -7.4573   22.7466 H   0  0  0  0  0  0
  -21.0799   -8.8724   19.8945 H   0  0  0  0  0  0
  -22.3642  -10.9631   19.6151 H   0  0  0  0  0  0
  -21.2013   -7.6116   23.9715 H   0  0  0  0  0  0
  -21.1526   -6.0510   25.9101 H   0  0  0  0  0  0
  -22.0583   -2.7554   23.2885 H   0  0  0  0  0  0
  -22.4027  -11.9886   22.4841 H   0  0  0  0  0  0
  -21.1059  -13.1296   22.2665 H   0  0  0  0  0  0
  -24.6601  -15.8508   20.5362 H   0  0  0  0  0  0
  -26.2686  -15.6176   20.0797 H   0  0  0  0  0  0
  -26.7276  -32.5304   23.0994 H   0  0  0  0  0  0
  -25.0185  -33.9600   25.0439 H   0  0  0  0  0  0
  -22.7497  -31.2965   21.3770 H   0  0  0  0  0  0
  -23.3762  -35.9568   23.3287 H   0  0  0  0  0  0
  -24.3615  -36.8884   22.2067 H   0  0  0  0  0  0
  -23.7220  -37.6424   23.6666 H   0  0  0  0  0  0
  -26.1628  -31.4859   20.6256 H   0  0  0  0  0  0
  -26.8686  -30.7717   22.0408 H   0  0  0  0  0  0
  -28.1180  -28.8055   21.2725 H   0  0  0  0  0  0
  -25.9406  -25.8956   18.9357 H   0  0  0  0  0  0
  -23.9980  -27.3401   18.9361 H   0  0  0  0  0  0
  -23.8097  -30.5810   19.3913 H   0  0  0  0  0  0
  -22.7947  -29.2454   19.8332 H   0  0  0  0  0  0
  -25.1293  -36.1867   25.0819 H   0  0  0  0  0  0
  -21.0089  -28.3233   24.1324 H   0  0  0  0  0  0
  -20.5807  -26.2269   23.3563 H   0  0  0  0  0  0
  -21.6662  -26.7416   22.1065 H   0  0  0  0  0  0
  -19.6881  -25.6261   21.1213 H   0  0  0  0  0  0
  -19.6627  -27.3165   20.6763 H   0  0  0  0  0  0
  -17.4223  -26.6651   21.4062 H   0  0  0  0  0  0
  -18.0317  -26.0012   22.9048 H   0  0  0  0  0  0
  -19.7993  -30.7237   24.2210 H   0  0  0  0  0  0
  -17.5050  -31.6186   24.5199 H   0  0  0  0  0  0
  -15.5386  -30.2883   23.7648 H   0  0  0  0  0  0
  -15.8745  -28.0736   22.7031 H   0  0  0  0  0  0
  -24.5941  -30.7068   25.7768 H   0  0  0  0  0  0
  -24.8992  -32.2883   26.4854 H   0  0  0  0  0  0
  -25.8118  -30.8873   27.0207 H   0  0  0  0  0  0
  -26.3094  -29.6617   24.1327 H   0  0  0  0  0  0
  -27.4119  -29.7271   25.4843 H   0  0  0  0  0  0
  -27.8955  -30.4182   23.9588 H   0  0  0  0  0  0
  -27.2690  -33.3594   26.2019 H   0  0  0  0  0  0
  -28.3897  -32.6870   25.0299 H   0  0  0  0  0  0
  -28.0758  -31.8443   26.5404 H   0  0  0  0  0  0
  -28.2586  -38.0086   24.7519 H   0  0  0  0  0  0
  -28.1076  -36.2619   24.6278 H   0  0  0  0  0  0
  -27.2299  -37.1395   25.8876 H   0  0  0  0  0  0
  -20.9413  -29.8887   21.6890 H   0  0  0  0  0  0
  -26.0152  -38.2810   24.1443 H   0  0  0  0  0  0
  -30.3217  -20.7859   21.9246 H   0  0  0  0  0  0
  -30.9169  -18.4450   22.2487 H   0  0  0  0  0  0
  -27.6046  -19.6271   18.8451 H   0  0  0  0  0  0
  -31.0204  -16.1227   22.9366 H   0  0  0  0  0  0
  -29.7119  -14.9571   22.9877 H   0  0  0  0  0  0
  -29.3462  -16.6529   23.1225 H   0  0  0  0  0  0
  -26.5302  -20.8601   20.8665 H   0  0  0  0  0  0
  -26.2781  -22.1389   19.6862 H   0  0  0  0  0  0
  -26.6408  -22.5265   21.3694 H   0  0  0  0  0  0
  -29.1435  -23.4373   21.4814 H   0  0  0  0  0  0
  -29.8316  -23.3787   19.8973 H   0  0  0  0  0  0
  -26.9923  -24.5489   20.4409 H   0  0  0  0  0  0
  -27.8079  -24.6107   18.9138 H   0  0  0  0  0  0
  1 25  1  0  0  0
  1 30  2  0  0  0
  1 81  1  0  0  0
  2  3  1  0  0  0
  2 25  1  0  0  0
  2 84  1  0  0  0
  2 85  1  0  0  0
  3  4  1  0  0  0
  3 86  1  0  0  0
  3 87  1  0  0  0
  4  5  1  0  0  0
  4 88  1  0  0  0
  4 89  1  0  0  0
  5  6  1  0  0  0
  5 26  1  0  0  0
  5 90  1  0  0  0
  6 25  1  0  0  0
  6 91  1  0  0  0
  6 92  1  0  0  0
  7  8  2  0  0  0
  7 26  1  0  0  0
  7 29  1  0  0  0
  8  9  1  0  0  0
  8 22  1  0  0  0
  9 10  1  0  0  0
  9 27  2  0  0  0
 10 11  2  0  0  0
 10 15  1  0  0  0
 11 12  1  0  0  0
 11 93  1  0  0  0
 12 13  2  0  0  0
 12 94  1  0  0  0
 13 14  1  0  0  0
 13 31  1  0  0  0
 14 15  2  0  0  0
 14 95  1  0  0  0
 15 96  1  0  0  0
 16 17  2  0  0  0
 16 21  1  0  0  0
 16 31  1  0  0  0
 17 18  1  0  0  0
 17 97  1  0  0  0
 18 19  2  0  0  0
 18 98  1  0  0  0
 19 20  1  0  0  0
 19 24  1  0  0  0
 20 21  2  0  0  0
 20 99  1  0  0  0
 21 23  1  0  0  0
 22 28  1  0  0  0
 22 32  2  0  0  0
 26 27  1  0  0  0
 28100  1  0  0  0
 28101  1  0  0  0
 29102  1  0  0  0
 29103  1  0  0  0
 33 34  1  0  0  0
 33 66  1  0  0  0
 33 70  2  0  0  0
 34 36  1  0  0  0
 34 59  1  0  0  0
 34104  1  0  0  0
 35 44  2  0  0  0
 35 45  1  0  0  0
 35 68  1  0  0  0
 36 56  1  0  0  0
 36105  1  0  0  0
 37 39  1  0  0  0
 37 47  1  0  0  0
 37 66  1  0  0  0
 37106  1  0  0  0
 38 43  2  0  0  0
 38 46  1  0  0  0
 38 47  1  0  0  0
 39 64  1  0  0  0
 39 67  2  0  0  0
 40 52  1  0  0  0
 40 53  2  0  0  0
 40 58  1  0  0  0
 41107  1  0  0  0
 41108  1  0  0  0
 41109  1  0  0  0
 41 48  1  0  0  0
 42 43  1  0  0  0
 42 66  1  0  0  0
 42110  1  0  0  0
 42111  1  0  0  0
 43 44  1  0  0  0
 44112  1  0  0  0
 45 46  2  0  0  0
 45113  1  0  0  0
 46114  1  0  0  0
 47115  1  0  0  0
 47116  1  0  0  0
 48 56  1  0  0  0
 48 65  1  0  0  0
 48117  1  0  0  0
 49 50  1  0  0  0
 49 53  1  0  0  0
 49 64  1  0  0  0
 49118  1  0  0  0
 50 51  1  0  0  0
 50119  1  0  0  0
 50120  1  0  0  0
 51 52  1  0  0  0
 51121  1  0  0  0
 51122  1  0  0  0
 52123  1  0  0  0
 52124  1  0  0  0
 53 54  1  0  0  0
 54 55  2  0  0  0
 54125  1  0  0  0
 55 57  1  0  0  0
 55126  1  0  0  0
 56 69  2  0  0  0
 57 58  2  0  0  0
 57127  1  0  0  0
 58128  1  0  0  0
 59 60  1  0  0  0
 59 61  1  0  0  0
 59 62  1  0  0  0
 60129  1  0  0  0
 60130  1  0  0  0
 60131  1  0  0  0
 61132  1  0  0  0
 61133  1  0  0  0
 61134  1  0  0  0
 62135  1  0  0  0
 62136  1  0  0  0
 62137  1  0  0  0
 63 65  1  0  0  0
 63138  1  0  0  0
 63139  1  0  0  0
 63140  1  0  0  0
 64141  1  0  0  0
 65142  1  0  0  0
 68 80  1  0  0  0
 71 72  2  0  0  0
 71 74  1  0  0  0
 71143  1  0  0  0
 72 75  1  0  0  0
 72144  1  0  0  0
 73 74  2  0  0  0
 73 76  1  0  0  0
 73145  1  0  0  0
 74 82  1  0  0  0
 75 76  2  0  0  0
 75 81  1  0  0  0
 76 83  1  0  0  0
 77 81  1  0  0  0
 77146  1  0  0  0
 77147  1  0  0  0
 77148  1  0  0  0
 78 82  1  0  0  0
 78149  1  0  0  0
 78150  1  0  0  0
 78151  1  0  0  0
 79 80  1  0  0  0
 79 82  1  0  0  0
 79152  1  0  0  0
 79153  1  0  0  0
 80154  1  0  0  0
 80155  1  0  0  0
M  ISO  4   1 100  68 101  80 101  81 100
M  END
> <chiral flag>
0

> <version>
0

> <s_m_source_file>
/data/baiqing/PycharmProjects/Reinvent-master-3.2/result/LINK_invent/BTK/process_docking_weight1_custom_product_contain_oxygen_bond_distance_aromatic_linkinvent_7_9_3/rearranged_h_0011.sdf

> <i_m_source_file_index>
59

> <r_mmod_Potential_Energy-OPLS-2005>
618.5654296875

> <r_mmod_Stretch_Energy-OPLS-2005>
227.594055175781

> <r_mmod_Bend_Energy-OPLS-2005>
266.31787109375

> <r_mmod_Torsional_Energy-OPLS-2005>
306.772308349609

> <r_mmod_Improper_Torsional_Energy-OPLS-2005>
8.30585479736328

> <r_mmod_Van_der_Waal_Energy-OPLS-2005>
141.798080444336

> <r_mmod_Electrostatic_Energy-OPLS-2005>
-308.82958984375

> <r_mmod_Solvation_Energy-OPLS-2005>
-208.08219909668

> <b_mmod_Minimization_Converged-OPLS-2005>
0

> <r_mmod_RMS_Derivative-OPLS-2005>
4.34777450561523

$$$$
59
                    3D
 Structure written by MMmdl.
170179  0  0  1  0            999 V2000
  -30.7985  -14.3246   20.7045 C   0  0  0  0  0  0
  -30.4066  -12.2639   19.4064 C   0  0  0  0  0  0
  -29.4887  -12.5211   18.1955 C   0  0  0  0  0  0
  -28.0126  -12.3676   18.6027 C   0  0  0  0  0  0
  -27.6618  -13.1981   19.8632 C   0  0  2  0  0  0
  -28.6863  -12.9522   20.9888 C   0  0  0  0  0  0
  -25.2592  -13.8158   20.5597 C   0  0  0  0  0  0
  -24.1846  -13.0440   20.9120 C   0  0  0  0  0  0
  -24.6385  -11.6900   20.8685 C   0  0  0  0  0  0
  -23.9059  -10.4290   21.0396 C   0  0  0  0  0  0
  -24.3614   -9.4211   21.9174 C   0  0  0  0  0  0
  -23.6280   -8.2253   22.0759 C   0  0  0  0  0  0
  -22.4263   -8.0291   21.3561 C   0  0  0  0  0  0
  -21.9892   -9.0264   20.4663 C   0  0  0  0  0  0
  -22.7224  -10.2134   20.3057 C   0  0  0  0  0  0
  -21.6850   -6.0727   22.5278 C   0  0  0  0  0  0
  -21.4009   -6.5628   23.8206 C   0  0  0  0  0  0
  -21.3651   -5.6784   24.9169 C   0  0  0  0  0  0
  -21.6044   -4.3045   24.7223 C   0  0  0  0  0  0
  -21.8816   -3.8139   23.4343 C   0  0  0  0  0  0
  -21.9192   -4.6953   22.3394 C   0  0  0  0  0  0
  -22.7883  -13.5263   21.1816 C   0  0  0  0  0  0
  -22.1670   -4.2135   21.0977 F   0  0  0  0  0  0
  -21.5631   -3.4538   25.7741 F   0  0  0  0  0  0
  -30.0466  -13.2130   20.4742 N   0  0  0  0  0  0
  -26.3008  -12.9301   20.3232 N   0  0  0  0  0  0
  -25.9291  -11.6474   20.5670 N   0  0  0  0  0  0
  -22.0531  -12.8285   22.0390 N   0  0  0  0  0  0
  -25.4323  -15.1862   20.4024 N   0  0  0  0  0  0
  -31.8041  -14.5920   20.0363 O   0  0  0  0  0  0
  -21.6638   -6.8877   21.4247 O   0  0  0  0  0  0
  -22.3581  -14.5582   20.6671 O   0  0  0  0  0  0
  -24.6076  -31.8711   23.2169 C   0  0  0  0  0  0
  -25.8994  -32.4842   23.8439 C   0  0  1  0  0  0
  -27.2543  -27.4960   20.0849 C   0  0  0  0  0  0
  -25.5871  -33.8644   24.2366 N   0  0  0  0  0  0
  -23.3953  -30.4959   21.5503 C   0  0  2  0  0  0
  -24.8470  -28.9648   20.1190 C   0  0  0  0  0  0
  -22.7387  -29.4680   22.4988 C   0  0  0  0  0  0
  -18.0268  -28.1402   22.8476 C   0  0  0  0  0  0
  -24.1476  -36.7347   23.2642 C   0  0  0  0  0  0
  -25.9151  -30.8541   21.3622 C   0  0  0  0  0  0
  -25.9978  -29.4888   20.7201 C   0  0  0  0  0  0
  -27.1990  -28.7562   20.7204 C   0  0  0  0  0  0
  -26.0847  -26.9641   19.5062 C   0  0  0  0  0  0
  -24.8802  -27.6943   19.5161 C   0  0  0  0  0  0
  -23.6083  -29.8292   20.1630 C   0  0  0  0  0  0
  -25.4086  -36.3134   24.0350 C   0  0  1  0  0  0
  -20.5857  -28.3676   23.1334 C   0  0  2  0  0  0
  -20.6766  -26.9412   22.5441 C   0  0  0  0  0  0
  -19.5761  -26.6405   21.5222 C   0  0  0  0  0  0
  -18.1926  -26.7951   22.1606 C   0  0  0  0  0  0
  -19.1518  -28.8852   23.2905 C   0  0  0  0  0  0
  -18.9453  -30.1452   23.8930 C   0  0  0  0  0  0
  -17.6460  -30.6599   24.0590 C   0  0  0  0  0  0
  -25.9014  -34.9493   23.5156 C   0  0  0  0  0  0
  -16.5349  -29.9119   23.6322 C   0  0  0  0  0  0
  -16.7265  -28.6548   23.0318 C   0  0  0  0  0  0
  -26.4454  -31.6601   25.0735 C   0  0  0  0  0  0
  -25.3774  -31.3728   26.1541 C   0  0  0  0  0  0
  -27.0237  -30.3039   24.6063 C   0  0  0  0  0  0
  -27.6074  -32.4293   25.7453 C   0  0  0  0  0  0
  -27.5577  -37.1812   24.8454 C   0  0  0  0  0  0
  -21.4125  -29.3042   22.3735 N   0  0  0  0  0  0
  -26.4280  -37.3810   23.9419 N   0  0  0  0  0  0
  -24.6562  -31.0871   22.1031 N   0  0  0  0  0  0
  -23.4183  -28.8227   23.3020 O   0  0  0  0  0  0
  -28.3947  -26.7370   20.0058 O   0  0  0  0  0  0
  -26.5578  -34.8931   22.4721 O   0  0  0  0  0  0
  -23.5287  -32.1425   23.7601 O   0  0  0  0  0  0
  -30.0520  -21.2314   19.7004 C   0  0  0  0  0  0
  -30.8772  -21.7941   21.9163 C   0  0  0  0  0  0
  -30.3341  -22.5358   19.2635 C   0  0  0  0  0  0
  -31.1523  -23.1047   21.4817 C   0  0  0  0  0  0
  -30.3358  -20.8387   21.0290 C   0  0  0  0  0  0
  -30.8930  -23.4811   20.1490 C   0  0  0  0  0  0
  -28.9982  -17.3223   21.3666 C   0  0  0  0  0  0
  -31.3723  -17.4497   22.1659 C   0  0  0  0  0  0
  -29.1288  -18.7357   20.7810 C   0  0  0  0  0  0
  -31.4821  -18.8746   21.6096 C   0  0  0  0  0  0
  -30.3744  -16.6458   21.3134 C   0  0  0  0  0  0
  -30.2638  -14.8493   23.0375 C   0  0  0  0  0  0
  -30.3859  -26.8751   18.6679 C   0  0  0  0  0  0
  -30.4793  -25.3432   18.6065 C   0  0  0  0  0  0
  -29.6522  -27.4044   19.9083 C   0  0  0  0  0  0
  -30.1675  -19.5143   21.4716 N   0  0  0  0  0  0
  -31.2082  -24.7814   19.7403 N   0  0  0  0  0  0
  -30.3179  -15.2044   21.6135 N   0  0  0  0  0  0
  -31.4562  -12.3310   19.1105 H   0  0  0  0  0  0
  -30.2744  -11.2430   19.7672 H   0  0  0  0  0  0
  -29.7260  -11.8307   17.3847 H   0  0  0  0  0  0
  -29.6640  -13.5246   17.8030 H   0  0  0  0  0  0
  -27.8279  -11.3090   18.7921 H   0  0  0  0  0  0
  -27.3632  -12.6443   17.7722 H   0  0  0  0  0  0
  -27.7199  -14.2501   19.5840 H   0  0  0  0  0  0
  -28.6266  -11.9220   21.3431 H   0  0  0  0  0  0
  -28.3977  -13.5670   21.8392 H   0  0  0  0  0  0
  -25.2767   -9.5680   22.4735 H   0  0  0  0  0  0
  -23.9980   -7.4646   22.7478 H   0  0  0  0  0  0
  -21.0816   -8.8788   19.8981 H   0  0  0  0  0  0
  -22.3690  -10.9670   19.6164 H   0  0  0  0  0  0
  -21.2005   -7.6139   23.9706 H   0  0  0  0  0  0
  -21.1479   -6.0518   25.9071 H   0  0  0  0  0  0
  -22.0604   -2.7600   23.2846 H   0  0  0  0  0  0
  -22.4152  -11.9940   22.4769 H   0  0  0  0  0  0
  -21.1168  -13.1350   22.2627 H   0  0  0  0  0  0
  -24.6667  -15.8426   20.5124 H   0  0  0  0  0  0
  -26.2932  -15.6258   20.1027 H   0  0  0  0  0  0
  -26.7073  -32.5591   23.1220 H   0  0  0  0  0  0
  -25.0002  -33.9808   25.0497 H   0  0  0  0  0  0
  -22.6826  -31.3107   21.4109 H   0  0  0  0  0  0
  -23.3730  -35.9687   23.3289 H   0  0  0  0  0  0
  -24.3586  -36.8978   22.2064 H   0  0  0  0  0  0
  -23.7225  -37.6552   23.6655 H   0  0  0  0  0  0
  -26.0101  -31.6173   20.5881 H   0  0  0  0  0  0
  -26.8092  -30.9209   21.9691 H   0  0  0  0  0  0
  -28.0695  -29.1661   21.2122 H   0  0  0  0  0  0
  -26.1189  -25.9944   19.0296 H   0  0  0  0  0  0
  -23.9954  -27.2808   19.0520 H   0  0  0  0  0  0
  -23.7303  -30.6077   19.4087 H   0  0  0  0  0  0
  -22.7330  -29.2545   19.8553 H   0  0  0  0  0  0
  -25.1254  -36.2013   25.0841 H   0  0  0  0  0  0
  -20.9931  -28.3249   24.1459 H   0  0  0  0  0  0
  -20.5667  -26.2282   23.3625 H   0  0  0  0  0  0
  -21.6636  -26.7461   22.1231 H   0  0  0  0  0  0
  -19.6925  -25.6318   21.1250 H   0  0  0  0  0  0
  -19.6744  -27.3227   20.6763 H   0  0  0  0  0  0
  -17.4209  -26.6710   21.3993 H   0  0  0  0  0  0
  -18.0312  -26.0090   22.8995 H   0  0  0  0  0  0
  -19.7933  -30.7253   24.2316 H   0  0  0  0  0  0
  -17.5027  -31.6273   24.5206 H   0  0  0  0  0  0
  -15.5357  -30.3047   23.7635 H   0  0  0  0  0  0
  -15.8654  -28.0911   22.6975 H   0  0  0  0  0  0
  -24.5899  -30.7102   25.7929 H   0  0  0  0  0  0
  -24.9030  -32.2906   26.5038 H   0  0  0  0  0  0
  -25.8182  -30.8881   27.0263 H   0  0  0  0  0  0
  -26.2726  -29.6819   24.1176 H   0  0  0  0  0  0
  -27.4070  -29.7257   25.4478 H   0  0  0  0  0  0
  -27.8548  -30.4350   23.9127 H   0  0  0  0  0  0
  -27.2732  -33.3585   26.2079 H   0  0  0  0  0  0
  -28.3846  -32.6858   25.0241 H   0  0  0  0  0  0
  -28.0777  -31.8382   26.5321 H   0  0  0  0  0  0
  -28.2595  -38.0104   24.7474 H   0  0  0  0  0  0
  -28.1059  -36.2636   24.6274 H   0  0  0  0  0  0
  -27.2312  -37.1474   25.8862 H   0  0  0  0  0  0
  -20.9280  -29.8769   21.6962 H   0  0  0  0  0  0
  -26.0178  -38.2882   24.1456 H   0  0  0  0  0  0
  -29.6542  -20.5442   18.9713 H   0  0  0  0  0  0
  -31.1040  -21.5216   22.9374 H   0  0  0  0  0  0
  -30.1294  -22.7813   18.2324 H   0  0  0  0  0  0
  -31.5774  -23.8079   22.1834 H   0  0  0  0  0  0
  -28.2685  -16.7538   20.7883 H   0  0  0  0  0  0
  -28.6249  -17.3695   22.3897 H   0  0  0  0  0  0
  -31.0528  -17.4904   23.2088 H   0  0  0  0  0  0
  -32.3563  -16.9790   22.1504 H   0  0  0  0  0  0
  -28.1697  -19.2536   20.8372 H   0  0  0  0  0  0
  -29.3743  -18.6319   19.7236 H   0  0  0  0  0  0
  -31.9743  -18.8482   20.6356 H   0  0  0  0  0  0
  -32.1271  -19.4572   22.2682 H   0  0  0  0  0  0
  -30.7068  -16.7617   20.2775 H   0  0  0  0  0  0
  -31.1551  -15.1825   23.5689 H   0  0  0  0  0  0
  -29.3933  -15.3089   23.5057 H   0  0  0  0  0  0
  -30.1992  -13.7724   23.1966 H   0  0  0  0  0  0
  -29.8536  -27.2237   17.7815 H   0  0  0  0  0  0
  -31.3807  -27.3188   18.6113 H   0  0  0  0  0  0
  -30.9806  -25.0456   17.6839 H   0  0  0  0  0  0
  -29.4689  -24.9315   18.5602 H   0  0  0  0  0  0
  -29.5810  -28.4868   19.8094 H   0  0  0  0  0  0
  -30.2307  -27.2051   20.8110 H   0  0  0  0  0  0
  -31.4741  -25.4302   20.4753 H   0  0  0  0  0  0
  1 25  1  0  0  0
  1 30  2  0  0  0
  1 88  1  0  0  0
  2  3  1  0  0  0
  2 25  1  0  0  0
  2 89  1  0  0  0
  2 90  1  0  0  0
  3  4  1  0  0  0
  3 91  1  0  0  0
  3 92  1  0  0  0
  4  5  1  0  0  0
  4 93  1  0  0  0
  4 94  1  0  0  0
  5  6  1  0  0  0
  5 26  1  0  0  0
  5 95  1  0  0  0
  6 25  1  0  0  0
  6 96  1  0  0  0
  6 97  1  0  0  0
  7  8  2  0  0  0
  7 26  1  0  0  0
  7 29  1  0  0  0
  8  9  1  0  0  0
  8 22  1  0  0  0
  9 10  1  0  0  0
  9 27  2  0  0  0
 10 11  2  0  0  0
 10 15  1  0  0  0
 11 12  1  0  0  0
 11 98  1  0  0  0
 12 13  2  0  0  0
 12 99  1  0  0  0
 13 14  1  0  0  0
 13 31  1  0  0  0
 14 15  2  0  0  0
 14100  1  0  0  0
 15101  1  0  0  0
 16 17  2  0  0  0
 16 21  1  0  0  0
 16 31  1  0  0  0
 17 18  1  0  0  0
 17102  1  0  0  0
 18 19  2  0  0  0
 18103  1  0  0  0
 19 20  1  0  0  0
 19 24  1  0  0  0
 20 21  2  0  0  0
 20104  1  0  0  0
 21 23  1  0  0  0
 22 28  1  0  0  0
 22 32  2  0  0  0
 26 27  1  0  0  0
 28105  1  0  0  0
 28106  1  0  0  0
 29107  1  0  0  0
 29108  1  0  0  0
 33 34  1  0  0  0
 33 66  1  0  0  0
 33 70  2  0  0  0
 34 36  1  0  0  0
 34 59  1  0  0  0
 34109  1  0  0  0
 35 44  2  0  0  0
 35 45  1  0  0  0
 35 68  1  0  0  0
 36 56  1  0  0  0
 36110  1  0  0  0
 37 39  1  0  0  0
 37 47  1  0  0  0
 37 66  1  0  0  0
 37111  1  0  0  0
 38 43  2  0  0  0
 38 46  1  0  0  0
 38 47  1  0  0  0
 39 64  1  0  0  0
 39 67  2  0  0  0
 40 52  1  0  0  0
 40 53  2  0  0  0
 40 58  1  0  0  0
 41112  1  0  0  0
 41113  1  0  0  0
 41114  1  0  0  0
 41 48  1  0  0  0
 42 43  1  0  0  0
 42 66  1  0  0  0
 42115  1  0  0  0
 42116  1  0  0  0
 43 44  1  0  0  0
 44117  1  0  0  0
 45 46  2  0  0  0
 45118  1  0  0  0
 46119  1  0  0  0
 47120  1  0  0  0
 47121  1  0  0  0
 48 56  1  0  0  0
 48 65  1  0  0  0
 48122  1  0  0  0
 49 50  1  0  0  0
 49 53  1  0  0  0
 49 64  1  0  0  0
 49123  1  0  0  0
 50 51  1  0  0  0
 50124  1  0  0  0
 50125  1  0  0  0
 51 52  1  0  0  0
 51126  1  0  0  0
 51127  1  0  0  0
 52128  1  0  0  0
 52129  1  0  0  0
 53 54  1  0  0  0
 54 55  2  0  0  0
 54130  1  0  0  0
 55 57  1  0  0  0
 55131  1  0  0  0
 56 69  2  0  0  0
 57 58  2  0  0  0
 57132  1  0  0  0
 58133  1  0  0  0
 59 60  1  0  0  0
 59 61  1  0  0  0
 59 62  1  0  0  0
 60134  1  0  0  0
 60135  1  0  0  0
 60136  1  0  0  0
 61137  1  0  0  0
 61138  1  0  0  0
 61139  1  0  0  0
 62140  1  0  0  0
 62141  1  0  0  0
 62142  1  0  0  0
 63 65  1  0  0  0
 63143  1  0  0  0
 63144  1  0  0  0
 63145  1  0  0  0
 64146  1  0  0  0
 65147  1  0  0  0
 68 85  1  0  0  0
 71 73  2  0  0  0
 71 75  1  0  0  0
 71148  1  0  0  0
 72 74  1  0  0  0
 72 75  2  0  0  0
 72149  1  0  0  0
 73 76  1  0  0  0
 73150  1  0  0  0
 74 76  2  0  0  0
 74151  1  0  0  0
 75 86  1  0  0  0
 76 87  1  0  0  0
 77 79  1  0  0  0
 77 81  1  0  0  0
 77152  1  0  0  0
 77153  1  0  0  0
 78 80  1  0  0  0
 78 81  1  0  0  0
 78154  1  0  0  0
 78155  1  0  0  0
 79 86  1  0  0  0
 79156  1  0  0  0
 79157  1  0  0  0
 80 86  1  0  0  0
 80158  1  0  0  0
 80159  1  0  0  0
 81 88  1  0  0  0
 81160  1  0  0  0
 82 88  1  0  0  0
 82161  1  0  0  0
 82162  1  0  0  0
 82163  1  0  0  0
 83 84  1  0  0  0
 83 85  1  0  0  0
 83164  1  0  0  0
 83165  1  0  0  0
 84 87  1  0  0  0
 84166  1  0  0  0
 84167  1  0  0  0
 85168  1  0  0  0
 85169  1  0  0  0
 87170  1  0  0  0
M  ISO  4   1 100  68 101  85 101  88 100
M  END
> <chiral flag>
0

> <version>
0

> <s_m_source_file>
/data/baiqing/PycharmProjects/Reinvent-master-3.2/result/LINK_invent/BTK/process_docking_weight1_custom_product_contain_oxygen_bond_distance_aromatic_linkinvent_7_9_3/rearranged_h_0011.sdf

> <i_m_source_file_index>
60

> <r_mmod_Potential_Energy-OPLS-2005>
139.60334777832

> <r_mmod_Stretch_Energy-OPLS-2005>
34.7307739257812

> <r_mmod_Bend_Energy-OPLS-2005>
109.325469970703

> <r_mmod_Torsional_Energy-OPLS-2005>
330.857971191406

> <r_mmod_Improper_Torsional_Energy-OPLS-2005>
11.4474678039551

> <r_mmod_Van_der_Waal_Energy-OPLS-2005>
183.983291625977

> <r_mmod_Electrostatic_Energy-OPLS-2005>
-317.387512207031

> <r_mmod_Solvation_Energy-OPLS-2005>
-220.096450805664

> <b_mmod_Minimization_Converged-OPLS-2005>
0

> <r_mmod_RMS_Derivative-OPLS-2005>
2.00923657417297

$$$$
60
                    3D
 Structure written by MMmdl.
158166  0  0  1  0            999 V2000
  -30.6555  -14.6523   20.5448 C   0  0  0  0  0  0
  -30.4299  -12.4115   19.4705 C   0  0  0  0  0  0
  -29.5101  -12.5105   18.2328 C   0  0  0  0  0  0
  -28.0338  -12.3390   18.6383 C   0  0  0  0  0  0
  -27.6484  -13.2196   19.8550 C   0  0  2  0  0  0
  -28.6818  -13.0910   20.9904 C   0  0  0  0  0  0
  -25.2562  -13.8187   20.5680 C   0  0  0  0  0  0
  -24.1825  -13.0446   20.9168 C   0  0  0  0  0  0
  -24.6391  -11.6920   20.8710 C   0  0  0  0  0  0
  -23.9057  -10.4301   21.0392 C   0  0  0  0  0  0
  -24.3613   -9.4226   21.9170 C   0  0  0  0  0  0
  -23.6292   -8.2261   22.0759 C   0  0  0  0  0  0
  -22.4271   -8.0297   21.3554 C   0  0  0  0  0  0
  -21.9898   -9.0268   20.4649 C   0  0  0  0  0  0
  -22.7227  -10.2141   20.3050 C   0  0  0  0  0  0
  -21.6857   -6.0746   22.5286 C   0  0  0  0  0  0
  -21.4015   -6.5652   23.8222 C   0  0  0  0  0  0
  -21.3655   -5.6798   24.9175 C   0  0  0  0  0  0
  -21.6035   -4.3057   24.7216 C   0  0  0  0  0  0
  -21.8817   -3.8151   23.4340 C   0  0  0  0  0  0
  -21.9198   -4.6972   22.3402 C   0  0  0  0  0  0
  -22.7844  -13.5241   21.1833 C   0  0  0  0  0  0
  -22.1655   -4.2156   21.0976 F   0  0  0  0  0  0
  -21.5641   -3.4547   25.7733 F   0  0  0  0  0  0
  -30.0008  -13.4454   20.4414 N   0  0  0  0  0  0
  -26.2960  -12.9364   20.3250 N   0  0  0  0  0  0
  -25.9316  -11.6513   20.5697 N   0  0  0  0  0  0
  -22.0502  -12.8238   22.0394 N   0  0  0  0  0  0
  -25.4284  -15.1912   20.4145 N   0  0  0  0  0  0
  -31.7861  -14.7815   20.0633 O   0  0  0  0  0  0
  -21.6639   -6.8893   21.4252 O   0  0  0  0  0  0
  -22.3515  -14.5542   20.6684 O   0  0  0  0  0  0
  -24.6248  -31.8597   23.2002 C   0  0  0  0  0  0
  -25.9101  -32.4775   23.8338 C   0  0  1  0  0  0
  -27.2327  -27.3214   20.1164 C   0  0  0  0  0  0
  -25.5924  -33.8577   24.2277 N   0  0  0  0  0  0
  -23.4179  -30.4796   21.5425 C   0  0  2  0  0  0
  -24.8671  -28.9281   20.1092 C   0  0  0  0  0  0
  -22.7465  -29.4609   22.4937 C   0  0  0  0  0  0
  -18.0276  -28.1393   22.8487 C   0  0  0  0  0  0
  -24.1479  -36.7286   23.2636 C   0  0  0  0  0  0
  -25.9560  -30.7891   21.3682 C   0  0  0  0  0  0
  -26.0302  -29.4142   20.7164 C   0  0  0  0  0  0
  -27.2107  -28.6182   20.7142 C   0  0  0  0  0  0
  -26.0451  -26.8766   19.4954 C   0  0  0  0  0  0
  -24.8752  -27.6650   19.4921 C   0  0  0  0  0  0
  -23.6331  -29.8084   20.1586 C   0  0  0  0  0  0
  -25.4107  -36.3077   24.0326 C   0  0  1  0  0  0
  -20.5870  -28.3695   23.1294 C   0  0  2  0  0  0
  -20.6773  -26.9419   22.5419 C   0  0  0  0  0  0
  -19.5747  -26.6385   21.5221 C   0  0  0  0  0  0
  -18.1921  -26.7937   22.1626 C   0  0  0  0  0  0
  -19.1523  -28.8863   23.2893 C   0  0  0  0  0  0
  -18.9459  -30.1468   23.8915 C   0  0  0  0  0  0
  -17.6462  -30.6603   24.0568 C   0  0  0  0  0  0
  -25.9050  -34.9448   23.5103 C   0  0  0  0  0  0
  -16.5352  -29.9105   23.6324 C   0  0  0  0  0  0
  -16.7268  -28.6512   23.0354 C   0  0  0  0  0  0
  -26.4502  -31.6590   25.0707 C   0  0  0  0  0  0
  -25.3745  -31.3742   26.1445 C   0  0  0  0  0  0
  -27.0351  -30.3021   24.6147 C   0  0  0  0  0  0
  -27.6064  -32.4332   25.7485 C   0  0  0  0  0  0
  -27.5568  -37.1796   24.8468 C   0  0  0  0  0  0
  -21.4174  -29.3051   22.3689 N   0  0  0  0  0  0
  -26.4281  -37.3775   23.9410 N   0  0  0  0  0  0
  -24.6852  -31.0593   22.0954 N   0  0  0  0  0  0
  -23.4184  -28.8161   23.3031 O   0  0  0  0  0  0
  -28.3804  -26.5216   20.1951 O   0  0  0  0  0  0
  -26.5608  -34.8915   22.4662 O   0  0  0  0  0  0
  -23.5422  -32.1411   23.7331 O   0  0  0  0  0  0
  -29.4571  -19.4598   19.2591 C   0  0  0  0  0  0
  -29.4697  -19.2233   21.6400 C   0  0  0  0  0  0
  -29.2242  -20.8656   19.3840 C   0  0  0  0  0  0
  -29.2588  -20.6319   21.7648 C   0  0  0  0  0  0
  -29.6099  -18.5867   20.3739 C   0  0  0  0  0  0
  -29.1523  -21.5117   20.6448 C   0  0  0  0  0  0
  -29.7087  -23.4915   21.9926 C   0  0  0  0  0  0
  -29.6444  -15.9274   22.3749 C   0  0  0  0  0  0
  -29.9694  -17.0567   20.1127 C   0  0  0  0  0  0
  -28.0533  -23.8331   20.1476 C   0  0  0  0  0  0
  -28.5258  -25.2222   19.5097 C   0  0  0  0  0  0
  -29.0859  -22.9514   20.7852 N   0  0  0  0  0  0
  -29.9440  -15.7744   20.9408 N   0  0  0  0  0  0
  -31.4718  -12.5275   19.1689 H   0  0  0  0  0  0
  -30.3656  -11.4206   19.9232 H   0  0  0  0  0  0
  -29.7855  -11.7541   17.4973 H   0  0  0  0  0  0
  -29.6483  -13.4758   17.7426 H   0  0  0  0  0  0
  -27.8774  -11.2872   18.8792 H   0  0  0  0  0  0
  -27.3812  -12.5555   17.7928 H   0  0  0  0  0  0
  -27.6637  -14.2536   19.5091 H   0  0  0  0  0  0
  -28.7009  -12.0736   21.3840 H   0  0  0  0  0  0
  -28.3812  -13.7210   21.8241 H   0  0  0  0  0  0
  -25.2764   -9.5716   22.4730 H   0  0  0  0  0  0
  -24.0020   -7.4654   22.7475 H   0  0  0  0  0  0
  -21.0835   -8.8774   19.8951 H   0  0  0  0  0  0
  -22.3678  -10.9680   19.6152 H   0  0  0  0  0  0
  -21.2001   -7.6156   23.9725 H   0  0  0  0  0  0
  -21.1472   -6.0522   25.9075 H   0  0  0  0  0  0
  -22.0592   -2.7617   23.2834 H   0  0  0  0  0  0
  -22.4138  -11.9907   22.4780 H   0  0  0  0  0  0
  -21.1128  -13.1286   22.2620 H   0  0  0  0  0  0
  -24.6705  -15.8514   20.5514 H   0  0  0  0  0  0
  -26.2932  -15.6338   20.1293 H   0  0  0  0  0  0
  -26.7160  -32.5458   23.1078 H   0  0  0  0  0  0
  -25.0091  -33.9739   25.0431 H   0  0  0  0  0  0
  -22.7122  -31.2999   21.3973 H   0  0  0  0  0  0
  -23.3735  -35.9622   23.3310 H   0  0  0  0  0  0
  -24.3564  -36.8904   22.2049 H   0  0  0  0  0  0
  -23.7237  -37.6492   23.6656 H   0  0  0  0  0  0
  -26.0786  -31.5473   20.5932 H   0  0  0  0  0  0
  -26.8396  -30.8496   21.9909 H   0  0  0  0  0  0
  -28.1028  -28.9858   21.2009 H   0  0  0  0  0  0
  -25.9911  -25.9021   19.0327 H   0  0  0  0  0  0
  -23.9792  -27.2851   19.0208 H   0  0  0  0  0  0
  -23.7519  -30.5846   19.4018 H   0  0  0  0  0  0
  -22.7529  -29.2381   19.8562 H   0  0  0  0  0  0
  -25.1280  -36.1922   25.0819 H   0  0  0  0  0  0
  -20.9976  -28.3273   24.1406 H   0  0  0  0  0  0
  -20.5690  -26.2302   23.3616 H   0  0  0  0  0  0
  -21.6643  -26.7466   22.1201 H   0  0  0  0  0  0
  -19.6914  -25.6292   21.1262 H   0  0  0  0  0  0
  -19.6690  -27.3183   20.6743 H   0  0  0  0  0  0
  -17.4195  -26.6680   21.4024 H   0  0  0  0  0  0
  -18.0324  -26.0090   22.9039 H   0  0  0  0  0  0
  -19.7941  -30.7271   24.2295 H   0  0  0  0  0  0
  -17.5022  -31.6284   24.5173 H   0  0  0  0  0  0
  -15.5355  -30.3019   23.7657 H   0  0  0  0  0  0
  -15.8655  -28.0848   22.7068 H   0  0  0  0  0  0
  -24.5902  -30.7103   25.7783 H   0  0  0  0  0  0
  -24.8950  -32.2929   26.4858 H   0  0  0  0  0  0
  -25.8080  -30.8934   27.0227 H   0  0  0  0  0  0
  -26.2928  -29.6768   24.1173 H   0  0  0  0  0  0
  -27.4074  -29.7278   25.4639 H   0  0  0  0  0  0
  -27.8779  -30.4317   23.9347 H   0  0  0  0  0  0
  -27.2664  -33.3626   26.2071 H   0  0  0  0  0  0
  -28.3877  -32.6915   25.0319 H   0  0  0  0  0  0
  -28.0729  -31.8454   26.5407 H   0  0  0  0  0  0
  -28.2599  -38.0083   24.7501 H   0  0  0  0  0  0
  -28.1056  -36.2614   24.6306 H   0  0  0  0  0  0
  -27.2293  -37.1467   25.8878 H   0  0  0  0  0  0
  -20.9347  -29.8771   21.6894 H   0  0  0  0  0  0
  -26.0157  -38.2845   24.1428 H   0  0  0  0  0  0
  -29.5511  -19.0471   18.2641 H   0  0  0  0  0  0
  -29.5537  -18.6506   22.5498 H   0  0  0  0  0  0
  -29.1616  -21.4600   18.4822 H   0  0  0  0  0  0
  -29.1960  -21.0336   22.7664 H   0  0  0  0  0  0
  -29.0495  -23.3765   22.8537 H   0  0  0  0  0  0
  -29.9256  -24.5555   21.8861 H   0  0  0  0  0  0
  -30.6523  -22.9901   22.2156 H   0  0  0  0  0  0
  -30.3331  -16.6315   22.8387 H   0  0  0  0  0  0
  -29.7546  -14.9984   22.9381 H   0  0  0  0  0  0
  -28.6251  -16.2848   22.5213 H   0  0  0  0  0  0
  -28.8954  -17.0039   20.2983 H   0  0  0  0  0  0
  -30.8284  -17.3312   20.7282 H   0  0  0  0  0  0
  -27.5868  -23.2505   19.3526 H   0  0  0  0  0  0
  -27.2522  -24.0236   20.8630 H   0  0  0  0  0  0
  -28.0650  -25.3150   18.5260 H   0  0  0  0  0  0
  -29.5872  -25.1290   19.2758 H   0  0  0  0  0  0
  1 25  1  0  0  0
  1 30  2  0  0  0
  1 83  1  0  0  0
  2  3  1  0  0  0
  2 25  1  0  0  0
  2 84  1  0  0  0
  2 85  1  0  0  0
  3  4  1  0  0  0
  3 86  1  0  0  0
  3 87  1  0  0  0
  4  5  1  0  0  0
  4 88  1  0  0  0
  4 89  1  0  0  0
  5  6  1  0  0  0
  5 26  1  0  0  0
  5 90  1  0  0  0
  6 25  1  0  0  0
  6 91  1  0  0  0
  6 92  1  0  0  0
  7  8  2  0  0  0
  7 26  1  0  0  0
  7 29  1  0  0  0
  8  9  1  0  0  0
  8 22  1  0  0  0
  9 10  1  0  0  0
  9 27  2  0  0  0
 10 11  2  0  0  0
 10 15  1  0  0  0
 11 12  1  0  0  0
 11 93  1  0  0  0
 12 13  2  0  0  0
 12 94  1  0  0  0
 13 14  1  0  0  0
 13 31  1  0  0  0
 14 15  2  0  0  0
 14 95  1  0  0  0
 15 96  1  0  0  0
 16 17  2  0  0  0
 16 21  1  0  0  0
 16 31  1  0  0  0
 17 18  1  0  0  0
 17 97  1  0  0  0
 18 19  2  0  0  0
 18 98  1  0  0  0
 19 20  1  0  0  0
 19 24  1  0  0  0
 20 21  2  0  0  0
 20 99  1  0  0  0
 21 23  1  0  0  0
 22 28  1  0  0  0
 22 32  2  0  0  0
 26 27  1  0  0  0
 28100  1  0  0  0
 28101  1  0  0  0
 29102  1  0  0  0
 29103  1  0  0  0
 33 34  1  0  0  0
 33 66  1  0  0  0
 33 70  2  0  0  0
 34 36  1  0  0  0
 34 59  1  0  0  0
 34104  1  0  0  0
 35 44  2  0  0  0
 35 45  1  0  0  0
 35 68  1  0  0  0
 36 56  1  0  0  0
 36105  1  0  0  0
 37 39  1  0  0  0
 37 47  1  0  0  0
 37 66  1  0  0  0
 37106  1  0  0  0
 38 43  2  0  0  0
 38 46  1  0  0  0
 38 47  1  0  0  0
 39 64  1  0  0  0
 39 67  2  0  0  0
 40 52  1  0  0  0
 40 53  2  0  0  0
 40 58  1  0  0  0
 41107  1  0  0  0
 41108  1  0  0  0
 41109  1  0  0  0
 41 48  1  0  0  0
 42 43  1  0  0  0
 42 66  1  0  0  0
 42110  1  0  0  0
 42111  1  0  0  0
 43 44  1  0  0  0
 44112  1  0  0  0
 45 46  2  0  0  0
 45113  1  0  0  0
 46114  1  0  0  0
 47115  1  0  0  0
 47116  1  0  0  0
 48 56  1  0  0  0
 48 65  1  0  0  0
 48117  1  0  0  0
 49 50  1  0  0  0
 49 53  1  0  0  0
 49 64  1  0  0  0
 49118  1  0  0  0
 50 51  1  0  0  0
 50119  1  0  0  0
 50120  1  0  0  0
 51 52  1  0  0  0
 51121  1  0  0  0
 51122  1  0  0  0
 52123  1  0  0  0
 52124  1  0  0  0
 53 54  1  0  0  0
 54 55  2  0  0  0
 54125  1  0  0  0
 55 57  1  0  0  0
 55126  1  0  0  0
 56 69  2  0  0  0
 57 58  2  0  0  0
 57127  1  0  0  0
 58128  1  0  0  0
 59 60  1  0  0  0
 59 61  1  0  0  0
 59 62  1  0  0  0
 60129  1  0  0  0
 60130  1  0  0  0
 60131  1  0  0  0
 61132  1  0  0  0
 61133  1  0  0  0
 61134  1  0  0  0
 62135  1  0  0  0
 62136  1  0  0  0
 62137  1  0  0  0
 63 65  1  0  0  0
 63138  1  0  0  0
 63139  1  0  0  0
 63140  1  0  0  0
 64141  1  0  0  0
 65142  1  0  0  0
 68 81  1  0  0  0
 71 73  2  0  0  0
 71 75  1  0  0  0
 71143  1  0  0  0
 72 74  1  0  0  0
 72 75  2  0  0  0
 72144  1  0  0  0
 73 76  1  0  0  0
 73145  1  0  0  0
 74 76  2  0  0  0
 74146  1  0  0  0
 75 79  1  0  0  0
 76 82  1  0  0  0
 77 82  1  0  0  0
 77147  1  0  0  0
 77148  1  0  0  0
 77149  1  0  0  0
 78 83  1  0  0  0
 78150  1  0  0  0
 78151  1  0  0  0
 78152  1  0  0  0
 79 83  1  0  0  0
 79153  1  0  0  0
 79154  1  0  0  0
 80 81  1  0  0  0
 80 82  1  0  0  0
 80155  1  0  0  0
 80156  1  0  0  0
 81157  1  0  0  0
 81158  1  0  0  0
M  ISO  4   1 100  68 101  81 101  83 100
M  END
> <chiral flag>
0

> <version>
0

> <s_m_source_file>
/data/baiqing/PycharmProjects/Reinvent-master-3.2/result/LINK_invent/BTK/process_docking_weight1_custom_product_contain_oxygen_bond_distance_aromatic_linkinvent_7_9_3/rearranged_h_0011.sdf

> <i_m_source_file_index>
61

> <r_mmod_Potential_Energy-OPLS-2005>
439.037231445312

> <r_mmod_Stretch_Energy-OPLS-2005>
92.5135726928711

> <r_mmod_Bend_Energy-OPLS-2005>
379.099792480469

> <r_mmod_Torsional_Energy-OPLS-2005>
270.232360839844

> <r_mmod_Improper_Torsional_Energy-OPLS-2005>
9.45748710632324

> <r_mmod_Van_der_Waal_Energy-OPLS-2005>
151.953414916992

> <r_mmod_Electrostatic_Energy-OPLS-2005>
-298.704345703125

> <r_mmod_Solvation_Energy-OPLS-2005>
-213.23828125

> <b_mmod_Minimization_Converged-OPLS-2005>
0

> <r_mmod_RMS_Derivative-OPLS-2005>
2.17701935768127

$$$$
61
                    3D
 Structure written by MMmdl.
157167  0  0  1  0            999 V2000
  -30.4563  -15.1233   20.2902 C   0  0  0  0  0  0
  -30.4603  -12.6690   19.5226 C   0  0  0  0  0  0
  -29.5544  -12.3896   18.2960 C   0  0  0  0  0  0
  -28.0634  -12.2672   18.6951 C   0  0  0  0  0  0
  -27.6103  -13.2331   19.8295 C   0  0  2  0  0  0
  -28.6625  -13.3723   20.9448 C   0  0  0  0  0  0
  -25.2410  -13.8149   20.5770 C   0  0  0  0  0  0
  -24.1707  -13.0398   20.9276 C   0  0  0  0  0  0
  -24.6322  -11.6882   20.8828 C   0  0  0  0  0  0
  -23.9017  -10.4258   21.0450 C   0  0  0  0  0  0
  -24.3605   -9.4171   21.9203 C   0  0  0  0  0  0
  -23.6277   -8.2211   22.0772 C   0  0  0  0  0  0
  -22.4267   -8.0252   21.3549 C   0  0  0  0  0  0
  -21.9886   -9.0222   20.4660 C   0  0  0  0  0  0
  -22.7217  -10.2097   20.3071 C   0  0  0  0  0  0
  -21.6831   -6.0724   22.5270 C   0  0  0  0  0  0
  -21.3994   -6.5631   23.8204 C   0  0  0  0  0  0
  -21.3659   -5.6781   24.9162 C   0  0  0  0  0  0
  -21.6041   -4.3050   24.7206 C   0  0  0  0  0  0
  -21.8825   -3.8143   23.4329 C   0  0  0  0  0  0
  -21.9186   -4.6958   22.3386 C   0  0  0  0  0  0
  -22.7742  -13.5207   21.1873 C   0  0  0  0  0  0
  -22.1677   -4.2151   21.0967 F   0  0  0  0  0  0
  -21.5634   -3.4542   25.7724 F   0  0  0  0  0  0
  -29.9036  -13.8233   20.2946 N   0  0  0  0  0  0
  -26.2804  -12.9318   20.3356 N   0  0  0  0  0  0
  -25.9249  -11.6480   20.5865 N   0  0  0  0  0  0
  -22.0349  -12.8237   22.0422 N   0  0  0  0  0  0
  -25.4044  -15.1881   20.4133 N   0  0  0  0  0  0
  -31.6955  -15.1548   20.2793 O   0  0  0  0  0  0
  -21.6633   -6.8858   21.4233 O   0  0  0  0  0  0
  -22.3461  -14.5509   20.6674 O   0  0  0  0  0  0
  -24.6501  -31.8374   23.1824 C   0  0  0  0  0  0
  -25.9259  -32.4651   23.8220 C   0  0  1  0  0  0
  -27.2106  -27.0567   20.1721 C   0  0  0  0  0  0
  -25.5999  -33.8464   24.2143 N   0  0  0  0  0  0
  -23.4561  -30.4542   21.5287 C   0  0  2  0  0  0
  -24.9060  -28.8666   20.1113 C   0  0  0  0  0  0
  -22.7592  -29.4512   22.4833 C   0  0  0  0  0  0
  -18.0315  -28.1391   22.8485 C   0  0  0  0  0  0
  -24.1505  -36.7242   23.2634 C   0  0  0  0  0  0
  -26.0161  -30.6860   21.3926 C   0  0  0  0  0  0
  -26.0845  -29.2878   20.7406 C   0  0  0  0  0  0
  -27.2356  -28.4013   20.7484 C   0  0  0  0  0  0
  -26.0081  -26.7596   19.4920 C   0  0  0  0  0  0
  -24.8871  -27.6208   19.4669 C   0  0  0  0  0  0
  -23.6883  -29.7813   20.1488 C   0  0  0  0  0  0
  -25.4136  -36.2998   24.0296 C   0  0  1  0  0  0
  -20.5932  -28.3728   23.1233 C   0  0  2  0  0  0
  -20.6813  -26.9431   22.5381 C   0  0  0  0  0  0
  -19.5779  -26.6405   21.5197 C   0  0  0  0  0  0
  -18.1957  -26.7943   22.1605 C   0  0  0  0  0  0
  -19.1569  -28.8871   23.2859 C   0  0  0  0  0  0
  -18.9478  -30.1471   23.8884 C   0  0  0  0  0  0
  -17.6468  -30.6587   24.0559 C   0  0  0  0  0  0
  -25.9088  -34.9379   23.5024 C   0  0  0  0  0  0
  -16.5365  -29.9073   23.6337 C   0  0  0  0  0  0
  -16.7298  -28.6495   23.0357 C   0  0  0  0  0  0
  -26.4560  -31.6542   25.0687 C   0  0  0  0  0  0
  -25.3721  -31.3776   26.1368 C   0  0  0  0  0  0
  -27.0418  -30.2922   24.6306 C   0  0  0  0  0  0
  -27.6064  -32.4316   25.7499 C   0  0  0  0  0  0
  -27.5570  -37.1778   24.8459 C   0  0  0  0  0  0
  -21.4278  -29.3052   22.3599 N   0  0  0  0  0  0
  -26.4286  -37.3718   23.9400 N   0  0  0  0  0  0
  -24.7273  -31.0158   22.0896 N   0  0  0  0  0  0
  -23.4203  -28.8054   23.3006 O   0  0  0  0  0  0
  -28.2617  -26.0440   20.2255 O   0  0  0  0  0  0
  -26.5666  -34.8891   22.4596 O   0  0  0  0  0  0
  -23.5609  -32.1301   23.7002 O   0  0  0  0  0  0
  -29.4443  -19.0971   20.4049 C   0  0  0  0  0  0
  -28.6724  -20.4619   18.5097 C   0  0  0  0  0  0
  -29.0373  -18.0579   18.2830 C   0  0  0  0  0  0
  -29.0536  -20.4791   19.8633 C   0  0  0  0  0  0
  -29.4688  -17.8029   19.6021 C   0  0  0  0  0  0
  -28.6588  -19.2966   17.7440 C   0  0  0  0  0  0
  -28.9439  -16.8604   17.4231 C   0  0  0  0  0  0
  -27.8518  -23.7880   21.6271 C   0  0  0  0  0  0
  -29.5482  -15.7690   18.2626 C   0  0  0  0  0  0
  -27.9515  -22.2101   21.4664 C   0  0  0  0  0  0
  -29.0730  -23.2589   19.7251 C   0  0  0  0  0  0
  -28.0471  -24.4615   20.2450 C   0  0  2  0  0  0
  -29.7073  -16.2173   19.6688 N   0  0  0  0  0  0
  -28.9549  -21.8755   20.4446 N   0  0  0  0  0  0
  -28.2499  -19.3663   16.4543 F   0  0  0  0  0  0
  -31.4784  -12.8716   19.1882 H   0  0  0  0  0  0
  -30.5270  -11.7861   20.1616 H   0  0  0  0  0  0
  -29.8766  -11.4577   17.8297 H   0  0  0  0  0  0
  -29.7032  -13.1318   17.5159 H   0  0  0  0  0  0
  -27.9272  -11.2397   19.0324 H   0  0  0  0  0  0
  -27.4238  -12.3778   17.8197 H   0  0  0  0  0  0
  -27.4961  -14.2113   19.3805 H   0  0  0  0  0  0
  -28.8014  -12.4352   21.4861 H   0  0  0  0  0  0
  -28.3355  -14.1126   21.6773 H   0  0  0  0  0  0
  -25.2744   -9.5647   22.4790 H   0  0  0  0  0  0
  -23.9975   -7.4598   22.7500 H   0  0  0  0  0  0
  -21.0817   -8.8738   19.8977 H   0  0  0  0  0  0
  -22.3669  -10.9640   19.6194 H   0  0  0  0  0  0
  -21.1993   -7.6140   23.9705 H   0  0  0  0  0  0
  -21.1485   -6.0512   25.9065 H   0  0  0  0  0  0
  -22.0615   -2.7610   23.2808 H   0  0  0  0  0  0
  -22.3961  -11.9948   22.4891 H   0  0  0  0  0  0
  -21.0960  -13.1296   22.2574 H   0  0  0  0  0  0
  -24.6211  -15.8284   20.4884 H   0  0  0  0  0  0
  -26.2609  -15.6441   20.1230 H   0  0  0  0  0  0
  -26.7301  -32.5231   23.0913 H   0  0  0  0  0  0
  -25.0152  -33.9560   25.0299 H   0  0  0  0  0  0
  -22.7604  -31.2806   21.3712 H   0  0  0  0  0  0
  -23.3755  -35.9585   23.3281 H   0  0  0  0  0  0
  -24.3582  -36.8903   22.2050 H   0  0  0  0  0  0
  -23.7281  -37.6437   23.6696 H   0  0  0  0  0  0
  -26.1757  -31.4322   20.6127 H   0  0  0  0  0  0
  -26.8845  -30.7410   22.0384 H   0  0  0  0  0  0
  -28.1321  -28.7206   21.2611 H   0  0  0  0  0  0
  -25.9008  -25.8215   18.9714 H   0  0  0  0  0  0
  -23.9946  -27.3008   18.9468 H   0  0  0  0  0  0
  -23.8343  -30.5570   19.3952 H   0  0  0  0  0  0
  -22.8006  -29.2298   19.8333 H   0  0  0  0  0  0
  -25.1325  -36.1797   25.0782 H   0  0  0  0  0  0
  -21.0020  -28.3305   24.1354 H   0  0  0  0  0  0
  -20.5749  -26.2321   23.3591 H   0  0  0  0  0  0
  -21.6668  -26.7470   22.1142 H   0  0  0  0  0  0
  -19.6949  -25.6322   21.1212 H   0  0  0  0  0  0
  -19.6723  -27.3238   20.6747 H   0  0  0  0  0  0
  -17.4231  -26.6720   21.4000 H   0  0  0  0  0  0
  -18.0345  -26.0073   22.8981 H   0  0  0  0  0  0
  -19.7946  -30.7301   24.2245 H   0  0  0  0  0  0
  -17.5002  -31.6268   24.5155 H   0  0  0  0  0  0
  -15.5357  -30.2954   23.7658 H   0  0  0  0  0  0
  -15.8709  -28.0803   22.7071 H   0  0  0  0  0  0
  -24.5905  -30.7121   25.7690 H   0  0  0  0  0  0
  -24.8914  -32.2979   26.4692 H   0  0  0  0  0  0
  -25.7979  -30.9016   27.0211 H   0  0  0  0  0  0
  -26.3045  -29.6634   24.1300 H   0  0  0  0  0  0
  -27.3990  -29.7234   25.4900 H   0  0  0  0  0  0
  -27.8975  -30.4126   23.9660 H   0  0  0  0  0  0
  -27.2634  -33.3629   26.2024 H   0  0  0  0  0  0
  -28.3924  -32.6857   25.0373 H   0  0  0  0  0  0
  -28.0680  -31.8482   26.5478 H   0  0  0  0  0  0
  -28.2562  -38.0095   24.7479 H   0  0  0  0  0  0
  -28.1088  -36.2610   24.6309 H   0  0  0  0  0  0
  -27.2283  -37.1453   25.8863 H   0  0  0  0  0  0
  -20.9500  -29.8734   21.6745 H   0  0  0  0  0  0
  -26.0137  -38.2780   24.1400 H   0  0  0  0  0  0
  -29.7238  -19.0363   21.4474 H   0  0  0  0  0  0
  -28.3329  -21.3526   18.0085 H   0  0  0  0  0  0
  -29.4730  -17.0014   16.4802 H   0  0  0  0  0  0
  -27.8928  -16.6612   17.2046 H   0  0  0  0  0  0
  -28.6461  -24.1287   22.2917 H   0  0  0  0  0  0
  -26.9093  -24.0826   22.0909 H   0  0  0  0  0  0
  -30.5171  -15.5011   17.8289 H   0  0  0  0  0  0
  -28.8928  -14.9260   18.1306 H   0  0  0  0  0  0
  -26.9857  -21.8035   21.1596 H   0  0  0  0  0  0
  -28.2039  -21.7432   22.4196 H   0  0  0  0  0  0
  -30.0952  -23.5989   19.8950 H   0  0  0  0  0  0
  -28.9914  -23.1742   18.6431 H   0  0  0  0  0  0
  -27.1262  -24.2714   19.6979 H   0  0  0  0  0  0
  1 25  1  0  0  0
  1 30  2  0  0  0
  1 83  1  0  0  0
  2  3  1  0  0  0
  2 25  1  0  0  0
  2 86  1  0  0  0
  2 87  1  0  0  0
  3  4  1  0  0  0
  3 88  1  0  0  0
  3 89  1  0  0  0
  4  5  1  0  0  0
  4 90  1  0  0  0
  4 91  1  0  0  0
  5  6  1  0  0  0
  5 26  1  0  0  0
  5 92  1  0  0  0
  6 25  1  0  0  0
  6 93  1  0  0  0
  6 94  1  0  0  0
  7  8  2  0  0  0
  7 26  1  0  0  0
  7 29  1  0  0  0
  8  9  1  0  0  0
  8 22  1  0  0  0
  9 10  1  0  0  0
  9 27  2  0  0  0
 10 11  2  0  0  0
 10 15  1  0  0  0
 11 12  1  0  0  0
 11 95  1  0  0  0
 12 13  2  0  0  0
 12 96  1  0  0  0
 13 14  1  0  0  0
 13 31  1  0  0  0
 14 15  2  0  0  0
 14 97  1  0  0  0
 15 98  1  0  0  0
 16 17  2  0  0  0
 16 21  1  0  0  0
 16 31  1  0  0  0
 17 18  1  0  0  0
 17 99  1  0  0  0
 18 19  2  0  0  0
 18100  1  0  0  0
 19 20  1  0  0  0
 19 24  1  0  0  0
 20 21  2  0  0  0
 20101  1  0  0  0
 21 23  1  0  0  0
 22 28  1  0  0  0
 22 32  2  0  0  0
 26 27  1  0  0  0
 28102  1  0  0  0
 28103  1  0  0  0
 29104  1  0  0  0
 29105  1  0  0  0
 33 34  1  0  0  0
 33 66  1  0  0  0
 33 70  2  0  0  0
 34 36  1  0  0  0
 34 59  1  0  0  0
 34106  1  0  0  0
 35 44  2  0  0  0
 35 45  1  0  0  0
 35 68  1  0  0  0
 36 56  1  0  0  0
 36107  1  0  0  0
 37 39  1  0  0  0
 37 47  1  0  0  0
 37 66  1  0  0  0
 37108  1  0  0  0
 38 43  2  0  0  0
 38 46  1  0  0  0
 38 47  1  0  0  0
 39 64  1  0  0  0
 39 67  2  0  0  0
 40 52  1  0  0  0
 40 53  2  0  0  0
 40 58  1  0  0  0
 41109  1  0  0  0
 41110  1  0  0  0
 41111  1  0  0  0
 41 48  1  0  0  0
 42 43  1  0  0  0
 42 66  1  0  0  0
 42112  1  0  0  0
 42113  1  0  0  0
 43 44  1  0  0  0
 44114  1  0  0  0
 45 46  2  0  0  0
 45115  1  0  0  0
 46116  1  0  0  0
 47117  1  0  0  0
 47118  1  0  0  0
 48 56  1  0  0  0
 48 65  1  0  0  0
 48119  1  0  0  0
 49 50  1  0  0  0
 49 53  1  0  0  0
 49 64  1  0  0  0
 49120  1  0  0  0
 50 51  1  0  0  0
 50121  1  0  0  0
 50122  1  0  0  0
 51 52  1  0  0  0
 51123  1  0  0  0
 51124  1  0  0  0
 52125  1  0  0  0
 52126  1  0  0  0
 53 54  1  0  0  0
 54 55  2  0  0  0
 54127  1  0  0  0
 55 57  1  0  0  0
 55128  1  0  0  0
 56 69  2  0  0  0
 57 58  2  0  0  0
 57129  1  0  0  0
 58130  1  0  0  0
 59 60  1  0  0  0
 59 61  1  0  0  0
 59 62  1  0  0  0
 60131  1  0  0  0
 60132  1  0  0  0
 60133  1  0  0  0
 61134  1  0  0  0
 61135  1  0  0  0
 61136  1  0  0  0
 62137  1  0  0  0
 62138  1  0  0  0
 62139  1  0  0  0
 63 65  1  0  0  0
 63140  1  0  0  0
 63141  1  0  0  0
 63142  1  0  0  0
 64143  1  0  0  0
 65144  1  0  0  0
 68 82  1  0  0  0
 71 74  2  0  0  0
 71 75  1  0  0  0
 71145  1  0  0  0
 72 74  1  0  0  0
 72 76  2  0  0  0
 72146  1  0  0  0
 73 75  2  0  0  0
 73 76  1  0  0  0
 73 77  1  0  0  0
 74 84  1  0  0  0
 75 83  1  0  0  0
 76 85  1  0  0  0
 77 79  1  0  0  0
 77147  1  0  0  0
 77148  1  0  0  0
 78 80  1  0  0  0
 78 82  1  0  0  0
 78149  1  0  0  0
 78150  1  0  0  0
 79 83  1  0  0  0
 79151  1  0  0  0
 79152  1  0  0  0
 80 84  1  0  0  0
 80153  1  0  0  0
 80154  1  0  0  0
 81 82  1  0  0  0
 81 84  1  0  0  0
 81155  1  0  0  0
 81156  1  0  0  0
 82157  1  0  0  0
M  ISO  4   1 100  68 101  82 101  83 100
M  END
> <chiral flag>
0

> <version>
0

> <s_m_source_file>
/data/baiqing/PycharmProjects/Reinvent-master-3.2/result/LINK_invent/BTK/process_docking_weight1_custom_product_contain_oxygen_bond_distance_aromatic_linkinvent_7_9_3/rearranged_h_0011.sdf

> <i_m_source_file_index>
62

> <r_mmod_Potential_Energy-OPLS-2005>
1229.13952636719

> <r_mmod_Stretch_Energy-OPLS-2005>
368.593292236328

> <r_mmod_Bend_Energy-OPLS-2005>
486.880432128906

> <r_mmod_Torsional_Energy-OPLS-2005>
374.180328369141

> <r_mmod_Improper_Torsional_Energy-OPLS-2005>
31.3560256958008

> <r_mmod_Van_der_Waal_Energy-OPLS-2005>
141.898071289062

> <r_mmod_Electrostatic_Energy-OPLS-2005>
-275.659698486328

> <r_mmod_Solvation_Energy-OPLS-2005>
-212.907073974609

> <b_mmod_Minimization_Converged-OPLS-2005>
0

> <r_mmod_RMS_Derivative-OPLS-2005>
2.31001281738281

$$$$
62
                    3D
 Structure written by MMmdl.
167177  0  0  1  0            999 V2000
  -30.6795  -14.4647   20.4849 C   0  0  0  0  0  0
  -30.4227  -12.2553   19.3762 C   0  0  0  0  0  0
  -29.4862  -12.4993   18.1734 C   0  0  0  0  0  0
  -28.0015  -12.3723   18.5892 C   0  0  0  0  0  0
  -27.6611  -13.1867   19.8588 C   0  0  2  0  0  0
  -28.7295  -12.9703   20.9651 C   0  0  0  0  0  0
  -25.2606  -13.8082   20.5712 C   0  0  0  0  0  0
  -24.1868  -13.0396   20.9171 C   0  0  0  0  0  0
  -24.6437  -11.6868   20.8773 C   0  0  0  0  0  0
  -23.9072  -10.4267   21.0405 C   0  0  0  0  0  0
  -24.3597   -9.4171   21.9192 C   0  0  0  0  0  0
  -23.6273   -8.2215   22.0753 C   0  0  0  0  0  0
  -22.4251   -8.0269   21.3544 C   0  0  0  0  0  0
  -21.9894   -9.0243   20.4642 C   0  0  0  0  0  0
  -22.7221  -10.2117   20.3056 C   0  0  0  0  0  0
  -21.6842   -6.0716   22.5278 C   0  0  0  0  0  0
  -21.4023   -6.5636   23.8208 C   0  0  0  0  0  0
  -21.3653   -5.6778   24.9180 C   0  0  0  0  0  0
  -21.6044   -4.3051   24.7233 C   0  0  0  0  0  0
  -21.8802   -3.8131   23.4359 C   0  0  0  0  0  0
  -21.9192   -4.6948   22.3420 C   0  0  0  0  0  0
  -22.7852  -13.5161   21.1843 C   0  0  0  0  0  0
  -22.1650   -4.2142   21.0989 F   0  0  0  0  0  0
  -21.5634   -3.4532   25.7741 F   0  0  0  0  0  0
  -30.0586  -13.2544   20.3963 N   0  0  0  0  0  0
  -26.3081  -12.9232   20.3392 N   0  0  0  0  0  0
  -25.9381  -11.6399   20.5846 N   0  0  0  0  0  0
  -22.0518  -12.8191   22.0419 N   0  0  0  0  0  0
  -25.4299  -15.1806   20.4071 N   0  0  0  0  0  0
  -31.8409  -14.6270   20.1116 O   0  0  0  0  0  0
  -21.6634   -6.8876   21.4240 O   0  0  0  0  0  0
  -22.3543  -14.5463   20.6683 O   0  0  0  0  0  0
  -24.6119  -31.8686   23.2178 C   0  0  0  0  0  0
  -25.9028  -32.4843   23.8449 C   0  0  1  0  0  0
  -27.2284  -27.4396   20.0809 C   0  0  0  0  0  0
  -25.5891  -33.8655   24.2364 N   0  0  0  0  0  0
  -23.4000  -30.4962   21.5585 C   0  0  2  0  0  0
  -24.8480  -28.9803   20.1045 C   0  0  0  0  0  0
  -22.7413  -29.4651   22.5021 C   0  0  0  0  0  0
  -18.0307  -28.1322   22.8481 C   0  0  0  0  0  0
  -24.1492  -36.7314   23.2647 C   0  0  0  0  0  0
  -25.9331  -30.8320   21.3741 C   0  0  0  0  0  0
  -26.0080  -29.4698   20.7157 C   0  0  0  0  0  0
  -27.1949  -28.7036   20.7138 C   0  0  0  0  0  0
  -26.0649  -27.0040   19.4018 C   0  0  0  0  0  0
  -24.8698  -27.7418   19.4471 C   0  0  0  0  0  0
  -23.6071  -29.8401   20.1683 C   0  0  0  0  0  0
  -25.4115  -36.3136   24.0354 C   0  0  1  0  0  0
  -20.5884  -28.3653   23.1334 C   0  0  2  0  0  0
  -20.6837  -26.9413   22.5385 C   0  0  0  0  0  0
  -19.5758  -26.6197   21.5283 C   0  0  0  0  0  0
  -18.1918  -26.7852   22.1627 C   0  0  0  0  0  0
  -19.1537  -28.8778   23.2885 C   0  0  0  0  0  0
  -18.9441  -30.1458   23.8804 C   0  0  0  0  0  0
  -17.6473  -30.6612   24.0419 C   0  0  0  0  0  0
  -25.9023  -34.9500   23.5156 C   0  0  0  0  0  0
  -16.5336  -29.9060   23.6220 C   0  0  0  0  0  0
  -16.7280  -28.6471   23.0336 C   0  0  0  0  0  0
  -26.4463  -31.6620   25.0779 C   0  0  0  0  0  0
  -25.3732  -31.3716   26.1534 C   0  0  0  0  0  0
  -27.0307  -30.3074   24.6157 C   0  0  0  0  0  0
  -27.6041  -32.4359   25.7521 C   0  0  0  0  0  0
  -27.5582  -37.1823   24.8468 C   0  0  0  0  0  0
  -21.4130  -29.3108   22.3819 N   0  0  0  0  0  0
  -26.4300  -37.3809   23.9402 N   0  0  0  0  0  0
  -24.6672  -31.0811   22.1056 N   0  0  0  0  0  0
  -23.4195  -28.8107   23.2977 O   0  0  0  0  0  0
  -28.3776  -26.6701   20.1681 O   0  0  0  0  0  0
  -26.5577  -34.8927   22.4716 O   0  0  0  0  0  0
  -23.5307  -32.1460   23.7562 O   0  0  0  0  0  0
  -27.1693  -21.1159   21.0937 C   0  0  0  0  0  0
  -27.4512  -19.8369   20.5775 C   0  0  0  0  0  0
  -29.1777  -21.0036   22.4378 C   0  0  0  0  0  0
  -28.0709  -21.7411   21.9796 C   0  0  0  0  0  0
  -28.6369  -19.1318   20.9273 C   0  0  0  0  0  0
  -29.4492  -19.7152   21.9440 C   0  0  0  0  0  0
  -29.6409  -17.3328   18.0524 C   0  0  0  0  0  0
  -30.8178  -17.3464   19.0219 C   0  0  0  0  0  0
  -28.4308  -17.6646   18.9226 C   0  0  0  0  0  0
  -29.2149  -24.3609   20.6958 C   0  0  0  0  0  0
  -27.1922  -24.4293   20.4767 C   0  0  0  0  0  0
  -28.3072  -25.2652   19.8210 C   0  0  1  0  0  0
  -30.2028  -17.1385   20.4130 C   0  0  2  0  0  0
  -27.8256  -23.1485   22.5302 C   0  0  0  0  0  0
  -29.8351  -15.6895   20.8907 C   0  0  0  0  0  0
  -28.9498  -17.9028   20.2787 N   0  0  0  0  0  0
  -28.0759  -24.2959   21.6164 N   0  3  1  0  0  0
  -30.5125  -19.0787   22.4817 F   0  0  0  0  0  0
  -31.4659  -12.3007   19.0534 H   0  0  0  0  0  0
  -30.2911  -11.2418   19.7548 H   0  0  0  0  0  0
  -29.7071  -11.8093   17.3590 H   0  0  0  0  0  0
  -29.6702  -13.5035   17.7803 H   0  0  0  0  0  0
  -27.7757  -11.3183   18.7413 H   0  0  0  0  0  0
  -27.3622  -12.7055   17.7683 H   0  0  0  0  0  0
  -27.6694  -14.2188   19.5196 H   0  0  0  0  0  0
  -28.7176  -11.9374   21.3117 H   0  0  0  0  0  0
  -28.5491  -13.5898   21.8420 H   0  0  0  0  0  0
  -25.2744   -9.5640   22.4775 H   0  0  0  0  0  0
  -23.9968   -7.4599   22.7461 H   0  0  0  0  0  0
  -21.0821   -8.8733   19.8966 H   0  0  0  0  0  0
  -22.3656  -10.9647   19.6164 H   0  0  0  0  0  0
  -21.2014   -7.6146   23.9714 H   0  0  0  0  0  0
  -21.1496   -6.0530   25.9087 H   0  0  0  0  0  0
  -22.0597   -2.7604   23.2853 H   0  0  0  0  0  0
  -22.4097  -11.9840   22.4802 H   0  0  0  0  0  0
  -21.1160  -13.1250   22.2675 H   0  0  0  0  0  0
  -24.6526  -15.8235   20.5010 H   0  0  0  0  0  0
  -26.2923  -15.6315   20.1338 H   0  0  0  0  0  0
  -26.7111  -32.5558   23.1216 H   0  0  0  0  0  0
  -25.0071  -33.9820   25.0531 H   0  0  0  0  0  0
  -22.6861  -31.3141   21.4253 H   0  0  0  0  0  0
  -23.3748  -35.9641   23.3327 H   0  0  0  0  0  0
  -24.3577  -36.8908   22.2046 H   0  0  0  0  0  0
  -23.7226  -37.6534   23.6631 H   0  0  0  0  0  0
  -26.0510  -31.6067   20.6153 H   0  0  0  0  0  0
  -26.8158  -30.8791   22.0009 H   0  0  0  0  0  0
  -28.0783  -29.0725   21.2141 H   0  0  0  0  0  0
  -26.0495  -26.0815   18.8390 H   0  0  0  0  0  0
  -23.9870  -27.3666   18.9467 H   0  0  0  0  0  0
  -23.7046  -30.6210   19.4105 H   0  0  0  0  0  0
  -22.7327  -29.2568   19.8759 H   0  0  0  0  0  0
  -25.1283  -36.2019   25.0841 H   0  0  0  0  0  0
  -20.9965  -28.3168   24.1490 H   0  0  0  0  0  0
  -20.5871  -26.2236   23.3538 H   0  0  0  0  0  0
  -21.6694  -26.7511   22.1059 H   0  0  0  0  0  0
  -19.6912  -25.6048   21.1457 H   0  0  0  0  0  0
  -19.6688  -27.2875   20.6723 H   0  0  0  0  0  0
  -17.4225  -26.6663   21.3987 H   0  0  0  0  0  0
  -18.0212  -26.0011   22.9006 H   0  0  0  0  0  0
  -19.7959  -30.7290   24.2077 H   0  0  0  0  0  0
  -17.5047  -31.6358   24.4864 H   0  0  0  0  0  0
  -15.5356  -30.3006   23.7499 H   0  0  0  0  0  0
  -15.8679  -28.0738   22.7116 H   0  0  0  0  0  0
  -24.5881  -30.7096   25.7861 H   0  0  0  0  0  0
  -24.8952  -32.2874   26.5032 H   0  0  0  0  0  0
  -25.8097  -30.8842   27.0260 H   0  0  0  0  0  0
  -26.2864  -29.6845   24.1192 H   0  0  0  0  0  0
  -27.4053  -29.7319   25.4623 H   0  0  0  0  0  0
  -27.8702  -30.4418   23.9336 H   0  0  0  0  0  0
  -27.2645  -33.3629   26.2158 H   0  0  0  0  0  0
  -28.3796  -32.6982   25.0310 H   0  0  0  0  0  0
  -28.0764  -31.8459   26.5388 H   0  0  0  0  0  0
  -28.2629  -38.0102   24.7509 H   0  0  0  0  0  0
  -28.1062  -36.2634   24.6311 H   0  0  0  0  0  0
  -27.2296  -37.1490   25.8877 H   0  0  0  0  0  0
  -20.9250  -29.8983   21.7191 H   0  0  0  0  0  0
  -26.0205  -38.2896   24.1398 H   0  0  0  0  0  0
  -26.2487  -21.6036   20.7995 H   0  0  0  0  0  0
  -26.7252  -19.4247   19.8889 H   0  0  0  0  0  0
  -29.8405  -21.4234   23.1757 H   0  0  0  0  0  0
  -29.5338  -16.3498   17.6063 H   0  0  0  0  0  0
  -29.7671  -18.0612   17.2497 H   0  0  0  0  0  0
  -31.2746  -18.3457   18.9942 H   0  0  0  0  0  0
  -31.6217  -16.6681   18.7444 H   0  0  0  0  0  0
  -27.7144  -16.8353   18.9088 H   0  0  0  0  0  0
  -27.9268  -18.5255   18.4905 H   0  0  0  0  0  0
  -30.1137  -24.8309   21.1002 H   0  0  0  0  0  0
  -29.4516  -23.4013   20.2271 H   0  0  0  0  0  0
  -27.0111  -23.5108   19.9239 H   0  0  0  0  0  0
  -26.2571  -24.8980   20.7520 H   0  0  0  0  0  0
  -28.4401  -25.0930   18.7482 H   0  0  0  0  0  0
  -30.9251  -17.5263   21.1177 H   0  0  0  0  0  0
  -28.4359  -23.3013   23.4192 H   0  0  0  0  0  0
  -26.7936  -23.2250   22.8791 H   0  0  0  0  0  0
  -29.6524  -15.6873   21.9644 H   0  0  0  0  0  0
  -28.8677  -15.5010   20.4612 H   0  0  0  0  0  0
  -28.0533  -25.1591   22.1393 H   0  0  0  0  0  0
  1 25  1  0  0  0
  1 30  2  0  0  0
  1 85  1  0  0  0
  2  3  1  0  0  0
  2 25  1  0  0  0
  2 89  1  0  0  0
  2 90  1  0  0  0
  3  4  1  0  0  0
  3 91  1  0  0  0
  3 92  1  0  0  0
  4  5  1  0  0  0
  4 93  1  0  0  0
  4 94  1  0  0  0
  5  6  1  0  0  0
  5 26  1  0  0  0
  5 95  1  0  0  0
  6 25  1  0  0  0
  6 96  1  0  0  0
  6 97  1  0  0  0
  7  8  2  0  0  0
  7 26  1  0  0  0
  7 29  1  0  0  0
  8  9  1  0  0  0
  8 22  1  0  0  0
  9 10  1  0  0  0
  9 27  2  0  0  0
 10 11  2  0  0  0
 10 15  1  0  0  0
 11 12  1  0  0  0
 11 98  1  0  0  0
 12 13  2  0  0  0
 12 99  1  0  0  0
 13 14  1  0  0  0
 13 31  1  0  0  0
 14 15  2  0  0  0
 14100  1  0  0  0
 15101  1  0  0  0
 16 17  2  0  0  0
 16 21  1  0  0  0
 16 31  1  0  0  0
 17 18  1  0  0  0
 17102  1  0  0  0
 18 19  2  0  0  0
 18103  1  0  0  0
 19 20  1  0  0  0
 19 24  1  0  0  0
 20 21  2  0  0  0
 20104  1  0  0  0
 21 23  1  0  0  0
 22 28  1  0  0  0
 22 32  2  0  0  0
 26 27  1  0  0  0
 28105  1  0  0  0
 28106  1  0  0  0
 29107  1  0  0  0
 29108  1  0  0  0
 33 34  1  0  0  0
 33 66  1  0  0  0
 33 70  2  0  0  0
 34 36  1  0  0  0
 34 59  1  0  0  0
 34109  1  0  0  0
 35 44  2  0  0  0
 35 45  1  0  0  0
 35 68  1  0  0  0
 36 56  1  0  0  0
 36110  1  0  0  0
 37 39  1  0  0  0
 37 47  1  0  0  0
 37 66  1  0  0  0
 37111  1  0  0  0
 38 43  2  0  0  0
 38 46  1  0  0  0
 38 47  1  0  0  0
 39 64  1  0  0  0
 39 67  2  0  0  0
 40 52  1  0  0  0
 40 53  2  0  0  0
 40 58  1  0  0  0
 41112  1  0  0  0
 41113  1  0  0  0
 41114  1  0  0  0
 41 48  1  0  0  0
 42 43  1  0  0  0
 42 66  1  0  0  0
 42115  1  0  0  0
 42116  1  0  0  0
 43 44  1  0  0  0
 44117  1  0  0  0
 45 46  2  0  0  0
 45118  1  0  0  0
 46119  1  0  0  0
 47120  1  0  0  0
 47121  1  0  0  0
 48 56  1  0  0  0
 48 65  1  0  0  0
 48122  1  0  0  0
 49 50  1  0  0  0
 49 53  1  0  0  0
 49 64  1  0  0  0
 49123  1  0  0  0
 50 51  1  0  0  0
 50124  1  0  0  0
 50125  1  0  0  0
 51 52  1  0  0  0
 51126  1  0  0  0
 51127  1  0  0  0
 52128  1  0  0  0
 52129  1  0  0  0
 53 54  1  0  0  0
 54 55  2  0  0  0
 54130  1  0  0  0
 55 57  1  0  0  0
 55131  1  0  0  0
 56 69  2  0  0  0
 57 58  2  0  0  0
 57132  1  0  0  0
 58133  1  0  0  0
 59 60  1  0  0  0
 59 61  1  0  0  0
 59 62  1  0  0  0
 60134  1  0  0  0
 60135  1  0  0  0
 60136  1  0  0  0
 61137  1  0  0  0
 61138  1  0  0  0
 61139  1  0  0  0
 62140  1  0  0  0
 62141  1  0  0  0
 62142  1  0  0  0
 63 65  1  0  0  0
 63143  1  0  0  0
 63144  1  0  0  0
 63145  1  0  0  0
 64146  1  0  0  0
 65147  1  0  0  0
 68 82  1  0  0  0
 71 72  2  0  0  0
 71 74  1  0  0  0
 71148  1  0  0  0
 72 75  1  0  0  0
 72149  1  0  0  0
 73 74  2  0  0  0
 73 76  1  0  0  0
 73150  1  0  0  0
 74 84  1  0  0  0
 75 76  2  0  0  0
 75 86  1  0  0  0
 76 88  1  0  0  0
 77 78  1  0  0  0
 77 79  1  0  0  0
 77151  1  0  0  0
 77152  1  0  0  0
 78 83  1  0  0  0
 78153  1  0  0  0
 78154  1  0  0  0
 79 86  1  0  0  0
 79155  1  0  0  0
 79156  1  0  0  0
 80 82  1  0  0  0
 80 87  1  0  0  0
 80157  1  0  0  0
 80158  1  0  0  0
 81 82  1  0  0  0
 81 87  1  0  0  0
 81159  1  0  0  0
 81160  1  0  0  0
 82161  1  0  0  0
 83 85  1  0  0  0
 83 86  1  0  0  0
 83162  1  0  0  0
 84163  1  0  0  0
 84164  1  0  0  0
 84 87  1  0  0  0
 85165  1  0  0  0
 85166  1  0  0  0
 87167  1  0  0  0
M  CHG  1  87   1
M  ISO  4   1 100  68 101  82 101  85 100
M  END
> <chiral flag>
0

> <version>
0

> <s_m_source_file>
/data/baiqing/PycharmProjects/Reinvent-master-3.2/result/LINK_invent/BTK/process_docking_weight1_custom_product_contain_oxygen_bond_distance_aromatic_linkinvent_7_9_3/rearranged_h_0011.sdf

> <i_m_source_file_index>
63

> <r_mmod_Potential_Energy-OPLS-2005>
5.83961629867554

> <r_mmod_Stretch_Energy-OPLS-2005>
45.5590896606445

> <r_mmod_Bend_Energy-OPLS-2005>
209.225570678711

> <r_mmod_Torsional_Energy-OPLS-2005>
248.048141479492

> <r_mmod_Improper_Torsional_Energy-OPLS-2005>
6.73671388626099

> <r_mmod_Van_der_Waal_Energy-OPLS-2005>
178.17561340332

> <r_mmod_Electrostatic_Energy-OPLS-2005>
-254.022247314453

> <r_mmod_Solvation_Energy-OPLS-2005>
-447.528900146484

> <b_mmod_Minimization_Converged-OPLS-2005>
0

> <r_mmod_RMS_Derivative-OPLS-2005>
11.6534547805786

$$$$
63
                    3D
 Structure written by MMmdl.
151159  0  0  1  0            999 V2000
  -30.6835  -14.6372   20.4794 C   0  0  0  0  0  0
  -30.4155  -12.3912   19.4637 C   0  0  0  0  0  0
  -29.4998  -12.4935   18.2268 C   0  0  0  0  0  0
  -28.0254  -12.3355   18.6422 C   0  0  0  0  0  0
  -27.6439  -13.2296   19.8531 C   0  0  2  0  0  0
  -28.6888  -13.1444   20.9879 C   0  0  0  0  0  0
  -25.2514  -13.8203   20.5698 C   0  0  0  0  0  0
  -24.1801  -13.0448   20.9207 C   0  0  0  0  0  0
  -24.6388  -11.6925   20.8752 C   0  0  0  0  0  0
  -23.9067  -10.4299   21.0411 C   0  0  0  0  0  0
  -24.3619   -9.4211   21.9186 C   0  0  0  0  0  0
  -23.6295   -8.2245   22.0754 C   0  0  0  0  0  0
  -22.4276   -8.0284   21.3546 C   0  0  0  0  0  0
  -21.9911   -9.0258   20.4649 C   0  0  0  0  0  0
  -22.7239  -10.2139   20.3059 C   0  0  0  0  0  0
  -21.6855   -6.0735   22.5279 C   0  0  0  0  0  0
  -21.4015   -6.5639   23.8214 C   0  0  0  0  0  0
  -21.3660   -5.6791   24.9174 C   0  0  0  0  0  0
  -21.6043   -4.3053   24.7226 C   0  0  0  0  0  0
  -21.8817   -3.8146   23.4347 C   0  0  0  0  0  0
  -21.9193   -4.6963   22.3403 C   0  0  0  0  0  0
  -22.7821  -13.5230   21.1863 C   0  0  0  0  0  0
  -22.1661   -4.2149   21.0980 F   0  0  0  0  0  0
  -21.5630   -3.4538   25.7738 F   0  0  0  0  0  0
  -29.9994  -13.4525   20.4051 N   0  0  0  0  0  0
  -26.2945  -12.9410   20.3299 N   0  0  0  0  0  0
  -25.9319  -11.6551   20.5763 N   0  0  0  0  0  0
  -22.0467  -12.8224   22.0424 N   0  0  0  0  0  0
  -25.4205  -15.1926   20.4109 N   0  0  0  0  0  0
  -31.8703  -14.6907   20.1500 O   0  0  0  0  0  0
  -21.6641   -6.8879   21.4240 O   0  0  0  0  0  0
  -22.3501  -14.5534   20.6711 O   0  0  0  0  0  0
  -24.6254  -31.8608   23.2038 C   0  0  0  0  0  0
  -25.9104  -32.4784   23.8365 C   0  0  1  0  0  0
  -27.2149  -27.3214   20.1254 C   0  0  0  0  0  0
  -25.5922  -33.8585   24.2287 N   0  0  0  0  0  0
  -23.4193  -30.4854   21.5459 C   0  0  2  0  0  0
  -24.8660  -28.9436   20.1093 C   0  0  0  0  0  0
  -22.7474  -29.4630   22.4934 C   0  0  0  0  0  0
  -18.0288  -28.1383   22.8489 C   0  0  0  0  0  0
  -24.1489  -36.7298   23.2638 C   0  0  0  0  0  0
  -25.9605  -30.7922   21.3764 C   0  0  0  0  0  0
  -26.0343  -29.4204   20.7187 C   0  0  0  0  0  0
  -27.2153  -28.6204   20.7180 C   0  0  0  0  0  0
  -26.0341  -26.9068   19.4722 C   0  0  0  0  0  0
  -24.8677  -27.6923   19.4749 C   0  0  0  0  0  0
  -23.6343  -29.8233   20.1599 C   0  0  0  0  0  0
  -25.4111  -36.3087   24.0332 C   0  0  1  0  0  0
  -20.5888  -28.3688   23.1282 C   0  0  2  0  0  0
  -20.6776  -26.9412   22.5409 C   0  0  0  0  0  0
  -19.5750  -26.6383   21.5213 C   0  0  0  0  0  0
  -18.1931  -26.7926   22.1627 C   0  0  0  0  0  0
  -19.1540  -28.8851   23.2882 C   0  0  0  0  0  0
  -18.9462  -30.1454   23.8898 C   0  0  0  0  0  0
  -17.6462  -30.6585   24.0563 C   0  0  0  0  0  0
  -25.9048  -34.9456   23.5109 C   0  0  0  0  0  0
  -16.5354  -29.9084   23.6328 C   0  0  0  0  0  0
  -16.7276  -28.6501   23.0350 C   0  0  0  0  0  0
  -26.4487  -31.6594   25.0736 C   0  0  0  0  0  0
  -25.3721  -31.3739   26.1466 C   0  0  0  0  0  0
  -27.0325  -30.3015   24.6194 C   0  0  0  0  0  0
  -27.6047  -32.4330   25.7504 C   0  0  0  0  0  0
  -27.5579  -37.1803   24.8463 C   0  0  0  0  0  0
  -21.4188  -29.3045   22.3677 N   0  0  0  0  0  0
  -26.4290  -37.3779   23.9409 N   0  0  0  0  0  0
  -24.6871  -31.0625   22.0989 N   0  0  0  0  0  0
  -23.4200  -28.8166   23.3009 O   0  0  0  0  0  0
  -28.3057  -26.4437   20.1689 O   0  0  0  0  0  0
  -26.5616  -34.8920   22.4675 O   0  0  0  0  0  0
  -23.5418  -32.1406   23.7366 O   0  0  0  0  0  0
  -30.6455  -19.6796   20.0605 C   0  0  0  0  0  0
  -30.1222  -21.0056   20.0942 C   0  0  0  0  0  0
  -28.6510  -18.8152   21.0840 C   0  0  0  0  0  0
  -29.9377  -18.5477   20.5568 C   0  0  0  0  0  0
  -28.8451  -21.2789   20.6423 C   0  0  0  0  0  0
  -28.1255  -20.1442   21.1249 C   0  0  0  0  0  0
  -30.6645  -17.1524   20.5597 C   0  0  0  0  0  0
  -28.0238  -25.0854   20.7005 C   0  0  0  0  0  0
  -28.8701  -23.8042   20.2722 C   0  0  0  0  0  0
  -29.9992  -15.8078   20.7025 N   0  0  0  0  0  0
  -28.2608  -22.5594   20.7551 O   0  0  0  0  0  0
  -26.8948  -20.3338   21.6593 F   0  0  0  0  0  0
  -31.4614  -12.4779   19.1643 H   0  0  0  0  0  0
  -30.3220  -11.4110   19.9336 H   0  0  0  0  0  0
  -29.7662  -11.7299   17.4948 H   0  0  0  0  0  0
  -29.6449  -13.4561   17.7335 H   0  0  0  0  0  0
  -27.8699  -11.2865   18.8962 H   0  0  0  0  0  0
  -27.3689  -12.5435   17.7966 H   0  0  0  0  0  0
  -27.6474  -14.2554   19.4839 H   0  0  0  0  0  0
  -28.6977  -12.1495   21.4354 H   0  0  0  0  0  0
  -28.4431  -13.8399   21.7918 H   0  0  0  0  0  0
  -25.2764   -9.5689   22.4759 H   0  0  0  0  0  0
  -24.0009   -7.4634   22.7470 H   0  0  0  0  0  0
  -21.0844   -8.8779   19.8954 H   0  0  0  0  0  0
  -22.3699  -10.9680   19.6171 H   0  0  0  0  0  0
  -21.2009   -7.6147   23.9715 H   0  0  0  0  0  0
  -21.1484   -6.0522   25.9077 H   0  0  0  0  0  0
  -22.0597   -2.7609   23.2844 H   0  0  0  0  0  0
  -22.4088  -11.9894   22.4824 H   0  0  0  0  0  0
  -21.1082  -13.1247   22.2625 H   0  0  0  0  0  0
  -24.6512  -15.8450   20.5169 H   0  0  0  0  0  0
  -26.2654  -15.6313   20.0684 H   0  0  0  0  0  0
  -26.7175  -32.5455   23.1117 H   0  0  0  0  0  0
  -25.0064  -33.9734   25.0427 H   0  0  0  0  0  0
  -22.7129  -31.3061   21.4045 H   0  0  0  0  0  0
  -23.3749  -35.9633   23.3300 H   0  0  0  0  0  0
  -24.3582  -36.8919   22.2053 H   0  0  0  0  0  0
  -23.7246  -37.6504   23.6657 H   0  0  0  0  0  0
  -26.0932  -31.5556   20.6087 H   0  0  0  0  0  0
  -26.8403  -30.8394   22.0065 H   0  0  0  0  0  0
  -28.1098  -28.9773   21.2090 H   0  0  0  0  0  0
  -25.9996  -25.9537   18.9639 H   0  0  0  0  0  0
  -23.9761  -27.3261   18.9845 H   0  0  0  0  0  0
  -23.7541  -30.6016   19.4053 H   0  0  0  0  0  0
  -22.7541  -29.2538   19.8562 H   0  0  0  0  0  0
  -25.1289  -36.1942   25.0824 H   0  0  0  0  0  0
  -20.9984  -28.3262   24.1400 H   0  0  0  0  0  0
  -20.5677  -26.2299   23.3609 H   0  0  0  0  0  0
  -21.6645  -26.7439   22.1202 H   0  0  0  0  0  0
  -19.6910  -25.6293   21.1243 H   0  0  0  0  0  0
  -19.6682  -27.3194   20.6742 H   0  0  0  0  0  0
  -17.4199  -26.6673   21.4031 H   0  0  0  0  0  0
  -18.0332  -26.0068   22.9025 H   0  0  0  0  0  0
  -19.7938  -30.7269   24.2268 H   0  0  0  0  0  0
  -17.5017  -31.6266   24.5165 H   0  0  0  0  0  0
  -15.5353  -30.2985   23.7649 H   0  0  0  0  0  0
  -15.8679  -28.0821   22.7061 H   0  0  0  0  0  0
  -24.5890  -30.7092   25.7800 H   0  0  0  0  0  0
  -24.8919  -32.2910   26.4891 H   0  0  0  0  0  0
  -25.8045  -30.8918   27.0242 H   0  0  0  0  0  0
  -26.2902  -29.6776   24.1203 H   0  0  0  0  0  0
  -27.4001  -29.7263   25.4702 H   0  0  0  0  0  0
  -27.8783  -30.4297   23.9434 H   0  0  0  0  0  0
  -27.2654  -33.3626   26.2087 H   0  0  0  0  0  0
  -28.3852  -32.6899   25.0329 H   0  0  0  0  0  0
  -28.0723  -31.8456   26.5417 H   0  0  0  0  0  0
  -28.2595  -38.0101   24.7510 H   0  0  0  0  0  0
  -28.1076  -36.2633   24.6283 H   0  0  0  0  0  0
  -27.2301  -37.1453   25.8868 H   0  0  0  0  0  0
  -20.9361  -29.8777   21.6898 H   0  0  0  0  0  0
  -26.0173  -38.2855   24.1407 H   0  0  0  0  0  0
  -31.6381  -19.5369   19.6551 H   0  0  0  0  0  0
  -30.7272  -21.8124   19.7071 H   0  0  0  0  0  0
  -28.0605  -18.0069   21.4893 H   0  0  0  0  0  0
  -31.4195  -17.2096   21.3459 H   0  0  0  0  0  0
  -31.2322  -17.1252   19.6273 H   0  0  0  0  0  0
  -28.0944  -25.1698   21.7853 H   0  0  0  0  0  0
  -26.9843  -24.8121   20.5287 H   0  0  0  0  0  0
  -29.8886  -23.8937   20.6514 H   0  0  0  0  0  0
  -28.9348  -23.7563   19.1847 H   0  0  0  0  0  0
  -29.0140  -15.7678   20.9118 H   0  0  0  0  0  0
  1 25  1  0  0  0
  1 30  2  0  0  0
  1 80  1  0  0  0
  2  3  1  0  0  0
  2 25  1  0  0  0
  2 83  1  0  0  0
  2 84  1  0  0  0
  3  4  1  0  0  0
  3 85  1  0  0  0
  3 86  1  0  0  0
  4  5  1  0  0  0
  4 87  1  0  0  0
  4 88  1  0  0  0
  5  6  1  0  0  0
  5 26  1  0  0  0
  5 89  1  0  0  0
  6 25  1  0  0  0
  6 90  1  0  0  0
  6 91  1  0  0  0
  7  8  2  0  0  0
  7 26  1  0  0  0
  7 29  1  0  0  0
  8  9  1  0  0  0
  8 22  1  0  0  0
  9 10  1  0  0  0
  9 27  2  0  0  0
 10 11  2  0  0  0
 10 15  1  0  0  0
 11 12  1  0  0  0
 11 92  1  0  0  0
 12 13  2  0  0  0
 12 93  1  0  0  0
 13 14  1  0  0  0
 13 31  1  0  0  0
 14 15  2  0  0  0
 14 94  1  0  0  0
 15 95  1  0  0  0
 16 17  2  0  0  0
 16 21  1  0  0  0
 16 31  1  0  0  0
 17 18  1  0  0  0
 17 96  1  0  0  0
 18 19  2  0  0  0
 18 97  1  0  0  0
 19 20  1  0  0  0
 19 24  1  0  0  0
 20 21  2  0  0  0
 20 98  1  0  0  0
 21 23  1  0  0  0
 22 28  1  0  0  0
 22 32  2  0  0  0
 26 27  1  0  0  0
 28 99  1  0  0  0
 28100  1  0  0  0
 29101  1  0  0  0
 29102  1  0  0  0
 33 34  1  0  0  0
 33 66  1  0  0  0
 33 70  2  0  0  0
 34 36  1  0  0  0
 34 59  1  0  0  0
 34103  1  0  0  0
 35 44  2  0  0  0
 35 45  1  0  0  0
 35 68  1  0  0  0
 36 56  1  0  0  0
 36104  1  0  0  0
 37 39  1  0  0  0
 37 47  1  0  0  0
 37 66  1  0  0  0
 37105  1  0  0  0
 38 43  2  0  0  0
 38 46  1  0  0  0
 38 47  1  0  0  0
 39 64  1  0  0  0
 39 67  2  0  0  0
 40 52  1  0  0  0
 40 53  2  0  0  0
 40 58  1  0  0  0
 41106  1  0  0  0
 41107  1  0  0  0
 41108  1  0  0  0
 41 48  1  0  0  0
 42 43  1  0  0  0
 42 66  1  0  0  0
 42109  1  0  0  0
 42110  1  0  0  0
 43 44  1  0  0  0
 44111  1  0  0  0
 45 46  2  0  0  0
 45112  1  0  0  0
 46113  1  0  0  0
 47114  1  0  0  0
 47115  1  0  0  0
 48 56  1  0  0  0
 48 65  1  0  0  0
 48116  1  0  0  0
 49 50  1  0  0  0
 49 53  1  0  0  0
 49 64  1  0  0  0
 49117  1  0  0  0
 50 51  1  0  0  0
 50118  1  0  0  0
 50119  1  0  0  0
 51 52  1  0  0  0
 51120  1  0  0  0
 51121  1  0  0  0
 52122  1  0  0  0
 52123  1  0  0  0
 53 54  1  0  0  0
 54 55  2  0  0  0
 54124  1  0  0  0
 55 57  1  0  0  0
 55125  1  0  0  0
 56 69  2  0  0  0
 57 58  2  0  0  0
 57126  1  0  0  0
 58127  1  0  0  0
 59 60  1  0  0  0
 59 61  1  0  0  0
 59 62  1  0  0  0
 60128  1  0  0  0
 60129  1  0  0  0
 60130  1  0  0  0
 61131  1  0  0  0
 61132  1  0  0  0
 61133  1  0  0  0
 62134  1  0  0  0
 62135  1  0  0  0
 62136  1  0  0  0
 63 65  1  0  0  0
 63137  1  0  0  0
 63138  1  0  0  0
 63139  1  0  0  0
 64140  1  0  0  0
 65141  1  0  0  0
 68 78  1  0  0  0
 71 72  2  0  0  0
 71 74  1  0  0  0
 71142  1  0  0  0
 72 75  1  0  0  0
 72143  1  0  0  0
 73 74  2  0  0  0
 73 76  1  0  0  0
 73144  1  0  0  0
 74 77  1  0  0  0
 75 76  2  0  0  0
 75 81  1  0  0  0
 76 82  1  0  0  0
 77 80  1  0  0  0
 77145  1  0  0  0
 77146  1  0  0  0
 78 79  1  0  0  0
 78147  1  0  0  0
 78148  1  0  0  0
 79 81  1  0  0  0
 79149  1  0  0  0
 79150  1  0  0  0
 80151  1  0  0  0
M  ISO  4   1 100  68 101  78 101  80 100
M  END
> <chiral flag>
0

> <version>
0

> <s_m_source_file>
/data/baiqing/PycharmProjects/Reinvent-master-3.2/result/LINK_invent/BTK/process_docking_weight1_custom_product_contain_oxygen_bond_distance_aromatic_linkinvent_7_9_3/rearranged_h_0011.sdf

> <i_m_source_file_index>
64

> <r_mmod_Potential_Energy-OPLS-2005>
57.1438636779785

> <r_mmod_Stretch_Energy-OPLS-2005>
77.1801834106445

> <r_mmod_Bend_Energy-OPLS-2005>
156.112350463867

> <r_mmod_Torsional_Energy-OPLS-2005>
214.515319824219

> <r_mmod_Improper_Torsional_Energy-OPLS-2005>
5.03410863876343

> <r_mmod_Van_der_Waal_Energy-OPLS-2005>
145.950302124023

> <r_mmod_Electrostatic_Energy-OPLS-2005>
-386.678894042969

> <r_mmod_Solvation_Energy-OPLS-2005>
-209.099853515625

> <b_mmod_Minimization_Converged-OPLS-2005>
0

> <r_mmod_RMS_Derivative-OPLS-2005>
0.420190036296844

$$$$
64
                    3D
 Structure written by MMmdl.
158167  0  0  1  0            999 V2000
  -30.7379  -14.4290   20.6336 C   0  0  0  0  0  0
  -30.4161  -12.3074   19.4048 C   0  0  0  0  0  0
  -29.4865  -12.5203   18.1950 C   0  0  0  0  0  0
  -28.0080  -12.3835   18.6088 C   0  0  0  0  0  0
  -27.6621  -13.2096   19.8769 C   0  0  2  0  0  0
  -28.7032  -12.9707   20.9914 C   0  0  0  0  0  0
  -25.2580  -13.8176   20.5687 C   0  0  0  0  0  0
  -24.1830  -13.0448   20.9171 C   0  0  0  0  0  0
  -24.6393  -11.6915   20.8729 C   0  0  0  0  0  0
  -23.9071  -10.4298   21.0405 C   0  0  0  0  0  0
  -24.3618   -9.4213   21.9187 C   0  0  0  0  0  0
  -23.6293   -8.2247   22.0758 C   0  0  0  0  0  0
  -22.4274   -8.0283   21.3545 C   0  0  0  0  0  0
  -21.9911   -9.0260   20.4646 C   0  0  0  0  0  0
  -22.7247  -10.2140   20.3051 C   0  0  0  0  0  0
  -21.6853   -6.0741   22.5280 C   0  0  0  0  0  0
  -21.4016   -6.5643   23.8218 C   0  0  0  0  0  0
  -21.3660   -5.6792   24.9178 C   0  0  0  0  0  0
  -21.6040   -4.3055   24.7224 C   0  0  0  0  0  0
  -21.8819   -3.8149   23.4346 C   0  0  0  0  0  0
  -21.9196   -4.6969   22.3402 C   0  0  0  0  0  0
  -22.7852  -13.5238   21.1847 C   0  0  0  0  0  0
  -22.1657   -4.2155   21.0978 F   0  0  0  0  0  0
  -21.5633   -3.4537   25.7740 F   0  0  0  0  0  0
  -30.0350  -13.2792   20.4407 N   0  0  0  0  0  0
  -26.3020  -12.9348   20.3381 N   0  0  0  0  0  0
  -25.9320  -11.6506   20.5768 N   0  0  0  0  0  0
  -22.0490  -12.8209   22.0383 N   0  0  0  0  0  0
  -25.4309  -15.1896   20.4117 N   0  0  0  0  0  0
  -31.8227  -14.6506   20.0872 O   0  0  0  0  0  0
  -21.6635   -6.8880   21.4242 O   0  0  0  0  0  0
  -22.3544  -14.5561   20.6727 O   0  0  0  0  0  0
  -24.6174  -31.8684   23.2120 C   0  0  0  0  0  0
  -25.9065  -32.4829   23.8414 C   0  0  1  0  0  0
  -27.2203  -27.4198   20.0872 C   0  0  0  0  0  0
  -25.5918  -33.8630   24.2339 N   0  0  0  0  0  0
  -23.4035  -30.4981   21.5530 C   0  0  2  0  0  0
  -24.8449  -28.9698   20.1131 C   0  0  0  0  0  0
  -22.7414  -29.4687   22.4981 C   0  0  0  0  0  0
  -18.0277  -28.1379   22.8499 C   0  0  0  0  0  0
  -24.1482  -36.7308   23.2637 C   0  0  0  0  0  0
  -25.9361  -30.8324   21.3638 C   0  0  0  0  0  0
  -26.0115  -29.4677   20.7067 C   0  0  0  0  0  0
  -27.2046  -28.7041   20.6857 C   0  0  0  0  0  0
  -26.0291  -26.9479   19.4834 C   0  0  0  0  0  0
  -24.8500  -27.7104   19.4970 C   0  0  0  0  0  0
  -23.6102  -29.8392   20.1652 C   0  0  0  0  0  0
  -25.4102  -36.3109   24.0331 C   0  0  1  0  0  0
  -20.5873  -28.3678   23.1310 C   0  0  2  0  0  0
  -20.6777  -26.9415   22.5406 C   0  0  0  0  0  0
  -19.5755  -26.6401   21.5206 C   0  0  0  0  0  0
  -18.1930  -26.7929   22.1619 C   0  0  0  0  0  0
  -19.1528  -28.8844   23.2908 C   0  0  0  0  0  0
  -18.9457  -30.1448   23.8928 C   0  0  0  0  0  0
  -17.6459  -30.6592   24.0582 C   0  0  0  0  0  0
  -25.9038  -34.9480   23.5124 C   0  0  0  0  0  0
  -16.5353  -29.9093   23.6336 C   0  0  0  0  0  0
  -16.7265  -28.6505   23.0361 C   0  0  0  0  0  0
  -26.4481  -31.6602   25.0737 C   0  0  0  0  0  0
  -25.3748  -31.3692   26.1487 C   0  0  0  0  0  0
  -27.0292  -30.3048   24.6084 C   0  0  0  0  0  0
  -27.6075  -32.4309   25.7494 C   0  0  0  0  0  0
  -27.5573  -37.1817   24.8469 C   0  0  0  0  0  0
  -21.4143  -29.3052   22.3715 N   0  0  0  0  0  0
  -26.4285  -37.3798   23.9412 N   0  0  0  0  0  0
  -24.6717  -31.0792   22.1017 N   0  0  0  0  0  0
  -23.4186  -28.8218   23.3013 O   0  0  0  0  0  0
  -28.3685  -26.6449   20.1108 O   0  0  0  0  0  0
  -26.5599  -34.8929   22.4683 O   0  0  0  0  0  0
  -23.5365  -32.1430   23.7509 O   0  0  0  0  0  0
  -29.4323  -18.6055   22.1264 C   0  0  0  0  0  0
  -31.2038  -18.4586   20.4831 C   0  0  0  0  0  0
  -29.1975  -19.9489   21.7547 C   0  0  0  0  0  0
  -30.9715  -19.8025   20.1152 C   0  0  0  0  0  0
  -30.4621  -17.8581   21.5189 C   0  0  0  0  0  0
  -29.9885  -20.5965   20.7656 C   0  0  0  0  0  0
  -29.0826  -22.9519   21.0116 C   0  0  0  0  0  0
  -30.3257  -24.1090   19.3232 C   0  0  0  0  0  0
  -30.7408  -22.6342   19.4409 C   0  0  0  0  0  0
  -29.4012  -24.3720   20.5129 C   0  0  1  0  0  0
  -30.8531  -16.4793   22.0549 C   0  0  0  0  0  0
  -28.1451  -25.2185   20.1781 C   0  0  0  0  0  0
  -29.8642  -22.0070   20.4324 N   0  0  0  0  0  0
  -30.1741  -15.3261   21.4581 N   0  0  0  0  0  0
  -28.1969  -22.7624   21.8506 O   0  0  0  0  0  0
  -31.4605  -12.4033   19.1028 H   0  0  0  0  0  0
  -30.3138  -11.2923   19.7912 H   0  0  0  0  0  0
  -29.7218  -11.8026   17.4083 H   0  0  0  0  0  0
  -29.6590  -13.5098   17.7686 H   0  0  0  0  0  0
  -27.8087  -11.3268   18.7883 H   0  0  0  0  0  0
  -27.3599  -12.6788   17.7826 H   0  0  0  0  0  0
  -27.7124  -14.2624   19.5976 H   0  0  0  0  0  0
  -28.6772  -11.9287   21.3140 H   0  0  0  0  0  0
  -28.4586  -13.5504   21.8811 H   0  0  0  0  0  0
  -25.2767   -9.5694   22.4763 H   0  0  0  0  0  0
  -24.0010   -7.4638   22.7473 H   0  0  0  0  0  0
  -21.0847   -8.8777   19.8944 H   0  0  0  0  0  0
  -22.3713  -10.9674   19.6150 H   0  0  0  0  0  0
  -21.2001   -7.6151   23.9724 H   0  0  0  0  0  0
  -21.1481   -6.0522   25.9084 H   0  0  0  0  0  0
  -22.0596   -2.7612   23.2845 H   0  0  0  0  0  0
  -22.4083  -11.9845   22.4738 H   0  0  0  0  0  0
  -21.1110  -13.1236   22.2602 H   0  0  0  0  0  0
  -24.6706  -15.8502   20.5297 H   0  0  0  0  0  0
  -26.2946  -15.6284   20.1163 H   0  0  0  0  0  0
  -26.7125  -32.5534   23.1173 H   0  0  0  0  0  0
  -25.0110  -33.9803   25.0512 H   0  0  0  0  0  0
  -22.6929  -31.3165   21.4175 H   0  0  0  0  0  0
  -23.3745  -35.9642   23.3306 H   0  0  0  0  0  0
  -24.3582  -36.8911   22.2051 H   0  0  0  0  0  0
  -23.7233  -37.6514   23.6645 H   0  0  0  0  0  0
  -26.0455  -31.5967   20.5931 H   0  0  0  0  0  0
  -26.8253  -30.8873   21.9798 H   0  0  0  0  0  0
  -28.1057  -29.0847   21.1471 H   0  0  0  0  0  0
  -25.9797  -25.9898   18.9893 H   0  0  0  0  0  0
  -23.9534  -27.3260   19.0313 H   0  0  0  0  0  0
  -23.7225  -30.6189   19.4111 H   0  0  0  0  0  0
  -22.7312  -29.2655   19.8652 H   0  0  0  0  0  0
  -25.1267  -36.1976   25.0821 H   0  0  0  0  0  0
  -20.9980  -28.3239   24.1423 H   0  0  0  0  0  0
  -20.5691  -26.2281   23.3588 H   0  0  0  0  0  0
  -21.6643  -26.7455   22.1199 H   0  0  0  0  0  0
  -19.6925  -25.6314   21.1236 H   0  0  0  0  0  0
  -19.6703  -27.3223   20.6745 H   0  0  0  0  0  0
  -17.4204  -26.6702   21.4013 H   0  0  0  0  0  0
  -18.0331  -26.0039   22.8983 H   0  0  0  0  0  0
  -19.7931  -30.7267   24.2313 H   0  0  0  0  0  0
  -17.5011  -31.6282   24.5165 H   0  0  0  0  0  0
  -15.5356  -30.3019   23.7631 H   0  0  0  0  0  0
  -15.8661  -28.0837   22.7070 H   0  0  0  0  0  0
  -24.5946  -30.6996   25.7839 H   0  0  0  0  0  0
  -24.8906  -32.2824   26.4957 H   0  0  0  0  0  0
  -25.8113  -30.8873   27.0243 H   0  0  0  0  0  0
  -26.2807  -29.6842   24.1135 H   0  0  0  0  0  0
  -27.4061  -29.7258   25.4525 H   0  0  0  0  0  0
  -27.8649  -30.4369   23.9206 H   0  0  0  0  0  0
  -27.2738  -33.3655   26.2017 H   0  0  0  0  0  0
  -28.3926  -32.6780   25.0334 H   0  0  0  0  0  0
  -28.0677  -31.8443   26.5455 H   0  0  0  0  0  0
  -28.2605  -38.0105   24.7507 H   0  0  0  0  0  0
  -28.1050  -36.2631   24.6291 H   0  0  0  0  0  0
  -27.2298  -37.1476   25.8880 H   0  0  0  0  0  0
  -20.9306  -29.8759   21.6927 H   0  0  0  0  0  0
  -26.0163  -38.2873   24.1419 H   0  0  0  0  0  0
  -28.8460  -18.1663   22.9224 H   0  0  0  0  0  0
  -31.9963  -17.9035   19.9982 H   0  0  0  0  0  0
  -28.4153  -20.4670   22.2862 H   0  0  0  0  0  0
  -31.6034  -20.2169   19.3430 H   0  0  0  0  0  0
  -29.8044  -24.2727   18.3786 H   0  0  0  0  0  0
  -31.1906  -24.7724   19.3299 H   0  0  0  0  0  0
  -31.7765  -22.5569   19.7748 H   0  0  0  0  0  0
  -30.6578  -22.1349   18.4748 H   0  0  0  0  0  0
  -29.9586  -24.8517   21.3181 H   0  0  0  0  0  0
  -30.6499  -16.4558   23.1261 H   0  0  0  0  0  0
  -31.9367  -16.3718   21.9756 H   0  0  0  0  0  0
  -27.3813  -25.0370   20.9375 H   0  0  0  0  0  0
  -27.7413  -24.8550   19.2335 H   0  0  0  0  0  0
  -29.2658  -15.0900   21.8269 H   0  0  0  0  0  0
  1 25  1  0  0  0
  1 30  2  0  0  0
  1 84  1  0  0  0
  2  3  1  0  0  0
  2 25  1  0  0  0
  2 86  1  0  0  0
  2 87  1  0  0  0
  3  4  1  0  0  0
  3 88  1  0  0  0
  3 89  1  0  0  0
  4  5  1  0  0  0
  4 90  1  0  0  0
  4 91  1  0  0  0
  5  6  1  0  0  0
  5 26  1  0  0  0
  5 92  1  0  0  0
  6 25  1  0  0  0
  6 93  1  0  0  0
  6 94  1  0  0  0
  7  8  2  0  0  0
  7 26  1  0  0  0
  7 29  1  0  0  0
  8  9  1  0  0  0
  8 22  1  0  0  0
  9 10  1  0  0  0
  9 27  2  0  0  0
 10 11  2  0  0  0
 10 15  1  0  0  0
 11 12  1  0  0  0
 11 95  1  0  0  0
 12 13  2  0  0  0
 12 96  1  0  0  0
 13 14  1  0  0  0
 13 31  1  0  0  0
 14 15  2  0  0  0
 14 97  1  0  0  0
 15 98  1  0  0  0
 16 17  2  0  0  0
 16 21  1  0  0  0
 16 31  1  0  0  0
 17 18  1  0  0  0
 17 99  1  0  0  0
 18 19  2  0  0  0
 18100  1  0  0  0
 19 20  1  0  0  0
 19 24  1  0  0  0
 20 21  2  0  0  0
 20101  1  0  0  0
 21 23  1  0  0  0
 22 28  1  0  0  0
 22 32  2  0  0  0
 26 27  1  0  0  0
 28102  1  0  0  0
 28103  1  0  0  0
 29104  1  0  0  0
 29105  1  0  0  0
 33 34  1  0  0  0
 33 66  1  0  0  0
 33 70  2  0  0  0
 34 36  1  0  0  0
 34 59  1  0  0  0
 34106  1  0  0  0
 35 44  2  0  0  0
 35 45  1  0  0  0
 35 68  1  0  0  0
 36 56  1  0  0  0
 36107  1  0  0  0
 37 39  1  0  0  0
 37 47  1  0  0  0
 37 66  1  0  0  0
 37108  1  0  0  0
 38 43  2  0  0  0
 38 46  1  0  0  0
 38 47  1  0  0  0
 39 64  1  0  0  0
 39 67  2  0  0  0
 40 52  1  0  0  0
 40 53  2  0  0  0
 40 58  1  0  0  0
 41109  1  0  0  0
 41110  1  0  0  0
 41111  1  0  0  0
 41 48  1  0  0  0
 42 43  1  0  0  0
 42 66  1  0  0  0
 42112  1  0  0  0
 42113  1  0  0  0
 43 44  1  0  0  0
 44114  1  0  0  0
 45 46  2  0  0  0
 45115  1  0  0  0
 46116  1  0  0  0
 47117  1  0  0  0
 47118  1  0  0  0
 48 56  1  0  0  0
 48 65  1  0  0  0
 48119  1  0  0  0
 49 50  1  0  0  0
 49 53  1  0  0  0
 49 64  1  0  0  0
 49120  1  0  0  0
 50 51  1  0  0  0
 50121  1  0  0  0
 50122  1  0  0  0
 51 52  1  0  0  0
 51123  1  0  0  0
 51124  1  0  0  0
 52125  1  0  0  0
 52126  1  0  0  0
 53 54  1  0  0  0
 54 55  2  0  0  0
 54127  1  0  0  0
 55 57  1  0  0  0
 55128  1  0  0  0
 56 69  2  0  0  0
 57 58  2  0  0  0
 57129  1  0  0  0
 58130  1  0  0  0
 59 60  1  0  0  0
 59 61  1  0  0  0
 59 62  1  0  0  0
 60131  1  0  0  0
 60132  1  0  0  0
 60133  1  0  0  0
 61134  1  0  0  0
 61135  1  0  0  0
 61136  1  0  0  0
 62137  1  0  0  0
 62138  1  0  0  0
 62139  1  0  0  0
 63 65  1  0  0  0
 63140  1  0  0  0
 63141  1  0  0  0
 63142  1  0  0  0
 64143  1  0  0  0
 65144  1  0  0  0
 68 82  1  0  0  0
 71 73  2  0  0  0
 71 75  1  0  0  0
 71145  1  0  0  0
 72 74  1  0  0  0
 72 75  2  0  0  0
 72146  1  0  0  0
 73 76  1  0  0  0
 73147  1  0  0  0
 74 76  2  0  0  0
 74148  1  0  0  0
 75 81  1  0  0  0
 76 83  1  0  0  0
 77 80  1  0  0  0
 77 83  1  0  0  0
 77 85  2  0  0  0
 78 79  1  0  0  0
 78 80  1  0  0  0
 78149  1  0  0  0
 78150  1  0  0  0
 79 83  1  0  0  0
 79151  1  0  0  0
 79152  1  0  0  0
 80 82  1  0  0  0
 80153  1  0  0  0
 81 84  1  0  0  0
 81154  1  0  0  0
 81155  1  0  0  0
 82156  1  0  0  0
 82157  1  0  0  0
 84158  1  0  0  0
M  ISO  4   1 100  68 101  82 101  84 100
M  END
> <chiral flag>
0

> <version>
0

> <s_m_source_file>
/data/baiqing/PycharmProjects/Reinvent-master-3.2/result/LINK_invent/BTK/process_docking_weight1_custom_product_contain_oxygen_bond_distance_aromatic_linkinvent_7_9_3/rearranged_h_0011.sdf

> <i_m_source_file_index>
65

> <r_mmod_Potential_Energy-OPLS-2005>
-10.4178504943848

> <r_mmod_Stretch_Energy-OPLS-2005>
42.4960060119629

> <r_mmod_Bend_Energy-OPLS-2005>
119.43684387207

> <r_mmod_Torsional_Energy-OPLS-2005>
252.716003417969

> <r_mmod_Improper_Torsional_Energy-OPLS-2005>
2.46667122840881

> <r_mmod_Van_der_Waal_Energy-OPLS-2005>
166.132186889648

> <r_mmod_Electrostatic_Energy-OPLS-2005>
-386.572265625

> <r_mmod_Solvation_Energy-OPLS-2005>
-219.113037109375

> <b_mmod_Minimization_Converged-OPLS-2005>
0

> <r_mmod_RMS_Derivative-OPLS-2005>
1.47806560993195

$$$$
65
                    3D
 Structure written by MMmdl.
155164  0  0  1  0            999 V2000
  -30.5779  -14.9192   20.5019 C   0  0  0  0  0  0
  -30.4360  -12.5802   19.5097 C   0  0  0  0  0  0
  -29.5231  -12.5463   18.2617 C   0  0  0  0  0  0
  -28.0552  -12.3278   18.6689 C   0  0  0  0  0  0
  -27.6330  -13.2477   19.8416 C   0  0  2  0  0  0
  -28.6651  -13.2483   20.9857 C   0  0  0  0  0  0
  -25.2474  -13.8221   20.5704 C   0  0  0  0  0  0
  -24.1782  -13.0443   20.9202 C   0  0  0  0  0  0
  -24.6396  -11.6928   20.8731 C   0  0  0  0  0  0
  -23.9080  -10.4298   21.0399 C   0  0  0  0  0  0
  -24.3628   -9.4214   21.9179 C   0  0  0  0  0  0
  -23.6301   -8.2250   22.0751 C   0  0  0  0  0  0
  -22.4282   -8.0286   21.3544 C   0  0  0  0  0  0
  -21.9920   -9.0259   20.4645 C   0  0  0  0  0  0
  -22.7250  -10.2137   20.3052 C   0  0  0  0  0  0
  -21.6858   -6.0739   22.5278 C   0  0  0  0  0  0
  -21.4017   -6.5641   23.8211 C   0  0  0  0  0  0
  -21.3660   -5.6793   24.9173 C   0  0  0  0  0  0
  -21.6045   -4.3056   24.7224 C   0  0  0  0  0  0
  -21.8819   -3.8149   23.4344 C   0  0  0  0  0  0
  -21.9193   -4.6966   22.3401 C   0  0  0  0  0  0
  -22.7805  -13.5213   21.1878 C   0  0  0  0  0  0
  -22.1662   -4.2152   21.0979 F   0  0  0  0  0  0
  -21.5628   -3.4539   25.7737 F   0  0  0  0  0  0
  -29.9607  -13.6646   20.4227 N   0  0  0  0  0  0
  -26.2892  -12.9449   20.3220 N   0  0  0  0  0  0
  -25.9326  -11.6577   20.5705 N   0  0  0  0  0  0
  -22.0464  -12.8194   22.0437 N   0  0  0  0  0  0
  -25.4172  -15.1951   20.4188 N   0  0  0  0  0  0
  -31.7104  -15.0144   20.0135 O   0  0  0  0  0  0
  -21.6644   -6.8884   21.4240 O   0  0  0  0  0  0
  -22.3480  -14.5518   20.6732 O   0  0  0  0  0  0
  -24.6434  -31.8438   23.1888 C   0  0  0  0  0  0
  -25.9205  -32.4692   23.8278 C   0  0  1  0  0  0
  -27.2175  -27.1329   20.1510 C   0  0  0  0  0  0
  -25.5951  -33.8501   24.2192 N   0  0  0  0  0  0
  -23.4471  -30.4633   21.5337 C   0  0  2  0  0  0
  -24.8978  -28.8911   20.1078 C   0  0  0  0  0  0
  -22.7566  -29.4546   22.4855 C   0  0  0  0  0  0
  -18.0303  -28.1399   22.8476 C   0  0  0  0  0  0
  -24.1490  -36.7255   23.2643 C   0  0  0  0  0  0
  -26.0034  -30.7155   21.3893 C   0  0  0  0  0  0
  -26.0740  -29.3268   20.7306 C   0  0  0  0  0  0
  -27.2328  -28.4627   20.7382 C   0  0  0  0  0  0
  -26.0201  -26.8070   19.4753 C   0  0  0  0  0  0
  -24.8839  -27.6447   19.4648 C   0  0  0  0  0  0
  -23.6740  -29.7931   20.1527 C   0  0  0  0  0  0
  -25.4122  -36.3031   24.0316 C   0  0  1  0  0  0
  -20.5916  -28.3727   23.1232 C   0  0  2  0  0  0
  -20.6787  -26.9428   22.5403 C   0  0  0  0  0  0
  -19.5762  -26.6383   21.5211 C   0  0  0  0  0  0
  -18.1942  -26.7937   22.1622 C   0  0  0  0  0  0
  -19.1559  -28.8881   23.2846 C   0  0  0  0  0  0
  -18.9478  -30.1475   23.8875 C   0  0  0  0  0  0
  -17.6476  -30.6595   24.0558 C   0  0  0  0  0  0
  -25.9075  -34.9406   23.5064 C   0  0  0  0  0  0
  -16.5366  -29.9088   23.6336 C   0  0  0  0  0  0
  -16.7287  -28.6505   23.0359 C   0  0  0  0  0  0
  -26.4527  -31.6566   25.0723 C   0  0  0  0  0  0
  -25.3704  -31.3758   26.1412 C   0  0  0  0  0  0
  -27.0400  -30.2961   24.6319 C   0  0  0  0  0  0
  -27.6059  -32.4337   25.7503 C   0  0  0  0  0  0
  -27.5575  -37.1782   24.8465 C   0  0  0  0  0  0
  -21.4257  -29.3050   22.3603 N   0  0  0  0  0  0
  -26.4285  -37.3744   23.9410 N   0  0  0  0  0  0
  -24.7176  -31.0290   22.0922 N   0  0  0  0  0  0
  -23.4207  -28.8092   23.3005 O   0  0  0  0  0  0
  -28.2640  -26.1412   20.2477 O   0  0  0  0  0  0
  -26.5660  -34.8902   22.4644 O   0  0  0  0  0  0
  -23.5552  -32.1320   23.7103 O   0  0  0  0  0  0
  -29.6513  -18.0851   19.4702 C   0  0  0  0  0  0
  -29.3613  -19.4886   19.1978 C   0  0  0  0  0  0
  -29.2726  -19.9734   21.4893 C   0  0  0  0  0  0
  -29.5303  -18.5645   21.7749 C   0  0  0  0  0  0
  -29.7521  -17.5207   20.7847 C   0  0  0  0  0  0
  -29.1537  -20.5270   20.1776 C   0  0  0  0  0  0
  -29.5367  -18.1847   23.2427 C   0  0  0  0  0  0
  -29.1888  -16.7140   23.4566 C   0  0  0  0  0  0
  -30.1108  -15.8157   22.6281 C   0  0  0  0  0  0
  -28.0235  -24.6248   19.9581 C   0  0  0  0  0  0
  -28.8431  -23.2482   20.5102 C   0  0  0  0  0  0
  -29.9846  -16.0330   21.1708 N   0  0  0  0  0  0
  -28.7935  -21.8933   19.7748 O   0  0  0  0  0  0
  -31.4732  -12.7238   19.2036 H   0  0  0  0  0  0
  -30.4174  -11.6181   20.0243 H   0  0  0  0  0  0
  -29.8433  -11.7585   17.5785 H   0  0  0  0  0  0
  -29.6166  -13.4853   17.7137 H   0  0  0  0  0  0
  -27.9460  -11.2831   18.9627 H   0  0  0  0  0  0
  -27.3960  -12.4748   17.8125 H   0  0  0  0  0  0
  -27.6076  -14.2585   19.4326 H   0  0  0  0  0  0
  -28.7397  -12.2644   21.4512 H   0  0  0  0  0  0
  -28.3212  -13.9291   21.7624 H   0  0  0  0  0  0
  -25.2773   -9.5692   22.4754 H   0  0  0  0  0  0
  -24.0010   -7.4643   22.7473 H   0  0  0  0  0  0
  -21.0850   -8.8780   19.8954 H   0  0  0  0  0  0
  -22.3707  -10.9674   19.6162 H   0  0  0  0  0  0
  -21.2010   -7.6150   23.9715 H   0  0  0  0  0  0
  -21.1482   -6.0524   25.9075 H   0  0  0  0  0  0
  -22.0597   -2.7612   23.2843 H   0  0  0  0  0  0
  -22.4092  -11.9856   22.4816 H   0  0  0  0  0  0
  -21.1082  -13.1208   22.2655 H   0  0  0  0  0  0
  -24.6571  -15.8536   20.5492 H   0  0  0  0  0  0
  -26.2806  -15.6392   20.1322 H   0  0  0  0  0  0
  -26.7270  -32.5297   23.1005 H   0  0  0  0  0  0
  -25.0072  -33.9619   25.0320 H   0  0  0  0  0  0
  -22.7498  -31.2896   21.3793 H   0  0  0  0  0  0
  -23.3759  -35.9579   23.3289 H   0  0  0  0  0  0
  -24.3574  -36.8905   22.2061 H   0  0  0  0  0  0
  -23.7239  -37.6444   23.6692 H   0  0  0  0  0  0
  -26.1601  -31.4695   20.6166 H   0  0  0  0  0  0
  -26.8735  -30.7659   22.0321 H   0  0  0  0  0  0
  -28.1254  -28.7883   21.2536 H   0  0  0  0  0  0
  -25.9242  -25.8605   18.9650 H   0  0  0  0  0  0
  -23.9882  -27.3090   18.9606 H   0  0  0  0  0  0
  -23.8097  -30.5682   19.3976 H   0  0  0  0  0  0
  -22.7891  -29.2347   19.8422 H   0  0  0  0  0  0
  -25.1308  -36.1858   25.0807 H   0  0  0  0  0  0
  -21.0006  -28.3318   24.1354 H   0  0  0  0  0  0
  -20.5681  -26.2339   23.3623 H   0  0  0  0  0  0
  -21.6653  -26.7432   22.1201 H   0  0  0  0  0  0
  -19.6924  -25.6285   21.1262 H   0  0  0  0  0  0
  -19.6702  -27.3174   20.6725 H   0  0  0  0  0  0
  -17.4210  -26.6678   21.4026 H   0  0  0  0  0  0
  -18.0344  -26.0083   22.9024 H   0  0  0  0  0  0
  -19.7954  -30.7294   24.2237 H   0  0  0  0  0  0
  -17.5029  -31.6274   24.5163 H   0  0  0  0  0  0
  -15.5367  -30.2986   23.7676 H   0  0  0  0  0  0
  -15.8684  -28.0818   22.7095 H   0  0  0  0  0  0
  -24.5890  -30.7099   25.7728 H   0  0  0  0  0  0
  -24.8883  -32.2939   26.4780 H   0  0  0  0  0  0
  -25.7976  -30.8967   27.0230 H   0  0  0  0  0  0
  -26.3028  -29.6672   24.1314 H   0  0  0  0  0  0
  -27.3996  -29.7271   25.4904 H   0  0  0  0  0  0
  -27.8937  -30.4198   23.9653 H   0  0  0  0  0  0
  -27.2663  -33.3668   26.2014 H   0  0  0  0  0  0
  -28.3902  -32.6851   25.0349 H   0  0  0  0  0  0
  -28.0690  -31.8504   26.5473 H   0  0  0  0  0  0
  -28.2580  -38.0089   24.7516 H   0  0  0  0  0  0
  -28.1083  -36.2620   24.6286 H   0  0  0  0  0  0
  -27.2292  -37.1419   25.8867 H   0  0  0  0  0  0
  -20.9469  -29.8760   21.6777 H   0  0  0  0  0  0
  -26.0150  -38.2811   24.1417 H   0  0  0  0  0  0
  -29.7763  -17.4260   18.6230 H   0  0  0  0  0  0
  -29.2866  -19.7763   18.1588 H   0  0  0  0  0  0
  -29.1202  -20.6436   22.3235 H   0  0  0  0  0  0
  -28.8321  -18.8082   23.7947 H   0  0  0  0  0  0
  -30.5267  -18.3979   23.6483 H   0  0  0  0  0  0
  -28.1486  -16.5299   23.1830 H   0  0  0  0  0  0
  -29.2778  -16.4680   24.5158 H   0  0  0  0  0  0
  -29.9369  -14.7813   22.9282 H   0  0  0  0  0  0
  -31.1465  -16.0183   22.9102 H   0  0  0  0  0  0
  -26.9845  -24.4217   20.2157 H   0  0  0  0  0  0
  -28.0580  -24.5623   18.8703 H   0  0  0  0  0  0
  -28.5561  -23.0743   21.5472 H   0  0  0  0  0  0
  -29.9011  -23.5072   20.5500 H   0  0  0  0  0  0
  1 25  1  0  0  0
  1 30  2  0  0  0
  1 82  1  0  0  0
  2  3  1  0  0  0
  2 25  1  0  0  0
  2 84  1  0  0  0
  2 85  1  0  0  0
  3  4  1  0  0  0
  3 86  1  0  0  0
  3 87  1  0  0  0
  4  5  1  0  0  0
  4 88  1  0  0  0
  4 89  1  0  0  0
  5  6  1  0  0  0
  5 26  1  0  0  0
  5 90  1  0  0  0
  6 25  1  0  0  0
  6 91  1  0  0  0
  6 92  1  0  0  0
  7  8  2  0  0  0
  7 26  1  0  0  0
  7 29  1  0  0  0
  8  9  1  0  0  0
  8 22  1  0  0  0
  9 10  1  0  0  0
  9 27  2  0  0  0
 10 11  2  0  0  0
 10 15  1  0  0  0
 11 12  1  0  0  0
 11 93  1  0  0  0
 12 13  2  0  0  0
 12 94  1  0  0  0
 13 14  1  0  0  0
 13 31  1  0  0  0
 14 15  2  0  0  0
 14 95  1  0  0  0
 15 96  1  0  0  0
 16 17  2  0  0  0
 16 21  1  0  0  0
 16 31  1  0  0  0
 17 18  1  0  0  0
 17 97  1  0  0  0
 18 19  2  0  0  0
 18 98  1  0  0  0
 19 20  1  0  0  0
 19 24  1  0  0  0
 20 21  2  0  0  0
 20 99  1  0  0  0
 21 23  1  0  0  0
 22 28  1  0  0  0
 22 32  2  0  0  0
 26 27  1  0  0  0
 28100  1  0  0  0
 28101  1  0  0  0
 29102  1  0  0  0
 29103  1  0  0  0
 33 34  1  0  0  0
 33 66  1  0  0  0
 33 70  2  0  0  0
 34 36  1  0  0  0
 34 59  1  0  0  0
 34104  1  0  0  0
 35 44  2  0  0  0
 35 45  1  0  0  0
 35 68  1  0  0  0
 36 56  1  0  0  0
 36105  1  0  0  0
 37 39  1  0  0  0
 37 47  1  0  0  0
 37 66  1  0  0  0
 37106  1  0  0  0
 38 43  2  0  0  0
 38 46  1  0  0  0
 38 47  1  0  0  0
 39 64  1  0  0  0
 39 67  2  0  0  0
 40 52  1  0  0  0
 40 53  2  0  0  0
 40 58  1  0  0  0
 41107  1  0  0  0
 41108  1  0  0  0
 41109  1  0  0  0
 41 48  1  0  0  0
 42 43  1  0  0  0
 42 66  1  0  0  0
 42110  1  0  0  0
 42111  1  0  0  0
 43 44  1  0  0  0
 44112  1  0  0  0
 45 46  2  0  0  0
 45113  1  0  0  0
 46114  1  0  0  0
 47115  1  0  0  0
 47116  1  0  0  0
 48 56  1  0  0  0
 48 65  1  0  0  0
 48117  1  0  0  0
 49 50  1  0  0  0
 49 53  1  0  0  0
 49 64  1  0  0  0
 49118  1  0  0  0
 50 51  1  0  0  0
 50119  1  0  0  0
 50120  1  0  0  0
 51 52  1  0  0  0
 51121  1  0  0  0
 51122  1  0  0  0
 52123  1  0  0  0
 52124  1  0  0  0
 53 54  1  0  0  0
 54 55  2  0  0  0
 54125  1  0  0  0
 55 57  1  0  0  0
 55126  1  0  0  0
 56 69  2  0  0  0
 57 58  2  0  0  0
 57127  1  0  0  0
 58128  1  0  0  0
 59 60  1  0  0  0
 59 61  1  0  0  0
 59 62  1  0  0  0
 60129  1  0  0  0
 60130  1  0  0  0
 60131  1  0  0  0
 61132  1  0  0  0
 61133  1  0  0  0
 61134  1  0  0  0
 62135  1  0  0  0
 62136  1  0  0  0
 62137  1  0  0  0
 63 65  1  0  0  0
 63138  1  0  0  0
 63139  1  0  0  0
 63140  1  0  0  0
 64141  1  0  0  0
 65142  1  0  0  0
 68 80  1  0  0  0
 71 72  2  0  0  0
 71 75  1  0  0  0
 71143  1  0  0  0
 72 76  1  0  0  0
 72144  1  0  0  0
 73 74  1  0  0  0
 73 76  2  0  0  0
 73145  1  0  0  0
 74 75  2  0  0  0
 74 77  1  0  0  0
 75 82  1  0  0  0
 76 83  1  0  0  0
 77 78  1  0  0  0
 77146  1  0  0  0
 77147  1  0  0  0
 78 79  1  0  0  0
 78148  1  0  0  0
 78149  1  0  0  0
 79 82  1  0  0  0
 79150  1  0  0  0
 79151  1  0  0  0
 80 81  1  0  0  0
 80152  1  0  0  0
 80153  1  0  0  0
 81 83  1  0  0  0
 81154  1  0  0  0
 81155  1  0  0  0
M  ISO  4   1 100  68 101  80 101  82 100
M  END
> <chiral flag>
0

> <version>
0

> <s_m_source_file>
/data/baiqing/PycharmProjects/Reinvent-master-3.2/result/LINK_invent/BTK/process_docking_weight1_custom_product_contain_oxygen_bond_distance_aromatic_linkinvent_7_9_3/rearranged_h_0011.sdf

> <i_m_source_file_index>
66

> <r_mmod_Potential_Energy-OPLS-2005>
670.158874511719

> <r_mmod_Stretch_Energy-OPLS-2005>
251.439926147461

> <r_mmod_Bend_Energy-OPLS-2005>
294.654632568359

> <r_mmod_Torsional_Energy-OPLS-2005>
282.717346191406

> <r_mmod_Improper_Torsional_Energy-OPLS-2005>
3.86876940727234

> <r_mmod_Van_der_Waal_Energy-OPLS-2005>
142.843536376953

> <r_mmod_Electrostatic_Energy-OPLS-2005>
-289.183563232422

> <r_mmod_Solvation_Energy-OPLS-2005>
-198.43359375

> <b_mmod_Minimization_Converged-OPLS-2005>
0

> <r_mmod_RMS_Derivative-OPLS-2005>
0.392247796058655

$$$$
66
                    3D
 Structure written by MMmdl.
156165  0  0  1  0            999 V2000
  -30.4953  -14.9456   20.4200 C   0  0  0  0  0  0
  -30.4501  -12.5811   19.5018 C   0  0  0  0  0  0
  -29.5267  -12.5348   18.2602 C   0  0  0  0  0  0
  -28.0591  -12.3171   18.6761 C   0  0  0  0  0  0
  -27.6364  -13.2406   19.8487 C   0  0  2  0  0  0
  -28.6771  -13.2354   20.9891 C   0  0  0  0  0  0
  -25.2496  -13.8204   20.5707 C   0  0  0  0  0  0
  -24.1797  -13.0438   20.9216 C   0  0  0  0  0  0
  -24.6399  -11.6919   20.8754 C   0  0  0  0  0  0
  -23.9076  -10.4293   21.0410 C   0  0  0  0  0  0
  -24.3626   -9.4207   21.9187 C   0  0  0  0  0  0
  -23.6296   -8.2246   22.0758 C   0  0  0  0  0  0
  -22.4278   -8.0285   21.3547 C   0  0  0  0  0  0
  -21.9915   -9.0258   20.4648 C   0  0  0  0  0  0
  -22.7250  -10.2135   20.3058 C   0  0  0  0  0  0
  -21.6854   -6.0739   22.5278 C   0  0  0  0  0  0
  -21.4013   -6.5642   23.8211 C   0  0  0  0  0  0
  -21.3659   -5.6791   24.9171 C   0  0  0  0  0  0
  -21.6042   -4.3055   24.7219 C   0  0  0  0  0  0
  -21.8819   -3.8148   23.4342 C   0  0  0  0  0  0
  -21.9191   -4.6966   22.3401 C   0  0  0  0  0  0
  -22.7817  -13.5217   21.1867 C   0  0  0  0  0  0
  -22.1659   -4.2153   21.0979 F   0  0  0  0  0  0
  -21.5628   -3.4536   25.7731 F   0  0  0  0  0  0
  -29.9571  -13.6595   20.4054 N   0  0  0  0  0  0
  -26.2916  -12.9417   20.3270 N   0  0  0  0  0  0
  -25.9330  -11.6553   20.5748 N   0  0  0  0  0  0
  -22.0459  -12.8214   22.0423 N   0  0  0  0  0  0
  -25.4181  -15.1930   20.4123 N   0  0  0  0  0  0
  -31.6763  -15.0742   20.0759 O   0  0  0  0  0  0
  -21.6642   -6.8883   21.4242 O   0  0  0  0  0  0
  -22.3508  -14.5527   20.6716 O   0  0  0  0  0  0
  -24.6416  -31.8410   23.1831 C   0  0  0  0  0  0
  -25.9186  -32.4679   23.8226 C   0  0  1  0  0  0
  -27.2277  -27.1319   20.1569 C   0  0  0  0  0  0
  -25.5939  -33.8486   24.2154 N   0  0  0  0  0  0
  -23.4458  -30.4557   21.5278 C   0  0  2  0  0  0
  -24.8955  -28.8696   20.1086 C   0  0  0  0  0  0
  -22.7559  -29.4529   22.4855 C   0  0  0  0  0  0
  -18.0305  -28.1392   22.8482 C   0  0  0  0  0  0
  -24.1492  -36.7246   23.2647 C   0  0  0  0  0  0
  -25.9976  -30.7141   21.3780 C   0  0  0  0  0  0
  -26.0677  -29.3217   20.7248 C   0  0  0  0  0  0
  -27.2290  -28.4673   20.7290 C   0  0  0  0  0  0
  -26.0302  -26.7681   19.5094 C   0  0  0  0  0  0
  -24.8893  -27.6079   19.4864 C   0  0  0  0  0  0
  -23.6712  -29.7728   20.1495 C   0  0  0  0  0  0
  -25.4127  -36.3024   24.0316 C   0  0  1  0  0  0
  -20.5918  -28.3716   23.1243 C   0  0  2  0  0  0
  -20.6793  -26.9419   22.5408 C   0  0  0  0  0  0
  -19.5771  -26.6378   21.5213 C   0  0  0  0  0  0
  -18.1948  -26.7937   22.1615 C   0  0  0  0  0  0
  -19.1563  -28.8870   23.2858 C   0  0  0  0  0  0
  -18.9480  -30.1467   23.8883 C   0  0  0  0  0  0
  -17.6480  -30.6592   24.0559 C   0  0  0  0  0  0
  -25.9074  -34.9401   23.5049 C   0  0  0  0  0  0
  -16.5367  -29.9089   23.6334 C   0  0  0  0  0  0
  -16.7289  -28.6503   23.0357 C   0  0  0  0  0  0
  -26.4519  -31.6559   25.0672 C   0  0  0  0  0  0
  -25.3710  -31.3744   26.1372 C   0  0  0  0  0  0
  -27.0394  -30.2970   24.6229 C   0  0  0  0  0  0
  -27.6052  -32.4329   25.7456 C   0  0  0  0  0  0
  -27.5577  -37.1777   24.8471 C   0  0  0  0  0  0
  -21.4251  -29.3038   22.3612 N   0  0  0  0  0  0
  -26.4289  -37.3740   23.9415 N   0  0  0  0  0  0
  -24.7149  -31.0262   22.0854 N   0  0  0  0  0  0
  -23.4205  -28.8095   23.3018 O   0  0  0  0  0  0
  -28.3431  -26.2286   20.2554 O   0  0  0  0  0  0
  -26.5667  -34.8910   22.4633 O   0  0  0  0  0  0
  -23.5536  -32.1283   23.7060 O   0  0  0  0  0  0
  -29.8403  -19.7978   19.2943 C   0  0  0  0  0  0
  -30.0883  -18.3682   19.4583 C   0  0  0  0  0  0
  -28.6399  -19.8562   21.3068 C   0  0  0  0  0  0
  -28.8498  -18.4173   21.4646 C   0  0  0  0  0  0
  -29.0973  -20.6447   20.1985 C   0  0  0  0  0  0
  -29.5933  -17.5788   20.5497 C   0  0  0  0  0  0
  -28.1920  -24.0818   18.5715 C   0  0  0  0  0  0
  -28.8215  -22.6366   18.5822 C   0  0  0  0  0  0
  -28.4674  -23.3219   20.8151 C   0  0  0  0  0  0
  -28.5405  -24.7079   19.9292 C   0  0  2  0  0  0
  -28.2195  -17.7504   22.6756 C   0  0  0  0  0  0
  -28.8218  -22.0987   19.9532 N   0  0  0  0  0  0
  -29.6452  -16.0467   20.7113 N   0  0  0  0  0  0
  -31.4823  -12.7533   19.1928 H   0  0  0  0  0  0
  -30.4521  -11.6202   20.0184 H   0  0  0  0  0  0
  -29.8452  -11.7426   17.5813 H   0  0  0  0  0  0
  -29.6144  -13.4694   17.7033 H   0  0  0  0  0  0
  -27.9553  -11.2740   18.9766 H   0  0  0  0  0  0
  -27.3949  -12.4541   17.8220 H   0  0  0  0  0  0
  -27.6097  -14.2493   19.4358 H   0  0  0  0  0  0
  -28.7614  -12.2448   21.4385 H   0  0  0  0  0  0
  -28.3736  -13.9082   21.7926 H   0  0  0  0  0  0
  -25.2769   -9.5681   22.4766 H   0  0  0  0  0  0
  -23.9998   -7.4637   22.7482 H   0  0  0  0  0  0
  -21.0845   -8.8782   19.8954 H   0  0  0  0  0  0
  -22.3711  -10.9676   19.6170 H   0  0  0  0  0  0
  -21.2010   -7.6150   23.9717 H   0  0  0  0  0  0
  -21.1478   -6.0521   25.9074 H   0  0  0  0  0  0
  -22.0599   -2.7608   23.2837 H   0  0  0  0  0  0
  -22.4066  -11.9869   22.4805 H   0  0  0  0  0  0
  -21.1081  -13.1252   22.2627 H   0  0  0  0  0  0
  -24.6434  -15.8401   20.5111 H   0  0  0  0  0  0
  -26.2527  -15.6310   20.0448 H   0  0  0  0  0  0
  -26.7245  -32.5282   23.0947 H   0  0  0  0  0  0
  -25.0085  -33.9595   25.0302 H   0  0  0  0  0  0
  -22.7494  -31.2816   21.3675 H   0  0  0  0  0  0
  -23.3770  -35.9562   23.3282 H   0  0  0  0  0  0
  -24.3577  -36.8896   22.2066 H   0  0  0  0  0  0
  -23.7222  -37.6425   23.6699 H   0  0  0  0  0  0
  -26.1489  -31.4651   20.6016 H   0  0  0  0  0  0
  -26.8708  -30.7696   22.0166 H   0  0  0  0  0  0
  -28.1260  -28.8098   21.2255 H   0  0  0  0  0  0
  -25.9513  -25.7984   19.0435 H   0  0  0  0  0  0
  -23.9906  -27.2558   18.9988 H   0  0  0  0  0  0
  -23.8059  -30.5410   19.3876 H   0  0  0  0  0  0
  -22.7865  -29.2114   19.8433 H   0  0  0  0  0  0
  -25.1315  -36.1844   25.0807 H   0  0  0  0  0  0
  -21.0006  -28.3298   24.1366 H   0  0  0  0  0  0
  -20.5688  -26.2324   23.3625 H   0  0  0  0  0  0
  -21.6657  -26.7426   22.1199 H   0  0  0  0  0  0
  -19.6935  -25.6285   21.1249 H   0  0  0  0  0  0
  -19.6711  -27.3187   20.6746 H   0  0  0  0  0  0
  -17.4220  -26.6689   21.4014 H   0  0  0  0  0  0
  -18.0336  -26.0079   22.9008 H   0  0  0  0  0  0
  -19.7958  -30.7286   24.2241 H   0  0  0  0  0  0
  -17.5035  -31.6273   24.5162 H   0  0  0  0  0  0
  -15.5371  -30.2987   23.7674 H   0  0  0  0  0  0
  -15.8687  -28.0819   22.7084 H   0  0  0  0  0  0
  -24.5899  -30.7084   25.7685 H   0  0  0  0  0  0
  -24.8898  -32.2927   26.4745 H   0  0  0  0  0  0
  -25.7997  -30.8944   27.0178 H   0  0  0  0  0  0
  -26.2998  -29.6682   24.1259 H   0  0  0  0  0  0
  -27.4067  -29.7270   25.4771 H   0  0  0  0  0  0
  -27.8872  -30.4235   23.9495 H   0  0  0  0  0  0
  -27.2656  -33.3671   26.1939 H   0  0  0  0  0  0
  -28.3911  -32.6810   25.0310 H   0  0  0  0  0  0
  -28.0664  -31.8508   26.5442 H   0  0  0  0  0  0
  -28.2578  -38.0090   24.7518 H   0  0  0  0  0  0
  -28.1082  -36.2612   24.6290 H   0  0  0  0  0  0
  -27.2292  -37.1406   25.8873 H   0  0  0  0  0  0
  -20.9470  -29.8732   21.6770 H   0  0  0  0  0  0
  -26.0148  -38.2803   24.1428 H   0  0  0  0  0  0
  -30.2509  -20.2536   18.4053 H   0  0  0  0  0  0
  -30.6448  -17.8655   18.6797 H   0  0  0  0  0  0
  -28.0563  -20.3679   22.0593 H   0  0  0  0  0  0
  -27.1109  -24.0028   18.4646 H   0  0  0  0  0  0
  -28.5631  -24.6735   17.7340 H   0  0  0  0  0  0
  -29.8533  -22.6842   18.2298 H   0  0  0  0  0  0
  -28.2815  -21.9758   17.9022 H   0  0  0  0  0  0
  -27.4608  -23.1911   21.2148 H   0  0  0  0  0  0
  -29.1412  -23.3821   21.6710 H   0  0  0  0  0  0
  -29.6249  -24.7966   19.8436 H   0  0  0  0  0  0
  -27.7896  -18.4787   23.3636 H   0  0  0  0  0  0
  -28.9648  -17.1750   23.2260 H   0  0  0  0  0  0
  -27.4219  -17.0744   22.3658 H   0  0  0  0  0  0
  -28.7978  -15.6932   21.1280 H   0  0  0  0  0  0
  1 25  1  0  0  0
  1 30  2  0  0  0
  1 83  1  0  0  0
  2  3  1  0  0  0
  2 25  1  0  0  0
  2 84  1  0  0  0
  2 85  1  0  0  0
  3  4  1  0  0  0
  3 86  1  0  0  0
  3 87  1  0  0  0
  4  5  1  0  0  0
  4 88  1  0  0  0
  4 89  1  0  0  0
  5  6  1  0  0  0
  5 26  1  0  0  0
  5 90  1  0  0  0
  6 25  1  0  0  0
  6 91  1  0  0  0
  6 92  1  0  0  0
  7  8  2  0  0  0
  7 26  1  0  0  0
  7 29  1  0  0  0
  8  9  1  0  0  0
  8 22  1  0  0  0
  9 10  1  0  0  0
  9 27  2  0  0  0
 10 11  2  0  0  0
 10 15  1  0  0  0
 11 12  1  0  0  0
 11 93  1  0  0  0
 12 13  2  0  0  0
 12 94  1  0  0  0
 13 14  1  0  0  0
 13 31  1  0  0  0
 14 15  2  0  0  0
 14 95  1  0  0  0
 15 96  1  0  0  0
 16 17  2  0  0  0
 16 21  1  0  0  0
 16 31  1  0  0  0
 17 18  1  0  0  0
 17 97  1  0  0  0
 18 19  2  0  0  0
 18 98  1  0  0  0
 19 20  1  0  0  0
 19 24  1  0  0  0
 20 21  2  0  0  0
 20 99  1  0  0  0
 21 23  1  0  0  0
 22 28  1  0  0  0
 22 32  2  0  0  0
 26 27  1  0  0  0
 28100  1  0  0  0
 28101  1  0  0  0
 29102  1  0  0  0
 29103  1  0  0  0
 33 34  1  0  0  0
 33 66  1  0  0  0
 33 70  2  0  0  0
 34 36  1  0  0  0
 34 59  1  0  0  0
 34104  1  0  0  0
 35 44  2  0  0  0
 35 45  1  0  0  0
 35 68  1  0  0  0
 36 56  1  0  0  0
 36105  1  0  0  0
 37 39  1  0  0  0
 37 47  1  0  0  0
 37 66  1  0  0  0
 37106  1  0  0  0
 38 43  2  0  0  0
 38 46  1  0  0  0
 38 47  1  0  0  0
 39 64  1  0  0  0
 39 67  2  0  0  0
 40 52  1  0  0  0
 40 53  2  0  0  0
 40 58  1  0  0  0
 41107  1  0  0  0
 41108  1  0  0  0
 41109  1  0  0  0
 41 48  1  0  0  0
 42 43  1  0  0  0
 42 66  1  0  0  0
 42110  1  0  0  0
 42111  1  0  0  0
 43 44  1  0  0  0
 44112  1  0  0  0
 45 46  2  0  0  0
 45113  1  0  0  0
 46114  1  0  0  0
 47115  1  0  0  0
 47116  1  0  0  0
 48 56  1  0  0  0
 48 65  1  0  0  0
 48117  1  0  0  0
 49 50  1  0  0  0
 49 53  1  0  0  0
 49 64  1  0  0  0
 49118  1  0  0  0
 50 51  1  0  0  0
 50119  1  0  0  0
 50120  1  0  0  0
 51 52  1  0  0  0
 51121  1  0  0  0
 51122  1  0  0  0
 52123  1  0  0  0
 52124  1  0  0  0
 53 54  1  0  0  0
 54 55  2  0  0  0
 54125  1  0  0  0
 55 57  1  0  0  0
 55126  1  0  0  0
 56 69  2  0  0  0
 57 58  2  0  0  0
 57127  1  0  0  0
 58128  1  0  0  0
 59 60  1  0  0  0
 59 61  1  0  0  0
 59 62  1  0  0  0
 60129  1  0  0  0
 60130  1  0  0  0
 60131  1  0  0  0
 61132  1  0  0  0
 61133  1  0  0  0
 61134  1  0  0  0
 62135  1  0  0  0
 62136  1  0  0  0
 62137  1  0  0  0
 63 65  1  0  0  0
 63138  1  0  0  0
 63139  1  0  0  0
 63140  1  0  0  0
 64141  1  0  0  0
 65142  1  0  0  0
 68 80  1  0  0  0
 71 72  2  0  0  0
 71 75  1  0  0  0
 71143  1  0  0  0
 72 76  1  0  0  0
 72144  1  0  0  0
 73 74  1  0  0  0
 73 75  2  0  0  0
 73145  1  0  0  0
 74 76  2  0  0  0
 74 81  1  0  0  0
 75 82  1  0  0  0
 76 83  1  0  0  0
 77 78  1  0  0  0
 77 80  1  0  0  0
 77146  1  0  0  0
 77147  1  0  0  0
 78 82  1  0  0  0
 78148  1  0  0  0
 78149  1  0  0  0
 79 80  1  0  0  0
 79 82  1  0  0  0
 79150  1  0  0  0
 79151  1  0  0  0
 80152  1  0  0  0
 81153  1  0  0  0
 81154  1  0  0  0
 81155  1  0  0  0
 83156  1  0  0  0
M  ISO  4   1 100  68 101  80 101  83 100
M  END
> <chiral flag>
0

> <version>
0

> <s_m_source_file>
/data/baiqing/PycharmProjects/Reinvent-master-3.2/result/LINK_invent/BTK/process_docking_weight1_custom_product_contain_oxygen_bond_distance_aromatic_linkinvent_7_9_3/rearranged_h_0011.sdf

> <i_m_source_file_index>
67

> <r_mmod_Potential_Energy-OPLS-2005>
546.148986816406

> <r_mmod_Stretch_Energy-OPLS-2005>
220.203201293945

> <r_mmod_Bend_Energy-OPLS-2005>
379.645416259766

> <r_mmod_Torsional_Energy-OPLS-2005>
256.977783203125

> <r_mmod_Improper_Torsional_Energy-OPLS-2005>
3.73414301872253

> <r_mmod_Van_der_Waal_Energy-OPLS-2005>
123.569465637207

> <r_mmod_Electrostatic_Energy-OPLS-2005>
-395.857116699219

> <r_mmod_Solvation_Energy-OPLS-2005>
-229.239166259766

> <b_mmod_Minimization_Converged-OPLS-2005>
0

> <r_mmod_RMS_Derivative-OPLS-2005>
0.8934046626091

$$$$
67
                    3D
 Structure written by MMmdl.
163172  0  0  1  0            999 V2000
  -30.7304  -14.6247   20.3792 C   0  0  0  0  0  0
  -30.4315  -12.3592   19.4551 C   0  0  0  0  0  0
  -29.5022  -12.3394   18.2275 C   0  0  0  0  0  0
  -28.0177  -12.2806   18.6372 C   0  0  0  0  0  0
  -27.6415  -13.2230   19.8165 C   0  0  2  0  0  0
  -28.7030  -13.2077   20.9360 C   0  0  0  0  0  0
  -25.2559  -13.8199   20.5696 C   0  0  0  0  0  0
  -24.1846  -13.0451   20.9227 C   0  0  0  0  0  0
  -24.6426  -11.6938   20.8768 C   0  0  0  0  0  0
  -23.9103  -10.4316   21.0403 C   0  0  0  0  0  0
  -24.3654   -9.4239   21.9180 C   0  0  0  0  0  0
  -23.6322   -8.2280   22.0757 C   0  0  0  0  0  0
  -22.4302   -8.0313   21.3548 C   0  0  0  0  0  0
  -21.9943   -9.0288   20.4652 C   0  0  0  0  0  0
  -22.7275  -10.2165   20.3058 C   0  0  0  0  0  0
  -21.6868   -6.0770   22.5290 C   0  0  0  0  0  0
  -21.4007   -6.5657   23.8223 C   0  0  0  0  0  0
  -21.3660   -5.6806   24.9178 C   0  0  0  0  0  0
  -21.6044   -4.3069   24.7227 C   0  0  0  0  0  0
  -21.8821   -3.8173   23.4343 C   0  0  0  0  0  0
  -21.9199   -4.6997   22.3403 C   0  0  0  0  0  0
  -22.7869  -13.5253   21.1867 C   0  0  0  0  0  0
  -22.1666   -4.2177   21.0979 F   0  0  0  0  0  0
  -21.5630   -3.4555   25.7736 F   0  0  0  0  0  0
  -29.9961  -13.4766   20.3030 N   0  0  0  0  0  0
  -26.2982  -12.9407   20.3230 N   0  0  0  0  0  0
  -25.9361  -11.6569   20.5805 N   0  0  0  0  0  0
  -22.0480  -12.8237   22.0393 N   0  0  0  0  0  0
  -25.4198  -15.1906   20.4101 N   0  0  0  0  0  0
  -31.9561  -14.5572   20.4519 O   0  0  0  0  0  0
  -21.6655   -6.8914   21.4257 O   0  0  0  0  0  0
  -22.3564  -14.5565   20.6715 O   0  0  0  0  0  0
  -24.6219  -31.8639   23.2084 C   0  0  0  0  0  0
  -25.9090  -32.4789   23.8402 C   0  0  1  0  0  0
  -27.2182  -27.3726   20.1171 C   0  0  0  0  0  0
  -25.5935  -33.8593   24.2332 N   0  0  0  0  0  0
  -23.4109  -30.4891   21.5496 C   0  0  2  0  0  0
  -24.8550  -28.9439   20.1221 C   0  0  0  0  0  0
  -22.7430  -29.4655   22.4977 C   0  0  0  0  0  0
  -18.0277  -28.1383   22.8479 C   0  0  0  0  0  0
  -24.1487  -36.7293   23.2638 C   0  0  0  0  0  0
  -25.9460  -30.8121   21.3683 C   0  0  0  0  0  0
  -26.0212  -29.4382   20.7239 C   0  0  0  0  0  0
  -27.2092  -28.6598   20.7193 C   0  0  0  0  0  0
  -26.0411  -26.9151   19.4936 C   0  0  0  0  0  0
  -24.8628  -27.6831   19.5049 C   0  0  0  0  0  0
  -23.6221  -29.8206   20.1662 C   0  0  0  0  0  0
  -25.4106  -36.3085   24.0340 C   0  0  1  0  0  0
  -20.5867  -28.3681   23.1295 C   0  0  2  0  0  0
  -20.6777  -26.9413   22.5420 C   0  0  0  0  0  0
  -19.5761  -26.6385   21.5214 C   0  0  0  0  0  0
  -18.1929  -26.7929   22.1607 C   0  0  0  0  0  0
  -19.1523  -28.8851   23.2876 C   0  0  0  0  0  0
  -18.9455  -30.1449   23.8899 C   0  0  0  0  0  0
  -17.6458  -30.6591   24.0561 C   0  0  0  0  0  0
  -25.9041  -34.9451   23.5124 C   0  0  0  0  0  0
  -16.5348  -29.9101   23.6322 C   0  0  0  0  0  0
  -16.7262  -28.6512   23.0353 C   0  0  0  0  0  0
  -26.4508  -31.6571   25.0736 C   0  0  0  0  0  0
  -25.3754  -31.3664   26.1471 C   0  0  0  0  0  0
  -27.0344  -30.3016   24.6110 C   0  0  0  0  0  0
  -27.6104  -32.4280   25.7483 C   0  0  0  0  0  0
  -27.5574  -37.1799   24.8466 C   0  0  0  0  0  0
  -21.4158  -29.3039   22.3691 N   0  0  0  0  0  0
  -26.4287  -37.3780   23.9412 N   0  0  0  0  0  0
  -24.6787  -31.0708   22.0999 N   0  0  0  0  0  0
  -23.4172  -28.8196   23.3041 O   0  0  0  0  0  0
  -28.3476  -26.5739   20.0412 O   0  0  0  0  0  0
  -26.5579  -34.8902   22.4673 O   0  0  0  0  0  0
  -23.5403  -32.1414   23.7458 O   0  0  0  0  0  0
  -29.1476  -20.4477   20.6344 C   0  0  0  0  0  0
  -27.8670  -24.1434   20.7652 C   0  0  0  0  0  0
  -26.9525  -21.1560   20.1646 C   0  0  0  0  0  0
  -27.7845  -17.5709   18.7299 C   0  0  0  0  0  0
  -28.1729  -21.6057   20.9827 C   0  0  2  0  0  0
  -28.9611  -18.0791   19.5864 C   0  0  2  0  0  0
  -27.0684  -19.6193   20.1260 C   0  0  2  0  0  0
  -30.3145  -15.7262   17.2130 C   0  0  0  0  0  0
  -28.5296  -25.5381   21.0487 C   0  0  0  0  0  0
  -29.6011  -16.9035   20.4629 C   0  0  0  0  0  0
  -30.9846  -16.1589   18.5237 C   0  0  0  0  0  0
  -28.4836  -19.3157   20.2827 N   0  0  0  0  0  0
  -28.6295  -23.0137   20.7342 N   0  0  0  0  0  0
  -30.2139  -15.7312   19.7307 N   0  0  0  0  0  0
  -30.3746  -20.5865   20.6568 O   0  0  0  0  0  0
  -26.6404  -24.0780   20.6899 O   0  0  0  0  0  0
  -26.5727  -18.8926   18.5512 S   0  0  0  0  0  0
  -31.4674  -12.4641   19.1281 H   0  0  0  0  0  0
  -30.3837  -11.4212   20.0112 H   0  0  0  0  0  0
  -29.7412  -11.4700   17.6127 H   0  0  0  0  0  0
  -29.6840  -13.1996   17.5955 H   0  0  0  0  0  0
  -27.8122  -11.2452   18.9093 H   0  0  0  0  0  0
  -27.3862  -12.4875   17.7715 H   0  0  0  0  0  0
  -27.6263  -14.2287   19.3955 H   0  0  0  0  0  0
  -28.7220  -12.2471   21.4537 H   0  0  0  0  0  0
  -28.4777  -13.9707   21.6832 H   0  0  0  0  0  0
  -25.2804   -9.5725   22.4747 H   0  0  0  0  0  0
  -24.0043   -7.4684   22.7484 H   0  0  0  0  0  0
  -21.0879   -8.8818   19.8955 H   0  0  0  0  0  0
  -22.3739  -10.9713   19.6171 H   0  0  0  0  0  0
  -21.1973   -7.6155   23.9738 H   0  0  0  0  0  0
  -21.1475   -6.0522   25.9082 H   0  0  0  0  0  0
  -22.0586   -2.7635   23.2840 H   0  0  0  0  0  0
  -22.4055  -11.9893   22.4804 H   0  0  0  0  0  0
  -21.1085  -13.1264   22.2526 H   0  0  0  0  0  0
  -24.6452  -15.8384   20.5011 H   0  0  0  0  0  0
  -26.2698  -15.6326   20.0913 H   0  0  0  0  0  0
  -26.7166  -32.5487   23.1166 H   0  0  0  0  0  0
  -25.0120  -33.9770   25.0506 H   0  0  0  0  0  0
  -22.7018  -31.3074   21.4073 H   0  0  0  0  0  0
  -23.3755  -35.9619   23.3290 H   0  0  0  0  0  0
  -24.3590  -36.8921   22.2060 H   0  0  0  0  0  0
  -23.7231  -37.6488   23.6665 H   0  0  0  0  0  0
  -26.0594  -31.5676   20.5900 H   0  0  0  0  0  0
  -26.8359  -30.8741   21.9835 H   0  0  0  0  0  0
  -28.1121  -29.0391   21.1790 H   0  0  0  0  0  0
  -26.0314  -25.9541   19.0001 H   0  0  0  0  0  0
  -23.9670  -27.2974   19.0370 H   0  0  0  0  0  0
  -23.7383  -30.5932   19.4056 H   0  0  0  0  0  0
  -22.7438  -29.2456   19.8688 H   0  0  0  0  0  0
  -25.1285  -36.1962   25.0838 H   0  0  0  0  0  0
  -20.9953  -28.3270   24.1417 H   0  0  0  0  0  0
  -20.5690  -26.2288   23.3606 H   0  0  0  0  0  0
  -21.6646  -26.7466   22.1197 H   0  0  0  0  0  0
  -19.6921  -25.6293   21.1246 H   0  0  0  0  0  0
  -19.6722  -27.3194   20.6739 H   0  0  0  0  0  0
  -17.4206  -26.6681   21.4004 H   0  0  0  0  0  0
  -18.0327  -26.0076   22.9002 H   0  0  0  0  0  0
  -19.7929  -30.7258   24.2286 H   0  0  0  0  0  0
  -17.5013  -31.6270   24.5155 H   0  0  0  0  0  0
  -15.5349  -30.3010   23.7637 H   0  0  0  0  0  0
  -15.8653  -28.0824   22.7095 H   0  0  0  0  0  0
  -24.5977  -30.6954   25.7792 H   0  0  0  0  0  0
  -24.8882  -32.2804   26.4881 H   0  0  0  0  0  0
  -25.8114  -30.8871   27.0243 H   0  0  0  0  0  0
  -26.2893  -29.6752   24.1189 H   0  0  0  0  0  0
  -27.4145  -29.7274   25.4565 H   0  0  0  0  0  0
  -27.8711  -30.4327   23.9242 H   0  0  0  0  0  0
  -27.2776  -33.3614   26.2025 H   0  0  0  0  0  0
  -28.3934  -32.6764   25.0305 H   0  0  0  0  0  0
  -28.0731  -31.8395   26.5411 H   0  0  0  0  0  0
  -28.2582  -38.0102   24.7515 H   0  0  0  0  0  0
  -28.1083  -36.2636   24.6306 H   0  0  0  0  0  0
  -27.2277  -37.1450   25.8861 H   0  0  0  0  0  0
  -20.9348  -29.8729   21.6868 H   0  0  0  0  0  0
  -26.0173  -38.2849   24.1433 H   0  0  0  0  0  0
  -27.0021  -21.5657   19.1543 H   0  0  0  0  0  0
  -26.0089  -21.4746   20.6079 H   0  0  0  0  0  0
  -27.2973  -16.7268   19.2127 H   0  0  0  0  0  0
  -28.1020  -17.2397   17.7441 H   0  0  0  0  0  0
  -27.9489  -21.5139   22.0468 H   0  0  0  0  0  0
  -29.6890  -18.4932   18.8937 H   0  0  0  0  0  0
  -26.5233  -19.1578   20.9513 H   0  0  0  0  0  0
  -30.8575  -14.8890   16.7732 H   0  0  0  0  0  0
  -30.3201  -16.5283   16.4763 H   0  0  0  0  0  0
  -29.2833  -15.4066   17.3608 H   0  0  0  0  0  0
  -29.5995  -25.3987   21.1944 H   0  0  0  0  0  0
  -28.1467  -25.9008   22.0047 H   0  0  0  0  0  0
  -28.8323  -16.5153   21.1323 H   0  0  0  0  0  0
  -30.3673  -17.3286   21.1130 H   0  0  0  0  0  0
  -31.2090  -17.2212   18.5119 H   0  0  0  0  0  0
  -31.9995  -15.7591   18.4817 H   0  0  0  0  0  0
  -29.6331  -23.1395   20.7408 H   0  0  0  0  0  0
  1 25  1  0  0  0
  1 30  2  0  0  0
  1 84  1  0  0  0
  2  3  1  0  0  0
  2 25  1  0  0  0
  2 88  1  0  0  0
  2 89  1  0  0  0
  3  4  1  0  0  0
  3 90  1  0  0  0
  3 91  1  0  0  0
  4  5  1  0  0  0
  4 92  1  0  0  0
  4 93  1  0  0  0
  5  6  1  0  0  0
  5 26  1  0  0  0
  5 94  1  0  0  0
  6 25  1  0  0  0
  6 95  1  0  0  0
  6 96  1  0  0  0
  7  8  2  0  0  0
  7 26  1  0  0  0
  7 29  1  0  0  0
  8  9  1  0  0  0
  8 22  1  0  0  0
  9 10  1  0  0  0
  9 27  2  0  0  0
 10 11  2  0  0  0
 10 15  1  0  0  0
 11 12  1  0  0  0
 11 97  1  0  0  0
 12 13  2  0  0  0
 12 98  1  0  0  0
 13 14  1  0  0  0
 13 31  1  0  0  0
 14 15  2  0  0  0
 14 99  1  0  0  0
 15100  1  0  0  0
 16 17  2  0  0  0
 16 21  1  0  0  0
 16 31  1  0  0  0
 17 18  1  0  0  0
 17101  1  0  0  0
 18 19  2  0  0  0
 18102  1  0  0  0
 19 20  1  0  0  0
 19 24  1  0  0  0
 20 21  2  0  0  0
 20103  1  0  0  0
 21 23  1  0  0  0
 22 28  1  0  0  0
 22 32  2  0  0  0
 26 27  1  0  0  0
 28104  1  0  0  0
 28105  1  0  0  0
 29106  1  0  0  0
 29107  1  0  0  0
 33 34  1  0  0  0
 33 66  1  0  0  0
 33 70  2  0  0  0
 34 36  1  0  0  0
 34 59  1  0  0  0
 34108  1  0  0  0
 35 44  2  0  0  0
 35 45  1  0  0  0
 35 68  1  0  0  0
 36 56  1  0  0  0
 36109  1  0  0  0
 37 39  1  0  0  0
 37 47  1  0  0  0
 37 66  1  0  0  0
 37110  1  0  0  0
 38 43  2  0  0  0
 38 46  1  0  0  0
 38 47  1  0  0  0
 39 64  1  0  0  0
 39 67  2  0  0  0
 40 52  1  0  0  0
 40 53  2  0  0  0
 40 58  1  0  0  0
 41111  1  0  0  0
 41112  1  0  0  0
 41113  1  0  0  0
 41 48  1  0  0  0
 42 43  1  0  0  0
 42 66  1  0  0  0
 42114  1  0  0  0
 42115  1  0  0  0
 43 44  1  0  0  0
 44116  1  0  0  0
 45 46  2  0  0  0
 45117  1  0  0  0
 46118  1  0  0  0
 47119  1  0  0  0
 47120  1  0  0  0
 48 56  1  0  0  0
 48 65  1  0  0  0
 48121  1  0  0  0
 49 50  1  0  0  0
 49 53  1  0  0  0
 49 64  1  0  0  0
 49122  1  0  0  0
 50 51  1  0  0  0
 50123  1  0  0  0
 50124  1  0  0  0
 51 52  1  0  0  0
 51125  1  0  0  0
 51126  1  0  0  0
 52127  1  0  0  0
 52128  1  0  0  0
 53 54  1  0  0  0
 54 55  2  0  0  0
 54129  1  0  0  0
 55 57  1  0  0  0
 55130  1  0  0  0
 56 69  2  0  0  0
 57 58  2  0  0  0
 57131  1  0  0  0
 58132  1  0  0  0
 59 60  1  0  0  0
 59 61  1  0  0  0
 59 62  1  0  0  0
 60133  1  0  0  0
 60134  1  0  0  0
 60135  1  0  0  0
 61136  1  0  0  0
 61137  1  0  0  0
 61138  1  0  0  0
 62139  1  0  0  0
 62140  1  0  0  0
 62141  1  0  0  0
 63 65  1  0  0  0
 63142  1  0  0  0
 63143  1  0  0  0
 63144  1  0  0  0
 64145  1  0  0  0
 65146  1  0  0  0
 68 79  1  0  0  0
 71 75  1  0  0  0
 71 82  1  0  0  0
 71 85  2  0  0  0
 72 79  1  0  0  0
 72 83  1  0  0  0
 72 86  2  0  0  0
 73 75  1  0  0  0
 73147  1  0  0  0
 73148  1  0  0  0
 73 77  1  0  0  0
 74 76  1  0  0  0
 74 87  1  0  0  0
 74149  1  0  0  0
 74150  1  0  0  0
 75 83  1  0  0  0
 75151  1  0  0  0
 76 80  1  0  0  0
 76 82  1  0  0  0
 76152  1  0  0  0
 77 82  1  0  0  0
 77 87  1  0  0  0
 77153  1  0  0  0
 78 81  1  0  0  0
 78154  1  0  0  0
 78155  1  0  0  0
 78156  1  0  0  0
 79157  1  0  0  0
 79158  1  0  0  0
 80 84  1  0  0  0
 80159  1  0  0  0
 80160  1  0  0  0
 81 84  1  0  0  0
 81161  1  0  0  0
 81162  1  0  0  0
 83163  1  0  0  0
M  ISO  4   1 100  68 101  79 101  84 100
M  END
> <chiral flag>
0

> <version>
0

> <s_m_source_file>
/data/baiqing/PycharmProjects/Reinvent-master-3.2/result/LINK_invent/BTK/process_docking_weight1_custom_product_contain_oxygen_bond_distance_aromatic_linkinvent_7_9_3/rearranged_h_0011.sdf

> <i_m_source_file_index>
68

> <r_mmod_Potential_Energy-OPLS-2005>
326.874420166016

> <r_mmod_Stretch_Energy-OPLS-2005>
67.8936004638672

> <r_mmod_Bend_Energy-OPLS-2005>
185.65412902832

> <r_mmod_Torsional_Energy-OPLS-2005>
428.181823730469

> <r_mmod_Improper_Torsional_Energy-OPLS-2005>
30.3417892456055

> <r_mmod_Van_der_Waal_Energy-OPLS-2005>
117.699523925781

> <r_mmod_Electrostatic_Energy-OPLS-2005>
-327.572784423828

> <r_mmod_Solvation_Energy-OPLS-2005>
-248.438827514648

> <b_mmod_Minimization_Converged-OPLS-2005>
0

> <r_mmod_RMS_Derivative-OPLS-2005>
2.49717974662781

$$$$
68
                    3D
 Structure written by MMmdl.
164173  0  0  1  0            999 V2000
  -30.7441  -14.4024   20.6251 C   0  0  0  0  0  0
  -30.4190  -12.2848   19.4078 C   0  0  0  0  0  0
  -29.4885  -12.5106   18.2002 C   0  0  0  0  0  0
  -28.0110  -12.3734   18.6148 C   0  0  0  0  0  0
  -27.6664  -13.2031   19.8800 C   0  0  2  0  0  0
  -28.7058  -12.9577   20.9977 C   0  0  0  0  0  0
  -25.2600  -13.8163   20.5670 C   0  0  0  0  0  0
  -24.1841  -13.0449   20.9172 C   0  0  0  0  0  0
  -24.6383  -11.6911   20.8742 C   0  0  0  0  0  0
  -23.9045  -10.4298   21.0413 C   0  0  0  0  0  0
  -24.3605   -9.4217   21.9189 C   0  0  0  0  0  0
  -23.6287   -8.2250   22.0757 C   0  0  0  0  0  0
  -22.4268   -8.0282   21.3548 C   0  0  0  0  0  0
  -21.9900   -9.0253   20.4652 C   0  0  0  0  0  0
  -22.7222  -10.2136   20.3062 C   0  0  0  0  0  0
  -21.6852   -6.0735   22.5283 C   0  0  0  0  0  0
  -21.4012   -6.5642   23.8215 C   0  0  0  0  0  0
  -21.3658   -5.6790   24.9179 C   0  0  0  0  0  0
  -21.6048   -4.3055   24.7230 C   0  0  0  0  0  0
  -21.8819   -3.8146   23.4348 C   0  0  0  0  0  0
  -21.9189   -4.6960   22.3406 C   0  0  0  0  0  0
  -22.7864  -13.5257   21.1830 C   0  0  0  0  0  0
  -22.1662   -4.2147   21.0981 F   0  0  0  0  0  0
  -21.5627   -3.4538   25.7743 F   0  0  0  0  0  0
  -30.0470  -13.2483   20.4545 N   0  0  0  0  0  0
  -26.3041  -12.9325   20.3383 N   0  0  0  0  0  0
  -25.9314  -11.6492   20.5778 N   0  0  0  0  0  0
  -22.0488  -12.8267   22.0388 N   0  0  0  0  0  0
  -25.4340  -15.1874   20.4050 N   0  0  0  0  0  0
  -31.8234  -14.6268   20.0686 O   0  0  0  0  0  0
  -21.6638   -6.8875   21.4242 O   0  0  0  0  0  0
  -22.3566  -14.5568   20.6672 O   0  0  0  0  0  0
  -24.6107  -31.8714   23.2122 C   0  0  0  0  0  0
  -25.9008  -32.4841   23.8421 C   0  0  1  0  0  0
  -27.2349  -27.4666   20.0941 C   0  0  0  0  0  0
  -25.5868  -33.8635   24.2356 N   0  0  0  0  0  0
  -23.3972  -30.4946   21.5529 C   0  0  2  0  0  0
  -24.8449  -28.9662   20.1119 C   0  0  0  0  0  0
  -22.7395  -29.4679   22.5014 C   0  0  0  0  0  0
  -18.0270  -28.1384   22.8501 C   0  0  0  0  0  0
  -24.1486  -36.7323   23.2642 C   0  0  0  0  0  0
  -25.9231  -30.8485   21.3584 C   0  0  0  0  0  0
  -26.0038  -29.4868   20.7026 C   0  0  0  0  0  0
  -27.2049  -28.7464   20.6861 C   0  0  0  0  0  0
  -26.0634  -26.9528   19.4959 C   0  0  0  0  0  0
  -24.8689  -27.6982   19.5041 C   0  0  0  0  0  0
  -23.6022  -29.8259   20.1669 C   0  0  0  0  0  0
  -25.4102  -36.3125   24.0350 C   0  0  1  0  0  0
  -20.5860  -28.3660   23.1333 C   0  0  2  0  0  0
  -20.6761  -26.9398   22.5423 C   0  0  0  0  0  0
  -19.5736  -26.6389   21.5222 C   0  0  0  0  0  0
  -18.1919  -26.7932   22.1634 C   0  0  0  0  0  0
  -19.1521  -28.8838   23.2915 C   0  0  0  0  0  0
  -18.9453  -30.1450   23.8912 C   0  0  0  0  0  0
  -17.6455  -30.6589   24.0568 C   0  0  0  0  0  0
  -25.9018  -34.9483   23.5155 C   0  0  0  0  0  0
  -16.5344  -29.9092   23.6326 C   0  0  0  0  0  0
  -16.7257  -28.6513   23.0342 C   0  0  0  0  0  0
  -26.4441  -31.6599   25.0726 C   0  0  0  0  0  0
  -25.3715  -31.3696   26.1482 C   0  0  0  0  0  0
  -27.0262  -30.3049   24.6063 C   0  0  0  0  0  0
  -27.6055  -32.4283   25.7458 C   0  0  0  0  0  0
  -27.5584  -37.1815   24.8466 C   0  0  0  0  0  0
  -21.4127  -29.3035   22.3749 N   0  0  0  0  0  0
  -26.4298  -37.3797   23.9408 N   0  0  0  0  0  0
  -24.6618  -31.0847   22.1000 N   0  0  0  0  0  0
  -23.4191  -28.8218   23.3034 O   0  0  0  0  0  0
  -28.3885  -26.7211   20.1330 O   0  0  0  0  0  0
  -26.5590  -34.8925   22.4722 O   0  0  0  0  0  0
  -23.5306  -32.1454   23.7537 O   0  0  0  0  0  0
  -31.7548  -17.2221   21.5130 C   0  0  0  0  0  0
  -31.9419  -18.6162   21.5066 C   0  0  0  0  0  0
  -29.3872  -17.6366   21.3102 C   0  0  0  0  0  0
  -30.4426  -16.7133   21.4046 C   0  0  0  0  0  0
  -30.8243  -19.4658   21.3921 C   0  0  0  0  0  0
  -31.6682  -22.9171   22.4054 C   0  0  0  0  0  0
  -32.1107  -21.4894   22.0486 C   0  0  0  0  0  0
  -29.8135  -21.7607   21.4193 C   0  0  0  0  0  0
  -30.1490  -22.7612   22.5268 C   0  0  2  0  0  0
  -29.3639  -24.7082   23.8209 C   0  0  0  0  0  0
  -29.5532  -24.9417   21.3619 C   0  0  0  0  0  0
  -28.2168  -25.4709   20.8064 C   0  0  0  0  0  0
  -29.5727  -18.9727   21.2904 N   0  0  0  0  0  0
  -30.9720  -20.8678   21.3698 N   0  0  0  0  0  0
  -30.1472  -15.3222   21.3975 N   0  0  0  0  0  0
  -29.3352  -24.0104   22.5114 N   0  3  1  0  0  0
  -31.4626  -12.3784   19.1015 H   0  0  0  0  0  0
  -30.3143  -11.2668   19.7857 H   0  0  0  0  0  0
  -29.7212  -11.7984   17.4070 H   0  0  0  0  0  0
  -29.6626  -13.5036   17.7832 H   0  0  0  0  0  0
  -27.8152  -11.3165   18.7997 H   0  0  0  0  0  0
  -27.3604  -12.6616   17.7885 H   0  0  0  0  0  0
  -27.7211  -14.2554   19.5992 H   0  0  0  0  0  0
  -28.6692  -11.9181   21.3274 H   0  0  0  0  0  0
  -28.4614  -13.5444   21.8838 H   0  0  0  0  0  0
  -25.2748   -9.5701   22.4765 H   0  0  0  0  0  0
  -24.0001   -7.4645   22.7482 H   0  0  0  0  0  0
  -21.0830   -8.8766   19.8966 H   0  0  0  0  0  0
  -22.3673  -10.9672   19.6176 H   0  0  0  0  0  0
  -21.2005   -7.6148   23.9721 H   0  0  0  0  0  0
  -21.1482   -6.0520   25.9080 H   0  0  0  0  0  0
  -22.0596   -2.7606   23.2849 H   0  0  0  0  0  0
  -22.4067  -11.9921   22.4790 H   0  0  0  0  0  0
  -21.1112  -13.1325   22.2584 H   0  0  0  0  0  0
  -24.6662  -15.8430   20.5010 H   0  0  0  0  0  0
  -26.2823  -15.6193   20.0615 H   0  0  0  0  0  0
  -26.7088  -32.5555   23.1200 H   0  0  0  0  0  0
  -24.9997  -33.9805   25.0487 H   0  0  0  0  0  0
  -22.6838  -31.3101   21.4170 H   0  0  0  0  0  0
  -23.3740  -35.9662   23.3312 H   0  0  0  0  0  0
  -24.3597  -36.8921   22.2056 H   0  0  0  0  0  0
  -23.7242  -37.6537   23.6635 H   0  0  0  0  0  0
  -26.0335  -31.6182   20.5933 H   0  0  0  0  0  0
  -26.8121  -30.9020   21.9753 H   0  0  0  0  0  0
  -28.0990  -29.1443   21.1463 H   0  0  0  0  0  0
  -26.0678  -25.9805   19.0239 H   0  0  0  0  0  0
  -23.9778  -27.2928   19.0441 H   0  0  0  0  0  0
  -23.7019  -30.6008   19.4061 H   0  0  0  0  0  0
  -22.7267  -29.2419   19.8764 H   0  0  0  0  0  0
  -25.1286  -36.2004   25.0845 H   0  0  0  0  0  0
  -20.9963  -28.3216   24.1447 H   0  0  0  0  0  0
  -20.5680  -26.2259   23.3603 H   0  0  0  0  0  0
  -21.6632  -26.7453   22.1205 H   0  0  0  0  0  0
  -19.6885  -25.6306   21.1235 H   0  0  0  0  0  0
  -19.6674  -27.3215   20.6765 H   0  0  0  0  0  0
  -17.4190  -26.6683   21.4032 H   0  0  0  0  0  0
  -18.0309  -26.0085   22.9037 H   0  0  0  0  0  0
  -19.7929  -30.7268   24.2283 H   0  0  0  0  0  0
  -17.5008  -31.6270   24.5172 H   0  0  0  0  0  0
  -15.5345  -30.2998   23.7645 H   0  0  0  0  0  0
  -15.8659  -28.0837   22.7039 H   0  0  0  0  0  0
  -24.5855  -30.7086   25.7804 H   0  0  0  0  0  0
  -24.8937  -32.2854   26.4981 H   0  0  0  0  0  0
  -25.8064  -30.8809   27.0212 H   0  0  0  0  0  0
  -26.2800  -29.6817   24.1121 H   0  0  0  0  0  0
  -27.4065  -29.7273   25.4500 H   0  0  0  0  0  0
  -27.8615  -30.4402   23.9191 H   0  0  0  0  0  0
  -27.2735  -33.3595   26.2062 H   0  0  0  0  0  0
  -28.3832  -32.6815   25.0240 H   0  0  0  0  0  0
  -28.0740  -31.8370   26.5335 H   0  0  0  0  0  0
  -28.2614  -38.0099   24.7510 H   0  0  0  0  0  0
  -28.1078  -36.2638   24.6306 H   0  0  0  0  0  0
  -27.2310  -37.1483   25.8871 H   0  0  0  0  0  0
  -20.9271  -29.8761   21.6985 H   0  0  0  0  0  0
  -26.0197  -38.2884   24.1388 H   0  0  0  0  0  0
  -32.6093  -16.5673   21.6055 H   0  0  0  0  0  0
  -32.9460  -19.0095   21.5788 H   0  0  0  0  0  0
  -28.3642  -17.2997   21.2248 H   0  0  0  0  0  0
  -31.9404  -23.5969   21.5990 H   0  0  0  0  0  0
  -32.1358  -23.2833   23.3204 H   0  0  0  0  0  0
  -32.3461  -20.9334   22.9583 H   0  0  0  0  0  0
  -33.0007  -21.4919   21.4176 H   0  0  0  0  0  0
  -29.7148  -22.2430   20.4469 H   0  0  0  0  0  0
  -28.8680  -21.2627   21.6347 H   0  0  0  0  0  0
  -29.9482  -22.2455   23.4691 H   0  0  0  0  0  0
  -29.0753  -24.0381   24.6318 H   0  0  0  0  0  0
  -28.6693  -25.5489   23.8358 H   0  0  0  0  0  0
  -30.3608  -25.0903   24.0438 H   0  0  0  0  0  0
  -30.1761  -25.7764   21.6879 H   0  0  0  0  0  0
  -30.0970  -24.4691   20.5448 H   0  0  0  0  0  0
  -27.5159  -25.6055   21.6332 H   0  0  0  0  0  0
  -27.7732  -24.7349   20.1338 H   0  0  0  0  0  0
  -29.2483  -15.0456   21.7643 H   0  0  0  0  0  0
  -28.3863  -23.6743   22.4225 H   0  0  0  0  0  0
  1 25  1  0  0  0
  1 30  2  0  0  0
  1 85  1  0  0  0
  2  3  1  0  0  0
  2 25  1  0  0  0
  2 87  1  0  0  0
  2 88  1  0  0  0
  3  4  1  0  0  0
  3 89  1  0  0  0
  3 90  1  0  0  0
  4  5  1  0  0  0
  4 91  1  0  0  0
  4 92  1  0  0  0
  5  6  1  0  0  0
  5 26  1  0  0  0
  5 93  1  0  0  0
  6 25  1  0  0  0
  6 94  1  0  0  0
  6 95  1  0  0  0
  7  8  2  0  0  0
  7 26  1  0  0  0
  7 29  1  0  0  0
  8  9  1  0  0  0
  8 22  1  0  0  0
  9 10  1  0  0  0
  9 27  2  0  0  0
 10 11  2  0  0  0
 10 15  1  0  0  0
 11 12  1  0  0  0
 11 96  1  0  0  0
 12 13  2  0  0  0
 12 97  1  0  0  0
 13 14  1  0  0  0
 13 31  1  0  0  0
 14 15  2  0  0  0
 14 98  1  0  0  0
 15 99  1  0  0  0
 16 17  2  0  0  0
 16 21  1  0  0  0
 16 31  1  0  0  0
 17 18  1  0  0  0
 17100  1  0  0  0
 18 19  2  0  0  0
 18101  1  0  0  0
 19 20  1  0  0  0
 19 24  1  0  0  0
 20 21  2  0  0  0
 20102  1  0  0  0
 21 23  1  0  0  0
 22 28  1  0  0  0
 22 32  2  0  0  0
 26 27  1  0  0  0
 28103  1  0  0  0
 28104  1  0  0  0
 29105  1  0  0  0
 29106  1  0  0  0
 33 34  1  0  0  0
 33 66  1  0  0  0
 33 70  2  0  0  0
 34 36  1  0  0  0
 34 59  1  0  0  0
 34107  1  0  0  0
 35 44  2  0  0  0
 35 45  1  0  0  0
 35 68  1  0  0  0
 36 56  1  0  0  0
 36108  1  0  0  0
 37 39  1  0  0  0
 37 47  1  0  0  0
 37 66  1  0  0  0
 37109  1  0  0  0
 38 43  2  0  0  0
 38 46  1  0  0  0
 38 47  1  0  0  0
 39 64  1  0  0  0
 39 67  2  0  0  0
 40 52  1  0  0  0
 40 53  2  0  0  0
 40 58  1  0  0  0
 41110  1  0  0  0
 41111  1  0  0  0
 41112  1  0  0  0
 41 48  1  0  0  0
 42 43  1  0  0  0
 42 66  1  0  0  0
 42113  1  0  0  0
 42114  1  0  0  0
 43 44  1  0  0  0
 44115  1  0  0  0
 45 46  2  0  0  0
 45116  1  0  0  0
 46117  1  0  0  0
 47118  1  0  0  0
 47119  1  0  0  0
 48 56  1  0  0  0
 48 65  1  0  0  0
 48120  1  0  0  0
 49 50  1  0  0  0
 49 53  1  0  0  0
 49 64  1  0  0  0
 49121  1  0  0  0
 50 51  1  0  0  0
 50122  1  0  0  0
 50123  1  0  0  0
 51 52  1  0  0  0
 51124  1  0  0  0
 51125  1  0  0  0
 52126  1  0  0  0
 52127  1  0  0  0
 53 54  1  0  0  0
 54 55  2  0  0  0
 54128  1  0  0  0
 55 57  1  0  0  0
 55129  1  0  0  0
 56 69  2  0  0  0
 57 58  2  0  0  0
 57130  1  0  0  0
 58131  1  0  0  0
 59 60  1  0  0  0
 59 61  1  0  0  0
 59 62  1  0  0  0
 60132  1  0  0  0
 60133  1  0  0  0
 60134  1  0  0  0
 61135  1  0  0  0
 61136  1  0  0  0
 61137  1  0  0  0
 62138  1  0  0  0
 62139  1  0  0  0
 62140  1  0  0  0
 63 65  1  0  0  0
 63141  1  0  0  0
 63142  1  0  0  0
 63143  1  0  0  0
 64144  1  0  0  0
 65145  1  0  0  0
 68 82  1  0  0  0
 71 72  2  0  0  0
 71 74  1  0  0  0
 71146  1  0  0  0
 72 75  1  0  0  0
 72147  1  0  0  0
 73 74  2  0  0  0
 73 83  1  0  0  0
 73148  1  0  0  0
 74 85  1  0  0  0
 75 83  2  0  0  0
 75 84  1  0  0  0
 76 77  1  0  0  0
 76149  1  0  0  0
 76150  1  0  0  0
 76 79  1  0  0  0
 77 84  1  0  0  0
 77151  1  0  0  0
 77152  1  0  0  0
 78 79  1  0  0  0
 78 84  1  0  0  0
 78153  1  0  0  0
 78154  1  0  0  0
 79 86  1  0  0  0
 79155  1  0  0  0
 80156  1  0  0  0
 80157  1  0  0  0
 80158  1  0  0  0
 80 86  1  0  0  0
 81 82  1  0  0  0
 81 86  1  0  0  0
 81159  1  0  0  0
 81160  1  0  0  0
 82161  1  0  0  0
 82162  1  0  0  0
 85163  1  0  0  0
 86164  1  0  0  0
M  CHG  1  86   1
M  ISO  4   1 100  68 101  82 101  85 100
M  END
> <chiral flag>
0

> <version>
0

> <s_m_source_file>
/data/baiqing/PycharmProjects/Reinvent-master-3.2/result/LINK_invent/BTK/process_docking_weight1_custom_product_contain_oxygen_bond_distance_aromatic_linkinvent_7_9_3/rearranged_h_0011.sdf

> <i_m_source_file_index>
69

> <r_mmod_Potential_Energy-OPLS-2005>
-310.990570068359

> <r_mmod_Stretch_Energy-OPLS-2005>
34.3225364685059

> <r_mmod_Bend_Energy-OPLS-2005>
136.419799804688

> <r_mmod_Torsional_Energy-OPLS-2005>
300.677062988281

> <r_mmod_Improper_Torsional_Energy-OPLS-2005>
6.07896852493286

> <r_mmod_Van_der_Waal_Energy-OPLS-2005>
169.198318481445

> <r_mmod_Electrostatic_Energy-OPLS-2005>
-509.357269287109

> <r_mmod_Solvation_Energy-OPLS-2005>
-457.077209472656

> <b_mmod_Minimization_Converged-OPLS-2005>
0

> <r_mmod_RMS_Derivative-OPLS-2005>
1.31634402275085

$$$$
69
                    3D
 Structure written by MMmdl.
152160  0  0  1  0            999 V2000
  -30.6810  -14.5174   20.5676 C   0  0  0  0  0  0
  -30.4305  -12.3293   19.4370 C   0  0  0  0  0  0
  -29.5050  -12.5070   18.2139 C   0  0  0  0  0  0
  -28.0231  -12.3659   18.6195 C   0  0  0  0  0  0
  -27.6616  -13.2090   19.8728 C   0  0  2  0  0  0
  -28.7029  -13.0048   20.9973 C   0  0  0  0  0  0
  -25.2583  -13.8164   20.5669 C   0  0  0  0  0  0
  -24.1837  -13.0438   20.9158 C   0  0  0  0  0  0
  -24.6390  -11.6910   20.8718 C   0  0  0  0  0  0
  -23.9067  -10.4291   21.0389 C   0  0  0  0  0  0
  -24.3631   -9.4206   21.9166 C   0  0  0  0  0  0
  -23.6297   -8.2243   22.0753 C   0  0  0  0  0  0
  -22.4275   -8.0275   21.3544 C   0  0  0  0  0  0
  -21.9906   -9.0252   20.4653 C   0  0  0  0  0  0
  -22.7237  -10.2124   20.3048 C   0  0  0  0  0  0
  -21.6855   -6.0734   22.5277 C   0  0  0  0  0  0
  -21.4020   -6.5642   23.8209 C   0  0  0  0  0  0
  -21.3660   -5.6793   24.9174 C   0  0  0  0  0  0
  -21.6043   -4.3054   24.7218 C   0  0  0  0  0  0
  -21.8820   -3.8144   23.4339 C   0  0  0  0  0  0
  -21.9196   -4.6963   22.3398 C   0  0  0  0  0  0
  -22.7859  -13.5236   21.1811 C   0  0  0  0  0  0
  -22.1655   -4.2146   21.0972 F   0  0  0  0  0  0
  -21.5633   -3.4542   25.7733 F   0  0  0  0  0  0
  -30.0305  -13.3241   20.4465 N   0  0  0  0  0  0
  -26.3022  -12.9337   20.3337 N   0  0  0  0  0  0
  -25.9320  -11.6500   20.5750 N   0  0  0  0  0  0
  -22.0490  -12.8254   22.0386 N   0  0  0  0  0  0
  -25.4340  -15.1878   20.4072 N   0  0  0  0  0  0
  -31.8109  -14.7055   20.1113 O   0  0  0  0  0  0
  -21.6636   -6.8874   21.4237 O   0  0  0  0  0  0
  -22.3555  -14.5537   20.6647 O   0  0  0  0  0  0
  -24.6175  -31.8652   23.2078 C   0  0  0  0  0  0
  -25.9054  -32.4812   23.8379 C   0  0  1  0  0  0
  -27.2330  -27.4043   20.1105 C   0  0  0  0  0  0
  -25.5901  -33.8612   24.2315 N   0  0  0  0  0  0
  -23.4078  -30.4888   21.5477 C   0  0  2  0  0  0
  -24.8571  -28.9514   20.1136 C   0  0  0  0  0  0
  -22.7425  -29.4649   22.4961 C   0  0  0  0  0  0
  -18.0275  -28.1374   22.8488 C   0  0  0  0  0  0
  -24.1486  -36.7314   23.2639 C   0  0  0  0  0  0
  -25.9404  -30.8229   21.3657 C   0  0  0  0  0  0
  -26.0193  -29.4558   20.7120 C   0  0  0  0  0  0
  -27.2141  -28.6923   20.7023 C   0  0  0  0  0  0
  -26.0583  -26.9297   19.4888 C   0  0  0  0  0  0
  -24.8730  -27.6882   19.4978 C   0  0  0  0  0  0
  -23.6195  -29.8208   20.1629 C   0  0  0  0  0  0
  -25.4105  -36.3106   24.0336 C   0  0  1  0  0  0
  -20.5870  -28.3670   23.1302 C   0  0  2  0  0  0
  -20.6763  -26.9401   22.5412 C   0  0  0  0  0  0
  -19.5742  -26.6376   21.5209 C   0  0  0  0  0  0
  -18.1924  -26.7920   22.1621 C   0  0  0  0  0  0
  -19.1527  -28.8835   23.2894 C   0  0  0  0  0  0
  -18.9456  -30.1439   23.8906 C   0  0  0  0  0  0
  -17.6460  -30.6581   24.0564 C   0  0  0  0  0  0
  -25.9035  -34.9473   23.5124 C   0  0  0  0  0  0
  -16.5351  -29.9083   23.6323 C   0  0  0  0  0  0
  -16.7266  -28.6499   23.0346 C   0  0  0  0  0  0
  -26.4469  -31.6602   25.0720 C   0  0  0  0  0  0
  -25.3740  -31.3724   26.1478 C   0  0  0  0  0  0
  -27.0305  -30.3039   24.6119 C   0  0  0  0  0  0
  -27.6031  -32.4333   25.7493 C   0  0  0  0  0  0
  -27.5581  -37.1810   24.8461 C   0  0  0  0  0  0
  -21.4150  -29.3037   22.3704 N   0  0  0  0  0  0
  -26.4289  -37.3791   23.9410 N   0  0  0  0  0  0
  -24.6734  -31.0741   22.0981 N   0  0  0  0  0  0
  -23.4188  -28.8193   23.3011 O   0  0  0  0  0  0
  -28.3632  -26.6044   20.1368 O   0  0  0  0  0  0
  -26.5600  -34.8925   22.4689 O   0  0  0  0  0  0
  -23.5362  -32.1413   23.7460 O   0  0  0  0  0  0
  -28.5568  -20.3117   20.7920 C   0  0  0  0  0  0
  -30.6100  -20.0672   20.1564 C   0  0  0  0  0  0
  -29.1193  -21.5638   20.6206 C   0  0  0  0  0  0
  -29.3192  -17.8855   20.3666 C   0  0  0  0  0  0
  -30.3098  -16.9767   21.1573 C   0  0  0  0  0  0
  -28.9250  -24.1041   20.2032 C   0  0  0  0  0  0
  -28.1924  -25.3365   20.8253 C   0  0  0  0  0  0
  -30.4400  -21.3934   20.2179 N   0  0  0  0  0  0
  -29.5194  -19.3469   20.4663 N   0  0  0  0  0  0
  -28.4977  -22.8239   20.8024 N   0  0  0  0  0  0
  -29.9540  -15.5354   21.0812 N   0  0  0  0  0  0
  -31.4751  -12.4354   19.1429 H   0  0  0  0  0  0
  -30.3392  -11.3206   19.8450 H   0  0  0  0  0  0
  -29.7536  -11.7756   17.4443 H   0  0  0  0  0  0
  -29.6729  -13.4892   17.7671 H   0  0  0  0  0  0
  -27.8331  -11.3106   18.8173 H   0  0  0  0  0  0
  -27.3773  -12.6388   17.7833 H   0  0  0  0  0  0
  -27.7013  -14.2545   19.5687 H   0  0  0  0  0  0
  -28.6873  -11.9684   21.3400 H   0  0  0  0  0  0
  -28.4595  -13.6086   21.8719 H   0  0  0  0  0  0
  -25.2776   -9.5685   22.4747 H   0  0  0  0  0  0
  -24.0004   -7.4643   22.7481 H   0  0  0  0  0  0
  -21.0828   -8.8778   19.8965 H   0  0  0  0  0  0
  -22.3690  -10.9673   19.6165 H   0  0  0  0  0  0
  -21.2012   -7.6154   23.9713 H   0  0  0  0  0  0
  -21.1483   -6.0523   25.9078 H   0  0  0  0  0  0
  -22.0597   -2.7606   23.2840 H   0  0  0  0  0  0
  -22.4112  -11.9931   22.4808 H   0  0  0  0  0  0
  -21.1110  -13.1303   22.2563 H   0  0  0  0  0  0
  -24.6715  -15.8481   20.5131 H   0  0  0  0  0  0
  -26.2882  -15.6195   20.0781 H   0  0  0  0  0  0
  -26.7131  -32.5516   23.1144 H   0  0  0  0  0  0
  -25.0059  -33.9766   25.0467 H   0  0  0  0  0  0
  -22.6976  -31.3061   21.4056 H   0  0  0  0  0  0
  -23.3744  -35.9653   23.3307 H   0  0  0  0  0  0
  -24.3581  -36.8922   22.2052 H   0  0  0  0  0  0
  -23.7246  -37.6523   23.6650 H   0  0  0  0  0  0
  -26.0591  -31.5885   20.5978 H   0  0  0  0  0  0
  -26.8252  -30.8752   21.9887 H   0  0  0  0  0  0
  -28.1095  -29.0728   21.1745 H   0  0  0  0  0  0
  -26.0560  -25.9611   19.0089 H   0  0  0  0  0  0
  -23.9819  -27.2938   19.0301 H   0  0  0  0  0  0
  -23.7326  -30.5948   19.4031 H   0  0  0  0  0  0
  -22.7422  -29.2430   19.8655 H   0  0  0  0  0  0
  -25.1285  -36.1966   25.0830 H   0  0  0  0  0  0
  -20.9968  -28.3238   24.1419 H   0  0  0  0  0  0
  -20.5648  -26.2284   23.3604 H   0  0  0  0  0  0
  -21.6634  -26.7425   22.1218 H   0  0  0  0  0  0
  -19.6903  -25.6290   21.1232 H   0  0  0  0  0  0
  -19.6678  -27.3186   20.6741 H   0  0  0  0  0  0
  -17.4192  -26.6663   21.4026 H   0  0  0  0  0  0
  -18.0326  -26.0055   22.9009 H   0  0  0  0  0  0
  -19.7934  -30.7247   24.2277 H   0  0  0  0  0  0
  -17.5020  -31.6262   24.5161 H   0  0  0  0  0  0
  -15.5355  -30.2994   23.7637 H   0  0  0  0  0  0
  -15.8662  -28.0821   22.7060 H   0  0  0  0  0  0
  -24.5881  -30.7103   25.7823 H   0  0  0  0  0  0
  -24.8972  -32.2895   26.4952 H   0  0  0  0  0  0
  -25.8094  -30.8868   27.0223 H   0  0  0  0  0  0
  -26.2862  -29.6805   24.1150 H   0  0  0  0  0  0
  -27.4042  -29.7267   25.4587 H   0  0  0  0  0  0
  -27.8710  -30.4345   23.9299 H   0  0  0  0  0  0
  -27.2622  -33.3606   26.2113 H   0  0  0  0  0  0
  -28.3824  -32.6949   25.0320 H   0  0  0  0  0  0
  -28.0728  -31.8444   26.5384 H   0  0  0  0  0  0
  -28.2599  -38.0106   24.7512 H   0  0  0  0  0  0
  -28.1076  -36.2641   24.6280 H   0  0  0  0  0  0
  -27.2305  -37.1454   25.8864 H   0  0  0  0  0  0
  -20.9308  -29.8789   21.6954 H   0  0  0  0  0  0
  -26.0180  -38.2871   24.1408 H   0  0  0  0  0  0
  -27.5525  -20.0284   21.0775 H   0  0  0  0  0  0
  -31.5393  -19.6140   19.8418 H   0  0  0  0  0  0
  -28.2983  -17.6694   20.6844 H   0  0  0  0  0  0
  -29.3659  -17.6271   19.3078 H   0  0  0  0  0  0
  -30.3006  -17.2652   22.2091 H   0  0  0  0  0  0
  -31.3289  -17.1436   20.8062 H   0  0  0  0  0  0
  -30.0054  -24.2206   20.3025 H   0  0  0  0  0  0
  -28.7077  -24.0625   19.1347 H   0  0  0  0  0  0
  -28.5501  -25.4791   21.8457 H   0  0  0  0  0  0
  -27.1371  -25.0847   20.9326 H   0  0  0  0  0  0
  -27.5334  -22.8033   21.1248 H   0  0  0  0  0  0
  -29.0369  -15.2846   21.4212 H   0  0  0  0  0  0
  1 25  1  0  0  0
  1 30  2  0  0  0
  1 81  1  0  0  0
  2  3  1  0  0  0
  2 25  1  0  0  0
  2 82  1  0  0  0
  2 83  1  0  0  0
  3  4  1  0  0  0
  3 84  1  0  0  0
  3 85  1  0  0  0
  4  5  1  0  0  0
  4 86  1  0  0  0
  4 87  1  0  0  0
  5  6  1  0  0  0
  5 26  1  0  0  0
  5 88  1  0  0  0
  6 25  1  0  0  0
  6 89  1  0  0  0
  6 90  1  0  0  0
  7  8  2  0  0  0
  7 26  1  0  0  0
  7 29  1  0  0  0
  8  9  1  0  0  0
  8 22  1  0  0  0
  9 10  1  0  0  0
  9 27  2  0  0  0
 10 11  2  0  0  0
 10 15  1  0  0  0
 11 12  1  0  0  0
 11 91  1  0  0  0
 12 13  2  0  0  0
 12 92  1  0  0  0
 13 14  1  0  0  0
 13 31  1  0  0  0
 14 15  2  0  0  0
 14 93  1  0  0  0
 15 94  1  0  0  0
 16 17  2  0  0  0
 16 21  1  0  0  0
 16 31  1  0  0  0
 17 18  1  0  0  0
 17 95  1  0  0  0
 18 19  2  0  0  0
 18 96  1  0  0  0
 19 20  1  0  0  0
 19 24  1  0  0  0
 20 21  2  0  0  0
 20 97  1  0  0  0
 21 23  1  0  0  0
 22 28  1  0  0  0
 22 32  2  0  0  0
 26 27  1  0  0  0
 28 98  1  0  0  0
 28 99  1  0  0  0
 29100  1  0  0  0
 29101  1  0  0  0
 33 34  1  0  0  0
 33 66  1  0  0  0
 33 70  2  0  0  0
 34 36  1  0  0  0
 34 59  1  0  0  0
 34102  1  0  0  0
 35 44  2  0  0  0
 35 45  1  0  0  0
 35 68  1  0  0  0
 36 56  1  0  0  0
 36103  1  0  0  0
 37 39  1  0  0  0
 37 47  1  0  0  0
 37 66  1  0  0  0
 37104  1  0  0  0
 38 43  2  0  0  0
 38 46  1  0  0  0
 38 47  1  0  0  0
 39 64  1  0  0  0
 39 67  2  0  0  0
 40 52  1  0  0  0
 40 53  2  0  0  0
 40 58  1  0  0  0
 41105  1  0  0  0
 41106  1  0  0  0
 41107  1  0  0  0
 41 48  1  0  0  0
 42 43  1  0  0  0
 42 66  1  0  0  0
 42108  1  0  0  0
 42109  1  0  0  0
 43 44  1  0  0  0
 44110  1  0  0  0
 45 46  2  0  0  0
 45111  1  0  0  0
 46112  1  0  0  0
 47113  1  0  0  0
 47114  1  0  0  0
 48 56  1  0  0  0
 48 65  1  0  0  0
 48115  1  0  0  0
 49 50  1  0  0  0
 49 53  1  0  0  0
 49 64  1  0  0  0
 49116  1  0  0  0
 50 51  1  0  0  0
 50117  1  0  0  0
 50118  1  0  0  0
 51 52  1  0  0  0
 51119  1  0  0  0
 51120  1  0  0  0
 52121  1  0  0  0
 52122  1  0  0  0
 53 54  1  0  0  0
 54 55  2  0  0  0
 54123  1  0  0  0
 55 57  1  0  0  0
 55124  1  0  0  0
 56 69  2  0  0  0
 57 58  2  0  0  0
 57125  1  0  0  0
 58126  1  0  0  0
 59 60  1  0  0  0
 59 61  1  0  0  0
 59 62  1  0  0  0
 60127  1  0  0  0
 60128  1  0  0  0
 60129  1  0  0  0
 61130  1  0  0  0
 61131  1  0  0  0
 61132  1  0  0  0
 62133  1  0  0  0
 62134  1  0  0  0
 62135  1  0  0  0
 63 65  1  0  0  0
 63136  1  0  0  0
 63137  1  0  0  0
 63138  1  0  0  0
 64139  1  0  0  0
 65140  1  0  0  0
 68 77  1  0  0  0
 71 73  2  0  0  0
 71 79  1  0  0  0
 71141  1  0  0  0
 72 78  2  0  0  0
 72 79  1  0  0  0
 72142  1  0  0  0
 73 78  1  0  0  0
 73 80  1  0  0  0
 74 75  1  0  0  0
 74 79  1  0  0  0
 74143  1  0  0  0
 74144  1  0  0  0
 75 81  1  0  0  0
 75145  1  0  0  0
 75146  1  0  0  0
 76 77  1  0  0  0
 76 80  1  0  0  0
 76147  1  0  0  0
 76148  1  0  0  0
 77149  1  0  0  0
 77150  1  0  0  0
 80151  1  0  0  0
 81152  1  0  0  0
M  ISO  4   1 100  68 101  77 101  81 100
M  END
> <chiral flag>
0

> <version>
0

> <s_m_source_file>
/data/baiqing/PycharmProjects/Reinvent-master-3.2/result/LINK_invent/BTK/process_docking_weight1_custom_product_contain_oxygen_bond_distance_aromatic_linkinvent_7_9_3/rearranged_h_0011.sdf

> <i_m_source_file_index>
70

> <r_mmod_Potential_Energy-OPLS-2005>
-185.766464233398

> <r_mmod_Stretch_Energy-OPLS-2005>
43.4516983032227

> <r_mmod_Bend_Energy-OPLS-2005>
110.229286193848

> <r_mmod_Torsional_Energy-OPLS-2005>
219.630447387695

> <r_mmod_Improper_Torsional_Energy-OPLS-2005>
4.85611724853516

> <r_mmod_Van_der_Waal_Energy-OPLS-2005>
124.202972412109

> <r_mmod_Electrostatic_Energy-OPLS-2005>
-452.245025634766

> <r_mmod_Solvation_Energy-OPLS-2005>
-255.142593383789

> <b_mmod_Minimization_Converged-OPLS-2005>
0

> <r_mmod_RMS_Derivative-OPLS-2005>
1.8543952703476

$$$$
70
                    3D
 Structure written by MMmdl.
162171  0  0  1  0            999 V2000
  -30.7679  -14.3653   20.6800 C   0  0  0  0  0  0
  -30.4147  -12.2915   19.3876 C   0  0  0  0  0  0
  -29.4767  -12.5178   18.1882 C   0  0  0  0  0  0
  -28.0025  -12.3734   18.6084 C   0  0  0  0  0  0
  -27.6630  -13.2003   19.8757 C   0  0  2  0  0  0
  -28.7028  -12.9442   20.9881 C   0  0  0  0  0  0
  -25.2592  -13.8162   20.5666 C   0  0  0  0  0  0
  -24.1830  -13.0449   20.9163 C   0  0  0  0  0  0
  -24.6371  -11.6910   20.8727 C   0  0  0  0  0  0
  -23.9036  -10.4298   21.0400 C   0  0  0  0  0  0
  -24.3600   -9.4222   21.9172 C   0  0  0  0  0  0
  -23.6288   -8.2251   22.0750 C   0  0  0  0  0  0
  -22.4271   -8.0277   21.3540 C   0  0  0  0  0  0
  -21.9900   -9.0245   20.4639 C   0  0  0  0  0  0
  -22.7217  -10.2130   20.3046 C   0  0  0  0  0  0
  -21.6849   -6.0733   22.5289 C   0  0  0  0  0  0
  -21.4001   -6.5637   23.8215 C   0  0  0  0  0  0
  -21.3663   -5.6792   24.9177 C   0  0  0  0  0  0
  -21.6051   -4.3050   24.7235 C   0  0  0  0  0  0
  -21.8816   -3.8146   23.4350 C   0  0  0  0  0  0
  -21.9194   -4.6962   22.3410 C   0  0  0  0  0  0
  -22.7858  -13.5249   21.1847 C   0  0  0  0  0  0
  -22.1660   -4.2146   21.0987 F   0  0  0  0  0  0
  -21.5641   -3.4540   25.7746 F   0  0  0  0  0  0
  -30.0449  -13.2388   20.4495 N   0  0  0  0  0  0
  -26.3026  -12.9311   20.3372 N   0  0  0  0  0  0
  -25.9289  -11.6481   20.5765 N   0  0  0  0  0  0
  -22.0504  -12.8227   22.0404 N   0  0  0  0  0  0
  -25.4372  -15.1868   20.4070 N   0  0  0  0  0  0
  -31.7869  -14.6584   20.0464 O   0  0  0  0  0  0
  -21.6638   -6.8878   21.4243 O   0  0  0  0  0  0
  -22.3544  -14.5573   20.6728 O   0  0  0  0  0  0
  -24.6128  -31.8677   23.2129 C   0  0  0  0  0  0
  -25.9027  -32.4824   23.8398 C   0  0  1  0  0  0
  -27.2366  -27.4609   20.0828 C   0  0  0  0  0  0
  -25.5894  -33.8621   24.2332 N   0  0  0  0  0  0
  -23.3997  -30.4907   21.5523 C   0  0  2  0  0  0
  -24.8478  -28.9615   20.1127 C   0  0  0  0  0  0
  -22.7413  -29.4643   22.5006 C   0  0  0  0  0  0
  -18.0270  -28.1378   22.8480 C   0  0  0  0  0  0
  -24.1497  -36.7297   23.2639 C   0  0  0  0  0  0
  -25.9260  -30.8413   21.3631 C   0  0  0  0  0  0
  -26.0067  -29.4782   20.7089 C   0  0  0  0  0  0
  -27.2059  -28.7326   20.6967 C   0  0  0  0  0  0
  -26.0670  -26.9524   19.4849 C   0  0  0  0  0  0
  -24.8725  -27.6955   19.4987 C   0  0  0  0  0  0
  -23.6064  -29.8217   20.1667 C   0  0  0  0  0  0
  -25.4114  -36.3102   24.0349 C   0  0  1  0  0  0
  -20.5865  -28.3633   23.1326 C   0  0  2  0  0  0
  -20.6759  -26.9366   22.5418 C   0  0  0  0  0  0
  -19.5736  -26.6356   21.5223 C   0  0  0  0  0  0
  -18.1906  -26.7906   22.1622 C   0  0  0  0  0  0
  -19.1525  -28.8819   23.2901 C   0  0  0  0  0  0
  -18.9449  -30.1424   23.8910 C   0  0  0  0  0  0
  -17.6450  -30.6569   24.0559 C   0  0  0  0  0  0
  -25.9036  -34.9473   23.5131 C   0  0  0  0  0  0
  -16.5337  -29.9070   23.6349 C   0  0  0  0  0  0
  -16.7258  -28.6500   23.0347 C   0  0  0  0  0  0
  -26.4471  -31.6597   25.0714 C   0  0  0  0  0  0
  -25.3753  -31.3713   26.1472 C   0  0  0  0  0  0
  -27.0276  -30.3045   24.6049 C   0  0  0  0  0  0
  -27.6054  -32.4302   25.7476 C   0  0  0  0  0  0
  -27.5594  -37.1770   24.8450 C   0  0  0  0  0  0
  -21.4142  -29.3009   22.3748 N   0  0  0  0  0  0
  -26.4284  -37.3801   23.9440 N   0  0  0  0  0  0
  -24.6641  -31.0806   22.1014 N   0  0  0  0  0  0
  -23.4197  -28.8185   23.3037 O   0  0  0  0  0  0
  -28.3719  -26.6899   20.0887 O   0  0  0  0  0  0
  -26.5589  -34.8907   22.4685 O   0  0  0  0  0  0
  -23.5324  -32.1386   23.7549 O   0  0  0  0  0  0
  -29.5055  -18.1998   22.5807 C   0  0  0  0  0  0
  -31.2308  -18.3236   20.8679 C   0  0  0  0  0  0
  -29.1393  -19.5320   22.3022 C   0  0  0  0  0  0
  -30.8567  -19.6558   20.5817 C   0  0  0  0  0  0
  -30.5779  -17.6010   21.8907 C   0  0  0  0  0  0
  -29.8280  -20.2813   21.3234 C   0  0  0  0  0  0
  -29.3922  -23.8027   22.3520 C   0  0  0  0  0  0
  -28.7525  -23.6127   19.9140 C   0  0  0  0  0  0
  -30.1340  -22.4662   22.2255 C   0  0  0  0  0  0
  -29.5064  -22.2614   19.8629 C   0  0  0  0  0  0
  -29.2920  -24.5662   21.0110 C   0  0  0  0  0  0
  -31.0728  -16.2219   22.3054 C   0  0  0  0  0  0
  -28.4014  -25.8118   21.2127 C   0  0  0  0  0  0
  -29.5151  -21.6456   21.1892 N   0  0  0  0  0  0
  -30.3407  -15.1143   21.7028 N   0  0  0  0  0  0
  -31.4558  -12.3982   19.0780 H   0  0  0  0  0  0
  -30.3231  -11.2691   19.7586 H   0  0  0  0  0  0
  -29.7082  -11.8092   17.3916 H   0  0  0  0  0  0
  -29.6420  -13.5137   17.7746 H   0  0  0  0  0  0
  -27.8069  -11.3161   18.7907 H   0  0  0  0  0  0
  -27.3481  -12.6625   17.7849 H   0  0  0  0  0  0
  -27.7205  -14.2534   19.5992 H   0  0  0  0  0  0
  -28.6664  -11.8995   21.3009 H   0  0  0  0  0  0
  -28.4468  -13.5174   21.8787 H   0  0  0  0  0  0
  -25.2744   -9.5707   22.4738 H   0  0  0  0  0  0
  -24.0009   -7.4642   22.7454 H   0  0  0  0  0  0
  -21.0841   -8.8742   19.8933 H   0  0  0  0  0  0
  -22.3667  -10.9659   19.6152 H   0  0  0  0  0  0
  -21.1968   -7.6141   23.9721 H   0  0  0  0  0  0
  -21.1489   -6.0517   25.9080 H   0  0  0  0  0  0
  -22.0592   -2.7609   23.2855 H   0  0  0  0  0  0
  -22.4128  -11.9874   22.4758 H   0  0  0  0  0  0
  -21.1124  -13.1240   22.2636 H   0  0  0  0  0  0
  -24.6811  -15.8546   20.5144 H   0  0  0  0  0  0
  -26.3052  -15.6166   20.1108 H   0  0  0  0  0  0
  -26.7095  -32.5553   23.1159 H   0  0  0  0  0  0
  -25.0092  -33.9799   25.0504 H   0  0  0  0  0  0
  -22.6869  -31.3071   21.4143 H   0  0  0  0  0  0
  -23.3786  -35.9603   23.3251 H   0  0  0  0  0  0
  -24.3595  -36.8957   22.2062 H   0  0  0  0  0  0
  -23.7195  -37.6467   23.6667 H   0  0  0  0  0  0
  -26.0351  -31.6097   20.5972 H   0  0  0  0  0  0
  -26.8160  -30.8923   21.9790 H   0  0  0  0  0  0
  -28.0986  -29.1223   21.1642 H   0  0  0  0  0  0
  -26.0830  -25.9743   19.0250 H   0  0  0  0  0  0
  -23.9817  -27.2883   19.0403 H   0  0  0  0  0  0
  -23.7038  -30.5951   19.4047 H   0  0  0  0  0  0
  -22.7332  -29.2358   19.8758 H   0  0  0  0  0  0
  -25.1285  -36.1955   25.0844 H   0  0  0  0  0  0
  -20.9929  -28.3156   24.1460 H   0  0  0  0  0  0
  -20.5669  -26.2228   23.3602 H   0  0  0  0  0  0
  -21.6619  -26.7391   22.1199 H   0  0  0  0  0  0
  -19.6903  -25.6282   21.1222 H   0  0  0  0  0  0
  -19.6707  -27.3195   20.6793 H   0  0  0  0  0  0
  -17.4189  -26.6676   21.4010 H   0  0  0  0  0  0
  -18.0279  -26.0043   22.9009 H   0  0  0  0  0  0
  -19.7935  -30.7237   24.2263 H   0  0  0  0  0  0
  -17.5017  -31.6266   24.5126 H   0  0  0  0  0  0
  -15.5343  -30.2980   23.7682 H   0  0  0  0  0  0
  -15.8649  -28.0833   22.7058 H   0  0  0  0  0  0
  -24.5894  -30.7099   25.7808 H   0  0  0  0  0  0
  -24.8995  -32.2885   26.4946 H   0  0  0  0  0  0
  -25.8100  -30.8841   27.0206 H   0  0  0  0  0  0
  -26.2783  -29.6825   24.1134 H   0  0  0  0  0  0
  -27.4103  -29.7262   25.4467 H   0  0  0  0  0  0
  -27.8599  -30.4396   23.9144 H   0  0  0  0  0  0
  -27.2670  -33.3611   26.2049 H   0  0  0  0  0  0
  -28.3862  -32.6833   25.0286 H   0  0  0  0  0  0
  -28.0701  -31.8410   26.5398 H   0  0  0  0  0  0
  -28.2531  -38.0145   24.7587 H   0  0  0  0  0  0
  -28.1165  -36.2664   24.6153 H   0  0  0  0  0  0
  -27.2317  -37.1261   25.8851 H   0  0  0  0  0  0
  -20.9284  -29.8746   21.6998 H   0  0  0  0  0  0
  -26.0172  -38.2865   24.1515 H   0  0  0  0  0  0
  -28.9877  -17.6571   23.3598 H   0  0  0  0  0  0
  -32.0524  -17.8732   20.3283 H   0  0  0  0  0  0
  -28.3404  -19.9890   22.8699 H   0  0  0  0  0  0
  -31.4030  -20.2041   19.8279 H   0  0  0  0  0  0
  -29.8896  -24.4228   23.1016 H   0  0  0  0  0  0
  -28.3911  -23.6086   22.7388 H   0  0  0  0  0  0
  -27.6947  -23.4174   20.0908 H   0  0  0  0  0  0
  -28.8106  -24.1014   18.9405 H   0  0  0  0  0  0
  -30.1270  -21.9510   23.1885 H   0  0  0  0  0  0
  -31.1822  -22.6391   21.9734 H   0  0  0  0  0  0
  -30.5309  -22.4150   19.5169 H   0  0  0  0  0  0
  -29.0239  -21.5980   19.1448 H   0  0  0  0  0  0
  -30.2926  -24.8924   20.7224 H   0  0  0  0  0  0
  -30.9804  -16.1282   23.3886 H   0  0  0  0  0  0
  -32.1428  -16.1414   22.1059 H   0  0  0  0  0  0
  -28.7620  -26.3861   22.0675 H   0  0  0  0  0  0
  -27.3947  -25.4766   21.4740 H   0  0  0  0  0  0
  -29.5117  -14.7965   22.1806 H   0  0  0  0  0  0
  1 25  1  0  0  0
  1 30  2  0  0  0
  1 85  1  0  0  0
  2  3  1  0  0  0
  2 25  1  0  0  0
  2 86  1  0  0  0
  2 87  1  0  0  0
  3  4  1  0  0  0
  3 88  1  0  0  0
  3 89  1  0  0  0
  4  5  1  0  0  0
  4 90  1  0  0  0
  4 91  1  0  0  0
  5  6  1  0  0  0
  5 26  1  0  0  0
  5 92  1  0  0  0
  6 25  1  0  0  0
  6 93  1  0  0  0
  6 94  1  0  0  0
  7  8  2  0  0  0
  7 26  1  0  0  0
  7 29  1  0  0  0
  8  9  1  0  0  0
  8 22  1  0  0  0
  9 10  1  0  0  0
  9 27  2  0  0  0
 10 11  2  0  0  0
 10 15  1  0  0  0
 11 12  1  0  0  0
 11 95  1  0  0  0
 12 13  2  0  0  0
 12 96  1  0  0  0
 13 14  1  0  0  0
 13 31  1  0  0  0
 14 15  2  0  0  0
 14 97  1  0  0  0
 15 98  1  0  0  0
 16 17  2  0  0  0
 16 21  1  0  0  0
 16 31  1  0  0  0
 17 18  1  0  0  0
 17 99  1  0  0  0
 18 19  2  0  0  0
 18100  1  0  0  0
 19 20  1  0  0  0
 19 24  1  0  0  0
 20 21  2  0  0  0
 20101  1  0  0  0
 21 23  1  0  0  0
 22 28  1  0  0  0
 22 32  2  0  0  0
 26 27  1  0  0  0
 28102  1  0  0  0
 28103  1  0  0  0
 29104  1  0  0  0
 29105  1  0  0  0
 33 34  1  0  0  0
 33 66  1  0  0  0
 33 70  2  0  0  0
 34 36  1  0  0  0
 34 59  1  0  0  0
 34106  1  0  0  0
 35 44  2  0  0  0
 35 45  1  0  0  0
 35 68  1  0  0  0
 36 56  1  0  0  0
 36107  1  0  0  0
 37 39  1  0  0  0
 37 47  1  0  0  0
 37 66  1  0  0  0
 37108  1  0  0  0
 38 43  2  0  0  0
 38 46  1  0  0  0
 38 47  1  0  0  0
 39 64  1  0  0  0
 39 67  2  0  0  0
 40 52  1  0  0  0
 40 53  2  0  0  0
 40 58  1  0  0  0
 41109  1  0  0  0
 41110  1  0  0  0
 41111  1  0  0  0
 41 48  1  0  0  0
 42 43  1  0  0  0
 42 66  1  0  0  0
 42112  1  0  0  0
 42113  1  0  0  0
 43 44  1  0  0  0
 44114  1  0  0  0
 45 46  2  0  0  0
 45115  1  0  0  0
 46116  1  0  0  0
 47117  1  0  0  0
 47118  1  0  0  0
 48 56  1  0  0  0
 48 65  1  0  0  0
 48119  1  0  0  0
 49 50  1  0  0  0
 49 53  1  0  0  0
 49 64  1  0  0  0
 49120  1  0  0  0
 50 51  1  0  0  0
 50121  1  0  0  0
 50122  1  0  0  0
 51 52  1  0  0  0
 51123  1  0  0  0
 51124  1  0  0  0
 52125  1  0  0  0
 52126  1  0  0  0
 53 54  1  0  0  0
 54 55  2  0  0  0
 54127  1  0  0  0
 55 57  1  0  0  0
 55128  1  0  0  0
 56 69  2  0  0  0
 57 58  2  0  0  0
 57129  1  0  0  0
 58130  1  0  0  0
 59 60  1  0  0  0
 59 61  1  0  0  0
 59 62  1  0  0  0
 60131  1  0  0  0
 60132  1  0  0  0
 60133  1  0  0  0
 61134  1  0  0  0
 61135  1  0  0  0
 61136  1  0  0  0
 62137  1  0  0  0
 62138  1  0  0  0
 62139  1  0  0  0
 63 65  1  0  0  0
 63140  1  0  0  0
 63141  1  0  0  0
 63142  1  0  0  0
 64143  1  0  0  0
 65144  1  0  0  0
 68 83  1  0  0  0
 71 73  2  0  0  0
 71 75  1  0  0  0
 71145  1  0  0  0
 72 74  1  0  0  0
 72 75  2  0  0  0
 72146  1  0  0  0
 73 76  1  0  0  0
 73147  1  0  0  0
 74 76  2  0  0  0
 74148  1  0  0  0
 75 82  1  0  0  0
 76 84  1  0  0  0
 77 79  1  0  0  0
 77 81  1  0  0  0
 77149  1  0  0  0
 77150  1  0  0  0
 78 80  1  0  0  0
 78 81  1  0  0  0
 78151  1  0  0  0
 78152  1  0  0  0
 79 84  1  0  0  0
 79153  1  0  0  0
 79154  1  0  0  0
 80 84  1  0  0  0
 80155  1  0  0  0
 80156  1  0  0  0
 81 83  1  0  0  0
 81157  1  0  0  0
 82 85  1  0  0  0
 82158  1  0  0  0
 82159  1  0  0  0
 83160  1  0  0  0
 83161  1  0  0  0
 85162  1  0  0  0
M  ISO  4   1 100  68 101  83 101  85 100
M  END
> <chiral flag>
0

> <version>
0

> <s_m_source_file>
/data/baiqing/PycharmProjects/Reinvent-master-3.2/result/LINK_invent/BTK/process_docking_weight1_custom_product_contain_oxygen_bond_distance_aromatic_linkinvent_7_9_3/rearranged_h_0011.sdf

> <i_m_source_file_index>
71

> <r_mmod_Potential_Energy-OPLS-2005>
-89.5495376586914

> <r_mmod_Stretch_Energy-OPLS-2005>
33.127010345459

> <r_mmod_Bend_Energy-OPLS-2005>
92.3795928955078

> <r_mmod_Torsional_Energy-OPLS-2005>
269.007629394531

> <r_mmod_Improper_Torsional_Energy-OPLS-2005>
6.216881275177

> <r_mmod_Van_der_Waal_Energy-OPLS-2005>
154.914535522461

> <r_mmod_Electrostatic_Energy-OPLS-2005>
-435.806823730469

> <r_mmod_Solvation_Energy-OPLS-2005>
-216.994155883789

> <b_mmod_Minimization_Converged-OPLS-2005>
0

> <r_mmod_RMS_Derivative-OPLS-2005>
2.68342041969299

$$$$
71
                    3D
 Structure written by MMmdl.
151159  0  0  1  0            999 V2000
  -30.6207  -14.6404   20.5017 C   0  0  0  0  0  0
  -30.4366  -12.3919   19.4535 C   0  0  0  0  0  0
  -29.5098  -12.5192   18.2233 C   0  0  0  0  0  0
  -28.0301  -12.3614   18.6287 C   0  0  0  0  0  0
  -27.6546  -13.2197   19.8662 C   0  0  2  0  0  0
  -28.6989  -13.0661   20.9954 C   0  0  0  0  0  0
  -25.2562  -13.8176   20.5677 C   0  0  0  0  0  0
  -24.1832  -13.0437   20.9184 C   0  0  0  0  0  0
  -24.6408  -11.6909   20.8734 C   0  0  0  0  0  0
  -23.9071  -10.4294   21.0403 C   0  0  0  0  0  0
  -24.3624   -9.4210   21.9184 C   0  0  0  0  0  0
  -23.6305   -8.2243   22.0754 C   0  0  0  0  0  0
  -22.4286   -8.0284   21.3541 C   0  0  0  0  0  0
  -21.9914   -9.0260   20.4646 C   0  0  0  0  0  0
  -22.7240  -10.2138   20.3055 C   0  0  0  0  0  0
  -21.6857   -6.0737   22.5278 C   0  0  0  0  0  0
  -21.4014   -6.5640   23.8212 C   0  0  0  0  0  0
  -21.3660   -5.6793   24.9175 C   0  0  0  0  0  0
  -21.6046   -4.3057   24.7221 C   0  0  0  0  0  0
  -21.8818   -3.8145   23.4342 C   0  0  0  0  0  0
  -21.9192   -4.6963   22.3399 C   0  0  0  0  0  0
  -22.7853  -13.5234   21.1843 C   0  0  0  0  0  0
  -22.1661   -4.2148   21.0977 F   0  0  0  0  0  0
  -21.5634   -3.4541   25.7733 F   0  0  0  0  0  0
  -30.0151  -13.4116   20.4353 N   0  0  0  0  0  0
  -26.2997  -12.9363   20.3319 N   0  0  0  0  0  0
  -25.9335  -11.6512   20.5749 N   0  0  0  0  0  0
  -22.0486  -12.8240   22.0403 N   0  0  0  0  0  0
  -25.4262  -15.1899   20.4079 N   0  0  0  0  0  0
  -31.7816  -14.8007   20.1137 O   0  0  0  0  0  0
  -21.6645   -6.8881   21.4242 O   0  0  0  0  0  0
  -22.3545  -14.5541   20.6689 O   0  0  0  0  0  0
  -24.6261  -31.8609   23.2045 C   0  0  0  0  0  0
  -25.9106  -32.4786   23.8370 C   0  0  1  0  0  0
  -27.2208  -27.3184   20.1168 C   0  0  0  0  0  0
  -25.5922  -33.8588   24.2296 N   0  0  0  0  0  0
  -23.4191  -30.4865   21.5481 C   0  0  2  0  0  0
  -24.8644  -28.9431   20.1147 C   0  0  0  0  0  0
  -22.7475  -29.4631   22.4947 C   0  0  0  0  0  0
  -18.0285  -28.1384   22.8493 C   0  0  0  0  0  0
  -24.1484  -36.7305   23.2639 C   0  0  0  0  0  0
  -25.9610  -30.7917   21.3754 C   0  0  0  0  0  0
  -26.0348  -29.4188   20.7191 C   0  0  0  0  0  0
  -27.2166  -28.6186   20.7108 C   0  0  0  0  0  0
  -26.0277  -26.9035   19.4793 C   0  0  0  0  0  0
  -24.8629  -27.6902   19.4870 C   0  0  0  0  0  0
  -23.6338  -29.8253   20.1625 C   0  0  0  0  0  0
  -25.4108  -36.3093   24.0334 C   0  0  1  0  0  0
  -20.5887  -28.3687   23.1297 C   0  0  2  0  0  0
  -20.6778  -26.9412   22.5417 C   0  0  0  0  0  0
  -19.5748  -26.6383   21.5224 C   0  0  0  0  0  0
  -18.1930  -26.7927   22.1635 C   0  0  0  0  0  0
  -19.1538  -28.8852   23.2889 C   0  0  0  0  0  0
  -18.9458  -30.1459   23.8898 C   0  0  0  0  0  0
  -17.6457  -30.6586   24.0566 C   0  0  0  0  0  0
  -25.9048  -34.9459   23.5116 C   0  0  0  0  0  0
  -16.5350  -29.9089   23.6324 C   0  0  0  0  0  0
  -16.7273  -28.6507   23.0345 C   0  0  0  0  0  0
  -26.4484  -31.6584   25.0734 C   0  0  0  0  0  0
  -25.3716  -31.3731   26.1462 C   0  0  0  0  0  0
  -27.0320  -30.3006   24.6178 C   0  0  0  0  0  0
  -27.6040  -32.4319   25.7509 C   0  0  0  0  0  0
  -27.5581  -37.1809   24.8464 C   0  0  0  0  0  0
  -21.4188  -29.3042   22.3692 N   0  0  0  0  0  0
  -26.4287  -37.3788   23.9414 N   0  0  0  0  0  0
  -24.6878  -31.0628   22.0996 N   0  0  0  0  0  0
  -23.4204  -28.8162   23.3016 O   0  0  0  0  0  0
  -28.3380  -26.4663   20.1474 O   0  0  0  0  0  0
  -26.5621  -34.8920   22.4686 O   0  0  0  0  0  0
  -23.5426  -32.1409   23.7376 O   0  0  0  0  0  0
  -30.9863  -17.8445   20.1353 C   0  0  0  0  0  0
  -30.9685  -19.2641   19.9932 C   0  0  0  0  0  0
  -28.7959  -17.9532   21.1125 C   0  0  0  0  0  0
  -29.8921  -17.1406   20.7028 C   0  0  0  0  0  0
  -29.8751  -20.0780   20.4000 C   0  0  0  0  0  0
  -28.7766  -19.3749   20.9706 C   0  0  0  0  0  0
  -29.2657  -23.9632   20.2182 C   0  0  0  0  0  0
  -28.0896  -25.0186   20.3689 C   0  0  0  0  0  0
  -28.9132  -22.4303   20.4994 C   0  0  0  0  0  0
  -29.8096  -15.6840   20.8721 N   0  0  0  0  0  0
  -29.9850  -21.4758   20.2123 O   0  0  0  0  0  0
  -27.6825  -20.0505   21.3985 F   0  0  0  0  0  0
  -31.4800  -12.5130   19.1578 H   0  0  0  0  0  0
  -30.3636  -11.3933   19.8877 H   0  0  0  0  0  0
  -29.7745  -11.7737   17.4721 H   0  0  0  0  0  0
  -29.6578  -13.4925   17.7514 H   0  0  0  0  0  0
  -27.8564  -11.3069   18.8449 H   0  0  0  0  0  0
  -27.3814  -12.6100   17.7878 H   0  0  0  0  0  0
  -27.6751  -14.2577   19.5349 H   0  0  0  0  0  0
  -28.7070  -12.0412   21.3704 H   0  0  0  0  0  0
  -28.4466  -13.6905   21.8533 H   0  0  0  0  0  0
  -25.2762   -9.5698   22.4766 H   0  0  0  0  0  0
  -24.0009   -7.4636   22.7478 H   0  0  0  0  0  0
  -21.0837   -8.8783   19.8964 H   0  0  0  0  0  0
  -22.3691  -10.9683   19.6175 H   0  0  0  0  0  0
  -21.2008   -7.6150   23.9716 H   0  0  0  0  0  0
  -21.1488   -6.0523   25.9081 H   0  0  0  0  0  0
  -22.0595   -2.7607   23.2840 H   0  0  0  0  0  0
  -22.4089  -11.9910   22.4815 H   0  0  0  0  0  0
  -21.1103  -13.1286   22.2588 H   0  0  0  0  0  0
  -24.6535  -15.8392   20.5078 H   0  0  0  0  0  0
  -26.2659  -15.6258   20.0488 H   0  0  0  0  0  0
  -26.7176  -32.5454   23.1120 H   0  0  0  0  0  0
  -25.0041  -33.9736   25.0421 H   0  0  0  0  0  0
  -22.7122  -31.3072   21.4089 H   0  0  0  0  0  0
  -23.3742  -35.9641   23.3296 H   0  0  0  0  0  0
  -24.3581  -36.8930   22.2055 H   0  0  0  0  0  0
  -23.7231  -37.6505   23.6659 H   0  0  0  0  0  0
  -26.0901  -31.5536   20.6055 H   0  0  0  0  0  0
  -26.8432  -30.8433   22.0018 H   0  0  0  0  0  0
  -28.1141  -28.9809   21.1926 H   0  0  0  0  0  0
  -25.9631  -25.9651   18.9527 H   0  0  0  0  0  0
  -23.9688  -27.3238   19.0015 H   0  0  0  0  0  0
  -23.7580  -30.6052   19.4102 H   0  0  0  0  0  0
  -22.7510  -29.2610   19.8558 H   0  0  0  0  0  0
  -25.1278  -36.1954   25.0826 H   0  0  0  0  0  0
  -20.9986  -28.3259   24.1416 H   0  0  0  0  0  0
  -20.5700  -26.2292   23.3614 H   0  0  0  0  0  0
  -21.6645  -26.7453   22.1199 H   0  0  0  0  0  0
  -19.6912  -25.6297   21.1248 H   0  0  0  0  0  0
  -19.6681  -27.3198   20.6759 H   0  0  0  0  0  0
  -17.4202  -26.6681   21.4034 H   0  0  0  0  0  0
  -18.0319  -26.0066   22.9030 H   0  0  0  0  0  0
  -19.7934  -30.7281   24.2258 H   0  0  0  0  0  0
  -17.5009  -31.6264   24.5173 H   0  0  0  0  0  0
  -15.5352  -30.2993   23.7638 H   0  0  0  0  0  0
  -15.8675  -28.0836   22.7043 H   0  0  0  0  0  0
  -24.5875  -30.7096   25.7793 H   0  0  0  0  0  0
  -24.8922  -32.2904   26.4894 H   0  0  0  0  0  0
  -25.8038  -30.8898   27.0234 H   0  0  0  0  0  0
  -26.2896  -29.6772   24.1177 H   0  0  0  0  0  0
  -27.3990  -29.7243   25.4681 H   0  0  0  0  0  0
  -27.8778  -30.4287   23.9419 H   0  0  0  0  0  0
  -27.2638  -33.3610   26.2096 H   0  0  0  0  0  0
  -28.3847  -32.6897   25.0339 H   0  0  0  0  0  0
  -28.0707  -31.8436   26.5420 H   0  0  0  0  0  0
  -28.2592  -38.0112   24.7515 H   0  0  0  0  0  0
  -28.1081  -36.2644   24.6274 H   0  0  0  0  0  0
  -27.2308  -37.1443   25.8869 H   0  0  0  0  0  0
  -20.9359  -29.8783   21.6922 H   0  0  0  0  0  0
  -26.0170  -38.2865   24.1414 H   0  0  0  0  0  0
  -31.8602  -17.3082   19.7940 H   0  0  0  0  0  0
  -31.8306  -19.7434   19.5523 H   0  0  0  0  0  0
  -27.9270  -17.4854   21.5514 H   0  0  0  0  0  0
  -30.0869  -24.2585   20.8705 H   0  0  0  0  0  0
  -29.6558  -24.0408   19.2037 H   0  0  0  0  0  0
  -27.6780  -24.9194   21.3744 H   0  0  0  0  0  0
  -27.3178  -24.6505   19.6997 H   0  0  0  0  0  0
  -28.0446  -22.1532   19.9005 H   0  0  0  0  0  0
  -28.6236  -22.3281   21.5461 H   0  0  0  0  0  0
  -28.9203  -15.3590   21.2197 H   0  0  0  0  0  0
  1 25  1  0  0  0
  1 30  2  0  0  0
  1 80  1  0  0  0
  2  3  1  0  0  0
  2 25  1  0  0  0
  2 83  1  0  0  0
  2 84  1  0  0  0
  3  4  1  0  0  0
  3 85  1  0  0  0
  3 86  1  0  0  0
  4  5  1  0  0  0
  4 87  1  0  0  0
  4 88  1  0  0  0
  5  6  1  0  0  0
  5 26  1  0  0  0
  5 89  1  0  0  0
  6 25  1  0  0  0
  6 90  1  0  0  0
  6 91  1  0  0  0
  7  8  2  0  0  0
  7 26  1  0  0  0
  7 29  1  0  0  0
  8  9  1  0  0  0
  8 22  1  0  0  0
  9 10  1  0  0  0
  9 27  2  0  0  0
 10 11  2  0  0  0
 10 15  1  0  0  0
 11 12  1  0  0  0
 11 92  1  0  0  0
 12 13  2  0  0  0
 12 93  1  0  0  0
 13 14  1  0  0  0
 13 31  1  0  0  0
 14 15  2  0  0  0
 14 94  1  0  0  0
 15 95  1  0  0  0
 16 17  2  0  0  0
 16 21  1  0  0  0
 16 31  1  0  0  0
 17 18  1  0  0  0
 17 96  1  0  0  0
 18 19  2  0  0  0
 18 97  1  0  0  0
 19 20  1  0  0  0
 19 24  1  0  0  0
 20 21  2  0  0  0
 20 98  1  0  0  0
 21 23  1  0  0  0
 22 28  1  0  0  0
 22 32  2  0  0  0
 26 27  1  0  0  0
 28 99  1  0  0  0
 28100  1  0  0  0
 29101  1  0  0  0
 29102  1  0  0  0
 33 34  1  0  0  0
 33 66  1  0  0  0
 33 70  2  0  0  0
 34 36  1  0  0  0
 34 59  1  0  0  0
 34103  1  0  0  0
 35 44  2  0  0  0
 35 45  1  0  0  0
 35 68  1  0  0  0
 36 56  1  0  0  0
 36104  1  0  0  0
 37 39  1  0  0  0
 37 47  1  0  0  0
 37 66  1  0  0  0
 37105  1  0  0  0
 38 43  2  0  0  0
 38 46  1  0  0  0
 38 47  1  0  0  0
 39 64  1  0  0  0
 39 67  2  0  0  0
 40 52  1  0  0  0
 40 53  2  0  0  0
 40 58  1  0  0  0
 41106  1  0  0  0
 41107  1  0  0  0
 41108  1  0  0  0
 41 48  1  0  0  0
 42 43  1  0  0  0
 42 66  1  0  0  0
 42109  1  0  0  0
 42110  1  0  0  0
 43 44  1  0  0  0
 44111  1  0  0  0
 45 46  2  0  0  0
 45112  1  0  0  0
 46113  1  0  0  0
 47114  1  0  0  0
 47115  1  0  0  0
 48 56  1  0  0  0
 48 65  1  0  0  0
 48116  1  0  0  0
 49 50  1  0  0  0
 49 53  1  0  0  0
 49 64  1  0  0  0
 49117  1  0  0  0
 50 51  1  0  0  0
 50118  1  0  0  0
 50119  1  0  0  0
 51 52  1  0  0  0
 51120  1  0  0  0
 51121  1  0  0  0
 52122  1  0  0  0
 52123  1  0  0  0
 53 54  1  0  0  0
 54 55  2  0  0  0
 54124  1  0  0  0
 55 57  1  0  0  0
 55125  1  0  0  0
 56 69  2  0  0  0
 57 58  2  0  0  0
 57126  1  0  0  0
 58127  1  0  0  0
 59 60  1  0  0  0
 59 61  1  0  0  0
 59 62  1  0  0  0
 60128  1  0  0  0
 60129  1  0  0  0
 60130  1  0  0  0
 61131  1  0  0  0
 61132  1  0  0  0
 61133  1  0  0  0
 62134  1  0  0  0
 62135  1  0  0  0
 62136  1  0  0  0
 63 65  1  0  0  0
 63137  1  0  0  0
 63138  1  0  0  0
 63139  1  0  0  0
 64140  1  0  0  0
 65141  1  0  0  0
 68 78  1  0  0  0
 71 72  2  0  0  0
 71 74  1  0  0  0
 71142  1  0  0  0
 72 75  1  0  0  0
 72143  1  0  0  0
 73 74  2  0  0  0
 73 76  1  0  0  0
 73144  1  0  0  0
 74 80  1  0  0  0
 75 76  2  0  0  0
 75 81  1  0  0  0
 76 82  1  0  0  0
 77 78  1  0  0  0
 77 79  1  0  0  0
 77145  1  0  0  0
 77146  1  0  0  0
 78147  1  0  0  0
 78148  1  0  0  0
 79 81  1  0  0  0
 79149  1  0  0  0
 79150  1  0  0  0
 80151  1  0  0  0
M  ISO  4   1 100  68 101  78 101  80 100
M  END
> <chiral flag>
0

> <version>
0

> <s_m_source_file>
/data/baiqing/PycharmProjects/Reinvent-master-3.2/result/LINK_invent/BTK/process_docking_weight1_custom_product_contain_oxygen_bond_distance_aromatic_linkinvent_7_9_3/rearranged_h_0011.sdf

> <i_m_source_file_index>
72

> <r_mmod_Potential_Energy-OPLS-2005>
74.7860946655273

> <r_mmod_Stretch_Energy-OPLS-2005>
79.5826568603516

> <r_mmod_Bend_Energy-OPLS-2005>
147.580917358398

> <r_mmod_Torsional_Energy-OPLS-2005>
214.559097290039

> <r_mmod_Improper_Torsional_Energy-OPLS-2005>
3.90157985687256

> <r_mmod_Van_der_Waal_Energy-OPLS-2005>
146.884353637695

> <r_mmod_Electrostatic_Energy-OPLS-2005>
-358.382598876953

> <r_mmod_Solvation_Energy-OPLS-2005>
-207.118133544922

> <b_mmod_Minimization_Converged-OPLS-2005>
0

> <r_mmod_RMS_Derivative-OPLS-2005>
1.06894218921661

$$$$
72
                    3D
 Structure written by MMmdl.
152160  0  0  1  0            999 V2000
  -30.5165  -14.8989   20.4388 C   0  0  0  0  0  0
  -30.4560  -12.5540   19.4863 C   0  0  0  0  0  0
  -29.5258  -12.5290   18.2492 C   0  0  0  0  0  0
  -28.0551  -12.3209   18.6634 C   0  0  0  0  0  0
  -27.6392  -13.2341   19.8454 C   0  0  2  0  0  0
  -28.6847  -13.2061   20.9820 C   0  0  0  0  0  0
  -25.2504  -13.8174   20.5683 C   0  0  0  0  0  0
  -24.1808  -13.0425   20.9234 C   0  0  0  0  0  0
  -24.6402  -11.6905   20.8757 C   0  0  0  0  0  0
  -23.9075  -10.4285   21.0411 C   0  0  0  0  0  0
  -24.3621   -9.4199   21.9186 C   0  0  0  0  0  0
  -23.6293   -8.2237   22.0755 C   0  0  0  0  0  0
  -22.4275   -8.0278   21.3544 C   0  0  0  0  0  0
  -21.9913   -9.0254   20.4646 C   0  0  0  0  0  0
  -22.7247  -10.2131   20.3057 C   0  0  0  0  0  0
  -21.6851   -6.0735   22.5279 C   0  0  0  0  0  0
  -21.4014   -6.5639   23.8213 C   0  0  0  0  0  0
  -21.3659   -5.6791   24.9175 C   0  0  0  0  0  0
  -21.6043   -4.3054   24.7225 C   0  0  0  0  0  0
  -21.8819   -3.8146   23.4346 C   0  0  0  0  0  0
  -21.9193   -4.6962   22.3402 C   0  0  0  0  0  0
  -22.7828  -13.5212   21.1878 C   0  0  0  0  0  0
  -22.1659   -4.2149   21.0980 F   0  0  0  0  0  0
  -21.5629   -3.4537   25.7737 F   0  0  0  0  0  0
  -29.9703  -13.6209   20.4004 N   0  0  0  0  0  0
  -26.2927  -12.9383   20.3241 N   0  0  0  0  0  0
  -25.9331  -11.6528   20.5736 N   0  0  0  0  0  0
  -22.0465  -12.8209   22.0432 N   0  0  0  0  0  0
  -25.4168  -15.1891   20.4035 N   0  0  0  0  0  0
  -31.7077  -15.0414   20.1400 O   0  0  0  0  0  0
  -21.6637   -6.8877   21.4240 O   0  0  0  0  0  0
  -22.3516  -14.5512   20.6713 O   0  0  0  0  0  0
  -24.6417  -31.8465   23.1908 C   0  0  0  0  0  0
  -25.9198  -32.4709   23.8290 C   0  0  1  0  0  0
  -27.2210  -27.1590   20.1485 C   0  0  0  0  0  0
  -25.5952  -33.8514   24.2207 N   0  0  0  0  0  0
  -23.4442  -30.4667   21.5365 C   0  0  2  0  0  0
  -24.8937  -28.8979   20.1138 C   0  0  0  0  0  0
  -22.7560  -29.4559   22.4874 C   0  0  0  0  0  0
  -18.0302  -28.1395   22.8479 C   0  0  0  0  0  0
  -24.1490  -36.7262   23.2642 C   0  0  0  0  0  0
  -25.9993  -30.7278   21.3868 C   0  0  0  0  0  0
  -26.0713  -29.3408   20.7297 C   0  0  0  0  0  0
  -27.2367  -28.4882   20.7292 C   0  0  0  0  0  0
  -26.0173  -26.8174   19.4905 C   0  0  0  0  0  0
  -24.8785  -27.6486   19.4790 C   0  0  0  0  0  0
  -23.6698  -29.7974   20.1557 C   0  0  0  0  0  0
  -25.4122  -36.3041   24.0318 C   0  0  1  0  0  0
  -20.5916  -28.3720   23.1241 C   0  0  2  0  0  0
  -20.6788  -26.9426   22.5402 C   0  0  0  0  0  0
  -19.5759  -26.6382   21.5212 C   0  0  0  0  0  0
  -18.1941  -26.7934   22.1628 C   0  0  0  0  0  0
  -19.1560  -28.8876   23.2853 C   0  0  0  0  0  0
  -18.9476  -30.1471   23.8878 C   0  0  0  0  0  0
  -17.6472  -30.6592   24.0564 C   0  0  0  0  0  0
  -25.9070  -34.9416   23.5069 C   0  0  0  0  0  0
  -16.5363  -29.9086   23.6338 C   0  0  0  0  0  0
  -16.7286  -28.6506   23.0356 C   0  0  0  0  0  0
  -26.4525  -31.6569   25.0723 C   0  0  0  0  0  0
  -25.3713  -31.3751   26.1418 C   0  0  0  0  0  0
  -27.0389  -30.2970   24.6290 C   0  0  0  0  0  0
  -27.6055  -32.4333   25.7507 C   0  0  0  0  0  0
  -27.5575  -37.1789   24.8466 C   0  0  0  0  0  0
  -21.4254  -29.3048   22.3619 N   0  0  0  0  0  0
  -26.4287  -37.3751   23.9407 N   0  0  0  0  0  0
  -24.7148  -31.0339   22.0934 N   0  0  0  0  0  0
  -23.4211  -28.8102   23.3014 O   0  0  0  0  0  0
  -28.2865  -26.1917   20.1924 O   0  0  0  0  0  0
  -26.5652  -34.8907   22.4646 O   0  0  0  0  0  0
  -23.5539  -32.1330   23.7139 O   0  0  0  0  0  0
  -30.5610  -18.5156   20.5913 C   0  0  0  0  0  0
  -30.2843  -19.9557   20.6009 C   0  0  0  0  0  0
  -28.2500  -18.1002   20.4130 C   0  0  0  0  0  0
  -29.5424  -17.4991   20.5241 C   0  0  0  0  0  0
  -28.9681  -20.5456   20.5388 C   0  0  0  0  0  0
  -27.9696  -19.5160   20.4105 C   0  0  0  0  0  0
  -27.9687  -22.0548   22.1176 C   0  0  0  0  0  0
  -29.0338  -23.3608   20.2765 C   0  0  0  0  0  0
  -27.9861  -24.6770   20.3425 C   0  0  0  0  0  0
  -29.6233  -15.9752   20.6300 N   0  0  0  0  0  0
  -28.5781  -21.9657   20.7894 N   0  0  0  0  0  0
  -26.3024  -19.9657   20.2753 Cl  0  0  0  0  0  0
  -31.4869  -12.7301   19.1746 H   0  0  0  0  0  0
  -30.4568  -11.5870   19.9921 H   0  0  0  0  0  0
  -29.8357  -11.7431   17.5589 H   0  0  0  0  0  0
  -29.6206  -13.4695   17.7041 H   0  0  0  0  0  0
  -27.9389  -11.2750   18.9495 H   0  0  0  0  0  0
  -27.3943  -12.4779   17.8101 H   0  0  0  0  0  0
  -27.6169  -14.2463   19.4413 H   0  0  0  0  0  0
  -28.7593  -12.2084   21.4173 H   0  0  0  0  0  0
  -28.3909  -13.8710   21.7958 H   0  0  0  0  0  0
  -25.2765   -9.5675   22.4764 H   0  0  0  0  0  0
  -24.0000   -7.4627   22.7474 H   0  0  0  0  0  0
  -21.0845   -8.8776   19.8952 H   0  0  0  0  0  0
  -22.3705  -10.9672   19.6169 H   0  0  0  0  0  0
  -21.2004   -7.6147   23.9717 H   0  0  0  0  0  0
  -21.1482   -6.0520   25.9079 H   0  0  0  0  0  0
  -22.0599   -2.7609   23.2845 H   0  0  0  0  0  0
  -22.4078  -11.9877   22.4834 H   0  0  0  0  0  0
  -21.1080  -13.1233   22.2625 H   0  0  0  0  0  0
  -24.6316  -15.8261   20.4823 H   0  0  0  0  0  0
  -26.2197  -15.6064   19.9543 H   0  0  0  0  0  0
  -26.7264  -32.5326   23.1022 H   0  0  0  0  0  0
  -25.0080  -33.9635   25.0340 H   0  0  0  0  0  0
  -22.7461  -31.2922   21.3833 H   0  0  0  0  0  0
  -23.3756  -35.9591   23.3296 H   0  0  0  0  0  0
  -24.3575  -36.8900   22.2058 H   0  0  0  0  0  0
  -23.7243  -37.6456   23.6682 H   0  0  0  0  0  0
  -26.1518  -31.4828   20.6145 H   0  0  0  0  0  0
  -26.8712  -30.7784   22.0274 H   0  0  0  0  0  0
  -28.1352  -28.8249   21.2272 H   0  0  0  0  0  0
  -25.9199  -25.8767   18.9733 H   0  0  0  0  0  0
  -23.9822  -27.3076   18.9793 H   0  0  0  0  0  0
  -23.8056  -30.5722   19.4004 H   0  0  0  0  0  0
  -22.7855  -29.2381   19.8449 H   0  0  0  0  0  0
  -25.1310  -36.1873   25.0810 H   0  0  0  0  0  0
  -21.0008  -28.3308   24.1362 H   0  0  0  0  0  0
  -21.6653  -26.7434   22.1198 H   0  0  0  0  0  0
  -20.5680  -26.2334   23.3618 H   0  0  0  0  0  0
  -19.6917  -25.6286   21.1258 H   0  0  0  0  0  0
  -19.6695  -27.3179   20.6730 H   0  0  0  0  0  0
  -17.4211  -26.6670   21.4032 H   0  0  0  0  0  0
  -18.0342  -26.0083   22.9034 H   0  0  0  0  0  0
  -19.7950  -30.7295   24.2238 H   0  0  0  0  0  0
  -17.5026  -31.6268   24.5172 H   0  0  0  0  0  0
  -15.5364  -30.2982   23.7674 H   0  0  0  0  0  0
  -15.8686  -28.0820   22.7081 H   0  0  0  0  0  0
  -24.5899  -30.7090   25.7739 H   0  0  0  0  0  0
  -24.8892  -32.2930   26.4792 H   0  0  0  0  0  0
  -25.8000  -30.8959   27.0228 H   0  0  0  0  0  0
  -26.3004  -29.6695   24.1287 H   0  0  0  0  0  0
  -27.3999  -29.7265   25.4858 H   0  0  0  0  0  0
  -27.8913  -30.4212   23.9607 H   0  0  0  0  0  0
  -27.2648  -33.3650   26.2034 H   0  0  0  0  0  0
  -28.3894  -32.6866   25.0357 H   0  0  0  0  0  0
  -28.0692  -31.8491   26.5465 H   0  0  0  0  0  0
  -28.2590  -38.0087   24.7508 H   0  0  0  0  0  0
  -28.1074  -36.2617   24.6302 H   0  0  0  0  0  0
  -27.2291  -37.1447   25.8868 H   0  0  0  0  0  0
  -20.9463  -29.8763   21.6800 H   0  0  0  0  0  0
  -26.0156  -38.2821   24.1406 H   0  0  0  0  0  0
  -31.5905  -18.1997   20.6860 H   0  0  0  0  0  0
  -31.1257  -20.6223   20.7222 H   0  0  0  0  0  0
  -27.3952  -17.4452   20.3470 H   0  0  0  0  0  0
  -28.4608  -22.8185   22.7219 H   0  0  0  0  0  0
  -26.9146  -22.3230   22.0345 H   0  0  0  0  0  0
  -28.0270  -21.1221   22.6822 H   0  0  0  0  0  0
  -29.9258  -23.6228   20.8472 H   0  0  0  0  0  0
  -29.3777  -23.2450   19.2480 H   0  0  0  0  0  0
  -27.4875  -24.6237   21.3099 H   0  0  0  0  0  0
  -27.2141  -24.4139   19.6248 H   0  0  0  0  0  0
  -28.7163  -15.5777   20.8186 H   0  0  0  0  0  0
  1 25  1  0  0  0
  1 30  2  0  0  0
  1 80  1  0  0  0
  2  3  1  0  0  0
  2 25  1  0  0  0
  2 83  1  0  0  0
  2 84  1  0  0  0
  3  4  1  0  0  0
  3 85  1  0  0  0
  3 86  1  0  0  0
  4  5  1  0  0  0
  4 87  1  0  0  0
  4 88  1  0  0  0
  5  6  1  0  0  0
  5 26  1  0  0  0
  5 89  1  0  0  0
  6 25  1  0  0  0
  6 90  1  0  0  0
  6 91  1  0  0  0
  7  8  2  0  0  0
  7 26  1  0  0  0
  7 29  1  0  0  0
  8  9  1  0  0  0
  8 22  1  0  0  0
  9 10  1  0  0  0
  9 27  2  0  0  0
 10 11  2  0  0  0
 10 15  1  0  0  0
 11 12  1  0  0  0
 11 92  1  0  0  0
 12 13  2  0  0  0
 12 93  1  0  0  0
 13 14  1  0  0  0
 13 31  1  0  0  0
 14 15  2  0  0  0
 14 94  1  0  0  0
 15 95  1  0  0  0
 16 17  2  0  0  0
 16 21  1  0  0  0
 16 31  1  0  0  0
 17 18  1  0  0  0
 17 96  1  0  0  0
 18 19  2  0  0  0
 18 97  1  0  0  0
 19 20  1  0  0  0
 19 24  1  0  0  0
 20 21  2  0  0  0
 20 98  1  0  0  0
 21 23  1  0  0  0
 22 28  1  0  0  0
 22 32  2  0  0  0
 26 27  1  0  0  0
 28 99  1  0  0  0
 28100  1  0  0  0
 29101  1  0  0  0
 29102  1  0  0  0
 33 34  1  0  0  0
 33 66  1  0  0  0
 33 70  2  0  0  0
 34 36  1  0  0  0
 34 59  1  0  0  0
 34103  1  0  0  0
 35 44  2  0  0  0
 35 45  1  0  0  0
 35 68  1  0  0  0
 36 56  1  0  0  0
 36104  1  0  0  0
 37 39  1  0  0  0
 37 47  1  0  0  0
 37 66  1  0  0  0
 37105  1  0  0  0
 38 43  2  0  0  0
 38 46  1  0  0  0
 38 47  1  0  0  0
 39 64  1  0  0  0
 39 67  2  0  0  0
 40 52  1  0  0  0
 40 53  2  0  0  0
 40 58  1  0  0  0
 41106  1  0  0  0
 41107  1  0  0  0
 41108  1  0  0  0
 41 48  1  0  0  0
 42 43  1  0  0  0
 42 66  1  0  0  0
 42109  1  0  0  0
 42110  1  0  0  0
 43 44  1  0  0  0
 44111  1  0  0  0
 45 46  2  0  0  0
 45112  1  0  0  0
 46113  1  0  0  0
 47114  1  0  0  0
 47115  1  0  0  0
 48 56  1  0  0  0
 48 65  1  0  0  0
 48116  1  0  0  0
 49 50  1  0  0  0
 49 53  1  0  0  0
 49 64  1  0  0  0
 49117  1  0  0  0
 50 51  1  0  0  0
 50118  1  0  0  0
 50119  1  0  0  0
 51 52  1  0  0  0
 51120  1  0  0  0
 51121  1  0  0  0
 52122  1  0  0  0
 52123  1  0  0  0
 53 54  1  0  0  0
 54 55  2  0  0  0
 54124  1  0  0  0
 55 57  1  0  0  0
 55125  1  0  0  0
 56 69  2  0  0  0
 57 58  2  0  0  0
 57126  1  0  0  0
 58127  1  0  0  0
 59 60  1  0  0  0
 59 61  1  0  0  0
 59 62  1  0  0  0
 60128  1  0  0  0
 60129  1  0  0  0
 60130  1  0  0  0
 61131  1  0  0  0
 61132  1  0  0  0
 61133  1  0  0  0
 62134  1  0  0  0
 62135  1  0  0  0
 62136  1  0  0  0
 63 65  1  0  0  0
 63137  1  0  0  0
 63138  1  0  0  0
 63139  1  0  0  0
 64140  1  0  0  0
 65141  1  0  0  0
 68 79  1  0  0  0
 71 72  2  0  0  0
 71 74  1  0  0  0
 71142  1  0  0  0
 72 75  1  0  0  0
 72143  1  0  0  0
 73 74  2  0  0  0
 73 76  1  0  0  0
 73144  1  0  0  0
 74 80  1  0  0  0
 75 76  2  0  0  0
 75 81  1  0  0  0
 76 82  1  0  0  0
 77 81  1  0  0  0
 77145  1  0  0  0
 77146  1  0  0  0
 77147  1  0  0  0
 78 79  1  0  0  0
 78 81  1  0  0  0
 78148  1  0  0  0
 78149  1  0  0  0
 79150  1  0  0  0
 79151  1  0  0  0
 80152  1  0  0  0
M  ISO  4   1 100  68 101  79 101  80 100
M  END
> <chiral flag>
0

> <version>
0

> <s_m_source_file>
/data/baiqing/PycharmProjects/Reinvent-master-3.2/result/LINK_invent/BTK/process_docking_weight1_custom_product_contain_oxygen_bond_distance_aromatic_linkinvent_7_9_3/rearranged_h_0011.sdf

> <i_m_source_file_index>
73

> <r_mmod_Potential_Energy-OPLS-2005>
505.272094726562

> <r_mmod_Stretch_Energy-OPLS-2005>
210.874435424805

> <r_mmod_Bend_Energy-OPLS-2005>
276.394287109375

> <r_mmod_Torsional_Energy-OPLS-2005>
243.519805908203

> <r_mmod_Improper_Torsional_Energy-OPLS-2005>
7.89769601821899

> <r_mmod_Van_der_Waal_Energy-OPLS-2005>
135.679702758789

> <r_mmod_Electrostatic_Energy-OPLS-2005>
-314.520172119141

> <r_mmod_Solvation_Energy-OPLS-2005>
-219.548599243164

> <b_mmod_Minimization_Converged-OPLS-2005>
0

> <r_mmod_RMS_Derivative-OPLS-2005>
0.424254149198532

$$$$
73
                    3D
 Structure written by MMmdl.
148156  0  0  1  0            999 V2000
  -30.5066  -14.9122   20.4364 C   0  0  0  0  0  0
  -30.4572  -12.5594   19.4935 C   0  0  0  0  0  0
  -29.5282  -12.5199   18.2554 C   0  0  0  0  0  0
  -28.0576  -12.3117   18.6710 C   0  0  0  0  0  0
  -27.6394  -13.2328   19.8459 C   0  0  2  0  0  0
  -28.6827  -13.2097   20.9842 C   0  0  0  0  0  0
  -25.2503  -13.8179   20.5680 C   0  0  0  0  0  0
  -24.1804  -13.0432   20.9234 C   0  0  0  0  0  0
  -24.6391  -11.6909   20.8755 C   0  0  0  0  0  0
  -23.9061  -10.4290   21.0411 C   0  0  0  0  0  0
  -24.3611   -9.4205   21.9186 C   0  0  0  0  0  0
  -23.6288   -8.2238   22.0750 C   0  0  0  0  0  0
  -22.4271   -8.0275   21.3541 C   0  0  0  0  0  0
  -21.9904   -9.0252   20.4648 C   0  0  0  0  0  0
  -22.7230  -10.2135   20.3062 C   0  0  0  0  0  0
  -21.6854   -6.0729   22.5277 C   0  0  0  0  0  0
  -21.4013   -6.5632   23.8208 C   0  0  0  0  0  0
  -21.3661   -5.6786   24.9171 C   0  0  0  0  0  0
  -21.6045   -4.3047   24.7224 C   0  0  0  0  0  0
  -21.8820   -3.8140   23.4344 C   0  0  0  0  0  0
  -21.9192   -4.6957   22.3400 C   0  0  0  0  0  0
  -22.7825  -13.5222   21.1889 C   0  0  0  0  0  0
  -22.1662   -4.2144   21.0978 F   0  0  0  0  0  0
  -21.5632   -3.4531   25.7736 F   0  0  0  0  0  0
  -29.9671  -13.6300   20.4031 N   0  0  0  0  0  0
  -26.2923  -12.9383   20.3242 N   0  0  0  0  0  0
  -25.9319  -11.6532   20.5738 N   0  0  0  0  0  0
  -22.0468  -12.8219   22.0447 N   0  0  0  0  0  0
  -25.4177  -15.1897   20.4031 N   0  0  0  0  0  0
  -31.6939  -15.0568   20.1209 O   0  0  0  0  0  0
  -21.6638   -6.8871   21.4237 O   0  0  0  0  0  0
  -22.3514  -14.5527   20.6726 O   0  0  0  0  0  0
  -24.6416  -31.8453   23.1901 C   0  0  0  0  0  0
  -25.9200  -32.4701   23.8277 C   0  0  1  0  0  0
  -27.2194  -27.1518   20.1453 C   0  0  0  0  0  0
  -25.5965  -33.8506   24.2202 N   0  0  0  0  0  0
  -23.4439  -30.4666   21.5351 C   0  0  2  0  0  0
  -24.8937  -28.8974   20.1099 C   0  0  0  0  0  0
  -22.7560  -29.4552   22.4860 C   0  0  0  0  0  0
  -18.0312  -28.1393   22.8469 C   0  0  0  0  0  0
  -24.1494  -36.7247   23.2641 C   0  0  0  0  0  0
  -25.9996  -30.7244   21.3866 C   0  0  0  0  0  0
  -26.0718  -29.3381   20.7263 C   0  0  0  0  0  0
  -27.2360  -28.4820   20.7257 C   0  0  0  0  0  0
  -26.0120  -26.8101   19.4939 C   0  0  0  0  0  0
  -24.8768  -27.6464   19.4781 C   0  0  0  0  0  0
  -23.6696  -29.7981   20.1537 C   0  0  0  0  0  0
  -25.4127  -36.3034   24.0317 C   0  0  1  0  0  0
  -20.5919  -28.3710   23.1237 C   0  0  2  0  0  0
  -20.6792  -26.9413   22.5410 C   0  0  0  0  0  0
  -19.5774  -26.6379   21.5205 C   0  0  0  0  0  0
  -18.1953  -26.7936   22.1610 C   0  0  0  0  0  0
  -19.1566  -28.8871   23.2846 C   0  0  0  0  0  0
  -18.9483  -30.1470   23.8866 C   0  0  0  0  0  0
  -17.6479  -30.6586   24.0558 C   0  0  0  0  0  0
  -25.9073  -34.9409   23.5067 C   0  0  0  0  0  0
  -16.5370  -29.9077   23.6341 C   0  0  0  0  0  0
  -16.7296  -28.6502   23.0351 C   0  0  0  0  0  0
  -26.4529  -31.6562   25.0707 C   0  0  0  0  0  0
  -25.3724  -31.3768   26.1419 C   0  0  0  0  0  0
  -27.0377  -30.2956   24.6276 C   0  0  0  0  0  0
  -27.6086  -32.4308   25.7471 C   0  0  0  0  0  0
  -27.5583  -37.1776   24.8464 C   0  0  0  0  0  0
  -21.4255  -29.3039   22.3609 N   0  0  0  0  0  0
  -26.4289  -37.3749   23.9414 N   0  0  0  0  0  0
  -24.7147  -31.0329   22.0924 N   0  0  0  0  0  0
  -23.4217  -28.8100   23.2999 O   0  0  0  0  0  0
  -28.2775  -26.1735   20.2098 O   0  0  0  0  0  0
  -26.5645  -34.8903   22.4634 O   0  0  0  0  0  0
  -23.5543  -32.1324   23.7138 O   0  0  0  0  0  0
  -28.2153  -18.0953   20.7491 C   0  0  0  0  0  0
  -30.4833  -18.5413   20.2926 C   0  0  0  0  0  0
  -27.9193  -19.5039   20.6778 C   0  0  0  0  0  0
  -30.1796  -19.9799   20.2323 C   0  0  0  0  0  0
  -29.5053  -17.5105   20.5545 C   0  0  0  0  0  0
  -28.8633  -20.5436   20.4177 C   0  0  0  0  0  0
  -28.9684  -23.3056   20.2949 C   0  0  0  0  0  0
  -27.9754  -24.6526   20.0919 C   0  0  0  0  0  0
  -29.6169  -15.9865   20.6674 N   0  0  0  0  0  0
  -28.3409  -21.9105   20.3531 O   0  0  0  0  0  0
  -31.4885  -12.7346   19.1825 H   0  0  0  0  0  0
  -30.4604  -11.5956   20.0058 H   0  0  0  0  0  0
  -29.8405  -11.7242   17.5774 H   0  0  0  0  0  0
  -29.6216  -13.4520   17.6963 H   0  0  0  0  0  0
  -27.9473  -11.2684   18.9696 H   0  0  0  0  0  0
  -27.3947  -12.4547   17.8166 H   0  0  0  0  0  0
  -27.6179  -14.2430   19.4364 H   0  0  0  0  0  0
  -28.7602  -12.2129   21.4208 H   0  0  0  0  0  0
  -28.3848  -13.8728   21.7977 H   0  0  0  0  0  0
  -25.2756   -9.5682   22.4757 H   0  0  0  0  0  0
  -24.0001   -7.4627   22.7461 H   0  0  0  0  0  0
  -21.0838   -8.8770   19.8954 H   0  0  0  0  0  0
  -22.3684  -10.9672   19.6174 H   0  0  0  0  0  0
  -21.2003   -7.6140   23.9709 H   0  0  0  0  0  0
  -21.1487   -6.0516   25.9075 H   0  0  0  0  0  0
  -22.0599   -2.7601   23.2843 H   0  0  0  0  0  0
  -22.4081  -11.9886   22.4849 H   0  0  0  0  0  0
  -21.1085  -13.1247   22.2656 H   0  0  0  0  0  0
  -24.6341  -15.8285   20.4849 H   0  0  0  0  0  0
  -26.2245  -15.6094   19.9608 H   0  0  0  0  0  0
  -26.7255  -32.5312   23.0996 H   0  0  0  0  0  0
  -25.0126  -33.9625   25.0360 H   0  0  0  0  0  0
  -22.7454  -31.2921   21.3833 H   0  0  0  0  0  0
  -23.3765  -35.9568   23.3292 H   0  0  0  0  0  0
  -24.3585  -36.8891   22.2059 H   0  0  0  0  0  0
  -23.7234  -37.6436   23.6677 H   0  0  0  0  0  0
  -26.1556  -31.4817   20.6172 H   0  0  0  0  0  0
  -26.8696  -30.7724   22.0293 H   0  0  0  0  0  0
  -28.1328  -28.8166   21.2280 H   0  0  0  0  0  0
  -25.9048  -25.8561   19.0019 H   0  0  0  0  0  0
  -23.9779  -27.3044   18.9838 H   0  0  0  0  0  0
  -23.8045  -30.5736   19.3988 H   0  0  0  0  0  0
  -22.7847  -29.2399   19.8437 H   0  0  0  0  0  0
  -25.1317  -36.1861   25.0809 H   0  0  0  0  0  0
  -21.0016  -28.3300   24.1354 H   0  0  0  0  0  0
  -20.5666  -26.2323   23.3628 H   0  0  0  0  0  0
  -21.6663  -26.7413   22.1221 H   0  0  0  0  0  0
  -19.6932  -25.6284   21.1253 H   0  0  0  0  0  0
  -19.6722  -27.3173   20.6721 H   0  0  0  0  0  0
  -17.4228  -26.6678   21.4008 H   0  0  0  0  0  0
  -18.0350  -26.0083   22.9011 H   0  0  0  0  0  0
  -19.7958  -30.7296   24.2215 H   0  0  0  0  0  0
  -17.5033  -31.6263   24.5169 H   0  0  0  0  0  0
  -15.5368  -30.2966   23.7685 H   0  0  0  0  0  0
  -15.8700  -28.0816   22.7066 H   0  0  0  0  0  0
  -24.5925  -30.7071   25.7773 H   0  0  0  0  0  0
  -24.8874  -32.2948   26.4746 H   0  0  0  0  0  0
  -25.8030  -30.9039   27.0255 H   0  0  0  0  0  0
  -26.2979  -29.6681   24.1289 H   0  0  0  0  0  0
  -27.4002  -29.7261   25.4844 H   0  0  0  0  0  0
  -27.8892  -30.4194   23.9579 H   0  0  0  0  0  0
  -27.2718  -33.3642   26.1990 H   0  0  0  0  0  0
  -28.3920  -32.6807   25.0300 H   0  0  0  0  0  0
  -28.0715  -31.8451   26.5425 H   0  0  0  0  0  0
  -28.2603  -38.0072   24.7518 H   0  0  0  0  0  0
  -28.1082  -36.2608   24.6283 H   0  0  0  0  0  0
  -27.2305  -37.1418   25.8868 H   0  0  0  0  0  0
  -20.9454  -29.8756   21.6799 H   0  0  0  0  0  0
  -26.0160  -38.2816   24.1435 H   0  0  0  0  0  0
  -27.3841  -17.4389   20.9640 H   0  0  0  0  0  0
  -31.5080  -18.2375   20.1325 H   0  0  0  0  0  0
  -26.8912  -19.7983   20.8356 H   0  0  0  0  0  0
  -30.9941  -20.6580   20.0223 H   0  0  0  0  0  0
  -29.5285  -23.4334   21.2214 H   0  0  0  0  0  0
  -29.7148  -23.2995   19.5002 H   0  0  0  0  0  0
  -27.1411  -24.4904   20.7758 H   0  0  0  0  0  0
  -27.5573  -24.5134   19.0959 H   0  0  0  0  0  0
  -28.7281  -15.5826   20.9203 H   0  0  0  0  0  0
  1 25  1  0  0  0
  1 30  2  0  0  0
  1 79  1  0  0  0
  2  3  1  0  0  0
  2 25  1  0  0  0
  2 81  1  0  0  0
  2 82  1  0  0  0
  3  4  1  0  0  0
  3 83  1  0  0  0
  3 84  1  0  0  0
  4  5  1  0  0  0
  4 85  1  0  0  0
  4 86  1  0  0  0
  5  6  1  0  0  0
  5 26  1  0  0  0
  5 87  1  0  0  0
  6 25  1  0  0  0
  6 88  1  0  0  0
  6 89  1  0  0  0
  7  8  2  0  0  0
  7 26  1  0  0  0
  7 29  1  0  0  0
  8  9  1  0  0  0
  8 22  1  0  0  0
  9 10  1  0  0  0
  9 27  2  0  0  0
 10 11  2  0  0  0
 10 15  1  0  0  0
 11 12  1  0  0  0
 11 90  1  0  0  0
 12 13  2  0  0  0
 12 91  1  0  0  0
 13 14  1  0  0  0
 13 31  1  0  0  0
 14 15  2  0  0  0
 14 92  1  0  0  0
 15 93  1  0  0  0
 16 17  2  0  0  0
 16 21  1  0  0  0
 16 31  1  0  0  0
 17 18  1  0  0  0
 17 94  1  0  0  0
 18 19  2  0  0  0
 18 95  1  0  0  0
 19 20  1  0  0  0
 19 24  1  0  0  0
 20 21  2  0  0  0
 20 96  1  0  0  0
 21 23  1  0  0  0
 22 28  1  0  0  0
 22 32  2  0  0  0
 26 27  1  0  0  0
 28 97  1  0  0  0
 28 98  1  0  0  0
 29 99  1  0  0  0
 29100  1  0  0  0
 33 34  1  0  0  0
 33 66  1  0  0  0
 33 70  2  0  0  0
 34 36  1  0  0  0
 34 59  1  0  0  0
 34101  1  0  0  0
 35 44  2  0  0  0
 35 45  1  0  0  0
 35 68  1  0  0  0
 36 56  1  0  0  0
 36102  1  0  0  0
 37 39  1  0  0  0
 37 47  1  0  0  0
 37 66  1  0  0  0
 37103  1  0  0  0
 38 43  2  0  0  0
 38 46  1  0  0  0
 38 47  1  0  0  0
 39 64  1  0  0  0
 39 67  2  0  0  0
 40 52  1  0  0  0
 40 53  2  0  0  0
 40 58  1  0  0  0
 41104  1  0  0  0
 41105  1  0  0  0
 41106  1  0  0  0
 41 48  1  0  0  0
 42 43  1  0  0  0
 42 66  1  0  0  0
 42107  1  0  0  0
 42108  1  0  0  0
 43 44  1  0  0  0
 44109  1  0  0  0
 45 46  2  0  0  0
 45110  1  0  0  0
 46111  1  0  0  0
 47112  1  0  0  0
 47113  1  0  0  0
 48 56  1  0  0  0
 48 65  1  0  0  0
 48114  1  0  0  0
 49 50  1  0  0  0
 49 53  1  0  0  0
 49 64  1  0  0  0
 49115  1  0  0  0
 50 51  1  0  0  0
 50116  1  0  0  0
 50117  1  0  0  0
 51 52  1  0  0  0
 51118  1  0  0  0
 51119  1  0  0  0
 52120  1  0  0  0
 52121  1  0  0  0
 53 54  1  0  0  0
 54 55  2  0  0  0
 54122  1  0  0  0
 55 57  1  0  0  0
 55123  1  0  0  0
 56 69  2  0  0  0
 57 58  2  0  0  0
 57124  1  0  0  0
 58125  1  0  0  0
 59 60  1  0  0  0
 59 61  1  0  0  0
 59 62  1  0  0  0
 60126  1  0  0  0
 60127  1  0  0  0
 60128  1  0  0  0
 61129  1  0  0  0
 61130  1  0  0  0
 61131  1  0  0  0
 62132  1  0  0  0
 62133  1  0  0  0
 62134  1  0  0  0
 63 65  1  0  0  0
 63135  1  0  0  0
 63136  1  0  0  0
 63137  1  0  0  0
 64138  1  0  0  0
 65139  1  0  0  0
 68 78  1  0  0  0
 71 73  2  0  0  0
 71 75  1  0  0  0
 71140  1  0  0  0
 72 74  1  0  0  0
 72 75  2  0  0  0
 72141  1  0  0  0
 73 76  1  0  0  0
 73142  1  0  0  0
 74 76  2  0  0  0
 74143  1  0  0  0
 75 79  1  0  0  0
 76 80  1  0  0  0
 77 78  1  0  0  0
 77 80  1  0  0  0
 77144  1  0  0  0
 77145  1  0  0  0
 78146  1  0  0  0
 78147  1  0  0  0
 79148  1  0  0  0
M  ISO  4   1 100  68 101  78 101  79 100
M  END
> <chiral flag>
0

> <version>
0

> <s_m_source_file>
/data/baiqing/PycharmProjects/Reinvent-master-3.2/result/LINK_invent/BTK/process_docking_weight1_custom_product_contain_oxygen_bond_distance_aromatic_linkinvent_7_9_3/rearranged_h_0011.sdf

> <i_m_source_file_index>
74

> <r_mmod_Potential_Energy-OPLS-2005>
453.292022705078

> <r_mmod_Stretch_Energy-OPLS-2005>
216.148208618164

> <r_mmod_Bend_Energy-OPLS-2005>
303.559814453125

> <r_mmod_Torsional_Energy-OPLS-2005>
210.8935546875

> <r_mmod_Improper_Torsional_Energy-OPLS-2005>
4.47378873825073

> <r_mmod_Van_der_Waal_Energy-OPLS-2005>
131.151794433594

> <r_mmod_Electrostatic_Energy-OPLS-2005>
-373.256744384766

> <r_mmod_Solvation_Energy-OPLS-2005>
-214.08235168457

> <b_mmod_Minimization_Converged-OPLS-2005>
0

> <r_mmod_RMS_Derivative-OPLS-2005>
0.848834156990051

$$$$
74
                    3D
 Structure written by MMmdl.
160169  0  0  1  0            999 V2000
  -30.6149  -14.6374   20.5045 C   0  0  0  0  0  0
  -30.4394  -12.3896   19.4543 C   0  0  0  0  0  0
  -29.5083  -12.5106   18.2259 C   0  0  0  0  0  0
  -28.0311  -12.3481   18.6378 C   0  0  0  0  0  0
  -27.6543  -13.2162   19.8682 C   0  0  2  0  0  0
  -28.6980  -13.0608   20.9981 C   0  0  0  0  0  0
  -25.2543  -13.8160   20.5690 C   0  0  0  0  0  0
  -24.1805  -13.0420   20.9164 C   0  0  0  0  0  0
  -24.6386  -11.6899   20.8734 C   0  0  0  0  0  0
  -23.9064  -10.4282   21.0403 C   0  0  0  0  0  0
  -24.3611   -9.4201   21.9187 C   0  0  0  0  0  0
  -23.6282   -8.2242   22.0765 C   0  0  0  0  0  0
  -22.4263   -8.0279   21.3552 C   0  0  0  0  0  0
  -21.9897   -9.0256   20.4655 C   0  0  0  0  0  0
  -22.7235  -10.2126   20.3057 C   0  0  0  0  0  0
  -21.6849   -6.0729   22.5281 C   0  0  0  0  0  0
  -21.4021   -6.5637   23.8213 C   0  0  0  0  0  0
  -21.3661   -5.6790   24.9178 C   0  0  0  0  0  0
  -21.6040   -4.3053   24.7225 C   0  0  0  0  0  0
  -21.8818   -3.8143   23.4349 C   0  0  0  0  0  0
  -21.9193   -4.6960   22.3404 C   0  0  0  0  0  0
  -22.7827  -13.5221   21.1831 C   0  0  0  0  0  0
  -22.1657   -4.2148   21.0981 F   0  0  0  0  0  0
  -21.5626   -3.4538   25.7740 F   0  0  0  0  0  0
  -30.0170  -13.4051   20.4399 N   0  0  0  0  0  0
  -26.2987  -12.9354   20.3342 N   0  0  0  0  0  0
  -25.9317  -11.6507   20.5756 N   0  0  0  0  0  0
  -22.0470  -12.8226   22.0400 N   0  0  0  0  0  0
  -25.4230  -15.1880   20.4155 N   0  0  0  0  0  0
  -31.7664  -14.8163   20.0971 O   0  0  0  0  0  0
  -21.6632   -6.8873   21.4243 O   0  0  0  0  0  0
  -22.3518  -14.5539   20.6700 O   0  0  0  0  0  0
  -24.6251  -31.8607   23.2028 C   0  0  0  0  0  0
  -25.9103  -32.4784   23.8356 C   0  0  1  0  0  0
  -27.2266  -27.3292   20.1197 C   0  0  0  0  0  0
  -25.5922  -33.8584   24.2286 N   0  0  0  0  0  0
  -23.4182  -30.4836   21.5458 C   0  0  2  0  0  0
  -24.8649  -28.9363   20.1151 C   0  0  0  0  0  0
  -22.7467  -29.4626   22.4949 C   0  0  0  0  0  0
  -18.0285  -28.1381   22.8489 C   0  0  0  0  0  0
  -24.1488  -36.7299   23.2639 C   0  0  0  0  0  0
  -25.9577  -30.7943   21.3713 C   0  0  0  0  0  0
  -26.0332  -29.4206   20.7174 C   0  0  0  0  0  0
  -27.2188  -28.6304   20.7076 C   0  0  0  0  0  0
  -26.0394  -26.8958   19.4885 C   0  0  0  0  0  0
  -24.8692  -27.6784   19.4923 C   0  0  0  0  0  0
  -23.6329  -29.8165   20.1619 C   0  0  0  0  0  0
  -25.4111  -36.3088   24.0332 C   0  0  1  0  0  0
  -20.5882  -28.3683   23.1290 C   0  0  2  0  0  0
  -20.6774  -26.9410   22.5410 C   0  0  0  0  0  0
  -19.5752  -26.6385   21.5210 C   0  0  0  0  0  0
  -18.1932  -26.7924   22.1623 C   0  0  0  0  0  0
  -19.1536  -28.8850   23.2887 C   0  0  0  0  0  0
  -18.9459  -30.1451   23.8907 C   0  0  0  0  0  0
  -17.6460  -30.6586   24.0561 C   0  0  0  0  0  0
  -25.9051  -34.9456   23.5111 C   0  0  0  0  0  0
  -16.5352  -29.9086   23.6324 C   0  0  0  0  0  0
  -16.7272  -28.6499   23.0353 C   0  0  0  0  0  0
  -26.4490  -31.6590   25.0724 C   0  0  0  0  0  0
  -25.3725  -31.3723   26.1455 C   0  0  0  0  0  0
  -27.0322  -30.3015   24.6160 C   0  0  0  0  0  0
  -27.6055  -32.4320   25.7492 C   0  0  0  0  0  0
  -27.5579  -37.1805   24.8466 C   0  0  0  0  0  0
  -21.4182  -29.3041   22.3690 N   0  0  0  0  0  0
  -26.4290  -37.3780   23.9411 N   0  0  0  0  0  0
  -24.6858  -31.0629   22.0969 N   0  0  0  0  0  0
  -23.4198  -28.8163   23.3023 O   0  0  0  0  0  0
  -28.3543  -26.5003   20.1241 O   0  0  0  0  0  0
  -26.5619  -34.8920   22.4677 O   0  0  0  0  0  0
  -23.5421  -32.1400   23.7369 O   0  0  0  0  0  0
  -30.6648  -19.2836   19.8620 C   0  0  0  0  0  0
  -30.8324  -17.8838   20.1054 C   0  0  0  0  0  0
  -28.4468  -19.2016   20.7873 C   0  0  0  0  0  0
  -29.4621  -19.9815   20.1758 C   0  0  0  0  0  0
  -29.7923  -17.1030   20.6774 C   0  0  0  0  0  0
  -28.6102  -17.8063   21.0274 C   0  0  0  0  0  0
  -31.5182  -23.4435   20.8479 C   0  0  0  0  0  0
  -30.6983  -24.6114   20.3097 C   0  0  0  0  0  0
  -30.4674  -22.5800   21.5396 C   0  0  0  0  0  0
  -29.2868  -24.0439   20.0372 C   0  0  2  0  0  0
  -29.2113  -21.4686   19.7011 C   0  0  0  0  0  0
  -28.1852  -25.0845   20.5308 C   0  0  0  0  0  0
  -29.8080  -15.6610   20.9191 N   0  0  0  0  0  0
  -29.2717  -22.6414   20.6687 N   0  3  1  0  0  0
  -27.5862  -17.1101   21.5770 F   0  0  0  0  0  0
  -31.4807  -12.5181   19.1542 H   0  0  0  0  0  0
  -30.3758  -11.3905   19.8891 H   0  0  0  0  0  0
  -29.7717  -11.7626   17.4762 H   0  0  0  0  0  0
  -29.6502  -13.4811   17.7477 H   0  0  0  0  0  0
  -27.8712  -11.2950   18.8712 H   0  0  0  0  0  0
  -27.3749  -12.5777   17.7973 H   0  0  0  0  0  0
  -27.6745  -14.2527   19.5309 H   0  0  0  0  0  0
  -28.7050  -12.0363   21.3732 H   0  0  0  0  0  0
  -28.4403  -13.6851   21.8551 H   0  0  0  0  0  0
  -25.2755   -9.5677   22.4764 H   0  0  0  0  0  0
  -23.9995   -7.4630   22.7479 H   0  0  0  0  0  0
  -21.0832   -8.8774   19.8955 H   0  0  0  0  0  0
  -22.3702  -10.9667   19.6165 H   0  0  0  0  0  0
  -21.2023   -7.6145   23.9721 H   0  0  0  0  0  0
  -21.1481   -6.0518   25.9081 H   0  0  0  0  0  0
  -22.0597   -2.7608   23.2845 H   0  0  0  0  0  0
  -22.4081  -11.9886   22.4788 H   0  0  0  0  0  0
  -21.1102  -13.1283   22.2628 H   0  0  0  0  0  0
  -24.6667  -15.8429   20.5771 H   0  0  0  0  0  0
  -26.3019  -15.6475   20.2152 H   0  0  0  0  0  0
  -26.7171  -32.5456   23.1107 H   0  0  0  0  0  0
  -25.0059  -33.9722   25.0425 H   0  0  0  0  0  0
  -22.7120  -31.3039   21.4023 H   0  0  0  0  0  0
  -23.3749  -35.9633   23.3299 H   0  0  0  0  0  0
  -24.3584  -36.8920   22.2054 H   0  0  0  0  0  0
  -23.7244  -37.6501   23.6662 H   0  0  0  0  0  0
  -26.0874  -31.5561   20.6011 H   0  0  0  0  0  0
  -26.8391  -30.8453   21.9988 H   0  0  0  0  0  0
  -28.1185  -29.0039   21.1771 H   0  0  0  0  0  0
  -26.0032  -25.9450   18.9770 H   0  0  0  0  0  0
  -23.9764  -27.3051   19.0100 H   0  0  0  0  0  0
  -23.7536  -30.5919   19.4046 H   0  0  0  0  0  0
  -22.7529  -29.2464   19.8594 H   0  0  0  0  0  0
  -25.1289  -36.1939   25.0824 H   0  0  0  0  0  0
  -20.9973  -28.3255   24.1413 H   0  0  0  0  0  0
  -20.5676  -26.2295   23.3606 H   0  0  0  0  0  0
  -21.6645  -26.7446   22.1206 H   0  0  0  0  0  0
  -19.6915  -25.6298   21.1241 H   0  0  0  0  0  0
  -19.6686  -27.3194   20.6738 H   0  0  0  0  0  0
  -17.4200  -26.6672   21.4024 H   0  0  0  0  0  0
  -18.0332  -26.0064   22.9017 H   0  0  0  0  0  0
  -19.7934  -30.7258   24.2291 H   0  0  0  0  0  0
  -17.5015  -31.6267   24.5157 H   0  0  0  0  0  0
  -15.5353  -30.2991   23.7640 H   0  0  0  0  0  0
  -15.8670  -28.0815   22.7074 H   0  0  0  0  0  0
  -24.5902  -30.7068   25.7787 H   0  0  0  0  0  0
  -24.8913  -32.2886   26.4885 H   0  0  0  0  0  0
  -25.8053  -30.8901   27.0227 H   0  0  0  0  0  0
  -26.2880  -29.6777   24.1192 H   0  0  0  0  0  0
  -27.4035  -29.7262   25.4652 H   0  0  0  0  0  0
  -27.8750  -30.4312   23.9364 H   0  0  0  0  0  0
  -27.2669  -33.3622   26.2068 H   0  0  0  0  0  0
  -28.3862  -32.6875   25.0315 H   0  0  0  0  0  0
  -28.0722  -31.8444   26.5407 H   0  0  0  0  0  0
  -28.2600  -38.0099   24.7510 H   0  0  0  0  0  0
  -28.1072  -36.2634   24.6290 H   0  0  0  0  0  0
  -27.2303  -37.1452   25.8870 H   0  0  0  0  0  0
  -20.9362  -29.8769   21.6902 H   0  0  0  0  0  0
  -26.0174  -38.2858   24.1401 H   0  0  0  0  0  0
  -31.4707  -19.8170   19.3761 H   0  0  0  0  0  0
  -31.7624  -17.4132   19.8192 H   0  0  0  0  0  0
  -27.4999  -19.6578   21.0372 H   0  0  0  0  0  0
  -32.3141  -23.7598   21.5233 H   0  0  0  0  0  0
  -31.9777  -22.8928   20.0260 H   0  0  0  0  0  0
  -31.1456  -25.0598   19.4213 H   0  0  0  0  0  0
  -30.6561  -25.3920   21.0712 H   0  0  0  0  0  0
  -30.2117  -23.0252   22.5022 H   0  0  0  0  0  0
  -30.8254  -21.5719   21.7484 H   0  0  0  0  0  0
  -29.1661  -23.9344   18.9581 H   0  0  0  0  0  0
  -28.2355  -21.4969   19.2149 H   0  0  0  0  0  0
  -29.9272  -21.6659   18.9023 H   0  0  0  0  0  0
  -28.1772  -25.0856   21.6219 H   0  0  0  0  0  0
  -27.2120  -24.6915   20.2422 H   0  0  0  0  0  0
  -28.9379  -15.3299   21.3073 H   0  0  0  0  0  0
  -28.4596  -22.5486   21.2622 H   0  0  0  0  0  0
  1 25  1  0  0  0
  1 30  2  0  0  0
  1 83  1  0  0  0
  2  3  1  0  0  0
  2 25  1  0  0  0
  2 86  1  0  0  0
  2 87  1  0  0  0
  3  4  1  0  0  0
  3 88  1  0  0  0
  3 89  1  0  0  0
  4  5  1  0  0  0
  4 90  1  0  0  0
  4 91  1  0  0  0
  5  6  1  0  0  0
  5 26  1  0  0  0
  5 92  1  0  0  0
  6 25  1  0  0  0
  6 93  1  0  0  0
  6 94  1  0  0  0
  7  8  2  0  0  0
  7 26  1  0  0  0
  7 29  1  0  0  0
  8  9  1  0  0  0
  8 22  1  0  0  0
  9 10  1  0  0  0
  9 27  2  0  0  0
 10 11  2  0  0  0
 10 15  1  0  0  0
 11 12  1  0  0  0
 11 95  1  0  0  0
 12 13  2  0  0  0
 12 96  1  0  0  0
 13 14  1  0  0  0
 13 31  1  0  0  0
 14 15  2  0  0  0
 14 97  1  0  0  0
 15 98  1  0  0  0
 16 17  2  0  0  0
 16 21  1  0  0  0
 16 31  1  0  0  0
 17 18  1  0  0  0
 17 99  1  0  0  0
 18 19  2  0  0  0
 18100  1  0  0  0
 19 20  1  0  0  0
 19 24  1  0  0  0
 20 21  2  0  0  0
 20101  1  0  0  0
 21 23  1  0  0  0
 22 28  1  0  0  0
 22 32  2  0  0  0
 26 27  1  0  0  0
 28102  1  0  0  0
 28103  1  0  0  0
 29104  1  0  0  0
 29105  1  0  0  0
 33 34  1  0  0  0
 33 66  1  0  0  0
 33 70  2  0  0  0
 34 36  1  0  0  0
 34 59  1  0  0  0
 34106  1  0  0  0
 35 44  2  0  0  0
 35 45  1  0  0  0
 35 68  1  0  0  0
 36 56  1  0  0  0
 36107  1  0  0  0
 37 39  1  0  0  0
 37 47  1  0  0  0
 37 66  1  0  0  0
 37108  1  0  0  0
 38 43  2  0  0  0
 38 46  1  0  0  0
 38 47  1  0  0  0
 39 64  1  0  0  0
 39 67  2  0  0  0
 40 52  1  0  0  0
 40 53  2  0  0  0
 40 58  1  0  0  0
 41109  1  0  0  0
 41110  1  0  0  0
 41111  1  0  0  0
 41 48  1  0  0  0
 42 43  1  0  0  0
 42 66  1  0  0  0
 42112  1  0  0  0
 42113  1  0  0  0
 43 44  1  0  0  0
 44114  1  0  0  0
 45 46  2  0  0  0
 45115  1  0  0  0
 46116  1  0  0  0
 47117  1  0  0  0
 47118  1  0  0  0
 48 56  1  0  0  0
 48 65  1  0  0  0
 48119  1  0  0  0
 49 50  1  0  0  0
 49 53  1  0  0  0
 49 64  1  0  0  0
 49120  1  0  0  0
 50 51  1  0  0  0
 50121  1  0  0  0
 50122  1  0  0  0
 51 52  1  0  0  0
 51123  1  0  0  0
 51124  1  0  0  0
 52125  1  0  0  0
 52126  1  0  0  0
 53 54  1  0  0  0
 54 55  2  0  0  0
 54127  1  0  0  0
 55 57  1  0  0  0
 55128  1  0  0  0
 56 69  2  0  0  0
 57 58  2  0  0  0
 57129  1  0  0  0
 58130  1  0  0  0
 59 60  1  0  0  0
 59 61  1  0  0  0
 59 62  1  0  0  0
 60131  1  0  0  0
 60132  1  0  0  0
 60133  1  0  0  0
 61134  1  0  0  0
 61135  1  0  0  0
 61136  1  0  0  0
 62137  1  0  0  0
 62138  1  0  0  0
 62139  1  0  0  0
 63 65  1  0  0  0
 63140  1  0  0  0
 63141  1  0  0  0
 63142  1  0  0  0
 64143  1  0  0  0
 65144  1  0  0  0
 68 82  1  0  0  0
 71 72  2  0  0  0
 71 74  1  0  0  0
 71145  1  0  0  0
 72 75  1  0  0  0
 72146  1  0  0  0
 73 74  2  0  0  0
 73 76  1  0  0  0
 73147  1  0  0  0
 74 81  1  0  0  0
 75 76  2  0  0  0
 75 83  1  0  0  0
 76 85  1  0  0  0
 77 78  1  0  0  0
 77 79  1  0  0  0
 77148  1  0  0  0
 77149  1  0  0  0
 78 80  1  0  0  0
 78150  1  0  0  0
 78151  1  0  0  0
 79 84  1  0  0  0
 79152  1  0  0  0
 79153  1  0  0  0
 80 82  1  0  0  0
 80 84  1  0  0  0
 80154  1  0  0  0
 81155  1  0  0  0
 81156  1  0  0  0
 81 84  1  0  0  0
 82157  1  0  0  0
 82158  1  0  0  0
 83159  1  0  0  0
 84160  1  0  0  0
M  CHG  1  84   1
M  ISO  4   1 100  68 101  82 101  83 100
M  END
> <chiral flag>
0

> <version>
0

> <s_m_source_file>
/data/baiqing/PycharmProjects/Reinvent-master-3.2/result/LINK_invent/BTK/process_docking_weight1_custom_product_contain_oxygen_bond_distance_aromatic_linkinvent_7_9_3/rearranged_h_0011.sdf

> <i_m_source_file_index>
75

> <r_mmod_Potential_Energy-OPLS-2005>
22.1129570007324

> <r_mmod_Stretch_Energy-OPLS-2005>
80.3119430541992

> <r_mmod_Bend_Energy-OPLS-2005>
163.003128051758

> <r_mmod_Torsional_Energy-OPLS-2005>
288.649932861328

> <r_mmod_Improper_Torsional_Energy-OPLS-2005>
4.53385353088379

> <r_mmod_Van_der_Waal_Energy-OPLS-2005>
137.763717651367

> <r_mmod_Electrostatic_Energy-OPLS-2005>
-263.133239746094

> <r_mmod_Solvation_Energy-OPLS-2005>
-433.199249267578

> <b_mmod_Minimization_Converged-OPLS-2005>
0

> <r_mmod_RMS_Derivative-OPLS-2005>
1.13686311244965

$$$$
75
                    3D
 Structure written by MMmdl.
157166  0  0  1  0            999 V2000
  -30.6586  -14.5414   20.5413 C   0  0  0  0  0  0
  -30.4317  -12.3429   19.4243 C   0  0  0  0  0  0
  -29.5065  -12.5182   18.2038 C   0  0  0  0  0  0
  -28.0223  -12.3854   18.6045 C   0  0  0  0  0  0
  -27.6620  -13.2093   19.8724 C   0  0  2  0  0  0
  -28.7080  -13.0153   20.9922 C   0  0  0  0  0  0
  -25.2624  -13.8187   20.5682 C   0  0  0  0  0  0
  -24.1856  -13.0432   20.9180 C   0  0  0  0  0  0
  -24.6419  -11.6935   20.8668 C   0  0  0  0  0  0
  -23.9057  -10.4321   21.0358 C   0  0  0  0  0  0
  -24.3604   -9.4249   21.9156 C   0  0  0  0  0  0
  -23.6284   -8.2277   22.0739 C   0  0  0  0  0  0
  -22.4275   -8.0289   21.3529 C   0  0  0  0  0  0
  -21.9896   -9.0255   20.4634 C   0  0  0  0  0  0
  -22.7217  -10.2146   20.3015 C   0  0  0  0  0  0
  -21.6878   -6.0735   22.5274 C   0  0  0  0  0  0
  -21.4064   -6.5642   23.8204 C   0  0  0  0  0  0
  -21.3675   -5.6789   24.9154 C   0  0  0  0  0  0
  -21.6017   -4.3045   24.7210 C   0  0  0  0  0  0
  -21.8827   -3.8146   23.4338 C   0  0  0  0  0  0
  -21.9209   -4.6961   22.3395 C   0  0  0  0  0  0
  -22.7882  -13.5255   21.1819 C   0  0  0  0  0  0
  -22.1682   -4.2144   21.0968 F   0  0  0  0  0  0
  -21.5603   -3.4536   25.7726 F   0  0  0  0  0  0
  -30.0198  -13.3461   20.4192 N   0  0  0  0  0  0
  -26.3049  -12.9331   20.3376 N   0  0  0  0  0  0
  -25.9339  -11.6501   20.5711 N   0  0  0  0  0  0
  -22.0534  -12.8214   22.0399 N   0  0  0  0  0  0
  -25.4394  -15.1869   20.4110 N   0  0  0  0  0  0
  -31.8283  -14.7031   20.1856 O   0  0  0  0  0  0
  -21.6653   -6.8877   21.4229 O   0  0  0  0  0  0
  -22.3577  -14.5568   20.6683 O   0  0  0  0  0  0
  -24.6142  -31.8693   23.2120 C   0  0  0  0  0  0
  -25.9044  -32.4781   23.8427 C   0  0  1  0  0  0
  -27.2563  -27.4256   20.1147 C   0  0  0  0  0  0
  -25.5865  -33.8575   24.2368 N   0  0  0  0  0  0
  -23.4084  -30.4953   21.5447 C   0  0  2  0  0  0
  -24.8559  -28.9430   20.1084 C   0  0  0  0  0  0
  -22.7387  -29.4894   22.5029 C   0  0  0  0  0  0
  -18.0268  -28.1402   22.8658 C   0  0  0  0  0  0
  -24.1442  -36.7284   23.2673 C   0  0  0  0  0  0
  -25.9307  -30.8141   21.3820 C   0  0  0  0  0  0
  -25.9991  -29.4473   20.7339 C   0  0  0  0  0  0
  -27.1921  -28.6919   20.7403 C   0  0  0  0  0  0
  -26.1069  -26.9556   19.4372 C   0  0  0  0  0  0
  -24.9064  -27.6967   19.4545 C   0  0  0  0  0  0
  -23.6065  -29.8012   20.1656 C   0  0  0  0  0  0
  -25.4072  -36.3109   24.0375 C   0  0  1  0  0  0
  -20.5895  -28.3849   23.1089 C   0  0  2  0  0  0
  -20.7024  -26.9848   22.4496 C   0  0  0  0  0  0
  -19.5474  -26.6799   21.4929 C   0  0  0  0  0  0
  -18.1840  -26.7969   22.1812 C   0  0  0  0  0  0
  -19.1540  -28.8898   23.2919 C   0  0  0  0  0  0
  -18.9547  -30.1529   23.8786 C   0  0  0  0  0  0
  -17.6596  -30.6777   24.0360 C   0  0  0  0  0  0
  -25.9022  -34.9466   23.5202 C   0  0  0  0  0  0
  -16.5410  -29.9263   23.6236 C   0  0  0  0  0  0
  -16.7253  -28.6551   23.0509 C   0  0  0  0  0  0
  -26.4495  -31.6480   25.0716 C   0  0  0  0  0  0
  -25.3797  -31.3507   26.1506 C   0  0  0  0  0  0
  -27.0310  -30.2905   24.6063 C   0  0  0  0  0  0
  -27.6082  -32.4220   25.7436 C   0  0  0  0  0  0
  -27.5556  -37.1787   24.8503 C   0  0  0  0  0  0
  -21.4096  -29.3563   22.3895 N   0  0  0  0  0  0
  -26.4282  -37.3766   23.9455 N   0  0  0  0  0  0
  -24.6692  -31.0768   22.1033 N   0  0  0  0  0  0
  -23.4185  -28.8318   23.2995 O   0  0  0  0  0  0
  -28.4529  -26.7361   20.2157 O   0  0  0  0  0  0
  -26.5630  -34.8934   22.4805 O   0  0  0  0  0  0
  -23.5337  -32.1494   23.7524 O   0  0  0  0  0  0
  -28.9253  -18.5854   20.6715 C   0  0  0  0  0  0
  -30.4022  -19.0527   22.5265 C   0  0  0  0  0  0
  -28.6182  -19.9766   20.5798 C   0  0  0  0  0  0
  -30.1022  -20.4295   22.4327 C   0  0  0  0  0  0
  -29.8350  -18.1016   21.6514 C   0  0  0  0  0  0
  -29.1761  -20.9277   21.4843 C   0  0  0  0  0  0
  -29.5723  -24.6597   20.7972 C   0  0  0  0  0  0
  -27.6888  -24.2318   20.1891 C   0  0  0  0  0  0
  -28.6437  -25.3669   19.7932 C   0  0  1  0  0  0
  -30.2165  -16.6108   21.8666 C   0  0  0  0  0  0
  -28.6636  -22.4003   21.6239 C   0  0  0  0  0  0
  -29.8806  -15.6121   20.8326 N   0  0  0  0  0  0
  -28.8656  -23.3972   20.5136 N   0  3  1  0  0  0
  -31.4769  -12.4565   19.1271 H   0  0  0  0  0  0
  -30.3475  -11.3346   19.8366 H   0  0  0  0  0  0
  -29.7597  -11.7992   17.4195 H   0  0  0  0  0  0
  -29.6739  -13.5063   17.7710 H   0  0  0  0  0  0
  -27.8101  -11.3279   18.7578 H   0  0  0  0  0  0
  -27.3914  -12.7026   17.7721 H   0  0  0  0  0  0
  -27.6941  -14.2601   19.5775 H   0  0  0  0  0  0
  -28.7100  -11.9865   21.3532 H   0  0  0  0  0  0
  -28.4762  -13.6394   21.8575 H   0  0  0  0  0  0
  -25.2754   -9.5743   22.4700 H   0  0  0  0  0  0
  -24.0001   -7.4692   22.7478 H   0  0  0  0  0  0
  -21.0807   -8.8762   19.8951 H   0  0  0  0  0  0
  -22.3667  -10.9641   19.6093 H   0  0  0  0  0  0
  -21.2113   -7.6160   23.9704 H   0  0  0  0  0  0
  -21.1468   -6.0524   25.9059 H   0  0  0  0  0  0
  -22.0594   -2.7605   23.2822 H   0  0  0  0  0  0
  -22.4183  -11.9859   22.4720 H   0  0  0  0  0  0
  -21.1161  -13.1239   22.2637 H   0  0  0  0  0  0
  -24.6810  -15.8499   20.5169 H   0  0  0  0  0  0
  -26.3039  -15.6221   20.1130 H   0  0  0  0  0  0
  -26.7121  -32.5484   23.1181 H   0  0  0  0  0  0
  -24.9781  -33.9672   25.0366 H   0  0  0  0  0  0
  -22.7062  -31.3187   21.3979 H   0  0  0  0  0  0
  -23.3688  -35.9610   23.3344 H   0  0  0  0  0  0
  -24.3561  -36.8885   22.2085 H   0  0  0  0  0  0
  -23.7199  -37.6506   23.6658 H   0  0  0  0  0  0
  -26.0764  -31.5632   20.6025 H   0  0  0  0  0  0
  -26.8107  -30.8548   22.0103 H   0  0  0  0  0  0
  -28.0708  -29.0684   21.2469 H   0  0  0  0  0  0
  -26.1294  -26.0315   18.8806 H   0  0  0  0  0  0
  -24.0356  -27.3236   18.9302 H   0  0  0  0  0  0
  -23.6925  -30.5550   19.3853 H   0  0  0  0  0  0
  -22.7267  -29.1987   19.9136 H   0  0  0  0  0  0
  -25.1226  -36.1960   25.0845 H   0  0  0  0  0  0
  -21.0072  -28.3153   24.1120 H   0  0  0  0  0  0
  -20.7312  -26.2159   23.2213 H   0  0  0  0  0  0
  -21.6448  -26.8724   21.9114 H   0  0  0  0  0  0
  -19.5950  -27.4057   20.6722 H   0  0  0  0  0  0
  -19.6581  -25.6827   21.0720 H   0  0  0  0  0  0
  -17.3952  -26.6747   21.4369 H   0  0  0  0  0  0
  -18.0433  -26.0053   22.9219 H   0  0  0  0  0  0
  -19.8137  -30.7351   24.1914 H   0  0  0  0  0  0
  -17.5214  -31.6666   24.4635 H   0  0  0  0  0  0
  -15.5420  -30.3263   23.7318 H   0  0  0  0  0  0
  -15.8657  -28.0711   22.7359 H   0  0  0  0  0  0
  -24.6020  -30.6790   25.7890 H   0  0  0  0  0  0
  -24.8923  -32.2564   26.5053 H   0  0  0  0  0  0
  -25.8219  -30.8660   27.0219 H   0  0  0  0  0  0
  -26.2860  -29.6734   24.1028 H   0  0  0  0  0  0
  -27.3994  -29.7056   25.4513 H   0  0  0  0  0  0
  -27.8743  -30.4214   23.9290 H   0  0  0  0  0  0
  -27.2713  -33.3552   26.1959 H   0  0  0  0  0  0
  -28.3842  -32.6731   25.0195 H   0  0  0  0  0  0
  -28.0770  -31.8377   26.5354 H   0  0  0  0  0  0
  -28.2629  -38.0038   24.7549 H   0  0  0  0  0  0
  -28.1002  -36.2594   24.6303 H   0  0  0  0  0  0
  -27.2312  -37.1432   25.8923 H   0  0  0  0  0  0
  -20.9355  -29.9692   21.7415 H   0  0  0  0  0  0
  -26.0162  -38.2854   24.1409 H   0  0  0  0  0  0
  -28.4206  -17.8900   20.0087 H   0  0  0  0  0  0
  -31.0653  -18.7216   23.3163 H   0  0  0  0  0  0
  -27.8914  -20.3021   19.8437 H   0  0  0  0  0  0
  -30.5508  -21.0991   23.1539 H   0  0  0  0  0  0
  -29.4371  -25.0227   21.8200 H   0  0  0  0  0  0
  -30.6211  -24.6939   20.5104 H   0  0  0  0  0  0
  -27.0976  -23.8394   19.3644 H   0  0  0  0  0  0
  -27.0722  -24.4844   21.0585 H   0  0  0  0  0  0
  -29.0206  -25.2800   18.7696 H   0  0  0  0  0  0
  -29.7541  -16.2844   22.7999 H   0  0  0  0  0  0
  -31.2907  -16.5673   22.0645 H   0  0  0  0  0  0
  -29.0945  -22.8165   22.5327 H   0  0  0  0  0  0
  -27.5960  -22.3234   21.8371 H   0  0  0  0  0  0
  -29.4735  -16.0166   19.9962 H   0  0  0  0  0  0
  -29.2595  -22.9824   19.6838 H   0  0  0  0  0  0
  1 25  1  0  0  0
  1 30  2  0  0  0
  1 82  1  0  0  0
  2  3  1  0  0  0
  2 25  1  0  0  0
  2 84  1  0  0  0
  2 85  1  0  0  0
  3  4  1  0  0  0
  3 86  1  0  0  0
  3 87  1  0  0  0
  4  5  1  0  0  0
  4 88  1  0  0  0
  4 89  1  0  0  0
  5  6  1  0  0  0
  5 26  1  0  0  0
  5 90  1  0  0  0
  6 25  1  0  0  0
  6 91  1  0  0  0
  6 92  1  0  0  0
  7  8  2  0  0  0
  7 26  1  0  0  0
  7 29  1  0  0  0
  8  9  1  0  0  0
  8 22  1  0  0  0
  9 10  1  0  0  0
  9 27  2  0  0  0
 10 11  2  0  0  0
 10 15  1  0  0  0
 11 12  1  0  0  0
 11 93  1  0  0  0
 12 13  2  0  0  0
 12 94  1  0  0  0
 13 14  1  0  0  0
 13 31  1  0  0  0
 14 15  2  0  0  0
 14 95  1  0  0  0
 15 96  1  0  0  0
 16 17  2  0  0  0
 16 21  1  0  0  0
 16 31  1  0  0  0
 17 18  1  0  0  0
 17 97  1  0  0  0
 18 19  2  0  0  0
 18 98  1  0  0  0
 19 20  1  0  0  0
 19 24  1  0  0  0
 20 21  2  0  0  0
 20 99  1  0  0  0
 21 23  1  0  0  0
 22 28  1  0  0  0
 22 32  2  0  0  0
 26 27  1  0  0  0
 28100  1  0  0  0
 28101  1  0  0  0
 29102  1  0  0  0
 29103  1  0  0  0
 33 34  1  0  0  0
 33 66  1  0  0  0
 33 70  2  0  0  0
 34 36  1  0  0  0
 34 59  1  0  0  0
 34104  1  0  0  0
 35 44  2  0  0  0
 35 45  1  0  0  0
 35 68  1  0  0  0
 36 56  1  0  0  0
 36105  1  0  0  0
 37 39  1  0  0  0
 37 47  1  0  0  0
 37 66  1  0  0  0
 37106  1  0  0  0
 38 43  2  0  0  0
 38 46  1  0  0  0
 38 47  1  0  0  0
 39 64  1  0  0  0
 39 67  2  0  0  0
 40 52  1  0  0  0
 40 53  2  0  0  0
 40 58  1  0  0  0
 41107  1  0  0  0
 41108  1  0  0  0
 41109  1  0  0  0
 41 48  1  0  0  0
 42 43  1  0  0  0
 42 66  1  0  0  0
 42110  1  0  0  0
 42111  1  0  0  0
 43 44  1  0  0  0
 44112  1  0  0  0
 45 46  2  0  0  0
 45113  1  0  0  0
 46114  1  0  0  0
 47115  1  0  0  0
 47116  1  0  0  0
 48 56  1  0  0  0
 48 65  1  0  0  0
 48117  1  0  0  0
 49 50  1  0  0  0
 49 53  1  0  0  0
 49 64  1  0  0  0
 49118  1  0  0  0
 50 51  1  0  0  0
 50119  1  0  0  0
 50120  1  0  0  0
 51 52  1  0  0  0
 51121  1  0  0  0
 51122  1  0  0  0
 52123  1  0  0  0
 52124  1  0  0  0
 53 54  1  0  0  0
 54 55  2  0  0  0
 54125  1  0  0  0
 55 57  1  0  0  0
 55126  1  0  0  0
 56 69  2  0  0  0
 57 58  2  0  0  0
 57127  1  0  0  0
 58128  1  0  0  0
 59 60  1  0  0  0
 59 61  1  0  0  0
 59 62  1  0  0  0
 60129  1  0  0  0
 60130  1  0  0  0
 60131  1  0  0  0
 61132  1  0  0  0
 61133  1  0  0  0
 61134  1  0  0  0
 62135  1  0  0  0
 62136  1  0  0  0
 62137  1  0  0  0
 63 65  1  0  0  0
 63138  1  0  0  0
 63139  1  0  0  0
 63140  1  0  0  0
 64141  1  0  0  0
 65142  1  0  0  0
 68 79  1  0  0  0
 71 73  2  0  0  0
 71 75  1  0  0  0
 71143  1  0  0  0
 72 74  1  0  0  0
 72 75  2  0  0  0
 72144  1  0  0  0
 73 76  1  0  0  0
 73145  1  0  0  0
 74 76  2  0  0  0
 74146  1  0  0  0
 75 80  1  0  0  0
 76 81  1  0  0  0
 77 79  1  0  0  0
 77 83  1  0  0  0
 77147  1  0  0  0
 77148  1  0  0  0
 78 79  1  0  0  0
 78 83  1  0  0  0
 78149  1  0  0  0
 78150  1  0  0  0
 79151  1  0  0  0
 80 82  1  0  0  0
 80152  1  0  0  0
 80153  1  0  0  0
 81154  1  0  0  0
 81155  1  0  0  0
 81 83  1  0  0  0
 82156  1  0  0  0
 83157  1  0  0  0
M  CHG  1  83   1
M  ISO  4   1 100  68 101  79 101  82 100
M  END
> <chiral flag>
0

> <version>
0

> <s_m_source_file>
/data/baiqing/PycharmProjects/Reinvent-master-3.2/result/LINK_invent/BTK/process_docking_weight1_custom_product_contain_oxygen_bond_distance_aromatic_linkinvent_7_9_3/rearranged_h_0011.sdf

> <i_m_source_file_index>
76

> <r_mmod_Potential_Energy-OPLS-2005>
-157.4453125

> <r_mmod_Stretch_Energy-OPLS-2005>
49.3171539306641

> <r_mmod_Bend_Energy-OPLS-2005>
161.176452636719

> <r_mmod_Torsional_Energy-OPLS-2005>
280.831329345703

> <r_mmod_Improper_Torsional_Energy-OPLS-2005>
10.1127271652222

> <r_mmod_Van_der_Waal_Energy-OPLS-2005>
145.885589599609

> <r_mmod_Electrostatic_Energy-OPLS-2005>
-359.329193115234

> <r_mmod_Solvation_Energy-OPLS-2005>
-471.342193603516

> <b_mmod_Minimization_Converged-OPLS-2005>
0

> <r_mmod_RMS_Derivative-OPLS-2005>
9.36610412597656

$$$$
76
                    3D
 Structure written by MMmdl.
154162  0  0  1  0            999 V2000
  -30.6599  -14.6486   20.5828 C   0  0  0  0  0  0
  -30.4308  -12.4218   19.4622 C   0  0  0  0  0  0
  -29.5077  -12.5261   18.2288 C   0  0  0  0  0  0
  -28.0317  -12.3493   18.6336 C   0  0  0  0  0  0
  -27.6488  -13.2212   19.8571 C   0  0  2  0  0  0
  -28.6835  -13.0792   20.9895 C   0  0  0  0  0  0
  -25.2544  -13.8185   20.5675 C   0  0  0  0  0  0
  -24.1817  -13.0440   20.9174 C   0  0  0  0  0  0
  -24.6391  -11.6912   20.8719 C   0  0  0  0  0  0
  -23.9064  -10.4295   21.0399 C   0  0  0  0  0  0
  -24.3617   -9.4211   21.9177 C   0  0  0  0  0  0
  -23.6292   -8.2247   22.0752 C   0  0  0  0  0  0
  -22.4273   -8.0283   21.3545 C   0  0  0  0  0  0
  -21.9907   -9.0255   20.4647 C   0  0  0  0  0  0
  -22.7235  -10.2134   20.3052 C   0  0  0  0  0  0
  -21.6854   -6.0738   22.5280 C   0  0  0  0  0  0
  -21.4016   -6.5643   23.8213 C   0  0  0  0  0  0
  -21.3657   -5.6794   24.9175 C   0  0  0  0  0  0
  -21.6042   -4.3056   24.7226 C   0  0  0  0  0  0
  -21.8817   -3.8148   23.4347 C   0  0  0  0  0  0
  -21.9194   -4.6966   22.3404 C   0  0  0  0  0  0
  -22.7843  -13.5231   21.1854 C   0  0  0  0  0  0
  -22.1660   -4.2151   21.0981 F   0  0  0  0  0  0
  -21.5624   -3.4540   25.7738 F   0  0  0  0  0  0
  -30.0042  -13.4425   20.4476 N   0  0  0  0  0  0
  -26.2957  -12.9369   20.3260 N   0  0  0  0  0  0
  -25.9314  -11.6518   20.5710 N   0  0  0  0  0  0
  -22.0498  -12.8220   22.0418 N   0  0  0  0  0  0
  -25.4282  -15.1910   20.4146 N   0  0  0  0  0  0
  -31.7612  -14.8176   20.0489 O   0  0  0  0  0  0
  -21.6639   -6.8879   21.4241 O   0  0  0  0  0  0
  -22.3525  -14.5540   20.6710 O   0  0  0  0  0  0
  -24.6266  -31.8587   23.2009 C   0  0  0  0  0  0
  -25.9109  -32.4772   23.8346 C   0  0  1  0  0  0
  -27.2231  -27.3123   20.1278 C   0  0  0  0  0  0
  -25.5922  -33.8573   24.2276 N   0  0  0  0  0  0
  -23.4209  -30.4808   21.5436 C   0  0  2  0  0  0
  -24.8684  -28.9308   20.1135 C   0  0  0  0  0  0
  -22.7480  -29.4617   22.4937 C   0  0  0  0  0  0
  -18.0298  -28.1376   22.8485 C   0  0  0  0  0  0
  -24.1490  -36.7292   23.2639 C   0  0  0  0  0  0
  -25.9616  -30.7889   21.3709 C   0  0  0  0  0  0
  -26.0373  -29.4139   20.7168 C   0  0  0  0  0  0
  -27.2209  -28.6172   20.7101 C   0  0  0  0  0  0
  -26.0364  -26.8814   19.4987 C   0  0  0  0  0  0
  -24.8696  -27.6701   19.4945 C   0  0  0  0  0  0
  -23.6366  -29.8120   20.1602 C   0  0  0  0  0  0
  -25.4113  -36.3080   24.0329 C   0  0  1  0  0  0
  -20.5896  -28.3686   23.1289 C   0  0  2  0  0  0
  -20.6795  -26.9411   22.5405 C   0  0  0  0  0  0
  -19.5776  -26.6395   21.5199 C   0  0  0  0  0  0
  -18.1953  -26.7923   22.1614 C   0  0  0  0  0  0
  -19.1546  -28.8846   23.2884 C   0  0  0  0  0  0
  -18.9464  -30.1446   23.8907 C   0  0  0  0  0  0
  -17.6462  -30.6574   24.0567 C   0  0  0  0  0  0
  -25.9049  -34.9449   23.5103 C   0  0  0  0  0  0
  -16.5357  -29.9069   23.6326 C   0  0  0  0  0  0
  -16.7284  -28.6488   23.0348 C   0  0  0  0  0  0
  -26.4497  -31.6579   25.0717 C   0  0  0  0  0  0
  -25.3733  -31.3713   26.1444 C   0  0  0  0  0  0
  -27.0341  -30.3005   24.6165 C   0  0  0  0  0  0
  -27.6055  -32.4312   25.7492 C   0  0  0  0  0  0
  -27.5577  -37.1803   24.8466 C   0  0  0  0  0  0
  -21.4191  -29.3052   22.3690 N   0  0  0  0  0  0
  -26.4292  -37.3774   23.9408 N   0  0  0  0  0  0
  -24.6885  -31.0596   22.0957 N   0  0  0  0  0  0
  -23.4206  -28.8151   23.3011 O   0  0  0  0  0  0
  -28.3350  -26.4585   20.1395 O   0  0  0  0  0  0
  -26.5621  -34.8918   22.4671 O   0  0  0  0  0  0
  -23.5427  -32.1383   23.7338 O   0  0  0  0  0  0
  -29.3297  -18.0700   21.7810 C   0  0  0  0  0  0
  -29.1452  -19.4465   21.4405 C   0  0  0  0  0  0
  -30.1488  -17.5974   19.5842 C   0  0  0  0  0  0
  -29.8542  -17.0866   20.8791 C   0  0  0  0  0  0
  -29.4737  -19.9495   20.1570 C   0  0  0  0  0  0
  -29.9715  -18.9759   19.2418 C   0  0  0  0  0  0
  -30.0015  -15.4271   22.7546 C   0  0  0  0  0  0
  -28.8556  -23.8437   19.8991 C   0  0  0  0  0  0
  -28.1444  -25.0696   20.6364 C   0  0  0  0  0  0
  -28.7725  -22.3772   20.5477 C   0  0  0  0  0  0
  -30.0602  -15.6719   21.3028 N   0  0  0  0  0  0
  -29.3578  -21.2992   19.7382 O   0  0  0  0  0  0
  -30.2946  -19.3743   17.9874 F   0  0  0  0  0  0
  -31.4730  -12.5427   19.1625 H   0  0  0  0  0  0
  -30.3677  -11.4259   19.9034 H   0  0  0  0  0  0
  -29.7847  -11.7767   17.4863 H   0  0  0  0  0  0
  -29.6429  -13.4971   17.7498 H   0  0  0  0  0  0
  -27.8774  -11.2957   18.8691 H   0  0  0  0  0  0
  -27.3772  -12.5714   17.7901 H   0  0  0  0  0  0
  -27.6688  -14.2585   19.5208 H   0  0  0  0  0  0
  -28.7020  -12.0566   21.3686 H   0  0  0  0  0  0
  -28.3770  -13.6951   21.8311 H   0  0  0  0  0  0
  -25.2765   -9.5689   22.4746 H   0  0  0  0  0  0
  -24.0003   -7.4643   22.7474 H   0  0  0  0  0  0
  -21.0834   -8.8773   19.8959 H   0  0  0  0  0  0
  -22.3691  -10.9669   19.6159 H   0  0  0  0  0  0
  -21.2010   -7.6151   23.9718 H   0  0  0  0  0  0
  -21.1480   -6.0525   25.9078 H   0  0  0  0  0  0
  -22.0599   -2.7611   23.2847 H   0  0  0  0  0  0
  -22.4122  -11.9874   22.4787 H   0  0  0  0  0  0
  -21.1124  -13.1252   22.2651 H   0  0  0  0  0  0
  -24.6697  -15.8516   20.5439 H   0  0  0  0  0  0
  -26.2938  -15.6318   20.1298 H   0  0  0  0  0  0
  -26.7177  -32.5449   23.1096 H   0  0  0  0  0  0
  -25.0079  -33.9718   25.0427 H   0  0  0  0  0  0
  -22.7151  -31.3012   21.3986 H   0  0  0  0  0  0
  -23.3749  -35.9628   23.3304 H   0  0  0  0  0  0
  -24.3582  -36.8910   22.2053 H   0  0  0  0  0  0
  -23.7247  -37.6498   23.6658 H   0  0  0  0  0  0
  -26.0901  -31.5500   20.6001 H   0  0  0  0  0  0
  -26.8428  -30.8418   21.9986 H   0  0  0  0  0  0
  -28.1203  -28.9846   21.1842 H   0  0  0  0  0  0
  -26.0053  -25.9163   19.0134 H   0  0  0  0  0  0
  -23.9744  -27.2960   19.0166 H   0  0  0  0  0  0
  -23.7566  -30.5867   19.4022 H   0  0  0  0  0  0
  -22.7565  -29.2417   19.8583 H   0  0  0  0  0  0
  -25.1291  -36.1933   25.0822 H   0  0  0  0  0  0
  -20.9987  -28.3261   24.1411 H   0  0  0  0  0  0
  -20.5696  -26.2293   23.3602 H   0  0  0  0  0  0
  -21.6668  -26.7452   22.1201 H   0  0  0  0  0  0
  -19.6947  -25.6318   21.1205 H   0  0  0  0  0  0
  -19.6715  -27.3227   20.6744 H   0  0  0  0  0  0
  -17.4228  -26.6671   21.4009 H   0  0  0  0  0  0
  -18.0357  -26.0054   22.9001 H   0  0  0  0  0  0
  -19.7935  -30.7259   24.2294 H   0  0  0  0  0  0
  -17.5008  -31.6252   24.5170 H   0  0  0  0  0  0
  -15.5354  -30.2965   23.7643 H   0  0  0  0  0  0
  -15.8690  -28.0801   22.7061 H   0  0  0  0  0  0
  -24.5909  -30.7058   25.7777 H   0  0  0  0  0  0
  -24.8920  -32.2878   26.4869 H   0  0  0  0  0  0
  -25.8061  -30.8896   27.0221 H   0  0  0  0  0  0
  -26.2915  -29.6760   24.1187 H   0  0  0  0  0  0
  -27.4045  -29.7257   25.4664 H   0  0  0  0  0  0
  -27.8780  -30.4300   23.9384 H   0  0  0  0  0  0
  -27.2662  -33.3608   26.2075 H   0  0  0  0  0  0
  -28.3866  -32.6879   25.0323 H   0  0  0  0  0  0
  -28.0724  -31.8434   26.5406 H   0  0  0  0  0  0
  -28.2598  -38.0096   24.7502 H   0  0  0  0  0  0
  -28.1069  -36.2627   24.6301 H   0  0  0  0  0  0
  -27.2297  -37.1463   25.8870 H   0  0  0  0  0  0
  -20.9363  -29.8794   21.6920 H   0  0  0  0  0  0
  -26.0173  -38.2851   24.1400 H   0  0  0  0  0  0
  -29.0539  -17.7933   22.7876 H   0  0  0  0  0  0
  -28.7540  -20.1154   22.1930 H   0  0  0  0  0  0
  -30.5396  -16.9382   18.8233 H   0  0  0  0  0  0
  -28.9843  -15.5525   23.1276 H   0  0  0  0  0  0
  -30.6504  -16.1250   23.2852 H   0  0  0  0  0  0
  -30.3270  -14.4263   23.0477 H   0  0  0  0  0  0
  -29.9097  -24.0914   19.7739 H   0  0  0  0  0  0
  -28.4499  -23.7876   18.8888 H   0  0  0  0  0  0
  -28.5045  -25.0801   21.6655 H   0  0  0  0  0  0
  -27.0847  -24.8310   20.7272 H   0  0  0  0  0  0
  -27.7266  -22.1290   20.7320 H   0  0  0  0  0  0
  -29.2623  -22.3936   21.5216 H   0  0  0  0  0  0
  1 25  1  0  0  0
  1 30  2  0  0  0
  1 81  1  0  0  0
  2  3  1  0  0  0
  2 25  1  0  0  0
  2 84  1  0  0  0
  2 85  1  0  0  0
  3  4  1  0  0  0
  3 86  1  0  0  0
  3 87  1  0  0  0
  4  5  1  0  0  0
  4 88  1  0  0  0
  4 89  1  0  0  0
  5  6  1  0  0  0
  5 26  1  0  0  0
  5 90  1  0  0  0
  6 25  1  0  0  0
  6 91  1  0  0  0
  6 92  1  0  0  0
  7  8  2  0  0  0
  7 26  1  0  0  0
  7 29  1  0  0  0
  8  9  1  0  0  0
  8 22  1  0  0  0
  9 10  1  0  0  0
  9 27  2  0  0  0
 10 11  2  0  0  0
 10 15  1  0  0  0
 11 12  1  0  0  0
 11 93  1  0  0  0
 12 13  2  0  0  0
 12 94  1  0  0  0
 13 14  1  0  0  0
 13 31  1  0  0  0
 14 15  2  0  0  0
 14 95  1  0  0  0
 15 96  1  0  0  0
 16 17  2  0  0  0
 16 21  1  0  0  0
 16 31  1  0  0  0
 17 18  1  0  0  0
 17 97  1  0  0  0
 18 19  2  0  0  0
 18 98  1  0  0  0
 19 20  1  0  0  0
 19 24  1  0  0  0
 20 21  2  0  0  0
 20 99  1  0  0  0
 21 23  1  0  0  0
 22 28  1  0  0  0
 22 32  2  0  0  0
 26 27  1  0  0  0
 28100  1  0  0  0
 28101  1  0  0  0
 29102  1  0  0  0
 29103  1  0  0  0
 33 34  1  0  0  0
 33 66  1  0  0  0
 33 70  2  0  0  0
 34 36  1  0  0  0
 34 59  1  0  0  0
 34104  1  0  0  0
 35 44  2  0  0  0
 35 45  1  0  0  0
 35 68  1  0  0  0
 36 56  1  0  0  0
 36105  1  0  0  0
 37 39  1  0  0  0
 37 47  1  0  0  0
 37 66  1  0  0  0
 37106  1  0  0  0
 38 43  2  0  0  0
 38 46  1  0  0  0
 38 47  1  0  0  0
 39 64  1  0  0  0
 39 67  2  0  0  0
 40 52  1  0  0  0
 40 53  2  0  0  0
 40 58  1  0  0  0
 41107  1  0  0  0
 41108  1  0  0  0
 41109  1  0  0  0
 41 48  1  0  0  0
 42 43  1  0  0  0
 42 66  1  0  0  0
 42110  1  0  0  0
 42111  1  0  0  0
 43 44  1  0  0  0
 44112  1  0  0  0
 45 46  2  0  0  0
 45113  1  0  0  0
 46114  1  0  0  0
 47115  1  0  0  0
 47116  1  0  0  0
 48 56  1  0  0  0
 48 65  1  0  0  0
 48117  1  0  0  0
 49 50  1  0  0  0
 49 53  1  0  0  0
 49 64  1  0  0  0
 49118  1  0  0  0
 50 51  1  0  0  0
 50119  1  0  0  0
 50120  1  0  0  0
 51 52  1  0  0  0
 51121  1  0  0  0
 51122  1  0  0  0
 52123  1  0  0  0
 52124  1  0  0  0
 53 54  1  0  0  0
 54 55  2  0  0  0
 54125  1  0  0  0
 55 57  1  0  0  0
 55126  1  0  0  0
 56 69  2  0  0  0
 57 58  2  0  0  0
 57127  1  0  0  0
 58128  1  0  0  0
 59 60  1  0  0  0
 59 61  1  0  0  0
 59 62  1  0  0  0
 60129  1  0  0  0
 60130  1  0  0  0
 60131  1  0  0  0
 61132  1  0  0  0
 61133  1  0  0  0
 61134  1  0  0  0
 62135  1  0  0  0
 62136  1  0  0  0
 62137  1  0  0  0
 63 65  1  0  0  0
 63138  1  0  0  0
 63139  1  0  0  0
 63140  1  0  0  0
 64141  1  0  0  0
 65142  1  0  0  0
 68 79  1  0  0  0
 71 72  2  0  0  0
 71 74  1  0  0  0
 71143  1  0  0  0
 72 75  1  0  0  0
 72144  1  0  0  0
 73 74  2  0  0  0
 73 76  1  0  0  0
 73145  1  0  0  0
 74 81  1  0  0  0
 75 76  2  0  0  0
 75 82  1  0  0  0
 76 83  1  0  0  0
 77 81  1  0  0  0
 77146  1  0  0  0
 77147  1  0  0  0
 77148  1  0  0  0
 78 79  1  0  0  0
 78 80  1  0  0  0
 78149  1  0  0  0
 78150  1  0  0  0
 79151  1  0  0  0
 79152  1  0  0  0
 80 82  1  0  0  0
 80153  1  0  0  0
 80154  1  0  0  0
M  ISO  4   1 100  68 101  79 101  81 100
M  END
> <chiral flag>
0

> <version>
0

> <s_m_source_file>
/data/baiqing/PycharmProjects/Reinvent-master-3.2/result/LINK_invent/BTK/process_docking_weight1_custom_product_contain_oxygen_bond_distance_aromatic_linkinvent_7_9_3/rearranged_h_0011.sdf

> <i_m_source_file_index>
77

> <r_mmod_Potential_Energy-OPLS-2005>
257.405517578125

> <r_mmod_Stretch_Energy-OPLS-2005>
95.6894149780273

> <r_mmod_Bend_Energy-OPLS-2005>
154.103591918945

> <r_mmod_Torsional_Energy-OPLS-2005>
282.838745117188

> <r_mmod_Improper_Torsional_Energy-OPLS-2005>
2.56682324409485

> <r_mmod_Van_der_Waal_Energy-OPLS-2005>
149.994567871094

> <r_mmod_Electrostatic_Energy-OPLS-2005>
-282.324340820312

> <r_mmod_Solvation_Energy-OPLS-2005>
-194.920669555664

> <b_mmod_Minimization_Converged-OPLS-2005>
0

> <r_mmod_RMS_Derivative-OPLS-2005>
0.661779165267944

$$$$
77
                    3D
 Structure written by MMmdl.
153162  0  0  1  0            999 V2000
  -30.5041  -14.9487   20.4277 C   0  0  0  0  0  0
  -30.4546  -12.5902   19.4880 C   0  0  0  0  0  0
  -29.5250  -12.5287   18.2517 C   0  0  0  0  0  0
  -28.0582  -12.3085   18.6739 C   0  0  0  0  0  0
  -27.6339  -13.2393   19.8399 C   0  0  2  0  0  0
  -28.6783  -13.2464   20.9767 C   0  0  0  0  0  0
  -25.2496  -13.8204   20.5718 C   0  0  0  0  0  0
  -24.1801  -13.0435   20.9234 C   0  0  0  0  0  0
  -24.6400  -11.6915   20.8762 C   0  0  0  0  0  0
  -23.9078  -10.4289   21.0417 C   0  0  0  0  0  0
  -24.3627   -9.4204   21.9189 C   0  0  0  0  0  0
  -23.6299   -8.2241   22.0758 C   0  0  0  0  0  0
  -22.4280   -8.0284   21.3547 C   0  0  0  0  0  0
  -21.9918   -9.0258   20.4646 C   0  0  0  0  0  0
  -22.7253  -10.2133   20.3058 C   0  0  0  0  0  0
  -21.6852   -6.0742   22.5281 C   0  0  0  0  0  0
  -21.4013   -6.5643   23.8215 C   0  0  0  0  0  0
  -21.3659   -5.6793   24.9174 C   0  0  0  0  0  0
  -21.6043   -4.3057   24.7221 C   0  0  0  0  0  0
  -21.8819   -3.8149   23.4342 C   0  0  0  0  0  0
  -21.9192   -4.6969   22.3402 C   0  0  0  0  0  0
  -22.7816  -13.5211   21.1889 C   0  0  0  0  0  0
  -22.1658   -4.2157   21.0981 F   0  0  0  0  0  0
  -21.5629   -3.4539   25.7733 F   0  0  0  0  0  0
  -29.9540  -13.6702   20.3818 N   0  0  0  0  0  0
  -26.2908  -12.9410   20.3238 N   0  0  0  0  0  0
  -25.9330  -11.6549   20.5738 N   0  0  0  0  0  0
  -22.0458  -12.8197   22.0434 N   0  0  0  0  0  0
  -25.4149  -15.1943   20.4162 N   0  0  0  0  0  0
  -31.7096  -15.0666   20.1789 O   0  0  0  0  0  0
  -21.6640   -6.8886   21.4242 O   0  0  0  0  0  0
  -22.3499  -14.5522   20.6739 O   0  0  0  0  0  0
  -24.6432  -31.8427   23.1850 C   0  0  0  0  0  0
  -25.9197  -32.4697   23.8249 C   0  0  1  0  0  0
  -27.2259  -27.1367   20.1660 C   0  0  0  0  0  0
  -25.5945  -33.8500   24.2180 N   0  0  0  0  0  0
  -23.4479  -30.4591   21.5304 C   0  0  2  0  0  0
  -24.8984  -28.8748   20.1182 C   0  0  0  0  0  0
  -22.7566  -29.4542   22.4858 C   0  0  0  0  0  0
  -18.0300  -28.1404   22.8483 C   0  0  0  0  0  0
  -24.1480  -36.7244   23.2642 C   0  0  0  0  0  0
  -26.0014  -30.7197   21.3784 C   0  0  0  0  0  0
  -26.0754  -29.3263   20.7290 C   0  0  0  0  0  0
  -27.2427  -28.4757   20.7276 C   0  0  0  0  0  0
  -26.0215  -26.7733   19.5305 C   0  0  0  0  0  0
  -24.8829  -27.6117   19.5033 C   0  0  0  0  0  0
  -23.6752  -29.7783   20.1534 C   0  0  0  0  0  0
  -25.4111  -36.3028   24.0319 C   0  0  1  0  0  0
  -20.5915  -28.3722   23.1240 C   0  0  2  0  0  0
  -20.6783  -26.9425   22.5405 C   0  0  0  0  0  0
  -19.5754  -26.6387   21.5216 C   0  0  0  0  0  0
  -18.1935  -26.7946   22.1625 C   0  0  0  0  0  0
  -19.1558  -28.8879   23.2857 C   0  0  0  0  0  0
  -18.9481  -30.1477   23.8882 C   0  0  0  0  0  0
  -17.6479  -30.6603   24.0566 C   0  0  0  0  0  0
  -25.9068  -34.9410   23.5059 C   0  0  0  0  0  0
  -16.5367  -29.9101   23.6342 C   0  0  0  0  0  0
  -16.7285  -28.6518   23.0363 C   0  0  0  0  0  0
  -26.4524  -31.6563   25.0689 C   0  0  0  0  0  0
  -25.3722  -31.3760   26.1398 C   0  0  0  0  0  0
  -27.0376  -30.2964   24.6237 C   0  0  0  0  0  0
  -27.6060  -32.4319   25.7476 C   0  0  0  0  0  0
  -27.5572  -37.1764   24.8460 C   0  0  0  0  0  0
  -21.4258  -29.3055   22.3613 N   0  0  0  0  0  0
  -26.4267  -37.3751   23.9432 N   0  0  0  0  0  0
  -24.7178  -31.0284   22.0876 N   0  0  0  0  0  0
  -23.4207  -28.8095   23.3016 O   0  0  0  0  0  0
  -28.3080  -26.1877   20.1615 O   0  0  0  0  0  0
  -26.5656  -34.8913   22.4638 O   0  0  0  0  0  0
  -23.5550  -32.1284   23.7075 O   0  0  0  0  0  0
  -30.2724  -19.9540   21.1842 C   0  0  0  0  0  0
  -30.4759  -18.5089   21.1566 C   0  0  0  0  0  0
  -28.4171  -19.7578   19.7614 C   0  0  0  0  0  0
  -29.2301  -20.6841   20.4977 C   0  0  0  0  0  0
  -29.6301  -17.5898   20.4517 C   0  0  0  0  0  0
  -28.5875  -18.3078   19.7625 C   0  0  0  0  0  0
  -29.2036  -24.3813   21.6978 C   0  0  0  0  0  0
  -29.2786  -22.8317   21.9033 C   0  0  0  0  0  0
  -28.4313  -23.2906   19.7547 C   0  0  0  0  0  0
  -28.1731  -24.6957   20.5955 C   0  0  2  0  0  0
  -29.0260  -22.1660   20.6225 N   0  0  0  0  0  0
  -29.6201  -16.0545   20.5264 N   0  0  0  0  0  0
  -27.6779  -17.5666   19.0837 F   0  0  0  0  0  0
  -31.4824  -12.7750   19.1718 H   0  0  0  0  0  0
  -30.4699  -11.6337   20.0126 H   0  0  0  0  0  0
  -29.8448  -11.7327   17.5778 H   0  0  0  0  0  0
  -29.6054  -13.4584   17.6865 H   0  0  0  0  0  0
  -27.9592  -11.2672   18.9830 H   0  0  0  0  0  0
  -27.3916  -12.4364   17.8201 H   0  0  0  0  0  0
  -27.6001  -14.2432   19.4162 H   0  0  0  0  0  0
  -28.7685  -12.2610   21.4366 H   0  0  0  0  0  0
  -28.3779  -13.9302   21.7728 H   0  0  0  0  0  0
  -25.2775   -9.5681   22.4761 H   0  0  0  0  0  0
  -24.0007   -7.4633   22.7479 H   0  0  0  0  0  0
  -21.0850   -8.8780   19.8949 H   0  0  0  0  0  0
  -22.3720  -10.9673   19.6164 H   0  0  0  0  0  0
  -21.2003   -7.6151   23.9722 H   0  0  0  0  0  0
  -21.1480   -6.0521   25.9079 H   0  0  0  0  0  0
  -22.0599   -2.7611   23.2838 H   0  0  0  0  0  0
  -22.4066  -11.9845   22.4809 H   0  0  0  0  0  0
  -21.1074  -13.1221   22.2641 H   0  0  0  0  0  0
  -24.6406  -15.8370   20.5432 H   0  0  0  0  0  0
  -26.2372  -15.6466   20.0374 H   0  0  0  0  0  0
  -26.7264  -32.5309   23.0978 H   0  0  0  0  0  0
  -25.0088  -33.9609   25.0330 H   0  0  0  0  0  0
  -22.7514  -31.2845   21.3702 H   0  0  0  0  0  0
  -23.3760  -35.9558   23.3274 H   0  0  0  0  0  0
  -24.3570  -36.8896   22.2061 H   0  0  0  0  0  0
  -23.7203  -37.6424   23.6686 H   0  0  0  0  0  0
  -26.1457  -31.4684   20.5980 H   0  0  0  0  0  0
  -26.8771  -30.7813   22.0130 H   0  0  0  0  0  0
  -28.1477  -28.8247   21.2046 H   0  0  0  0  0  0
  -25.9524  -25.8025   19.0594 H   0  0  0  0  0  0
  -23.9827  -27.2592   19.0189 H   0  0  0  0  0  0
  -23.8138  -30.5472   19.3925 H   0  0  0  0  0  0
  -22.7910  -29.2178   19.8442 H   0  0  0  0  0  0
  -25.1292  -36.1846   25.0810 H   0  0  0  0  0  0
  -21.0006  -28.3305   24.1361 H   0  0  0  0  0  0
  -20.5671  -26.2338   23.3626 H   0  0  0  0  0  0
  -21.6647  -26.7426   22.1200 H   0  0  0  0  0  0
  -19.6915  -25.6295   21.1250 H   0  0  0  0  0  0
  -19.6694  -27.3197   20.6747 H   0  0  0  0  0  0
  -17.4205  -26.6696   21.4028 H   0  0  0  0  0  0
  -18.0329  -26.0097   22.9026 H   0  0  0  0  0  0
  -19.7960  -30.7299   24.2240 H   0  0  0  0  0  0
  -17.5038  -31.6284   24.5167 H   0  0  0  0  0  0
  -15.5369  -30.3004   23.7684 H   0  0  0  0  0  0
  -15.8680  -28.0836   22.7093 H   0  0  0  0  0  0
  -24.5904  -30.7097   25.7730 H   0  0  0  0  0  0
  -24.8917  -32.2953   26.4757 H   0  0  0  0  0  0
  -25.8021  -30.8982   27.0210 H   0  0  0  0  0  0
  -26.2974  -29.6698   24.1247 H   0  0  0  0  0  0
  -27.4017  -29.7241   25.4780 H   0  0  0  0  0  0
  -27.8868  -30.4213   23.9515 H   0  0  0  0  0  0
  -27.2669  -33.3665   26.1953 H   0  0  0  0  0  0
  -28.3934  -32.6790   25.0344 H   0  0  0  0  0  0
  -28.0651  -31.8498   26.5475 H   0  0  0  0  0  0
  -28.2545  -38.0106   24.7564 H   0  0  0  0  0  0
  -28.1109  -36.2635   24.6205 H   0  0  0  0  0  0
  -27.2306  -37.1310   25.8866 H   0  0  0  0  0  0
  -20.9464  -29.8775   21.6799 H   0  0  0  0  0  0
  -26.0126  -38.2803   24.1496 H   0  0  0  0  0  0
  -30.9723  -20.5185   21.7831 H   0  0  0  0  0  0
  -31.2846  -18.1031   21.7470 H   0  0  0  0  0  0
  -27.5822  -20.1552   19.2042 H   0  0  0  0  0  0
  -30.1810  -24.7370   21.3703 H   0  0  0  0  0  0
  -28.9774  -24.9026   22.6282 H   0  0  0  0  0  0
  -28.5104  -22.5178   22.6114 H   0  0  0  0  0  0
  -30.2415  -22.5510   22.3301 H   0  0  0  0  0  0
  -29.1354  -23.4884   18.9457 H   0  0  0  0  0  0
  -27.5066  -22.9572   19.2810 H   0  0  0  0  0  0
  -27.1868  -24.6017   21.0531 H   0  0  0  0  0  0
  -28.6743  -15.7065   20.5422 H   0  0  0  0  0  0
  1 25  1  0  0  0
  1 30  2  0  0  0
  1 82  1  0  0  0
  2  3  1  0  0  0
  2 25  1  0  0  0
  2 84  1  0  0  0
  2 85  1  0  0  0
  3  4  1  0  0  0
  3 86  1  0  0  0
  3 87  1  0  0  0
  4  5  1  0  0  0
  4 88  1  0  0  0
  4 89  1  0  0  0
  5  6  1  0  0  0
  5 26  1  0  0  0
  5 90  1  0  0  0
  6 25  1  0  0  0
  6 91  1  0  0  0
  6 92  1  0  0  0
  7  8  2  0  0  0
  7 26  1  0  0  0
  7 29  1  0  0  0
  8  9  1  0  0  0
  8 22  1  0  0  0
  9 10  1  0  0  0
  9 27  2  0  0  0
 10 11  2  0  0  0
 10 15  1  0  0  0
 11 12  1  0  0  0
 11 93  1  0  0  0
 12 13  2  0  0  0
 12 94  1  0  0  0
 13 14  1  0  0  0
 13 31  1  0  0  0
 14 15  2  0  0  0
 14 95  1  0  0  0
 15 96  1  0  0  0
 16 17  2  0  0  0
 16 21  1  0  0  0
 16 31  1  0  0  0
 17 18  1  0  0  0
 17 97  1  0  0  0
 18 19  2  0  0  0
 18 98  1  0  0  0
 19 20  1  0  0  0
 19 24  1  0  0  0
 20 21  2  0  0  0
 20 99  1  0  0  0
 21 23  1  0  0  0
 22 28  1  0  0  0
 22 32  2  0  0  0
 26 27  1  0  0  0
 28100  1  0  0  0
 28101  1  0  0  0
 29102  1  0  0  0
 29103  1  0  0  0
 33 34  1  0  0  0
 33 66  1  0  0  0
 33 70  2  0  0  0
 34 36  1  0  0  0
 34 59  1  0  0  0
 34104  1  0  0  0
 35 44  2  0  0  0
 35 45  1  0  0  0
 35 68  1  0  0  0
 36 56  1  0  0  0
 36105  1  0  0  0
 37 39  1  0  0  0
 37 47  1  0  0  0
 37 66  1  0  0  0
 37106  1  0  0  0
 38 43  2  0  0  0
 38 46  1  0  0  0
 38 47  1  0  0  0
 39 64  1  0  0  0
 39 67  2  0  0  0
 40 52  1  0  0  0
 40 53  2  0  0  0
 40 58  1  0  0  0
 41107  1  0  0  0
 41108  1  0  0  0
 41109  1  0  0  0
 41 48  1  0  0  0
 42 43  1  0  0  0
 42 66  1  0  0  0
 42110  1  0  0  0
 42111  1  0  0  0
 43 44  1  0  0  0
 44112  1  0  0  0
 45 46  2  0  0  0
 45113  1  0  0  0
 46114  1  0  0  0
 47115  1  0  0  0
 47116  1  0  0  0
 48 56  1  0  0  0
 48 65  1  0  0  0
 48117  1  0  0  0
 49 50  1  0  0  0
 49 53  1  0  0  0
 49 64  1  0  0  0
 49118  1  0  0  0
 50 51  1  0  0  0
 50119  1  0  0  0
 50120  1  0  0  0
 51 52  1  0  0  0
 51121  1  0  0  0
 51122  1  0  0  0
 52123  1  0  0  0
 52124  1  0  0  0
 53 54  1  0  0  0
 54 55  2  0  0  0
 54125  1  0  0  0
 55 57  1  0  0  0
 55126  1  0  0  0
 56 69  2  0  0  0
 57 58  2  0  0  0
 57127  1  0  0  0
 58128  1  0  0  0
 59 60  1  0  0  0
 59 61  1  0  0  0
 59 62  1  0  0  0
 60129  1  0  0  0
 60130  1  0  0  0
 60131  1  0  0  0
 61132  1  0  0  0
 61133  1  0  0  0
 61134  1  0  0  0
 62135  1  0  0  0
 62136  1  0  0  0
 62137  1  0  0  0
 63 65  1  0  0  0
 63138  1  0  0  0
 63139  1  0  0  0
 63140  1  0  0  0
 64141  1  0  0  0
 65142  1  0  0  0
 68 80  1  0  0  0
 71 72  2  0  0  0
 71 74  1  0  0  0
 71143  1  0  0  0
 72 75  1  0  0  0
 72144  1  0  0  0
 73 74  2  0  0  0
 73 76  1  0  0  0
 73145  1  0  0  0
 74 81  1  0  0  0
 75 76  2  0  0  0
 75 82  1  0  0  0
 76 83  1  0  0  0
 77 78  1  0  0  0
 77 80  1  0  0  0
 77146  1  0  0  0
 77147  1  0  0  0
 78 81  1  0  0  0
 78148  1  0  0  0
 78149  1  0  0  0
 79 80  1  0  0  0
 79 81  1  0  0  0
 79150  1  0  0  0
 79151  1  0  0  0
 80152  1  0  0  0
 82153  1  0  0  0
M  ISO  4   1 100  68 101  80 101  82 100
M  END
> <chiral flag>
0

> <version>
0

> <s_m_source_file>
/data/baiqing/PycharmProjects/Reinvent-master-3.2/result/LINK_invent/BTK/process_docking_weight1_custom_product_contain_oxygen_bond_distance_aromatic_linkinvent_7_9_3/rearranged_h_0011.sdf

> <i_m_source_file_index>
78

> <r_mmod_Potential_Energy-OPLS-2005>
511.134216308594

> <r_mmod_Stretch_Energy-OPLS-2005>
215.138229370117

> <r_mmod_Bend_Energy-OPLS-2005>
311.854766845703

> <r_mmod_Torsional_Energy-OPLS-2005>
297.146484375

> <r_mmod_Improper_Torsional_Energy-OPLS-2005>
6.74517917633057

> <r_mmod_Van_der_Waal_Energy-OPLS-2005>
122.15104675293

> <r_mmod_Electrostatic_Energy-OPLS-2005>
-410.138092041016

> <r_mmod_Solvation_Energy-OPLS-2005>
-221.11376953125

> <b_mmod_Minimization_Converged-OPLS-2005>
0

> <r_mmod_RMS_Derivative-OPLS-2005>
0.983909428119659

$$$$
78
                    3D
 Structure written by MMmdl.
165174  0  0  1  0            999 V2000
  -30.5164  -15.0224   20.3725 C   0  0  0  0  0  0
  -30.4404  -12.6272   19.5173 C   0  0  0  0  0  0
  -29.5295  -12.5320   18.2698 C   0  0  0  0  0  0
  -28.0674  -12.2986   18.6906 C   0  0  0  0  0  0
  -27.6273  -13.2486   19.8338 C   0  0  2  0  0  0
  -28.6658  -13.3220   20.9733 C   0  0  0  0  0  0
  -25.2473  -13.8215   20.5718 C   0  0  0  0  0  0
  -24.1772  -13.0435   20.9201 C   0  0  0  0  0  0
  -24.6379  -11.6923   20.8749 C   0  0  0  0  0  0
  -23.9055  -10.4291   21.0398 C   0  0  0  0  0  0
  -24.3619   -9.4214   21.9173 C   0  0  0  0  0  0
  -23.6286   -8.2257   22.0763 C   0  0  0  0  0  0
  -22.4268   -8.0286   21.3558 C   0  0  0  0  0  0
  -21.9901   -9.0251   20.4661 C   0  0  0  0  0  0
  -22.7232  -10.2123   20.3054 C   0  0  0  0  0  0
  -21.6854   -6.0734   22.5268 C   0  0  0  0  0  0
  -21.4016   -6.5638   23.8201 C   0  0  0  0  0  0
  -21.3658   -5.6795   24.9165 C   0  0  0  0  0  0
  -21.6051   -4.3056   24.7215 C   0  0  0  0  0  0
  -21.8817   -3.8145   23.4335 C   0  0  0  0  0  0
  -21.9192   -4.6961   22.3392 C   0  0  0  0  0  0
  -22.7801  -13.5232   21.1865 C   0  0  0  0  0  0
  -22.1661   -4.2149   21.0970 F   0  0  0  0  0  0
  -21.5627   -3.4541   25.7725 F   0  0  0  0  0  0
  -29.9350  -13.7473   20.3694 N   0  0  0  0  0  0
  -26.2879  -12.9433   20.3224 N   0  0  0  0  0  0
  -25.9322  -11.6566   20.5738 N   0  0  0  0  0  0
  -22.0439  -12.8236   22.0421 N   0  0  0  0  0  0
  -25.4152  -15.1945   20.4152 N   0  0  0  0  0  0
  -31.7232  -15.0616   20.1086 O   0  0  0  0  0  0
  -21.6648   -6.8878   21.4232 O   0  0  0  0  0  0
  -22.3485  -14.5529   20.6690 O   0  0  0  0  0  0
  -24.6482  -31.8391   23.1857 C   0  0  0  0  0  0
  -25.9229  -32.4674   23.8260 C   0  0  1  0  0  0
  -27.2107  -27.0777   20.1682 C   0  0  0  0  0  0
  -25.5962  -33.8485   24.2175 N   0  0  0  0  0  0
  -23.4544  -30.4572   21.5330 C   0  0  2  0  0  0
  -24.9051  -28.8751   20.1141 C   0  0  0  0  0  0
  -22.7590  -29.4507   22.4846 C   0  0  0  0  0  0
  -18.0298  -28.1383   22.8487 C   0  0  0  0  0  0
  -24.1489  -36.7238   23.2643 C   0  0  0  0  0  0
  -26.0147  -30.6944   21.3949 C   0  0  0  0  0  0
  -26.0845  -29.2995   20.7394 C   0  0  0  0  0  0
  -27.2379  -28.4201   20.7439 C   0  0  0  0  0  0
  -26.0072  -26.7727   19.4960 C   0  0  0  0  0  0
  -24.8828  -27.6267   19.4762 C   0  0  0  0  0  0
  -23.6854  -29.7850   20.1537 C   0  0  0  0  0  0
  -25.4128  -36.3019   24.0314 C   0  0  1  0  0  0
  -20.5919  -28.3714   23.1236 C   0  0  2  0  0  0
  -20.6776  -26.9413   22.5403 C   0  0  0  0  0  0
  -19.5749  -26.6371   21.5208 C   0  0  0  0  0  0
  -18.1930  -26.7922   22.1624 C   0  0  0  0  0  0
  -19.1554  -28.8865   23.2853 C   0  0  0  0  0  0
  -18.9475  -30.1466   23.8875 C   0  0  0  0  0  0
  -17.6468  -30.6589   24.0548 C   0  0  0  0  0  0
  -25.9086  -34.9396   23.5060 C   0  0  0  0  0  0
  -16.5358  -29.9078   23.6335 C   0  0  0  0  0  0
  -16.7281  -28.6490   23.0370 C   0  0  0  0  0  0
  -26.4535  -31.6563   25.0724 C   0  0  0  0  0  0
  -25.3702  -31.3782   26.1413 C   0  0  0  0  0  0
  -27.0410  -30.2949   24.6346 C   0  0  0  0  0  0
  -27.6058  -32.4345   25.7512 C   0  0  0  0  0  0
  -27.5570  -37.1778   24.8468 C   0  0  0  0  0  0
  -21.4271  -29.3040   22.3613 N   0  0  0  0  0  0
  -26.4280  -37.3743   23.9414 N   0  0  0  0  0  0
  -24.7260  -31.0209   22.0914 N   0  0  0  0  0  0
  -23.4219  -28.8051   23.3003 O   0  0  0  0  0  0
  -28.2515  -26.0616   20.2098 O   0  0  0  0  0  0
  -26.5672  -34.8903   22.4641 O   0  0  0  0  0  0
  -23.5594  -32.1271   23.7062 O   0  0  0  0  0  0
  -30.9580  -18.0357   19.1995 C   0  0  0  0  0  0
  -30.4809  -20.4750   19.1991 C   0  0  0  0  0  0
  -29.1654  -18.9497   20.5407 C   0  0  0  0  0  0
  -31.2134  -19.3506   18.7229 C   0  0  0  0  0  0
  -29.9423  -17.7270   20.1350 C   0  0  0  0  0  0
  -29.4024  -20.3686   20.1014 C   0  0  0  0  0  0
  -32.4574  -22.0337   14.8508 C   0  0  0  0  0  0
  -33.0723  -22.8185   16.0188 C   0  0  0  0  0  0
  -32.1812  -20.6248   15.3992 C   0  0  0  0  0  0
  -33.1908  -21.8032   17.1595 C   0  0  0  0  0  0
  -32.3022  -19.5158   17.6559 C   0  0  0  0  0  0
  -29.0030  -23.1601   20.1240 C   0  0  0  0  0  0
  -27.9596  -24.5073   20.3394 C   0  0  0  0  0  0
  -29.7353  -16.2268   20.5078 N   0  0  0  0  0  0
  -28.6647  -21.6382   20.4339 N   0  0  0  0  0  0
  -32.1778  -20.7696   16.8678 N   0  3  0  0  0  0
  -31.4768  -12.7809   19.2134 H   0  0  0  0  0  0
  -30.4362  -11.6881   20.0733 H   0  0  0  0  0  0
  -29.8646  -11.7252   17.6162 H   0  0  0  0  0  0
  -29.6047  -13.4512   17.6861 H   0  0  0  0  0  0
  -27.9897  -11.2634   19.0237 H   0  0  0  0  0  0
  -27.4003  -12.3959   17.8328 H   0  0  0  0  0  0
  -27.5766  -14.2374   19.3776 H   0  0  0  0  0  0
  -28.7696  -12.3597   21.4764 H   0  0  0  0  0  0
  -28.3507  -14.0381   21.7338 H   0  0  0  0  0  0
  -25.2755   -9.5689   22.4757 H   0  0  0  0  0  0
  -23.9991   -7.4647   22.7488 H   0  0  0  0  0  0
  -21.0842   -8.8762   19.8964 H   0  0  0  0  0  0
  -22.3681  -10.9664   19.6172 H   0  0  0  0  0  0
  -21.2014   -7.6146   23.9701 H   0  0  0  0  0  0
  -21.1486   -6.0529   25.9071 H   0  0  0  0  0  0
  -22.0599   -2.7610   23.2831 H   0  0  0  0  0  0
  -22.4065  -11.9902   22.4820 H   0  0  0  0  0  0
  -21.1041  -13.1259   22.2614 H   0  0  0  0  0  0
  -24.6429  -15.8445   20.5152 H   0  0  0  0  0  0
  -26.2567  -15.6332   20.0653 H   0  0  0  0  0  0
  -26.7282  -32.5271   23.0982 H   0  0  0  0  0  0
  -25.0085  -33.9589   25.0300 H   0  0  0  0  0  0
  -22.7590  -31.2841   21.3766 H   0  0  0  0  0  0
  -23.3763  -35.9556   23.3296 H   0  0  0  0  0  0
  -24.3557  -36.8878   22.2053 H   0  0  0  0  0  0
  -23.7224  -37.6425   23.6689 H   0  0  0  0  0  0
  -26.1776  -31.4442   20.6192 H   0  0  0  0  0  0
  -26.8825  -30.7480   22.0415 H   0  0  0  0  0  0
  -28.1382  -28.7436   21.2470 H   0  0  0  0  0  0
  -25.9007  -25.8308   18.9818 H   0  0  0  0  0  0
  -23.9840  -27.2990   18.9720 H   0  0  0  0  0  0
  -23.8335  -30.5585   19.3989 H   0  0  0  0  0  0
  -22.7976  -29.2317   19.8390 H   0  0  0  0  0  0
  -25.1314  -36.1841   25.0801 H   0  0  0  0  0  0
  -20.9997  -28.3283   24.1362 H   0  0  0  0  0  0
  -20.5642  -26.2320   23.3622 H   0  0  0  0  0  0
  -21.6641  -26.7390   22.1210 H   0  0  0  0  0  0
  -19.6901  -25.6275   21.1244 H   0  0  0  0  0  0
  -19.6677  -27.3175   20.6735 H   0  0  0  0  0  0
  -17.4190  -26.6663   21.4030 H   0  0  0  0  0  0
  -18.0336  -26.0067   22.9024 H   0  0  0  0  0  0
  -19.7948  -30.7285   24.2234 H   0  0  0  0  0  0
  -17.5021  -31.6269   24.5149 H   0  0  0  0  0  0
  -15.5357  -30.2969   23.7685 H   0  0  0  0  0  0
  -15.8677  -28.0794   22.7124 H   0  0  0  0  0  0
  -24.5896  -30.7113   25.7733 H   0  0  0  0  0  0
  -24.8877  -32.2979   26.4744 H   0  0  0  0  0  0
  -25.7966  -30.9014   27.0249 H   0  0  0  0  0  0
  -26.3039  -29.6671   24.1325 H   0  0  0  0  0  0
  -27.3966  -29.7267   25.4952 H   0  0  0  0  0  0
  -27.8976  -30.4177   23.9717 H   0  0  0  0  0  0
  -27.2645  -33.3682   26.2017 H   0  0  0  0  0  0
  -28.3915  -32.6852   25.0363 H   0  0  0  0  0  0
  -28.0684  -31.8513   26.5495 H   0  0  0  0  0  0
  -28.2592  -38.0073   24.7522 H   0  0  0  0  0  0
  -28.1068  -36.2604   24.6300 H   0  0  0  0  0  0
  -27.2290  -37.1427   25.8872 H   0  0  0  0  0  0
  -20.9491  -29.8776   21.6802 H   0  0  0  0  0  0
  -26.0148  -38.2807   24.1427 H   0  0  0  0  0  0
  -31.5572  -17.2319   18.7951 H   0  0  0  0  0  0
  -30.7293  -21.4612   18.8425 H   0  0  0  0  0  0
  -28.3402  -18.7902   21.2197 H   0  0  0  0  0  0
  -33.1184  -21.9983   13.9832 H   0  0  0  0  0  0
  -31.5271  -22.5089   14.5360 H   0  0  0  0  0  0
  -32.4034  -23.6307   16.3080 H   0  0  0  0  0  0
  -34.0395  -23.2580   15.7674 H   0  0  0  0  0  0
  -32.9858  -19.9540   15.0958 H   0  0  0  0  0  0
  -31.2426  -20.2100   15.0295 H   0  0  0  0  0  0
  -33.0591  -22.2563   18.1423 H   0  0  0  0  0  0
  -34.1853  -21.3543   17.1323 H   0  0  0  0  0  0
  -32.2281  -18.6641   16.9760 H   0  0  0  0  0  0
  -33.2845  -19.4388   18.1243 H   0  0  0  0  0  0
  -29.9099  -23.3735   20.6921 H   0  0  0  0  0  0
  -29.3160  -23.1996   19.0803 H   0  0  0  0  0  0
  -27.5614  -24.4088   21.3496 H   0  0  0  0  0  0
  -27.1090  -24.2850   19.6986 H   0  0  0  0  0  0
  -28.7992  -16.0216   20.8259 H   0  0  0  0  0  0
  -27.8241  -21.5179   20.9979 H   0  0  0  0  0  0
  -31.2741  -21.1526   17.0985 H   0  0  0  0  0  0
  1 25  1  0  0  0
  1 30  2  0  0  0
  1 84  1  0  0  0
  2  3  1  0  0  0
  2 25  1  0  0  0
  2 87  1  0  0  0
  2 88  1  0  0  0
  3  4  1  0  0  0
  3 89  1  0  0  0
  3 90  1  0  0  0
  4  5  1  0  0  0
  4 91  1  0  0  0
  4 92  1  0  0  0
  5  6  1  0  0  0
  5 26  1  0  0  0
  5 93  1  0  0  0
  6 25  1  0  0  0
  6 94  1  0  0  0
  6 95  1  0  0  0
  7  8  2  0  0  0
  7 26  1  0  0  0
  7 29  1  0  0  0
  8  9  1  0  0  0
  8 22  1  0  0  0
  9 10  1  0  0  0
  9 27  2  0  0  0
 10 11  2  0  0  0
 10 15  1  0  0  0
 11 12  1  0  0  0
 11 96  1  0  0  0
 12 13  2  0  0  0
 12 97  1  0  0  0
 13 14  1  0  0  0
 13 31  1  0  0  0
 14 15  2  0  0  0
 14 98  1  0  0  0
 15 99  1  0  0  0
 16 17  2  0  0  0
 16 21  1  0  0  0
 16 31  1  0  0  0
 17 18  1  0  0  0
 17100  1  0  0  0
 18 19  2  0  0  0
 18101  1  0  0  0
 19 20  1  0  0  0
 19 24  1  0  0  0
 20 21  2  0  0  0
 20102  1  0  0  0
 21 23  1  0  0  0
 22 28  1  0  0  0
 22 32  2  0  0  0
 26 27  1  0  0  0
 28103  1  0  0  0
 28104  1  0  0  0
 29105  1  0  0  0
 29106  1  0  0  0
 33 34  1  0  0  0
 33 66  1  0  0  0
 33 70  2  0  0  0
 34 36  1  0  0  0
 34 59  1  0  0  0
 34107  1  0  0  0
 35 44  2  0  0  0
 35 45  1  0  0  0
 35 68  1  0  0  0
 36 56  1  0  0  0
 36108  1  0  0  0
 37 39  1  0  0  0
 37 47  1  0  0  0
 37 66  1  0  0  0
 37109  1  0  0  0
 38 43  2  0  0  0
 38 46  1  0  0  0
 38 47  1  0  0  0
 39 64  1  0  0  0
 39 67  2  0  0  0
 40 52  1  0  0  0
 40 53  2  0  0  0
 40 58  1  0  0  0
 41110  1  0  0  0
 41111  1  0  0  0
 41112  1  0  0  0
 41 48  1  0  0  0
 42 43  1  0  0  0
 42 66  1  0  0  0
 42113  1  0  0  0
 42114  1  0  0  0
 43 44  1  0  0  0
 44115  1  0  0  0
 45 46  2  0  0  0
 45116  1  0  0  0
 46117  1  0  0  0
 47118  1  0  0  0
 47119  1  0  0  0
 48 56  1  0  0  0
 48 65  1  0  0  0
 48120  1  0  0  0
 49 50  1  0  0  0
 49 53  1  0  0  0
 49 64  1  0  0  0
 49121  1  0  0  0
 50 51  1  0  0  0
 50122  1  0  0  0
 50123  1  0  0  0
 51 52  1  0  0  0
 51124  1  0  0  0
 51125  1  0  0  0
 52126  1  0  0  0
 52127  1  0  0  0
 53 54  1  0  0  0
 54 55  2  0  0  0
 54128  1  0  0  0
 55 57  1  0  0  0
 55129  1  0  0  0
 56 69  2  0  0  0
 57 58  2  0  0  0
 57130  1  0  0  0
 58131  1  0  0  0
 59 60  1  0  0  0
 59 61  1  0  0  0
 59 62  1  0  0  0
 60132  1  0  0  0
 60133  1  0  0  0
 60134  1  0  0  0
 61135  1  0  0  0
 61136  1  0  0  0
 61137  1  0  0  0
 62138  1  0  0  0
 62139  1  0  0  0
 62140  1  0  0  0
 63 65  1  0  0  0
 63141  1  0  0  0
 63142  1  0  0  0
 63143  1  0  0  0
 64144  1  0  0  0
 65145  1  0  0  0
 68 83  1  0  0  0
 71 74  2  0  0  0
 71 75  1  0  0  0
 71146  1  0  0  0
 72 74  1  0  0  0
 72 76  2  0  0  0
 72147  1  0  0  0
 73 75  2  0  0  0
 73 76  1  0  0  0
 73148  1  0  0  0
 74 81  1  0  0  0
 75 84  1  0  0  0
 76 85  1  0  0  0
 77 78  1  0  0  0
 77 79  1  0  0  0
 77149  1  0  0  0
 77150  1  0  0  0
 78 80  1  0  0  0
 78151  1  0  0  0
 78152  1  0  0  0
 79 86  1  0  0  0
 79153  1  0  0  0
 79154  1  0  0  0
 80 86  1  0  0  0
 80155  1  0  0  0
 80156  1  0  0  0
 81157  1  0  0  0
 81158  1  0  0  0
 81 86  1  0  0  0
 82 83  1  0  0  0
 82 85  1  0  0  0
 82159  1  0  0  0
 82160  1  0  0  0
 83161  1  0  0  0
 83162  1  0  0  0
 84163  1  0  0  0
 85164  1  0  0  0
 86165  1  0  0  0
M  CHG  1  86   1
M  ISO  4   1 100  68 101  83 101  84 100
M  END
> <chiral flag>
0

> <version>
0

> <s_m_source_file>
/data/baiqing/PycharmProjects/Reinvent-master-3.2/result/LINK_invent/BTK/process_docking_weight1_custom_product_contain_oxygen_bond_distance_aromatic_linkinvent_7_9_3/rearranged_h_0011.sdf

> <i_m_source_file_index>
79

> <r_mmod_Potential_Energy-OPLS-2005>
585.987426757812

> <r_mmod_Stretch_Energy-OPLS-2005>
317.262084960938

> <r_mmod_Bend_Energy-OPLS-2005>
306.734222412109

> <r_mmod_Torsional_Energy-OPLS-2005>
288.384033203125

> <r_mmod_Improper_Torsional_Energy-OPLS-2005>
3.74461698532104

> <r_mmod_Van_der_Waal_Energy-OPLS-2005>
132.776596069336

> <r_mmod_Electrostatic_Energy-OPLS-2005>
-253.012878417969

> <r_mmod_Solvation_Energy-OPLS-2005>
-456.938323974609

> <b_mmod_Minimization_Converged-OPLS-2005>
0

> <r_mmod_RMS_Derivative-OPLS-2005>
2.86570954322815

$$$$
