0
                    3D
 Structure written by MMmdl.
156164  0  0  1  0            999 V2000
  -30.6755  -14.5567   20.4123 C   0  0  0  0  0  0
  -30.4259  -12.2985   19.4693 C   0  0  0  0  0  0
  -29.5064  -12.3595   18.2292 C   0  0  0  0  0  0
  -28.0123  -12.3039   18.6215 C   0  0  0  0  0  0
  -27.6344  -13.1926   19.8387 C   0  0  2  0  0  0
  -28.6858  -13.1132   20.9651 C   0  0  0  0  0  0
  -25.2527  -13.8123   20.5680 C   0  0  0  0  0  0
  -24.1780  -13.0415   20.9199 C   0  0  0  0  0  0
  -24.6329  -11.6880   20.8774 C   0  0  0  0  0  0
  -23.9008  -10.4272   21.0423 C   0  0  0  0  0  0
  -24.3595   -9.4193   21.9176 C   0  0  0  0  0  0
  -23.6293   -8.2219   22.0730 C   0  0  0  0  0  0
  -22.4269   -8.0248   21.3522 C   0  0  0  0  0  0
  -21.9892   -9.0221   20.4625 C   0  0  0  0  0  0
  -22.7205  -10.2113   20.3053 C   0  0  0  0  0  0
  -21.6845   -6.0719   22.5268 C   0  0  0  0  0  0
  -21.4011   -6.5624   23.8199 C   0  0  0  0  0  0
  -21.3668   -5.6777   24.9164 C   0  0  0  0  0  0
  -21.6055   -4.3039   24.7206 C   0  0  0  0  0  0
  -21.8838   -3.8130   23.4329 C   0  0  0  0  0  0
  -21.9193   -4.6953   22.3393 C   0  0  0  0  0  0
  -22.7805  -13.5209   21.1863 C   0  0  0  0  0  0
  -22.1650   -4.2134   21.0968 F   0  0  0  0  0  0
  -21.5643   -3.4523   25.7717 F   0  0  0  0  0  0
  -30.0148  -13.3651   20.3945 N   0  0  0  0  0  0
  -26.2885  -12.9228   20.3270 N   0  0  0  0  0  0
  -25.9236  -11.6428   20.5820 N   0  0  0  0  0  0
  -22.0463  -12.8188   22.0421 N   0  0  0  0  0  0
  -25.4329  -15.1850   20.4109 N   0  0  0  0  0  0
  -31.8916  -14.6383   20.2333 O   0  0  0  0  0  0
  -21.6631   -6.8843   21.4216 O   0  0  0  0  0  0
  -22.3483  -14.5503   20.6691 O   0  0  0  0  0  0
  -24.6140  -31.8679   23.2115 C   0  0  0  0  0  0
  -25.9052  -32.4804   23.8394 C   0  0  1  0  0  0
  -27.2255  -27.4308   20.1063 C   0  0  0  0  0  0
  -25.5904  -33.8607   24.2310 N   0  0  0  0  0  0
  -23.3999  -30.4958   21.5493 C   0  0  2  0  0  0
  -24.8459  -28.9674   20.1086 C   0  0  0  0  0  0
  -22.7393  -29.4683   22.4957 C   0  0  0  0  0  0
  -18.0280  -28.1413   22.8476 C   0  0  0  0  0  0
  -24.1484  -36.7327   23.2630 C   0  0  0  0  0  0
  -25.9288  -30.8357   21.3646 C   0  0  0  0  0  0
  -26.0048  -29.4710   20.7106 C   0  0  0  0  0  0
  -27.1968  -28.7107   20.7069 C   0  0  0  0  0  0
  -26.0516  -26.9572   19.4726 C   0  0  0  0  0  0
  -24.8646  -27.7107   19.4840 C   0  0  0  0  0  0
  -23.6070  -29.8319   20.1619 C   0  0  0  0  0  0
  -25.4102  -36.3093   24.0322 C   0  0  1  0  0  0
  -20.5869  -28.3698   23.1311 C   0  0  2  0  0  0
  -20.6772  -26.9433   22.5421 C   0  0  0  0  0  0
  -19.5766  -26.6408   21.5212 C   0  0  0  0  0  0
  -18.1937  -26.7954   22.1611 C   0  0  0  0  0  0
  -19.1523  -28.8871   23.2894 C   0  0  0  0  0  0
  -18.9456  -30.1473   23.8905 C   0  0  0  0  0  0
  -17.6456  -30.6607   24.0586 C   0  0  0  0  0  0
  -25.9036  -34.9458   23.5110 C   0  0  0  0  0  0
  -16.5350  -29.9109   23.6342 C   0  0  0  0  0  0
  -16.7267  -28.6546   23.0319 C   0  0  0  0  0  0
  -26.4493  -31.6578   25.0716 C   0  0  0  0  0  0
  -25.3771  -31.3673   26.1469 C   0  0  0  0  0  0
  -27.0329  -30.3010   24.6102 C   0  0  0  0  0  0
  -27.6074  -32.4281   25.7488 C   0  0  0  0  0  0
  -27.5577  -37.1810   24.8451 C   0  0  0  0  0  0
  -21.4122  -29.3052   22.3689 N   0  0  0  0  0  0
  -26.4277  -37.3786   23.9405 N   0  0  0  0  0  0
  -24.6658  -31.0803   22.0999 N   0  0  0  0  0  0
  -23.4168  -28.8232   23.3002 O   0  0  0  0  0  0
  -28.3871  -26.6816   20.1662 O   0  0  0  0  0  0
  -26.5605  -34.8913   22.4669 O   0  0  0  0  0  0
  -23.5341  -32.1424   23.7519 O   0  0  0  0  0  0
  -28.5245  -17.0655   18.5058 C   0  0  0  0  0  0
  -28.5332  -18.1960   19.3239 C   0  0  0  0  0  0
  -29.2351  -15.9296   18.8999 C   0  0  0  0  0  0
  -29.2579  -18.2165   20.5372 C   0  0  0  0  0  0
  -29.8848  -15.8362   20.1508 C   0  0  0  0  0  0
  -29.9197  -17.0165   20.9707 C   0  0  0  0  0  0
  -29.3625  -19.5290   21.2422 C   0  0  0  0  0  0
  -29.2335  -20.7382   20.6349 C   0  0  0  0  0  0
  -29.3010  -22.0114   21.3445 C   0  0  0  0  0  0
  -30.6839  -17.0331   22.2926 C   0  0  0  0  0  0
  -29.3440  -24.4887   20.8209 C   0  0  0  0  0  0
  -28.2571  -25.2552   20.0370 C   0  0  0  0  0  0
  -29.3122  -23.0539   20.4945 N   0  0  0  0  0  0
  -29.3308  -22.1485   22.5685 O   0  0  0  0  0  0
  -31.4700  -12.3918   19.1638 H   0  0  0  0  0  0
  -30.3403  -11.3288   19.9617 H   0  0  0  0  0  0
  -29.7311  -11.5129   17.5783 H   0  0  0  0  0  0
  -29.7298  -13.2294   17.6207 H   0  0  0  0  0  0
  -27.7812  -11.2628   18.8453 H   0  0  0  0  0  0
  -27.3910  -12.5626   17.7634 H   0  0  0  0  0  0
  -27.5962  -14.2051   19.4675 H   0  0  0  0  0  0
  -28.6671  -12.1324   21.4404 H   0  0  0  0  0  0
  -28.4605  -13.8404   21.7463 H   0  0  0  0  0  0
  -25.2752   -9.5672   22.4741 H   0  0  0  0  0  0
  -24.0010   -7.4609   22.7449 H   0  0  0  0  0  0
  -21.0816   -8.8759   19.8925 H   0  0  0  0  0  0
  -22.3673  -10.9667   19.6163 H   0  0  0  0  0  0
  -21.1997   -7.6137   23.9702 H   0  0  0  0  0  0
  -21.1473   -6.0497   25.9071 H   0  0  0  0  0  0
  -22.0615   -2.7585   23.2836 H   0  0  0  0  0  0
  -22.4095  -11.9862   22.4820 H   0  0  0  0  0  0
  -21.1092  -13.1207   22.2672 H   0  0  0  0  0  0
  -24.6818  -15.8564   20.5328 H   0  0  0  0  0  0
  -26.3092  -15.6165   20.1408 H   0  0  0  0  0  0
  -26.7113  -32.5529   23.1155 H   0  0  0  0  0  0
  -25.0029  -33.9760   25.0433 H   0  0  0  0  0  0
  -22.6898  -31.3131   21.4113 H   0  0  0  0  0  0
  -23.3728  -35.9679   23.3275 H   0  0  0  0  0  0
  -24.3591  -36.8975   22.2054 H   0  0  0  0  0  0
  -23.7255  -37.6525   23.6675 H   0  0  0  0  0  0
  -26.0388  -31.6046   20.5986 H   0  0  0  0  0  0
  -26.8161  -30.8883   21.9825 H   0  0  0  0  0  0
  -28.0864  -29.0923   21.1887 H   0  0  0  0  0  0
  -26.0302  -26.0060   18.9612 H   0  0  0  0  0  0
  -23.9771  -27.3216   19.0042 H   0  0  0  0  0  0
  -23.7128  -30.6060   19.4016 H   0  0  0  0  0  0
  -22.7325  -29.2491   19.8658 H   0  0  0  0  0  0
  -25.1282  -36.1940   25.0815 H   0  0  0  0  0  0
  -20.9962  -28.3285   24.1432 H   0  0  0  0  0  0
  -20.5697  -26.2309   23.3608 H   0  0  0  0  0  0
  -21.6653  -26.7508   22.1207 H   0  0  0  0  0  0
  -19.6936  -25.6318   21.1239 H   0  0  0  0  0  0
  -19.6717  -27.3221   20.6746 H   0  0  0  0  0  0
  -17.4212  -26.6693   21.4012 H   0  0  0  0  0  0
  -18.0356  -26.0111   22.9020 H   0  0  0  0  0  0
  -19.7932  -30.7295   24.2257 H   0  0  0  0  0  0
  -17.5020  -31.6283   24.5197 H   0  0  0  0  0  0
  -15.5353  -30.3014   23.7685 H   0  0  0  0  0  0
  -15.8663  -28.0894   22.6988 H   0  0  0  0  0  0
  -24.5949  -30.7015   25.7801 H   0  0  0  0  0  0
  -24.8972  -32.2829   26.4937 H   0  0  0  0  0  0
  -25.8148  -30.8824   27.0205 H   0  0  0  0  0  0
  -26.2874  -29.6748   24.1189 H   0  0  0  0  0  0
  -27.4115  -29.7275   25.4575 H   0  0  0  0  0  0
  -27.8701  -30.4303   23.9240 H   0  0  0  0  0  0
  -27.2693  -33.3552   26.2128 H   0  0  0  0  0  0
  -28.3880  -32.6875   25.0323 H   0  0  0  0  0  0
  -28.0746  -31.8359   26.5364 H   0  0  0  0  0  0
  -28.2572  -38.0128   24.7527 H   0  0  0  0  0  0
  -28.1095  -36.2671   24.6228 H   0  0  0  0  0  0
  -27.2316  -37.1396   25.8855 H   0  0  0  0  0  0
  -20.9266  -29.8746   21.6888 H   0  0  0  0  0  0
  -26.0158  -38.2849   24.1441 H   0  0  0  0  0  0
  -28.0014  -17.0766   17.5596 H   0  0  0  0  0  0
  -27.9842  -19.0584   18.9780 H   0  0  0  0  0  0
  -29.2637  -15.1098   18.2066 H   0  0  0  0  0  0
  -29.5295  -19.4967   22.3098 H   0  0  0  0  0  0
  -29.0709  -20.7755   19.5678 H   0  0  0  0  0  0
  -29.9900  -17.0656   23.1337 H   0  0  0  0  0  0
  -31.3243  -17.9123   22.3524 H   0  0  0  0  0  0
  -31.3270  -16.1673   22.4347 H   0  0  0  0  0  0
  -29.2050  -24.6576   21.8904 H   0  0  0  0  0  0
  -30.3284  -24.8827   20.5674 H   0  0  0  0  0  0
  -27.2959  -24.9033   20.4144 H   0  0  0  0  0  0
  -28.3048  -25.0046   18.9763 H   0  0  0  0  0  0
  -29.3039  -22.8332   19.5076 H   0  0  0  0  0  0
  1 25  1  0  0  0
  1 30  2  0  0  0
  1 75  1  0  0  0
  2  3  1  0  0  0
  2 25  1  0  0  0
  2 85  1  0  0  0
  2 86  1  0  0  0
  3  4  1  0  0  0
  3 87  1  0  0  0
  3 88  1  0  0  0
  4  5  1  0  0  0
  4 89  1  0  0  0
  4 90  1  0  0  0
  5  6  1  0  0  0
  5 26  1  0  0  0
  5 91  1  0  0  0
  6 25  1  0  0  0
  6 92  1  0  0  0
  6 93  1  0  0  0
  7  8  2  0  0  0
  7 26  1  0  0  0
  7 29  1  0  0  0
  8  9  1  0  0  0
  8 22  1  0  0  0
  9 10  1  0  0  0
  9 27  2  0  0  0
 10 11  2  0  0  0
 10 15  1  0  0  0
 11 12  1  0  0  0
 11 94  1  0  0  0
 12 13  2  0  0  0
 12 95  1  0  0  0
 13 14  1  0  0  0
 13 31  1  0  0  0
 14 15  2  0  0  0
 14 96  1  0  0  0
 15 97  1  0  0  0
 16 17  2  0  0  0
 16 21  1  0  0  0
 16 31  1  0  0  0
 17 18  1  0  0  0
 17 98  1  0  0  0
 18 19  2  0  0  0
 18 99  1  0  0  0
 19 20  1  0  0  0
 19 24  1  0  0  0
 20 21  2  0  0  0
 20100  1  0  0  0
 21 23  1  0  0  0
 22 28  1  0  0  0
 22 32  2  0  0  0
 26 27  1  0  0  0
 28101  1  0  0  0
 28102  1  0  0  0
 29103  1  0  0  0
 29104  1  0  0  0
 33 34  1  0  0  0
 33 66  1  0  0  0
 33 70  2  0  0  0
 34 36  1  0  0  0
 34 59  1  0  0  0
 34105  1  0  0  0
 35 44  2  0  0  0
 35 45  1  0  0  0
 35 68  1  0  0  0
 36 56  1  0  0  0
 36106  1  0  0  0
 37 39  1  0  0  0
 37 47  1  0  0  0
 37 66  1  0  0  0
 37107  1  0  0  0
 38 43  2  0  0  0
 38 46  1  0  0  0
 38 47  1  0  0  0
 39 64  1  0  0  0
 39 67  2  0  0  0
 40 52  1  0  0  0
 40 53  2  0  0  0
 40 58  1  0  0  0
 41108  1  0  0  0
 41109  1  0  0  0
 41110  1  0  0  0
 41 48  1  0  0  0
 42 43  1  0  0  0
 42 66  1  0  0  0
 42111  1  0  0  0
 42112  1  0  0  0
 43 44  1  0  0  0
 44113  1  0  0  0
 45 46  2  0  0  0
 45114  1  0  0  0
 46115  1  0  0  0
 47116  1  0  0  0
 47117  1  0  0  0
 48 56  1  0  0  0
 48 65  1  0  0  0
 48118  1  0  0  0
 49 50  1  0  0  0
 49 53  1  0  0  0
 49 64  1  0  0  0
 49119  1  0  0  0
 50 51  1  0  0  0
 50120  1  0  0  0
 50121  1  0  0  0
 51 52  1  0  0  0
 51122  1  0  0  0
 51123  1  0  0  0
 52124  1  0  0  0
 52125  1  0  0  0
 53 54  1  0  0  0
 54 55  2  0  0  0
 54126  1  0  0  0
 55 57  1  0  0  0
 55127  1  0  0  0
 56 69  2  0  0  0
 57 58  2  0  0  0
 57128  1  0  0  0
 58129  1  0  0  0
 59 60  1  0  0  0
 59 61  1  0  0  0
 59 62  1  0  0  0
 60130  1  0  0  0
 60131  1  0  0  0
 60132  1  0  0  0
 61133  1  0  0  0
 61134  1  0  0  0
 61135  1  0  0  0
 62136  1  0  0  0
 62137  1  0  0  0
 62138  1  0  0  0
 63 65  1  0  0  0
 63139  1  0  0  0
 63140  1  0  0  0
 63141  1  0  0  0
 64142  1  0  0  0
 65143  1  0  0  0
 68 82  1  0  0  0
 71 72  2  0  0  0
 71 73  1  0  0  0
 71144  1  0  0  0
 72 74  1  0  0  0
 72145  1  0  0  0
 73 75  2  0  0  0
 73146  1  0  0  0
 74 76  2  0  0  0
 74 77  1  0  0  0
 75 76  1  0  0  0
 76 80  1  0  0  0
 77 78  2  0  0  0
 77147  1  0  0  0
 78 79  1  0  0  0
 78148  1  0  0  0
 79 83  1  0  0  0
 79 84  2  0  0  0
 80149  1  0  0  0
 80150  1  0  0  0
 80151  1  0  0  0
 81 82  1  0  0  0
 81 83  1  0  0  0
 81152  1  0  0  0
 81153  1  0  0  0
 82154  1  0  0  0
 82155  1  0  0  0
 83156  1  0  0  0
M  ISO  4   1 100  68 101  75 100  82 101
M  END
> <chiral flag>
0

> <version>
0

> <s_m_source_file>
/data/baiqing/PycharmProjects/Reinvent-master-3.2/result/LINK_invent/BTK/process_docking_weight1_custom_product_contain_oxygen_bond_distance_aromatic_linkinvent_7_9_3/rearranged_h_0049.sdf

> <i_m_source_file_index>
1

> <r_mmod_Potential_Energy-OPLS-2005>
-8.94830131530762

> <r_mmod_Stretch_Energy-OPLS-2005>
43.7124900817871

> <r_mmod_Bend_Energy-OPLS-2005>
101.106803894043

> <r_mmod_Torsional_Energy-OPLS-2005>
229.165405273438

> <r_mmod_Improper_Torsional_Energy-OPLS-2005>
14.0713815689087

> <r_mmod_Van_der_Waal_Energy-OPLS-2005>
165.277496337891

> <r_mmod_Electrostatic_Energy-OPLS-2005>
-378.222808837891

> <r_mmod_Solvation_Energy-OPLS-2005>
-220.755279541016

> <b_mmod_Minimization_Converged-OPLS-2005>
0

> <r_mmod_RMS_Derivative-OPLS-2005>
2.78022766113281

$$$$
1
                    3D
 Structure written by MMmdl.
154162  0  0  1  0            999 V2000
  -30.6632  -14.5512   20.5418 C   0  0  0  0  0  0
  -30.4357  -12.3450   19.4350 C   0  0  0  0  0  0
  -29.5027  -12.4882   18.2134 C   0  0  0  0  0  0
  -28.0241  -12.3366   18.6282 C   0  0  0  0  0  0
  -27.6546  -13.2048   19.8600 C   0  0  2  0  0  0
  -28.6996  -13.0342   20.9866 C   0  0  0  0  0  0
  -25.2572  -13.8154   20.5672 C   0  0  0  0  0  0
  -24.1824  -13.0438   20.9189 C   0  0  0  0  0  0
  -24.6369  -11.6898   20.8723 C   0  0  0  0  0  0
  -23.9028  -10.4289   21.0388 C   0  0  0  0  0  0
  -24.3581   -9.4216   21.9176 C   0  0  0  0  0  0
  -23.6275   -8.2242   22.0743 C   0  0  0  0  0  0
  -22.4260   -8.0264   21.3533 C   0  0  0  0  0  0
  -21.9880   -9.0236   20.4642 C   0  0  0  0  0  0
  -22.7190  -10.2132   20.3051 C   0  0  0  0  0  0
  -21.6856   -6.0715   22.5275 C   0  0  0  0  0  0
  -21.4012   -6.5622   23.8205 C   0  0  0  0  0  0
  -21.3663   -5.6775   24.9170 C   0  0  0  0  0  0
  -21.6041   -4.3043   24.7223 C   0  0  0  0  0  0
  -21.8824   -3.8130   23.4340 C   0  0  0  0  0  0
  -21.9190   -4.6942   22.3395 C   0  0  0  0  0  0
  -22.7852  -13.5243   21.1838 C   0  0  0  0  0  0
  -22.1663   -4.2122   21.0977 F   0  0  0  0  0  0
  -21.5637   -3.4532   25.7741 F   0  0  0  0  0  0
  -30.0209  -13.3536   20.4234 N   0  0  0  0  0  0
  -26.2984  -12.9310   20.3290 N   0  0  0  0  0  0
  -25.9293  -11.6475   20.5735 N   0  0  0  0  0  0
  -22.0469  -12.8269   22.0399 N   0  0  0  0  0  0
  -25.4294  -15.1874   20.4094 N   0  0  0  0  0  0
  -31.8300  -14.7141   20.1746 O   0  0  0  0  0  0
  -21.6627   -6.8857   21.4238 O   0  0  0  0  0  0
  -22.3545  -14.5543   20.6660 O   0  0  0  0  0  0
  -24.6183  -31.8652   23.2067 C   0  0  0  0  0  0
  -25.9059  -32.4809   23.8383 C   0  0  1  0  0  0
  -27.2301  -27.3942   20.1104 C   0  0  0  0  0  0
  -25.5900  -33.8605   24.2309 N   0  0  0  0  0  0
  -23.4081  -30.4877   21.5479 C   0  0  2  0  0  0
  -24.8555  -28.9451   20.1182 C   0  0  0  0  0  0
  -22.7428  -29.4649   22.4977 C   0  0  0  0  0  0
  -18.0276  -28.1370   22.8495 C   0  0  0  0  0  0
  -24.1485  -36.7309   23.2636 C   0  0  0  0  0  0
  -25.9410  -30.8174   21.3672 C   0  0  0  0  0  0
  -26.0179  -29.4477   20.7181 C   0  0  0  0  0  0
  -27.2108  -28.6803   20.7095 C   0  0  0  0  0  0
  -26.0541  -26.9191   19.4964 C   0  0  0  0  0  0
  -24.8707  -27.6825   19.5013 C   0  0  0  0  0  0
  -23.6192  -29.8168   20.1651 C   0  0  0  0  0  0
  -25.4101  -36.3101   24.0343 C   0  0  1  0  0  0
  -20.5871  -28.3669   23.1301 C   0  0  2  0  0  0
  -20.6767  -26.9400   22.5409 C   0  0  0  0  0  0
  -19.5749  -26.6380   21.5203 C   0  0  0  0  0  0
  -18.1926  -26.7922   22.1613 C   0  0  0  0  0  0
  -19.1525  -28.8834   23.2897 C   0  0  0  0  0  0
  -18.9453  -30.1439   23.8910 C   0  0  0  0  0  0
  -17.6454  -30.6581   24.0556 C   0  0  0  0  0  0
  -25.9037  -34.9467   23.5124 C   0  0  0  0  0  0
  -16.5346  -29.9081   23.6319 C   0  0  0  0  0  0
  -16.7262  -28.6489   23.0357 C   0  0  0  0  0  0
  -26.4476  -31.6602   25.0726 C   0  0  0  0  0  0
  -25.3734  -31.3724   26.1470 C   0  0  0  0  0  0
  -27.0318  -30.3041   24.6127 C   0  0  0  0  0  0
  -27.6060  -32.4327   25.7464 C   0  0  0  0  0  0
  -27.5598  -37.1773   24.8442 C   0  0  0  0  0  0
  -21.4149  -29.3035   22.3706 N   0  0  0  0  0  0
  -26.4276  -37.3800   23.9441 N   0  0  0  0  0  0
  -24.6739  -31.0728   22.0982 N   0  0  0  0  0  0
  -23.4179  -28.8200   23.3036 O   0  0  0  0  0  0
  -28.3753  -26.6181   20.0640 O   0  0  0  0  0  0
  -26.5605  -34.8928   22.4687 O   0  0  0  0  0  0
  -23.5362  -32.1411   23.7446 O   0  0  0  0  0  0
  -31.4328  -18.6884   22.3437 C   0  0  0  0  0  0
  -30.7631  -19.7176   21.6494 C   0  0  0  0  0  0
  -31.1702  -17.3317   22.0561 C   0  0  0  0  0  0
  -29.5338  -18.0294   20.3932 C   0  0  0  0  0  0
  -29.8180  -19.4056   20.6500 C   0  0  0  0  0  0
  -30.2122  -16.9799   21.0798 C   0  0  0  0  0  0
  -28.9054  -23.0309   20.1310 C   0  0  0  0  0  0
  -29.2001  -20.5322   19.7908 C   0  0  0  0  0  0
  -27.9045  -24.1140   20.6241 C   0  0  0  0  0  0
  -28.4618  -25.5293   21.0183 C   0  0  0  0  0  0
  -29.8633  -15.6012   20.8598 N   0  0  0  0  0  0
  -28.6824  -21.7390   20.4812 N   0  0  0  0  0  0
  -29.8291  -23.3516   19.3810 O   0  0  0  0  0  0
  -31.4772  -12.4645   19.1313 H   0  0  0  0  0  0
  -30.3616  -11.3445   19.8643 H   0  0  0  0  0  0
  -29.7591  -11.7416   17.4605 H   0  0  0  0  0  0
  -29.6566  -13.4618   17.7438 H   0  0  0  0  0  0
  -27.8567  -11.2845   18.8599 H   0  0  0  0  0  0
  -27.3684  -12.5694   17.7881 H   0  0  0  0  0  0
  -27.6818  -14.2409   19.5249 H   0  0  0  0  0  0
  -28.6936  -12.0090   21.3612 H   0  0  0  0  0  0
  -28.4538  -13.6636   21.8433 H   0  0  0  0  0  0
  -25.2724   -9.5718   22.4748 H   0  0  0  0  0  0
  -23.9987   -7.4642   22.7475 H   0  0  0  0  0  0
  -21.0801   -8.8752   19.8963 H   0  0  0  0  0  0
  -22.3629  -10.9664   19.6161 H   0  0  0  0  0  0
  -21.2007   -7.6131   23.9705 H   0  0  0  0  0  0
  -21.1484   -6.0504   25.9073 H   0  0  0  0  0  0
  -22.0600   -2.7588   23.2846 H   0  0  0  0  0  0
  -22.4050  -11.9947   22.4846 H   0  0  0  0  0  0
  -21.1094  -13.1342   22.2567 H   0  0  0  0  0  0
  -24.6608  -15.8406   20.5200 H   0  0  0  0  0  0
  -26.2728  -15.6285   20.0666 H   0  0  0  0  0  0
  -26.7126  -32.5510   23.1139 H   0  0  0  0  0  0
  -25.0049  -33.9758   25.0455 H   0  0  0  0  0  0
  -22.6988  -31.3057   21.4059 H   0  0  0  0  0  0
  -23.3765  -35.9616   23.3238 H   0  0  0  0  0  0
  -24.3601  -36.8984   22.2063 H   0  0  0  0  0  0
  -23.7196  -37.6480   23.6687 H   0  0  0  0  0  0
  -26.0605  -31.5805   20.5971 H   0  0  0  0  0  0
  -26.8258  -30.8700   21.9897 H   0  0  0  0  0  0
  -28.1103  -29.0689   21.1661 H   0  0  0  0  0  0
  -26.0527  -25.9597   19.0013 H   0  0  0  0  0  0
  -23.9806  -27.2955   19.0234 H   0  0  0  0  0  0
  -23.7274  -30.5877   19.4019 H   0  0  0  0  0  0
  -22.7434  -29.2364   19.8718 H   0  0  0  0  0  0
  -25.1262  -36.1949   25.0832 H   0  0  0  0  0  0
  -20.9965  -28.3237   24.1421 H   0  0  0  0  0  0
  -20.5655  -26.2278   23.3602 H   0  0  0  0  0  0
  -21.6641  -26.7433   22.1209 H   0  0  0  0  0  0
  -19.6911  -25.6291   21.1235 H   0  0  0  0  0  0
  -19.6695  -27.3186   20.6735 H   0  0  0  0  0  0
  -17.4199  -26.6672   21.4010 H   0  0  0  0  0  0
  -18.0330  -26.0054   22.8998 H   0  0  0  0  0  0
  -19.7928  -30.7245   24.2294 H   0  0  0  0  0  0
  -17.5009  -31.6268   24.5150 H   0  0  0  0  0  0
  -15.5346  -30.2985   23.7636 H   0  0  0  0  0  0
  -15.8664  -28.0803   22.7082 H   0  0  0  0  0  0
  -24.5882  -30.7104   25.7797 H   0  0  0  0  0  0
  -24.8955  -32.2890   26.4939 H   0  0  0  0  0  0
  -25.8073  -30.8859   27.0215 H   0  0  0  0  0  0
  -26.2870  -29.6777   24.1200 H   0  0  0  0  0  0
  -27.4102  -29.7304   25.4599 H   0  0  0  0  0  0
  -27.8700  -30.4358   23.9279 H   0  0  0  0  0  0
  -27.2695  -33.3622   26.2061 H   0  0  0  0  0  0
  -28.3839  -32.6891   25.0264 H   0  0  0  0  0  0
  -28.0761  -31.8441   26.5348 H   0  0  0  0  0  0
  -28.2534  -38.0155   24.7628 H   0  0  0  0  0  0
  -28.1180  -36.2698   24.6077 H   0  0  0  0  0  0
  -27.2352  -37.1189   25.8847 H   0  0  0  0  0  0
  -20.9319  -29.8746   21.6915 H   0  0  0  0  0  0
  -26.0161  -38.2860   24.1515 H   0  0  0  0  0  0
  -32.1620  -18.9431   23.1011 H   0  0  0  0  0  0
  -31.0023  -20.7519   21.8651 H   0  0  0  0  0  0
  -31.6955  -16.5650   22.6092 H   0  0  0  0  0  0
  -28.8014  -17.7763   19.6402 H   0  0  0  0  0  0
  -28.3794  -20.1190   19.2031 H   0  0  0  0  0  0
  -29.9575  -20.8220   19.0607 H   0  0  0  0  0  0
  -27.4040  -23.7024   21.5009 H   0  0  0  0  0  0
  -27.1228  -24.2122   19.8735 H   0  0  0  0  0  0
  -29.5137  -25.4288   21.2889 H   0  0  0  0  0  0
  -27.9734  -25.8446   21.9419 H   0  0  0  0  0  0
  -28.8819  -15.3798   20.9223 H   0  0  0  0  0  0
  -27.9251  -21.5722   21.1302 H   0  0  0  0  0  0
  1 25  1  0  0  0
  1 30  2  0  0  0
  1 81  1  0  0  0
  2  3  1  0  0  0
  2 25  1  0  0  0
  2 84  1  0  0  0
  2 85  1  0  0  0
  3  4  1  0  0  0
  3 86  1  0  0  0
  3 87  1  0  0  0
  4  5  1  0  0  0
  4 88  1  0  0  0
  4 89  1  0  0  0
  5  6  1  0  0  0
  5 26  1  0  0  0
  5 90  1  0  0  0
  6 25  1  0  0  0
  6 91  1  0  0  0
  6 92  1  0  0  0
  7  8  2  0  0  0
  7 26  1  0  0  0
  7 29  1  0  0  0
  8  9  1  0  0  0
  8 22  1  0  0  0
  9 10  1  0  0  0
  9 27  2  0  0  0
 10 11  2  0  0  0
 10 15  1  0  0  0
 11 12  1  0  0  0
 11 93  1  0  0  0
 12 13  2  0  0  0
 12 94  1  0  0  0
 13 14  1  0  0  0
 13 31  1  0  0  0
 14 15  2  0  0  0
 14 95  1  0  0  0
 15 96  1  0  0  0
 16 17  2  0  0  0
 16 21  1  0  0  0
 16 31  1  0  0  0
 17 18  1  0  0  0
 17 97  1  0  0  0
 18 19  2  0  0  0
 18 98  1  0  0  0
 19 20  1  0  0  0
 19 24  1  0  0  0
 20 21  2  0  0  0
 20 99  1  0  0  0
 21 23  1  0  0  0
 22 28  1  0  0  0
 22 32  2  0  0  0
 26 27  1  0  0  0
 28100  1  0  0  0
 28101  1  0  0  0
 29102  1  0  0  0
 29103  1  0  0  0
 33 34  1  0  0  0
 33 66  1  0  0  0
 33 70  2  0  0  0
 34 36  1  0  0  0
 34 59  1  0  0  0
 34104  1  0  0  0
 35 44  2  0  0  0
 35 45  1  0  0  0
 35 68  1  0  0  0
 36 56  1  0  0  0
 36105  1  0  0  0
 37 39  1  0  0  0
 37 47  1  0  0  0
 37 66  1  0  0  0
 37106  1  0  0  0
 38 43  2  0  0  0
 38 46  1  0  0  0
 38 47  1  0  0  0
 39 64  1  0  0  0
 39 67  2  0  0  0
 40 52  1  0  0  0
 40 53  2  0  0  0
 40 58  1  0  0  0
 41107  1  0  0  0
 41108  1  0  0  0
 41109  1  0  0  0
 41 48  1  0  0  0
 42 43  1  0  0  0
 42 66  1  0  0  0
 42110  1  0  0  0
 42111  1  0  0  0
 43 44  1  0  0  0
 44112  1  0  0  0
 45 46  2  0  0  0
 45113  1  0  0  0
 46114  1  0  0  0
 47115  1  0  0  0
 47116  1  0  0  0
 48 56  1  0  0  0
 48 65  1  0  0  0
 48117  1  0  0  0
 49 50  1  0  0  0
 49 53  1  0  0  0
 49 64  1  0  0  0
 49118  1  0  0  0
 50 51  1  0  0  0
 50119  1  0  0  0
 50120  1  0  0  0
 51 52  1  0  0  0
 51121  1  0  0  0
 51122  1  0  0  0
 52123  1  0  0  0
 52124  1  0  0  0
 53 54  1  0  0  0
 54 55  2  0  0  0
 54125  1  0  0  0
 55 57  1  0  0  0
 55126  1  0  0  0
 56 69  2  0  0  0
 57 58  2  0  0  0
 57127  1  0  0  0
 58128  1  0  0  0
 59 60  1  0  0  0
 59 61  1  0  0  0
 59 62  1  0  0  0
 60129  1  0  0  0
 60130  1  0  0  0
 60131  1  0  0  0
 61132  1  0  0  0
 61133  1  0  0  0
 61134  1  0  0  0
 62135  1  0  0  0
 62136  1  0  0  0
 62137  1  0  0  0
 63 65  1  0  0  0
 63138  1  0  0  0
 63139  1  0  0  0
 63140  1  0  0  0
 64141  1  0  0  0
 65142  1  0  0  0
 68 80  1  0  0  0
 71 72  2  0  0  0
 71 73  1  0  0  0
 71143  1  0  0  0
 72 75  1  0  0  0
 72144  1  0  0  0
 73 76  2  0  0  0
 73145  1  0  0  0
 74 75  2  0  0  0
 74 76  1  0  0  0
 74146  1  0  0  0
 75 78  1  0  0  0
 76 81  1  0  0  0
 77 79  1  0  0  0
 77 82  1  0  0  0
 77 83  2  0  0  0
 78 82  1  0  0  0
 78147  1  0  0  0
 78148  1  0  0  0
 79 80  1  0  0  0
 79149  1  0  0  0
 79150  1  0  0  0
 80151  1  0  0  0
 80152  1  0  0  0
 81153  1  0  0  0
 82154  1  0  0  0
M  ISO  4   1 100  68 101  80 101  81 100
M  END
> <chiral flag>
0

> <version>
0

> <s_m_source_file>
/data/baiqing/PycharmProjects/Reinvent-master-3.2/result/LINK_invent/BTK/process_docking_weight1_custom_product_contain_oxygen_bond_distance_aromatic_linkinvent_7_9_3/rearranged_h_0049.sdf

> <i_m_source_file_index>
2

> <r_mmod_Potential_Energy-OPLS-2005>
-92.7453842163086

> <r_mmod_Stretch_Energy-OPLS-2005>
48.0562591552734

> <r_mmod_Bend_Energy-OPLS-2005>
107.80362701416

> <r_mmod_Torsional_Energy-OPLS-2005>
253.35368347168

> <r_mmod_Improper_Torsional_Energy-OPLS-2005>
6.87163639068604

> <r_mmod_Van_der_Waal_Energy-OPLS-2005>
140.314483642578

> <r_mmod_Electrostatic_Energy-OPLS-2005>
-425.889587402344

> <r_mmod_Solvation_Energy-OPLS-2005>
-247.014984130859

> <b_mmod_Minimization_Converged-OPLS-2005>
0

> <r_mmod_RMS_Derivative-OPLS-2005>
1.8361736536026

$$$$
2
                    3D
 Structure written by MMmdl.
175183  0  0  1  0            999 V2000
  -29.5601  -15.6999   20.2920 C   0  0  0  0  0  0
  -30.2915  -13.1688   19.5951 C   0  0  0  0  0  0
  -29.4991  -12.6603   18.3523 C   0  0  0  0  0  0
  -28.0761  -12.2258   18.7526 C   0  0  0  0  0  0
  -27.4922  -13.2184   19.7792 C   0  0  2  0  0  0
  -28.4193  -13.4579   20.9542 C   0  0  0  0  0  0
  -25.1893  -13.8022   20.5644 C   0  0  0  0  0  0
  -24.1327  -13.0295   20.9406 C   0  0  0  0  0  0
  -24.5941  -11.6769   20.8854 C   0  0  0  0  0  0
  -23.8755  -10.4171   21.0512 C   0  0  0  0  0  0
  -24.3417   -9.4098   21.9221 C   0  0  0  0  0  0
  -23.6171   -8.2097   22.0718 C   0  0  0  0  0  0
  -22.4155   -8.0148   21.3526 C   0  0  0  0  0  0
  -21.9754   -9.0082   20.4617 C   0  0  0  0  0  0
  -22.7005  -10.2002   20.3083 C   0  0  0  0  0  0
  -21.6783   -6.0660   22.5278 C   0  0  0  0  0  0
  -21.3992   -6.5600   23.8204 C   0  0  0  0  0  0
  -21.3667   -5.6777   24.9179 C   0  0  0  0  0  0
  -21.6042   -4.3034   24.7244 C   0  0  0  0  0  0
  -21.8821   -3.8103   23.4372 C   0  0  0  0  0  0
  -21.9175   -4.6903   22.3415 C   0  0  0  0  0  0
  -22.7435  -13.5129   21.2084 C   0  0  0  0  0  0
  -22.1640   -4.2099   21.0985 F   0  0  0  0  0  0
  -21.5649   -3.4515   25.7756 F   0  0  0  0  0  0
  -29.4612  -14.2424   20.3302 N   0  0  0  0  0  0
  -26.1927  -12.9046   20.2706 N   0  0  0  0  0  0
  -25.8727  -11.6287   20.5523 N   0  0  0  0  0  0
  -22.0123  -12.8110   22.0643 N   0  0  0  0  0  0
  -25.3870  -15.1767   20.4048 N   0  0  0  0  0  0
  -30.7961  -15.8886   20.1166 O   0  0  0  0  0  0
  -21.6558   -6.8755   21.4221 O   0  0  0  0  0  0
  -22.3213  -14.5465   20.6915 O   0  0  0  0  0  0
  -24.6825  -31.8782   23.0113 C   0  0  0  0  0  0
  -25.9148  -32.5536   23.7514 C   0  0  1  0  0  0
  -26.9954  -27.6197   20.8996 C   0  0  0  0  0  0
  -25.5301  -33.9106   24.1385 N   0  0  0  0  0  0
  -23.8058  -29.9355   21.2760 C   0  0  2  0  0  0
  -25.2344  -29.1085   19.7088 C   0  0  0  0  0  0
  -23.3538  -28.2971   21.8271 C   0  0  0  0  0  0
  -18.1049  -27.9993   22.8303 C   0  0  0  0  0  0
  -24.1426  -36.7626   23.2572 C   0  0  0  0  0  0
  -26.0603  -30.9670   21.2257 C   0  0  0  0  0  0
  -26.2728  -29.6882   20.4626 C   0  0  0  0  0  0
  -27.3766  -28.9310   20.7765 C   0  0  0  0  0  0
  -26.2939  -26.9884   19.8253 C   0  0  0  0  0  0
  -25.3026  -27.7818   19.2297 C   0  0  0  0  0  0
  -23.9872  -29.8227   19.7846 C   0  0  0  0  0  0
  -25.4071  -36.3445   24.0214 C   0  0  1  0  0  0
  -20.7761  -27.6704   23.3062 C   0  0  2  0  0  0
  -20.3941  -26.3002   22.8247 C   0  0  0  0  0  0
  -19.3902  -26.1678   21.6851 C   0  0  0  0  0  0
  -18.0368  -26.6538   22.1430 C   0  0  0  0  0  0
  -19.3414  -28.5476   23.3321 C   0  0  0  0  0  0
  -19.1396  -29.7992   24.0110 C   0  0  0  0  0  0
  -17.8951  -30.4746   24.1042 C   0  0  0  0  0  0
  -25.9006  -34.9981   23.4743 C   0  0  0  0  0  0
  -16.7317  -29.8855   23.5898 C   0  0  0  0  0  0
  -16.8466  -28.6310   22.9793 C   0  0  0  0  0  0
  -26.4291  -31.8602   25.0774 C   0  0  0  0  0  0
  -25.3424  -31.6790   26.1876 C   0  0  0  0  0  0
  -27.1330  -30.5825   24.7149 C   0  0  0  0  0  0
  -27.5708  -32.6563   25.7334 C   0  0  0  0  0  0
  -27.5582  -37.1858   24.8444 C   0  0  0  0  0  0
  -22.2730  -27.6766   22.6432 N   0  0  0  0  0  0
  -26.4290  -37.4090   23.9424 N   0  0  0  0  0  0
  -24.8162  -30.9149   21.9782 N   0  0  0  0  0  0
  -24.0547  -27.3937   21.7257 O   0  0  0  0  0  0
  -26.4529  -27.3949   22.1839 O   0  0  0  0  0  0
  -26.5949  -34.9558   22.4586 O   0  0  0  0  0  0
  -23.5923  -32.2679   23.4618 O   0  0  0  0  0  0
  -24.1809  -21.8182   21.6573 C   0  0  0  0  0  0
  -25.6498  -19.6959   21.7070 C   0  0  0  0  0  0
  -24.7104  -22.4174   20.4922 C   0  0  0  0  0  0
  -24.6417  -20.5874   22.2286 C   0  0  0  0  0  0
  -26.4037  -19.8691   20.5189 C   0  0  0  0  0  0
  -25.8457  -21.3252   19.9911 C   0  0  0  0  0  0
  -23.8855  -24.0067   20.0329 C   0  0  0  0  0  0
  -21.3011  -29.9750   22.0445 C   0  0  0  0  0  0
  -23.9705  -20.2307   23.5385 C   0  0  0  0  0  0
  -26.6179  -21.7339   18.7649 C   0  0  0  0  0  0
  -26.5589  -27.7954   24.4926 C   0  0  0  0  0  0
  -27.7617  -18.5493   20.0878 C   0  0  0  0  0  0
  -21.1351  -28.5691   20.6429 C   0  0  0  0  0  0
  -23.8802  -29.2939   24.0479 C   0  0  0  0  0  0
  -21.9941  -26.7428   20.0482 C   0  0  0  0  0  0
  -25.5557  -28.2738   23.4318 C   0  0  1  0  0  0
  -24.0927  -24.2621   18.7564 N   0  0  0  0  0  0
  -22.2942  -30.0630   23.3284 N   0  0  0  0  0  0
  -28.3655  -16.7988   20.3257 N   0  0  0  0  0  0
  -22.9809  -25.2427   20.5424 N   0  3  0  0  0  0
  -20.6064  -30.9827   21.8486 O   0  0  0  0  0  0
  -31.2608  -13.5625   19.2842 H   0  0  0  0  0  0
  -30.5418  -12.3360   20.2549 H   0  0  0  0  0  0
  -30.0259  -11.8415   17.8630 H   0  0  0  0  0  0
  -29.4223  -13.4708   17.6231 H   0  0  0  0  0  0
  -28.1284  -11.2318   19.2017 H   0  0  0  0  0  0
  -27.4253  -12.1143   17.8835 H   0  0  0  0  0  0
  -27.3681  -14.1409   19.2058 H   0  0  0  0  0  0
  -28.7391  -12.5143   21.3955 H   0  0  0  0  0  0
  -27.9383  -14.0148   21.7582 H   0  0  0  0  0  0
  -25.2570   -9.5603   22.4778 H   0  0  0  0  0  0
  -23.9936   -7.4450   22.7373 H   0  0  0  0  0  0
  -21.0707   -8.8524   19.8869 H   0  0  0  0  0  0
  -22.3442  -10.9522   19.6176 H   0  0  0  0  0  0
  -21.1976   -7.6100   23.9703 H   0  0  0  0  0  0
  -21.1506   -6.0498   25.9088 H   0  0  0  0  0  0
  -22.0608   -2.7559   23.2866 H   0  0  0  0  0  0
  -22.3787  -11.9761   22.4981 H   0  0  0  0  0  0
  -21.0711  -13.1047   22.2884 H   0  0  0  0  0  0
  -24.6003  -15.8094   20.5113 H   0  0  0  0  0  0
  -26.0562  -15.5020   19.7220 H   0  0  0  0  0  0
  -26.7581  -32.6439   23.0716 H   0  0  0  0  0  0
  -24.8572  -33.9871   24.8874 H   0  0  0  0  0  0
  -23.1424  -30.7604   21.0450 H   0  0  0  0  0  0
  -23.3740  -35.9890   23.3101 H   0  0  0  0  0  0
  -24.3475  -36.9420   22.2003 H   0  0  0  0  0  0
  -23.7037  -37.6743   23.6686 H   0  0  0  0  0  0
  -26.0501  -31.8115   20.5417 H   0  0  0  0  0  0
  -26.9395  -31.0894   21.8424 H   0  0  0  0  0  0
  -28.0630  -29.3382   21.5030 H   0  0  0  0  0  0
  -26.2082  -25.9080   19.7503 H   0  0  0  0  0  0
  -24.5590  -27.3218   18.5960 H   0  0  0  0  0  0
  -24.0735  -30.7650   19.2453 H   0  0  0  0  0  0
  -23.2652  -29.2408   19.2379 H   0  0  0  0  0  0
  -25.1245  -36.2195   25.0690 H   0  0  0  0  0  0
  -20.9957  -27.5999   24.3620 H   0  0  0  0  0  0
  -19.8453  -25.8748   23.6590 H   0  0  0  0  0  0
  -21.2251  -25.5930   22.7198 H   0  0  0  0  0  0
  -19.2986  -25.1029   21.4604 H   0  0  0  0  0  0
  -19.6075  -26.5602   20.7073 H   0  0  0  0  0  0
  -17.3556  -26.6680   21.2908 H   0  0  0  0  0  0
  -17.6016  -25.9071   22.8061 H   0  0  0  0  0  0
  -19.9928  -30.2613   24.4888 H   0  0  0  0  0  0
  -17.8289  -31.4318   24.6055 H   0  0  0  0  0  0
  -15.7769  -30.3784   23.6466 H   0  0  0  0  0  0
  -15.9552  -28.1642   22.5923 H   0  0  0  0  0  0
  -25.2858  -32.5967   26.7847 H   0  0  0  0  0  0
  -25.5786  -30.8871   26.9000 H   0  0  0  0  0  0
  -24.3099  -31.5828   25.8501 H   0  0  0  0  0  0
  -26.6753  -30.2015   23.8317 H   0  0  0  0  0  0
  -27.1201  -29.9290   25.5815 H   0  0  0  0  0  0
  -28.1836  -30.7023   24.4471 H   0  0  0  0  0  0
  -27.2139  -33.5871   26.1758 H   0  0  0  0  0  0
  -28.3326  -32.9316   24.9995 H   0  0  0  0  0  0
  -28.0599  -32.0861   26.5264 H   0  0  0  0  0  0
  -28.2659  -38.0125   24.7714 H   0  0  0  0  0  0
  -28.1035  -36.2720   24.6068 H   0  0  0  0  0  0
  -27.2275  -37.1269   25.8825 H   0  0  0  0  0  0
  -22.6912  -26.8030   22.9091 H   0  0  0  0  0  0
  -26.0257  -38.3187   24.1557 H   0  0  0  0  0  0
  -23.3833  -22.3619   22.1451 H   0  0  0  0  0  0
  -25.8483  -18.7965   22.2713 H   0  0  0  0  0  0
  -24.1285  -21.0444   24.2421 H   0  0  0  0  0  0
  -24.4132  -19.3352   23.9871 H   0  0  0  0  0  0
  -22.8971  -20.0706   23.4297 H   0  0  0  0  0  0
  -26.7342  -22.8214   18.6807 H   0  0  0  0  0  0
  -26.1377  -21.3394   17.8720 H   0  0  0  0  0  0
  -27.6118  -21.2946   18.8435 H   0  0  0  0  0  0
  -26.2298  -28.0269   25.4954 H   0  0  0  0  0  0
  -27.5504  -28.1891   24.2864 H   0  0  0  0  0  0
  -26.7160  -26.7168   24.4640 H   0  0  0  0  0  0
  -28.6439  -19.1198   20.3732 H   0  0  0  0  0  0
  -27.7780  -18.6334   19.0020 H   0  0  0  0  0  0
  -21.3299  -29.1864   19.7702 H   0  0  0  0  0  0
  -20.0626  -28.4916   20.5054 H   0  0  0  0  0  0
  -24.2480  -29.9181   24.8289 H   0  0  0  0  0  0
  -23.4493  -28.5608   24.7239 H   0  0  0  0  0  0
  -22.6368  -27.1406   19.2831 H   0  0  0  0  0  0
  -21.2302  -26.2598   19.4362 H   0  0  0  0  0  0
  -25.0061  -27.3782   23.7205 H   0  0  0  0  0  0
  -24.7838  -23.7466   18.2481 H   0  0  0  0  0  0
  -23.7479  -25.1196   18.3778 H   0  0  0  0  0  0
  -22.1342  -30.9244   23.8260 H   0  0  0  0  0  0
  -27.5417  -16.2129   20.4084 H   0  0  0  0  0  0
  -23.2414  -25.3967   21.5074 H   0  0  0  0  0  0
  1 25  1  0  0  0
  1 30  2  0  0  0
  1 89  1  0  0  0
  2  3  1  0  0  0
  2 25  1  0  0  0
  2 92  1  0  0  0
  2 93  1  0  0  0
  3  4  1  0  0  0
  3 94  1  0  0  0
  3 95  1  0  0  0
  4  5  1  0  0  0
  4 96  1  0  0  0
  4 97  1  0  0  0
  5  6  1  0  0  0
  5 26  1  0  0  0
  5 98  1  0  0  0
  6 25  1  0  0  0
  6 99  1  0  0  0
  6100  1  0  0  0
  7  8  2  0  0  0
  7 26  1  0  0  0
  7 29  1  0  0  0
  8  9  1  0  0  0
  8 22  1  0  0  0
  9 10  1  0  0  0
  9 27  2  0  0  0
 10 11  2  0  0  0
 10 15  1  0  0  0
 11 12  1  0  0  0
 11101  1  0  0  0
 12 13  2  0  0  0
 12102  1  0  0  0
 13 14  1  0  0  0
 13 31  1  0  0  0
 14 15  2  0  0  0
 14103  1  0  0  0
 15104  1  0  0  0
 16 17  2  0  0  0
 16 21  1  0  0  0
 16 31  1  0  0  0
 17 18  1  0  0  0
 17105  1  0  0  0
 18 19  2  0  0  0
 18106  1  0  0  0
 19 20  1  0  0  0
 19 24  1  0  0  0
 20 21  2  0  0  0
 20107  1  0  0  0
 21 23  1  0  0  0
 22 28  1  0  0  0
 22 32  2  0  0  0
 26 27  1  0  0  0
 28108  1  0  0  0
 28109  1  0  0  0
 29110  1  0  0  0
 29111  1  0  0  0
 33 34  1  0  0  0
 33 66  1  0  0  0
 33 70  2  0  0  0
 34 36  1  0  0  0
 34 59  1  0  0  0
 34112  1  0  0  0
 35 44  2  0  0  0
 35 45  1  0  0  0
 35 68  1  0  0  0
 36 56  1  0  0  0
 36113  1  0  0  0
 37 39  1  0  0  0
 37 47  1  0  0  0
 37 66  1  0  0  0
 37114  1  0  0  0
 38 43  2  0  0  0
 38 46  1  0  0  0
 38 47  1  0  0  0
 39 64  1  0  0  0
 39 67  2  0  0  0
 40 52  1  0  0  0
 40 53  2  0  0  0
 40 58  1  0  0  0
 41115  1  0  0  0
 41116  1  0  0  0
 41117  1  0  0  0
 41 48  1  0  0  0
 42 43  1  0  0  0
 42 66  1  0  0  0
 42118  1  0  0  0
 42119  1  0  0  0
 43 44  1  0  0  0
 44120  1  0  0  0
 45 46  2  0  0  0
 45121  1  0  0  0
 46122  1  0  0  0
 47123  1  0  0  0
 47124  1  0  0  0
 48 56  1  0  0  0
 48 65  1  0  0  0
 48125  1  0  0  0
 49 50  1  0  0  0
 49 53  1  0  0  0
 49 64  1  0  0  0
 49126  1  0  0  0
 50 51  1  0  0  0
 50127  1  0  0  0
 50128  1  0  0  0
 51 52  1  0  0  0
 51129  1  0  0  0
 51130  1  0  0  0
 52131  1  0  0  0
 52132  1  0  0  0
 53 54  1  0  0  0
 54 55  2  0  0  0
 54133  1  0  0  0
 55 57  1  0  0  0
 55134  1  0  0  0
 56 69  2  0  0  0
 57 58  2  0  0  0
 57135  1  0  0  0
 58136  1  0  0  0
 59 60  1  0  0  0
 59 61  1  0  0  0
 59 62  1  0  0  0
 60137  1  0  0  0
 60138  1  0  0  0
 60139  1  0  0  0
 61140  1  0  0  0
 61141  1  0  0  0
 61142  1  0  0  0
 62143  1  0  0  0
 62144  1  0  0  0
 62145  1  0  0  0
 63 65  1  0  0  0
 63146  1  0  0  0
 63147  1  0  0  0
 63148  1  0  0  0
 64149  1  0  0  0
 65150  1  0  0  0
 68 86  1  0  0  0
 71 73  2  0  0  0
 71 74  1  0  0  0
 71151  1  0  0  0
 72 74  2  0  0  0
 72 75  1  0  0  0
 72152  1  0  0  0
 73 76  1  0  0  0
 73 77  1  0  0  0
 74 79  1  0  0  0
 75 76  2  0  0  0
 75 82  1  0  0  0
 76 80  1  0  0  0
 77 87  1  0  0  0
 77 90  2  0  0  0
 78 83  1  0  0  0
 78 88  1  0  0  0
 78 91  2  0  0  0
 79153  1  0  0  0
 79154  1  0  0  0
 79155  1  0  0  0
 80156  1  0  0  0
 80157  1  0  0  0
 80158  1  0  0  0
 81159  1  0  0  0
 81160  1  0  0  0
 81161  1  0  0  0
 81 86  1  0  0  0
 82 89  1  0  0  0
 82162  1  0  0  0
 82163  1  0  0  0
 83 85  1  0  0  0
 83164  1  0  0  0
 83165  1  0  0  0
 84 86  1  0  0  0
 84 88  1  0  0  0
 84166  1  0  0  0
 84167  1  0  0  0
 85 90  1  0  0  0
 85168  1  0  0  0
 85169  1  0  0  0
 86170  1  0  0  0
 87171  1  0  0  0
 87172  1  0  0  0
 88173  1  0  0  0
 89174  1  0  0  0
 90175  1  0  0  0
M  CHG  1  90   1
M  ISO  4   1 100  68 101  86 101  89 100
M  END
> <chiral flag>
0

> <version>
0

> <s_m_source_file>
/data/baiqing/PycharmProjects/Reinvent-master-3.2/result/LINK_invent/BTK/process_docking_weight1_custom_product_contain_oxygen_bond_distance_aromatic_linkinvent_7_9_3/rearranged_h_0049.sdf

> <i_m_source_file_index>
3

> <r_mmod_Potential_Energy-OPLS-2005>
9818.2919921875

> <r_mmod_Stretch_Energy-OPLS-2005>
3507.095703125

> <r_mmod_Bend_Energy-OPLS-2005>
1895.9072265625

> <r_mmod_Torsional_Energy-OPLS-2005>
505.729278564453

> <r_mmod_Improper_Torsional_Energy-OPLS-2005>
39.9119148254395

> <r_mmod_Van_der_Waal_Energy-OPLS-2005>
1343.05432128906

> <r_mmod_Electrostatic_Energy-OPLS-2005>
-418.000823974609

> <r_mmod_Solvation_Energy-OPLS-2005>
-402.880950927734

> <b_mmod_Minimization_Converged-OPLS-2005>
0

> <r_mmod_RMS_Derivative-OPLS-2005>
25.2298431396484

$$$$
3
                    3D
 Structure written by MMmdl.
164173  0  0  1  0            999 V2000
  -29.9075  -16.7888   20.2478 C   0  0  0  0  0  0
  -30.2701  -13.9754   19.4895 C   0  0  0  0  0  0
  -29.5620  -13.0296   18.4221 C   0  0  0  0  0  0
  -28.2626  -12.4180   18.9418 C   0  0  0  0  0  0
  -27.5736  -13.4654   19.8227 C   0  0  2  0  0  0
  -28.4989  -14.2682   20.8307 C   0  0  0  0  0  0
  -25.2142  -13.8562   20.6006 C   0  0  0  0  0  0
  -24.1681  -13.0492   20.9361 C   0  0  0  0  0  0
  -24.6602  -11.7075   20.8748 C   0  0  0  0  0  0
  -23.9318  -10.4338   21.0326 C   0  0  0  0  0  0
  -24.3777   -9.4237   21.9141 C   0  0  0  0  0  0
  -23.6385   -8.2300   22.0745 C   0  0  0  0  0  0
  -22.4360   -8.0341   21.3542 C   0  0  0  0  0  0
  -22.0048   -9.0327   20.4632 C   0  0  0  0  0  0
  -22.7448  -10.2174   20.3011 C   0  0  0  0  0  0
  -21.6887   -6.0775   22.5276 C   0  0  0  0  0  0
  -21.4041   -6.5663   23.8214 C   0  0  0  0  0  0
  -21.3663   -5.6805   24.9169 C   0  0  0  0  0  0
  -21.6042   -4.3068   24.7211 C   0  0  0  0  0  0
  -21.8818   -3.8169   23.4330 C   0  0  0  0  0  0
  -21.9201   -4.6995   22.3392 C   0  0  0  0  0  0
  -22.7639  -13.5073   21.1937 C   0  0  0  0  0  0
  -22.1666   -4.2179   21.0969 F   0  0  0  0  0  0
  -21.5618   -3.4544   25.7719 F   0  0  0  0  0  0
  -29.4468  -15.2442   20.0874 N   0  0  0  0  0  0
  -26.2854  -13.0247   20.3594 N   0  0  0  0  0  0
  -25.9632  -11.7122   20.5696 N   0  0  0  0  0  0
  -22.0351  -12.8008   22.0489 N   0  0  0  0  0  0
  -25.3439  -15.2325   20.4392 N   0  0  0  0  0  0
  -31.1244  -16.4005   20.3444 O   0  0  0  0  0  0
  -21.6690   -6.8947   21.4250 O   0  0  0  0  0  0
  -22.3256  -14.5347   20.6767 O   0  0  0  0  0  0
  -24.7585  -31.7015   23.0859 C   0  0  0  0  0  0
  -25.9772  -32.3998   23.7700 C   0  0  1  0  0  0
  -27.2705  -25.9121   20.2776 C   0  0  0  0  0  0
  -25.6017  -33.7870   24.1497 N   0  0  0  0  0  0
  -23.6187  -30.2642   21.4599 C   0  0  2  0  0  0
  -25.0808  -28.4309   20.1462 C   0  0  0  0  0  0
  -22.8088  -29.3789   22.4522 C   0  0  0  0  0  0
  -18.0380  -28.1456   22.8415 C   0  0  0  0  0  0
  -24.1495  -36.6950   23.2676 C   0  0  0  0  0  0
  -26.2211  -30.1715   21.4680 C   0  0  0  0  0  0
  -26.2797  -28.6462   20.8329 C   0  0  0  0  0  0
  -27.3169  -27.4466   20.8411 C   0  0  0  0  0  0
  -26.0324  -26.1056   19.5277 C   0  0  0  0  0  0
  -25.0426  -27.1892   19.4676 C   0  0  0  0  0  0
  -23.9125  -29.4798   20.1336 C   0  0  0  0  0  0
  -25.4172  -36.2623   24.0230 C   0  0  1  0  0  0
  -20.6047  -28.3839   23.1011 C   0  0  2  0  0  0
  -20.6800  -26.9428   22.5424 C   0  0  0  0  0  0
  -19.5794  -26.6339   21.5225 C   0  0  0  0  0  0
  -18.1976  -26.7968   22.1604 C   0  0  0  0  0  0
  -19.1664  -28.8990   23.2668 C   0  0  0  0  0  0
  -18.9563  -30.1554   23.8744 C   0  0  0  0  0  0
  -17.6545  -30.6621   24.0531 C   0  0  0  0  0  0
  -25.9197  -34.9034   23.4768 C   0  0  0  0  0  0
  -16.5429  -29.9090   23.6369 C   0  0  0  0  0  0
  -16.7356  -28.6516   23.0384 C   0  0  0  0  0  0
  -26.4712  -31.6378   25.0637 C   0  0  0  0  0  0
  -25.3587  -31.3905   26.1114 C   0  0  0  0  0  0
  -27.0777  -30.2653   24.7081 C   0  0  0  0  0  0
  -27.6005  -32.4432   25.7494 C   0  0  0  0  0  0
  -27.5540  -37.1618   24.8465 C   0  0  0  0  0  0
  -21.4671  -29.2924   22.3249 N   0  0  0  0  0  0
  -26.4230  -37.3474   23.9419 N   0  0  0  0  0  0
  -24.9005  -30.7651   22.0567 N   0  0  0  0  0  0
  -23.4158  -28.7544   23.3244 O   0  0  0  0  0  0
  -28.1800  -24.3667   20.3057 O   0  0  0  0  0  0
  -26.5959  -34.8772   22.4469 O   0  0  0  0  0  0
  -23.6445  -32.0456   23.5308 O   0  0  0  0  0  0
  -32.2137  -21.2808   17.3447 C   0  0  0  0  0  0
  -31.7233  -21.5316   19.7458 C   0  0  0  0  0  0
  -30.2319  -21.7762   18.3491 C   0  0  0  0  0  0
  -32.6875  -21.6041   18.6603 C   0  0  0  0  0  0
  -30.8039  -21.1840   17.2190 C   0  0  0  0  0  0
  -30.3797  -20.8781   19.5361 C   0  0  0  0  0  0
  -31.3842  -18.8594   19.1334 C   0  0  0  0  0  0
  -32.4580  -18.2953   18.5496 C   0  0  0  0  0  0
  -31.2139  -19.5147   21.1804 C   0  0  0  0  0  0
  -29.5490  -20.9417   21.6602 C   0  0  0  0  0  0
  -28.1563  -20.5521   18.8345 C   0  0  0  0  0  0
  -28.3790  -22.1827   20.3194 C   0  0  2  0  0  0
  -34.1471  -21.9013   18.9287 C   0  0  0  0  0  0
  -30.0811  -19.9300   16.7064 C   0  0  0  0  0  0
  -29.3621  -18.5938   20.1697 N   0  0  0  0  0  0
  -29.5970  -19.4221   17.9994 N   0  3  1  0  0  0
  -31.1399  -14.3812   18.9713 H   0  0  0  0  0  0
  -30.7181  -13.3796   20.2876 H   0  0  0  0  0  0
  -30.2430  -12.2431   18.0939 H   0  0  0  0  0  0
  -29.3378  -13.6237   17.5355 H   0  0  0  0  0  0
  -28.4982  -11.5390   19.5437 H   0  0  0  0  0  0
  -27.6203  -12.0876   18.1240 H   0  0  0  0  0  0
  -27.2909  -14.2195   19.0859 H   0  0  0  0  0  0
  -29.0021  -13.6066   21.5384 H   0  0  0  0  0  0
  -27.8719  -14.8975   21.4619 H   0  0  0  0  0  0
  -25.2907   -9.5689   22.4747 H   0  0  0  0  0  0
  -24.0059   -7.4701   22.7496 H   0  0  0  0  0  0
  -21.0969   -8.8885   19.8944 H   0  0  0  0  0  0
  -22.3910  -10.9713   19.6119 H   0  0  0  0  0  0
  -21.2052   -7.6173   23.9729 H   0  0  0  0  0  0
  -21.1478   -6.0529   25.9072 H   0  0  0  0  0  0
  -22.0589   -2.7630   23.2821 H   0  0  0  0  0  0
  -22.4049  -11.9714   22.4890 H   0  0  0  0  0  0
  -21.0932  -13.0936   22.2679 H   0  0  0  0  0  0
  -24.5596  -15.8673   20.5424 H   0  0  0  0  0  0
  -26.1885  -15.6903   20.1222 H   0  0  0  0  0  0
  -26.7960  -32.4339   23.0497 H   0  0  0  0  0  0
  -24.9932  -33.8768   24.9500 H   0  0  0  0  0  0
  -22.9913  -31.1195   21.1995 H   0  0  0  0  0  0
  -23.3803  -35.9226   23.3196 H   0  0  0  0  0  0
  -24.3543  -36.8803   22.2120 H   0  0  0  0  0  0
  -23.7213  -37.6039   23.6911 H   0  0  0  0  0  0
  -26.5022  -30.8416   20.6547 H   0  0  0  0  0  0
  -27.0470  -30.2605   22.1592 H   0  0  0  0  0  0
  -28.2072  -27.6609   21.4153 H   0  0  0  0  0  0
  -25.7457  -25.2366   18.9523 H   0  0  0  0  0  0
  -24.1641  -26.9933   18.8679 H   0  0  0  0  0  0
  -24.1475  -30.2017   19.3510 H   0  0  0  0  0  0
  -23.0022  -28.9822   19.7952 H   0  0  0  0  0  0
  -25.1418  -36.1267   25.0714 H   0  0  0  0  0  0
  -21.0092  -28.3521   24.1153 H   0  0  0  0  0  0
  -20.5583  -26.2487   23.3754 H   0  0  0  0  0  0
  -21.6659  -26.7243   22.1300 H   0  0  0  0  0  0
  -19.6938  -25.6212   21.1349 H   0  0  0  0  0  0
  -19.6769  -27.3070   20.6697 H   0  0  0  0  0  0
  -17.4254  -26.6716   21.3999 H   0  0  0  0  0  0
  -18.0333  -26.0142   22.9025 H   0  0  0  0  0  0
  -19.8043  -30.7399   24.2055 H   0  0  0  0  0  0
  -17.5100  -31.6287   24.5162 H   0  0  0  0  0  0
  -15.5425  -30.2952   23.7780 H   0  0  0  0  0  0
  -15.8754  -28.0787   22.7191 H   0  0  0  0  0  0
  -24.5837  -30.7195   25.7391 H   0  0  0  0  0  0
  -24.8718  -32.3188   26.4107 H   0  0  0  0  0  0
  -25.7592  -30.9343   27.0177 H   0  0  0  0  0  0
  -26.3617  -29.5999   24.2253 H   0  0  0  0  0  0
  -27.4088  -29.7441   25.6075 H   0  0  0  0  0  0
  -27.9629  -30.3637   24.0800 H   0  0  0  0  0  0
  -27.2441  -33.3893   26.1583 H   0  0  0  0  0  0
  -28.4050  -32.6740   25.0499 H   0  0  0  0  0  0
  -28.0414  -31.8909   26.5802 H   0  0  0  0  0  0
  -28.2461  -37.9999   24.7539 H   0  0  0  0  0  0
  -28.1129  -36.2511   24.6252 H   0  0  0  0  0  0
  -27.2259  -37.1186   25.8865 H   0  0  0  0  0  0
  -21.0165  -29.8440   21.6079 H   0  0  0  0  0  0
  -25.9984  -38.2479   24.1467 H   0  0  0  0  0  0
  -32.8924  -20.9952   16.5515 H   0  0  0  0  0  0
  -32.1405  -21.7021   20.7283 H   0  0  0  0  0  0
  -30.5105  -22.8280   18.4438 H   0  0  0  0  0  0
  -33.3447  -18.0766   19.1252 H   0  0  0  0  0  0
  -32.4668  -18.0444   17.4996 H   0  0  0  0  0  0
  -32.1847  -19.8608   21.5371 H   0  0  0  0  0  0
  -31.1243  -18.6561   21.8491 H   0  0  0  0  0  0
  -29.9035  -21.5892   22.4621 H   0  0  0  0  0  0
  -28.8008  -20.3280   22.1620 H   0  0  0  0  0  0
  -27.6112  -20.9849   17.9944 H   0  0  0  0  0  0
  -27.4172  -19.8662   19.2469 H   0  0  0  0  0  0
  -27.4026  -22.0892   20.7937 H   0  0  0  0  0  0
  -34.7551  -21.7295   18.0401 H   0  0  0  0  0  0
  -34.5274  -21.2650   19.7282 H   0  0  0  0  0  0
  -34.2713  -22.9416   19.2300 H   0  0  0  0  0  0
  -30.7535  -19.2271   16.2150 H   0  0  0  0  0  0
  -29.2572  -20.1831   16.0393 H   0  0  0  0  0  0
  -28.3519  -18.6042   20.1246 H   0  0  0  0  0  0
  -29.8994  -20.3840   18.1069 H   0  0  0  0  0  0
  1 25  1  0  0  0
  1 30  2  0  0  0
  1 85  1  0  0  0
  2  3  1  0  0  0
  2 25  1  0  0  0
  2 87  1  0  0  0
  2 88  1  0  0  0
  3  4  1  0  0  0
  3 89  1  0  0  0
  3 90  1  0  0  0
  4  5  1  0  0  0
  4 91  1  0  0  0
  4 92  1  0  0  0
  5  6  1  0  0  0
  5 26  1  0  0  0
  5 93  1  0  0  0
  6 25  1  0  0  0
  6 94  1  0  0  0
  6 95  1  0  0  0
  7  8  2  0  0  0
  7 26  1  0  0  0
  7 29  1  0  0  0
  8  9  1  0  0  0
  8 22  1  0  0  0
  9 10  1  0  0  0
  9 27  2  0  0  0
 10 11  2  0  0  0
 10 15  1  0  0  0
 11 12  1  0  0  0
 11 96  1  0  0  0
 12 13  2  0  0  0
 12 97  1  0  0  0
 13 14  1  0  0  0
 13 31  1  0  0  0
 14 15  2  0  0  0
 14 98  1  0  0  0
 15 99  1  0  0  0
 16 17  2  0  0  0
 16 21  1  0  0  0
 16 31  1  0  0  0
 17 18  1  0  0  0
 17100  1  0  0  0
 18 19  2  0  0  0
 18101  1  0  0  0
 19 20  1  0  0  0
 19 24  1  0  0  0
 20 21  2  0  0  0
 20102  1  0  0  0
 21 23  1  0  0  0
 22 28  1  0  0  0
 22 32  2  0  0  0
 26 27  1  0  0  0
 28103  1  0  0  0
 28104  1  0  0  0
 29105  1  0  0  0
 29106  1  0  0  0
 33 34  1  0  0  0
 33 66  1  0  0  0
 33 70  2  0  0  0
 34 36  1  0  0  0
 34 59  1  0  0  0
 34107  1  0  0  0
 35 44  2  0  0  0
 35 45  1  0  0  0
 35 68  1  0  0  0
 36 56  1  0  0  0
 36108  1  0  0  0
 37 39  1  0  0  0
 37 47  1  0  0  0
 37 66  1  0  0  0
 37109  1  0  0  0
 38 43  2  0  0  0
 38 46  1  0  0  0
 38 47  1  0  0  0
 39 64  1  0  0  0
 39 67  2  0  0  0
 40 52  1  0  0  0
 40 53  2  0  0  0
 40 58  1  0  0  0
 41110  1  0  0  0
 41111  1  0  0  0
 41112  1  0  0  0
 41 48  1  0  0  0
 42 43  1  0  0  0
 42 66  1  0  0  0
 42113  1  0  0  0
 42114  1  0  0  0
 43 44  1  0  0  0
 44115  1  0  0  0
 45 46  2  0  0  0
 45116  1  0  0  0
 46117  1  0  0  0
 47118  1  0  0  0
 47119  1  0  0  0
 48 56  1  0  0  0
 48 65  1  0  0  0
 48120  1  0  0  0
 49 50  1  0  0  0
 49 53  1  0  0  0
 49 64  1  0  0  0
 49121  1  0  0  0
 50 51  1  0  0  0
 50122  1  0  0  0
 50123  1  0  0  0
 51 52  1  0  0  0
 51124  1  0  0  0
 51125  1  0  0  0
 52126  1  0  0  0
 52127  1  0  0  0
 53 54  1  0  0  0
 54 55  2  0  0  0
 54128  1  0  0  0
 55 57  1  0  0  0
 55129  1  0  0  0
 56 69  2  0  0  0
 57 58  2  0  0  0
 57130  1  0  0  0
 58131  1  0  0  0
 59 60  1  0  0  0
 59 61  1  0  0  0
 59 62  1  0  0  0
 60132  1  0  0  0
 60133  1  0  0  0
 60134  1  0  0  0
 61135  1  0  0  0
 61136  1  0  0  0
 61137  1  0  0  0
 62138  1  0  0  0
 62139  1  0  0  0
 62140  1  0  0  0
 63 65  1  0  0  0
 63141  1  0  0  0
 63142  1  0  0  0
 63143  1  0  0  0
 64144  1  0  0  0
 65145  1  0  0  0
 68 82  1  0  0  0
 71 74  2  0  0  0
 71 75  1  0  0  0
 71146  1  0  0  0
 72 74  1  0  0  0
 72 76  2  0  0  0
 72147  1  0  0  0
 73 75  2  0  0  0
 73 76  1  0  0  0
 73148  1  0  0  0
 74 83  1  0  0  0
 75 84  1  0  0  0
 76 85  1  0  0  0
 77 78  2  0  0  0
 77 79  1  0  0  0
 77 86  1  0  0  0
 78149  1  0  0  0
 78150  1  0  0  0
 79 80  1  0  0  0
 79151  1  0  0  0
 79152  1  0  0  0
 80 82  1  0  0  0
 80153  1  0  0  0
 80154  1  0  0  0
 81 82  1  0  0  0
 81 86  1  0  0  0
 81155  1  0  0  0
 81156  1  0  0  0
 82157  1  0  0  0
 83158  1  0  0  0
 83159  1  0  0  0
 83160  1  0  0  0
 84161  1  0  0  0
 84162  1  0  0  0
 84 86  1  0  0  0
 85163  1  0  0  0
 86164  1  0  0  0
M  CHG  1  86   1
M  ISO  4   1 100  68 101  82 101  85 100
M  END
> <chiral flag>
0

> <version>
0

> <s_m_source_file>
/data/baiqing/PycharmProjects/Reinvent-master-3.2/result/LINK_invent/BTK/process_docking_weight1_custom_product_contain_oxygen_bond_distance_aromatic_linkinvent_7_9_3/rearranged_h_0049.sdf

> <i_m_source_file_index>
4

> <r_mmod_Potential_Energy-OPLS-2005>
14312.6513671875

> <r_mmod_Stretch_Energy-OPLS-2005>
7618.00439453125

> <r_mmod_Bend_Energy-OPLS-2005>
1388.14758300781

> <r_mmod_Torsional_Energy-OPLS-2005>
589.977294921875

> <r_mmod_Improper_Torsional_Energy-OPLS-2005>
42.100284576416

> <r_mmod_Van_der_Waal_Energy-OPLS-2005>
1989.84460449219

> <r_mmod_Electrostatic_Energy-OPLS-2005>
-299.803436279297

> <r_mmod_Solvation_Energy-OPLS-2005>
-420.022705078125

> <b_mmod_Minimization_Converged-OPLS-2005>
0

> <r_mmod_RMS_Derivative-OPLS-2005>
1.044762134552

$$$$
4
                    3D
 Structure written by MMmdl.
156164  0  0  1  0            999 V2000
  -30.6023  -14.7091   20.4840 C   0  0  0  0  0  0
  -30.4319  -12.4316   19.4840 C   0  0  0  0  0  0
  -29.5147  -12.5145   18.2420 C   0  0  0  0  0  0
  -28.0370  -12.3505   18.6483 C   0  0  0  0  0  0
  -27.6491  -13.2313   19.8667 C   0  0  2  0  0  0
  -28.6873  -13.1263   21.0063 C   0  0  0  0  0  0
  -25.2531  -13.8185   20.5743 C   0  0  0  0  0  0
  -24.1821  -13.0420   20.9225 C   0  0  0  0  0  0
  -24.6417  -11.6905   20.8770 C   0  0  0  0  0  0
  -23.9104  -10.4265   21.0410 C   0  0  0  0  0  0
  -24.3638   -9.4172   21.9194 C   0  0  0  0  0  0
  -23.6292   -8.2216   22.0747 C   0  0  0  0  0  0
  -22.4277   -8.0276   21.3529 C   0  0  0  0  0  0
  -21.9931   -9.0255   20.4636 C   0  0  0  0  0  0
  -22.7291  -10.2116   20.3047 C   0  0  0  0  0  0
  -21.6828   -6.0742   22.5275 C   0  0  0  0  0  0
  -21.4016   -6.5654   23.8217 C   0  0  0  0  0  0
  -21.3656   -5.6805   24.9183 C   0  0  0  0  0  0
  -21.6031   -4.3072   24.7231 C   0  0  0  0  0  0
  -21.8824   -3.8153   23.4355 C   0  0  0  0  0  0
  -21.9185   -4.6974   22.3409 C   0  0  0  0  0  0
  -22.7844  -13.5185   21.1873 C   0  0  0  0  0  0
  -22.1660   -4.2154   21.0990 F   0  0  0  0  0  0
  -21.5613   -3.4558   25.7747 F   0  0  0  0  0  0
  -29.9988  -13.4739   20.4453 N   0  0  0  0  0  0
  -26.2968  -12.9404   20.3330 N   0  0  0  0  0  0
  -25.9349  -11.6546   20.5793 N   0  0  0  0  0  0
  -22.0471  -12.8135   22.0380 N   0  0  0  0  0  0
  -25.4220  -15.1911   20.4215 N   0  0  0  0  0  0
  -31.7498  -14.8485   20.0501 O   0  0  0  0  0  0
  -21.6618   -6.8891   21.4239 O   0  0  0  0  0  0
  -22.3520  -14.5500   20.6742 O   0  0  0  0  0  0
  -24.6287  -31.8579   23.2014 C   0  0  0  0  0  0
  -25.9143  -32.4754   23.8342 C   0  0  1  0  0  0
  -27.2161  -27.2652   20.1308 C   0  0  0  0  0  0
  -25.5956  -33.8560   24.2272 N   0  0  0  0  0  0
  -23.4249  -30.4812   21.5429 C   0  0  2  0  0  0
  -24.8735  -28.9316   20.1074 C   0  0  0  0  0  0
  -22.7479  -29.4624   22.4902 C   0  0  0  0  0  0
  -18.0296  -28.1392   22.8494 C   0  0  0  0  0  0
  -24.1475  -36.7257   23.2639 C   0  0  0  0  0  0
  -25.9697  -30.7714   21.3806 C   0  0  0  0  0  0
  -26.0431  -29.3949   20.7217 C   0  0  0  0  0  0
  -27.2164  -28.5728   20.7240 C   0  0  0  0  0  0
  -26.0266  -26.8774   19.4732 C   0  0  0  0  0  0
  -24.8715  -27.6824   19.4709 C   0  0  0  0  0  0
  -23.6440  -29.8171   20.1573 C   0  0  0  0  0  0
  -25.4104  -36.3065   24.0325 C   0  0  1  0  0  0
  -20.5897  -28.3708   23.1262 C   0  0  2  0  0  0
  -20.6775  -26.9427   22.5403 C   0  0  0  0  0  0
  -19.5753  -26.6398   21.5202 C   0  0  0  0  0  0
  -18.1940  -26.7934   22.1624 C   0  0  0  0  0  0
  -19.1550  -28.8866   23.2874 C   0  0  0  0  0  0
  -18.9468  -30.1460   23.8895 C   0  0  0  0  0  0
  -17.6472  -30.6594   24.0569 C   0  0  0  0  0  0
  -25.9048  -34.9436   23.5089 C   0  0  0  0  0  0
  -16.5364  -29.9089   23.6341 C   0  0  0  0  0  0
  -16.7282  -28.6505   23.0367 C   0  0  0  0  0  0
  -26.4520  -31.6571   25.0723 C   0  0  0  0  0  0
  -25.3732  -31.3744   26.1434 C   0  0  0  0  0  0
  -27.0363  -30.2981   24.6213 C   0  0  0  0  0  0
  -27.6072  -32.4302   25.7509 C   0  0  0  0  0  0
  -27.5565  -37.1790   24.8474 C   0  0  0  0  0  0
  -21.4197  -29.3044   22.3628 N   0  0  0  0  0  0
  -26.4280  -37.3761   23.9412 N   0  0  0  0  0  0
  -24.6932  -31.0536   22.0986 N   0  0  0  0  0  0
  -23.4186  -28.8157   23.3000 O   0  0  0  0  0  0
  -28.3072  -26.3667   20.2141 O   0  0  0  0  0  0
  -26.5611  -34.8918   22.4650 O   0  0  0  0  0  0
  -23.5444  -32.1409   23.7321 O   0  0  0  0  0  0
  -29.3269  -19.6342   18.8917 C   0  0  0  0  0  0
  -29.7397  -17.2175   18.8728 C   0  0  0  0  0  0
  -29.3402  -19.6970   20.3040 C   0  0  0  0  0  0
  -29.5514  -18.4130   21.0002 C   0  0  0  0  0  0
  -29.7557  -17.1530   20.2838 C   0  0  0  0  0  0
  -29.5226  -18.4290   18.1937 C   0  0  0  0  0  0
  -29.1506  -21.1113   20.9093 C   0  0  0  0  0  0
  -29.5788  -18.3514   22.5251 C   0  0  0  0  0  0
  -29.0535  -23.7803   20.6555 C   0  0  0  0  0  0
  -28.0827  -24.8921   19.9996 C   0  0  0  0  0  0
  -29.1653  -21.2514   22.2306 N   0  0  0  0  0  0
  -29.8600  -15.8040   20.8960 N   0  0  0  0  0  0
  -28.9714  -22.2990   20.2079 N   0  3  0  0  0  0
  -29.4910  -18.4343   16.8386 F   0  0  0  0  0  0
  -31.4759  -12.5488   19.1864 H   0  0  0  0  0  0
  -30.3656  -11.4447   19.9437 H   0  0  0  0  0  0
  -29.7885  -11.7454   17.5163 H   0  0  0  0  0  0
  -29.6539  -13.4746   17.7421 H   0  0  0  0  0  0
  -27.8780  -11.2992   18.8894 H   0  0  0  0  0  0
  -27.3875  -12.5733   17.8005 H   0  0  0  0  0  0
  -27.6555  -14.2624   19.5124 H   0  0  0  0  0  0
  -28.7070  -12.1162   21.4173 H   0  0  0  0  0  0
  -28.4188  -13.7846   21.8347 H   0  0  0  0  0  0
  -25.2770   -9.5612   22.4795 H   0  0  0  0  0  0
  -23.9963   -7.4611   22.7484 H   0  0  0  0  0  0
  -21.0846   -8.8798   19.8957 H   0  0  0  0  0  0
  -22.3778  -10.9648   19.6148 H   0  0  0  0  0  0
  -21.2031   -7.6167   23.9719 H   0  0  0  0  0  0
  -21.1462   -6.0542   25.9080 H   0  0  0  0  0  0
  -22.0610   -2.7610   23.2861 H   0  0  0  0  0  0
  -22.4076  -11.9764   22.4729 H   0  0  0  0  0  0
  -21.1075  -13.1120   22.2557 H   0  0  0  0  0  0
  -24.6586  -15.8445   20.5599 H   0  0  0  0  0  0
  -26.2556  -15.6309   20.0543 H   0  0  0  0  0  0
  -26.7194  -32.5437   23.1075 H   0  0  0  0  0  0
  -25.0122  -33.9690   25.0432 H   0  0  0  0  0  0
  -22.7210  -31.3041   21.3988 H   0  0  0  0  0  0
  -23.3742  -35.9584   23.3315 H   0  0  0  0  0  0
  -24.3549  -36.8871   22.2051 H   0  0  0  0  0  0
  -23.7234  -37.6464   23.6646 H   0  0  0  0  0  0
  -26.1032  -31.5330   20.6115 H   0  0  0  0  0  0
  -26.8468  -30.8266   22.0137 H   0  0  0  0  0  0
  -28.1073  -28.9189   21.2267 H   0  0  0  0  0  0
  -25.9572  -25.9275   18.9648 H   0  0  0  0  0  0
  -23.9777  -27.3281   18.9756 H   0  0  0  0  0  0
  -23.7662  -30.5946   19.4021 H   0  0  0  0  0  0
  -22.7630  -29.2507   19.8502 H   0  0  0  0  0  0
  -25.1289  -36.1906   25.0817 H   0  0  0  0  0  0
  -21.0016  -28.3296   24.1378 H   0  0  0  0  0  0
  -20.5670  -26.2326   23.3612 H   0  0  0  0  0  0
  -21.6644  -26.7444   22.1205 H   0  0  0  0  0  0
  -19.6920  -25.6308   21.1234 H   0  0  0  0  0  0
  -19.6683  -27.3196   20.6719 H   0  0  0  0  0  0
  -17.4210  -26.6692   21.4030 H   0  0  0  0  0  0
  -18.0347  -26.0055   22.9001 H   0  0  0  0  0  0
  -19.7941  -30.7273   24.2269 H   0  0  0  0  0  0
  -17.5026  -31.6278   24.5162 H   0  0  0  0  0  0
  -15.5363  -30.2998   23.7653 H   0  0  0  0  0  0
  -15.8681  -28.0812   22.7101 H   0  0  0  0  0  0
  -24.5905  -30.7097   25.7762 H   0  0  0  0  0  0
  -24.8924  -32.2924   26.4820 H   0  0  0  0  0  0
  -25.8037  -30.8951   27.0228 H   0  0  0  0  0  0
  -26.2947  -29.6733   24.1222 H   0  0  0  0  0  0
  -27.4016  -29.7258   25.4748 H   0  0  0  0  0  0
  -27.8831  -30.4234   23.9464 H   0  0  0  0  0  0
  -27.2673  -33.3607   26.2061 H   0  0  0  0  0  0
  -28.3902  -32.6852   25.0358 H   0  0  0  0  0  0
  -28.0689  -31.8434   26.5461 H   0  0  0  0  0  0
  -28.2602  -38.0070   24.7491 H   0  0  0  0  0  0
  -28.1046  -36.2601   24.6329 H   0  0  0  0  0  0
  -27.2269  -37.1469   25.8877 H   0  0  0  0  0  0
  -20.9392  -29.8765   21.6822 H   0  0  0  0  0  0
  -26.0158  -38.2828   24.1440 H   0  0  0  0  0  0
  -29.1625  -20.5231   18.3028 H   0  0  0  0  0  0
  -29.8557  -16.3209   18.2822 H   0  0  0  0  0  0
  -30.3780  -18.9793   22.9221 H   0  0  0  0  0  0
  -29.7672  -17.3484   22.9076 H   0  0  0  0  0  0
  -28.6266  -18.6759   22.9458 H   0  0  0  0  0  0
  -28.9403  -23.8404   21.7378 H   0  0  0  0  0  0
  -30.0810  -24.0887   20.4572 H   0  0  0  0  0  0
  -27.0895  -24.6446   20.3738 H   0  0  0  0  0  0
  -28.0463  -24.7209   18.9235 H   0  0  0  0  0  0
  -29.2802  -20.4291   22.8016 H   0  0  0  0  0  0
  -28.9643  -22.1237   22.6878 H   0  0  0  0  0  0
  -29.0921  -15.5667   21.5066 H   0  0  0  0  0  0
  -28.9429  -22.1864   19.2030 H   0  0  0  0  0  0
  1 25  1  0  0  0
  1 30  2  0  0  0
  1 82  1  0  0  0
  2  3  1  0  0  0
  2 25  1  0  0  0
  2 85  1  0  0  0
  2 86  1  0  0  0
  3  4  1  0  0  0
  3 87  1  0  0  0
  3 88  1  0  0  0
  4  5  1  0  0  0
  4 89  1  0  0  0
  4 90  1  0  0  0
  5  6  1  0  0  0
  5 26  1  0  0  0
  5 91  1  0  0  0
  6 25  1  0  0  0
  6 92  1  0  0  0
  6 93  1  0  0  0
  7  8  2  0  0  0
  7 26  1  0  0  0
  7 29  1  0  0  0
  8  9  1  0  0  0
  8 22  1  0  0  0
  9 10  1  0  0  0
  9 27  2  0  0  0
 10 11  2  0  0  0
 10 15  1  0  0  0
 11 12  1  0  0  0
 11 94  1  0  0  0
 12 13  2  0  0  0
 12 95  1  0  0  0
 13 14  1  0  0  0
 13 31  1  0  0  0
 14 15  2  0  0  0
 14 96  1  0  0  0
 15 97  1  0  0  0
 16 17  2  0  0  0
 16 21  1  0  0  0
 16 31  1  0  0  0
 17 18  1  0  0  0
 17 98  1  0  0  0
 18 19  2  0  0  0
 18 99  1  0  0  0
 19 20  1  0  0  0
 19 24  1  0  0  0
 20 21  2  0  0  0
 20100  1  0  0  0
 21 23  1  0  0  0
 22 28  1  0  0  0
 22 32  2  0  0  0
 26 27  1  0  0  0
 28101  1  0  0  0
 28102  1  0  0  0
 29103  1  0  0  0
 29104  1  0  0  0
 33 34  1  0  0  0
 33 66  1  0  0  0
 33 70  2  0  0  0
 34 36  1  0  0  0
 34 59  1  0  0  0
 34105  1  0  0  0
 35 44  2  0  0  0
 35 45  1  0  0  0
 35 68  1  0  0  0
 36 56  1  0  0  0
 36106  1  0  0  0
 37 39  1  0  0  0
 37 47  1  0  0  0
 37 66  1  0  0  0
 37107  1  0  0  0
 38 43  2  0  0  0
 38 46  1  0  0  0
 38 47  1  0  0  0
 39 64  1  0  0  0
 39 67  2  0  0  0
 40 52  1  0  0  0
 40 53  2  0  0  0
 40 58  1  0  0  0
 41108  1  0  0  0
 41109  1  0  0  0
 41110  1  0  0  0
 41 48  1  0  0  0
 42 43  1  0  0  0
 42 66  1  0  0  0
 42111  1  0  0  0
 42112  1  0  0  0
 43 44  1  0  0  0
 44113  1  0  0  0
 45 46  2  0  0  0
 45114  1  0  0  0
 46115  1  0  0  0
 47116  1  0  0  0
 47117  1  0  0  0
 48 56  1  0  0  0
 48 65  1  0  0  0
 48118  1  0  0  0
 49 50  1  0  0  0
 49 53  1  0  0  0
 49 64  1  0  0  0
 49119  1  0  0  0
 50 51  1  0  0  0
 50120  1  0  0  0
 50121  1  0  0  0
 51 52  1  0  0  0
 51122  1  0  0  0
 51123  1  0  0  0
 52124  1  0  0  0
 52125  1  0  0  0
 53 54  1  0  0  0
 54 55  2  0  0  0
 54126  1  0  0  0
 55 57  1  0  0  0
 55127  1  0  0  0
 56 69  2  0  0  0
 57 58  2  0  0  0
 57128  1  0  0  0
 58129  1  0  0  0
 59 60  1  0  0  0
 59 61  1  0  0  0
 59 62  1  0  0  0
 60130  1  0  0  0
 60131  1  0  0  0
 60132  1  0  0  0
 61133  1  0  0  0
 61134  1  0  0  0
 61135  1  0  0  0
 62136  1  0  0  0
 62137  1  0  0  0
 62138  1  0  0  0
 63 65  1  0  0  0
 63139  1  0  0  0
 63140  1  0  0  0
 63141  1  0  0  0
 64142  1  0  0  0
 65143  1  0  0  0
 68 80  1  0  0  0
 71 73  2  0  0  0
 71 76  1  0  0  0
 71144  1  0  0  0
 72 75  1  0  0  0
 72 76  2  0  0  0
 72145  1  0  0  0
 73 74  1  0  0  0
 73 77  1  0  0  0
 74 75  2  0  0  0
 74 78  1  0  0  0
 75 82  1  0  0  0
 76 84  1  0  0  0
 77 81  1  0  0  0
 77 83  2  0  0  0
 78146  1  0  0  0
 78147  1  0  0  0
 78148  1  0  0  0
 79 80  1  0  0  0
 79 83  1  0  0  0
 79149  1  0  0  0
 79150  1  0  0  0
 80151  1  0  0  0
 80152  1  0  0  0
 81153  1  0  0  0
 81154  1  0  0  0
 82155  1  0  0  0
 83156  1  0  0  0
M  CHG  1  83   1
M  ISO  4   1 100  68 101  80 101  82 100
M  END
> <chiral flag>
0

> <version>
0

> <s_m_source_file>
/data/baiqing/PycharmProjects/Reinvent-master-3.2/result/LINK_invent/BTK/process_docking_weight1_custom_product_contain_oxygen_bond_distance_aromatic_linkinvent_7_9_3/rearranged_h_0049.sdf

> <i_m_source_file_index>
5

> <r_mmod_Potential_Energy-OPLS-2005>
-101.715789794922

> <r_mmod_Stretch_Energy-OPLS-2005>
128.785110473633

> <r_mmod_Bend_Energy-OPLS-2005>
156.699905395508

> <r_mmod_Torsional_Energy-OPLS-2005>
238.238342285156

> <r_mmod_Improper_Torsional_Energy-OPLS-2005>
4.8705677986145

> <r_mmod_Van_der_Waal_Energy-OPLS-2005>
152.257141113281

> <r_mmod_Electrostatic_Energy-OPLS-2005>
-425.222442626953

> <r_mmod_Solvation_Energy-OPLS-2005>
-433.944122314453

> <b_mmod_Minimization_Converged-OPLS-2005>
0

> <r_mmod_RMS_Derivative-OPLS-2005>
2.51021409034729

$$$$
5
                    3D
 Structure written by MMmdl.
157165  0  0  1  0            999 V2000
  -30.6874  -14.5331   20.5547 C   0  0  0  0  0  0
  -30.4259  -12.3499   19.4228 C   0  0  0  0  0  0
  -29.4988  -12.5431   18.2053 C   0  0  0  0  0  0
  -28.0134  -12.4196   18.6016 C   0  0  0  0  0  0
  -27.6627  -13.2242   19.8810 C   0  0  2  0  0  0
  -28.7100  -13.0099   20.9950 C   0  0  0  0  0  0
  -25.2622  -13.8219   20.5771 C   0  0  0  0  0  0
  -24.1863  -13.0480   20.9223 C   0  0  0  0  0  0
  -24.6411  -11.6941   20.8725 C   0  0  0  0  0  0
  -23.9067  -10.4320   21.0373 C   0  0  0  0  0  0
  -24.3609   -9.4237   21.9146 C   0  0  0  0  0  0
  -23.6288   -8.2270   22.0731 C   0  0  0  0  0  0
  -22.4271   -8.0301   21.3514 C   0  0  0  0  0  0
  -21.9900   -9.0291   20.4623 C   0  0  0  0  0  0
  -22.7241  -10.2166   20.3032 C   0  0  0  0  0  0
  -21.6879   -6.0747   22.5260 C   0  0  0  0  0  0
  -21.4076   -6.5645   23.8206 C   0  0  0  0  0  0
  -21.3655   -5.6778   24.9147 C   0  0  0  0  0  0
  -21.6032   -4.3047   24.7182 C   0  0  0  0  0  0
  -21.8834   -3.8144   23.4308 C   0  0  0  0  0  0
  -21.9205   -4.6970   22.3376 C   0  0  0  0  0  0
  -22.7876  -13.5285   21.1840 C   0  0  0  0  0  0
  -22.1666   -4.2152   21.0951 F   0  0  0  0  0  0
  -21.5576   -3.4530   25.7692 F   0  0  0  0  0  0
  -30.0299  -13.3422   20.4364 N   0  0  0  0  0  0
  -26.3036  -12.9392   20.3386 N   0  0  0  0  0  0
  -25.9334  -11.6534   20.5705 N   0  0  0  0  0  0
  -22.0452  -12.8301   22.0368 N   0  0  0  0  0  0
  -25.4447  -15.1936   20.4264 N   0  0  0  0  0  0
  -31.8279  -14.6951   20.1099 O   0  0  0  0  0  0
  -21.6652   -6.8893   21.4219 O   0  0  0  0  0  0
  -22.3581  -14.5570   20.6639 O   0  0  0  0  0  0
  -24.6210  -31.8658   23.2070 C   0  0  0  0  0  0
  -25.9099  -32.4798   23.8406 C   0  0  1  0  0  0
  -27.2344  -27.3934   20.0904 C   0  0  0  0  0  0
  -25.5913  -33.8599   24.2296 N   0  0  0  0  0  0
  -23.4104  -30.4894   21.5449 C   0  0  2  0  0  0
  -24.8518  -28.9427   20.1196 C   0  0  0  0  0  0
  -22.7446  -29.4676   22.4946 C   0  0  0  0  0  0
  -18.0279  -28.1376   22.8467 C   0  0  0  0  0  0
  -24.1440  -36.7303   23.2658 C   0  0  0  0  0  0
  -25.9466  -30.8093   21.3750 C   0  0  0  0  0  0
  -26.0157  -29.4451   20.7130 C   0  0  0  0  0  0
  -27.2059  -28.6779   20.6902 C   0  0  0  0  0  0
  -26.0361  -26.8992   19.5209 C   0  0  0  0  0  0
  -24.8570  -27.6697   19.5278 C   0  0  0  0  0  0
  -23.6203  -29.8180   20.1614 C   0  0  0  0  0  0
  -25.4078  -36.3110   24.0338 C   0  0  1  0  0  0
  -20.5883  -28.3692   23.1228 C   0  0  2  0  0  0
  -20.6743  -26.9408   22.5394 C   0  0  0  0  0  0
  -19.5720  -26.6356   21.5192 C   0  0  0  0  0  0
  -18.1897  -26.7913   22.1608 C   0  0  0  0  0  0
  -19.1539  -28.8850   23.2833 C   0  0  0  0  0  0
  -18.9496  -30.1448   23.8868 C   0  0  0  0  0  0
  -17.6505  -30.6585   24.0559 C   0  0  0  0  0  0
  -25.9048  -34.9475   23.5113 C   0  0  0  0  0  0
  -16.5386  -29.9093   23.6333 C   0  0  0  0  0  0
  -16.7271  -28.6496   23.0360 C   0  0  0  0  0  0
  -26.4503  -31.6677   25.0815 C   0  0  0  0  0  0
  -25.3751  -31.3876   26.1569 C   0  0  0  0  0  0
  -27.0441  -30.3103   24.6382 C   0  0  0  0  0  0
  -27.6000  -32.4519   25.7581 C   0  0  0  0  0  0
  -27.5558  -37.1800   24.8459 C   0  0  0  0  0  0
  -21.4176  -29.3058   22.3658 N   0  0  0  0  0  0
  -26.4256  -37.3807   23.9416 N   0  0  0  0  0  0
  -24.6762  -31.0722   22.0984 N   0  0  0  0  0  0
  -23.4192  -28.8244   23.3024 O   0  0  0  0  0  0
  -28.4286  -26.6851   20.0801 O   0  0  0  0  0  0
  -26.5627  -34.8934   22.4683 O   0  0  0  0  0  0
  -23.5389  -32.1438   23.7435 O   0  0  0  0  0  0
  -27.9051  -20.1676   19.5446 C   0  0  0  0  0  0
  -28.4075  -17.8107   19.9080 C   0  0  0  0  0  0
  -29.0688  -20.5670   20.2373 C   0  0  0  0  0  0
  -29.5775  -18.1367   20.6203 C   0  0  0  0  0  0
  -29.9156  -19.5290   20.7815 C   0  0  0  0  0  0
  -27.5775  -18.8133   19.3795 C   0  0  0  0  0  0
  -29.3503  -22.0710   20.3057 C   0  0  0  0  0  0
  -31.1851  -19.8683   21.5605 C   0  0  0  0  0  0
  -30.4515  -16.9869   21.2050 C   0  0  0  0  0  0
  -28.2229  -24.3178   20.8324 C   0  0  0  0  0  0
  -28.4967  -25.3007   19.6561 C   0  0  0  0  0  0
  -28.2823  -22.8653   20.5371 N   0  0  0  0  0  0
  -29.9829  -15.5789   21.0510 N   0  0  0  0  0  0
  -30.4838  -22.5299   20.1555 O   0  0  0  0  0  0
  -26.1504  -18.3802   18.5163 Cl  0  0  0  0  0  0
  -31.4685  -12.4626   19.1163 H   0  0  0  0  0  0
  -30.3371  -11.3373   19.8198 H   0  0  0  0  0  0
  -29.7397  -11.8211   17.4240 H   0  0  0  0  0  0
  -29.6822  -13.5271   17.7733 H   0  0  0  0  0  0
  -27.7871  -11.3632   18.7408 H   0  0  0  0  0  0
  -27.3857  -12.7599   17.7754 H   0  0  0  0  0  0
  -27.7037  -14.2778   19.6044 H   0  0  0  0  0  0
  -28.6967  -11.9680   21.3220 H   0  0  0  0  0  0
  -28.4793  -13.6032   21.8800 H   0  0  0  0  0  0
  -25.2752   -9.5744   22.4707 H   0  0  0  0  0  0
  -23.9985   -7.4681   22.7476 H   0  0  0  0  0  0
  -21.0825   -8.8859   19.8949 H   0  0  0  0  0  0
  -22.3715  -10.9711   19.6156 H   0  0  0  0  0  0
  -21.2155   -7.6158   23.9746 H   0  0  0  0  0  0
  -21.1444   -6.0463   25.9057 H   0  0  0  0  0  0
  -22.0624   -2.7602   23.2776 H   0  0  0  0  0  0
  -22.3961  -11.9931   22.4763 H   0  0  0  0  0  0
  -21.1049  -13.1347   22.2458 H   0  0  0  0  0  0
  -24.7231  -15.8770   20.6197 H   0  0  0  0  0  0
  -26.2875  -15.6107   20.0540 H   0  0  0  0  0  0
  -26.7190  -32.5468   23.1188 H   0  0  0  0  0  0
  -25.0053  -33.9763   25.0433 H   0  0  0  0  0  0
  -22.6998  -31.3067   21.4004 H   0  0  0  0  0  0
  -23.3715  -35.9630   23.3350 H   0  0  0  0  0  0
  -24.3507  -36.8908   22.2069 H   0  0  0  0  0  0
  -23.7188  -37.6496   23.6680 H   0  0  0  0  0  0
  -26.0933  -31.5819   20.6180 H   0  0  0  0  0  0
  -26.8191  -30.8364   22.0184 H   0  0  0  0  0  0
  -28.1078  -29.0689   21.1440 H   0  0  0  0  0  0
  -25.9748  -25.9232   19.0672 H   0  0  0  0  0  0
  -23.9544  -27.2694   19.0847 H   0  0  0  0  0  0
  -23.7370  -30.5861   19.3943 H   0  0  0  0  0  0
  -22.7415  -29.2413   19.8690 H   0  0  0  0  0  0
  -25.1255  -36.1963   25.0837 H   0  0  0  0  0  0
  -20.9967  -28.3281   24.1345 H   0  0  0  0  0  0
  -20.5533  -26.2364   23.3629 H   0  0  0  0  0  0
  -21.6622  -26.7334   22.1279 H   0  0  0  0  0  0
  -19.6873  -25.6247   21.1248 H   0  0  0  0  0  0
  -19.6643  -27.3140   20.6690 H   0  0  0  0  0  0
  -17.4165  -26.6648   21.4010 H   0  0  0  0  0  0
  -18.0303  -26.0047   22.9001 H   0  0  0  0  0  0
  -19.7994  -30.7231   24.2221 H   0  0  0  0  0  0
  -17.5090  -31.6254   24.5188 H   0  0  0  0  0  0
  -15.5390  -30.3008   23.7654 H   0  0  0  0  0  0
  -15.8665  -28.0799   22.7117 H   0  0  0  0  0  0
  -24.5735  -30.7468   25.7896 H   0  0  0  0  0  0
  -24.9215  -32.3123   26.5154 H   0  0  0  0  0  0
  -25.8037  -30.8873   27.0268 H   0  0  0  0  0  0
  -26.3124  -29.6756   24.1390 H   0  0  0  0  0  0
  -27.4099  -29.7449   25.4971 H   0  0  0  0  0  0
  -27.8964  -30.4374   23.9704 H   0  0  0  0  0  0
  -27.2489  -33.3746   26.2211 H   0  0  0  0  0  0
  -28.3759  -32.7262   25.0430 H   0  0  0  0  0  0
  -28.0776  -31.8725   26.5490 H   0  0  0  0  0  0
  -28.2583  -38.0095   24.7522 H   0  0  0  0  0  0
  -28.1044  -36.2629   24.6245 H   0  0  0  0  0  0
  -27.2299  -37.1420   25.8872 H   0  0  0  0  0  0
  -20.9390  -29.8801   21.6871 H   0  0  0  0  0  0
  -26.0138  -38.2873   24.1451 H   0  0  0  0  0  0
  -27.2507  -20.9087   19.1086 H   0  0  0  0  0  0
  -28.1238  -16.7814   19.7596 H   0  0  0  0  0  0
  -31.2735  -20.9157   21.8359 H   0  0  0  0  0  0
  -32.0671  -19.6066   20.9752 H   0  0  0  0  0  0
  -31.2250  -19.3125   22.4964 H   0  0  0  0  0  0
  -30.5467  -17.1497   22.2794 H   0  0  0  0  0  0
  -31.4600  -17.1007   20.8037 H   0  0  0  0  0  0
  -27.2167  -24.5189   21.1998 H   0  0  0  0  0  0
  -28.8863  -24.5452   21.6677 H   0  0  0  0  0  0
  -27.8673  -25.0900   18.7899 H   0  0  0  0  0  0
  -29.5129  -25.1409   19.2925 H   0  0  0  0  0  0
  -27.4147  -22.3636   20.6684 H   0  0  0  0  0  0
  -29.0608  -15.3645   21.4010 H   0  0  0  0  0  0
  1 25  1  0  0  0
  1 30  2  0  0  0
  1 83  1  0  0  0
  2  3  1  0  0  0
  2 25  1  0  0  0
  2 86  1  0  0  0
  2 87  1  0  0  0
  3  4  1  0  0  0
  3 88  1  0  0  0
  3 89  1  0  0  0
  4  5  1  0  0  0
  4 90  1  0  0  0
  4 91  1  0  0  0
  5  6  1  0  0  0
  5 26  1  0  0  0
  5 92  1  0  0  0
  6 25  1  0  0  0
  6 93  1  0  0  0
  6 94  1  0  0  0
  7  8  2  0  0  0
  7 26  1  0  0  0
  7 29  1  0  0  0
  8  9  1  0  0  0
  8 22  1  0  0  0
  9 10  1  0  0  0
  9 27  2  0  0  0
 10 11  2  0  0  0
 10 15  1  0  0  0
 11 12  1  0  0  0
 11 95  1  0  0  0
 12 13  2  0  0  0
 12 96  1  0  0  0
 13 14  1  0  0  0
 13 31  1  0  0  0
 14 15  2  0  0  0
 14 97  1  0  0  0
 15 98  1  0  0  0
 16 17  2  0  0  0
 16 21  1  0  0  0
 16 31  1  0  0  0
 17 18  1  0  0  0
 17 99  1  0  0  0
 18 19  2  0  0  0
 18100  1  0  0  0
 19 20  1  0  0  0
 19 24  1  0  0  0
 20 21  2  0  0  0
 20101  1  0  0  0
 21 23  1  0  0  0
 22 28  1  0  0  0
 22 32  2  0  0  0
 26 27  1  0  0  0
 28102  1  0  0  0
 28103  1  0  0  0
 29104  1  0  0  0
 29105  1  0  0  0
 33 34  1  0  0  0
 33 66  1  0  0  0
 33 70  2  0  0  0
 34 36  1  0  0  0
 34 59  1  0  0  0
 34106  1  0  0  0
 35 44  2  0  0  0
 35 45  1  0  0  0
 35 68  1  0  0  0
 36 56  1  0  0  0
 36107  1  0  0  0
 37 39  1  0  0  0
 37 47  1  0  0  0
 37 66  1  0  0  0
 37108  1  0  0  0
 38 43  2  0  0  0
 38 46  1  0  0  0
 38 47  1  0  0  0
 39 64  1  0  0  0
 39 67  2  0  0  0
 40 52  1  0  0  0
 40 53  2  0  0  0
 40 58  1  0  0  0
 41109  1  0  0  0
 41110  1  0  0  0
 41111  1  0  0  0
 41 48  1  0  0  0
 42 43  1  0  0  0
 42 66  1  0  0  0
 42112  1  0  0  0
 42113  1  0  0  0
 43 44  1  0  0  0
 44114  1  0  0  0
 45 46  2  0  0  0
 45115  1  0  0  0
 46116  1  0  0  0
 47117  1  0  0  0
 47118  1  0  0  0
 48 56  1  0  0  0
 48 65  1  0  0  0
 48119  1  0  0  0
 49 50  1  0  0  0
 49 53  1  0  0  0
 49 64  1  0  0  0
 49120  1  0  0  0
 50 51  1  0  0  0
 50121  1  0  0  0
 50122  1  0  0  0
 51 52  1  0  0  0
 51123  1  0  0  0
 51124  1  0  0  0
 52125  1  0  0  0
 52126  1  0  0  0
 53 54  1  0  0  0
 54 55  2  0  0  0
 54127  1  0  0  0
 55 57  1  0  0  0
 55128  1  0  0  0
 56 69  2  0  0  0
 57 58  2  0  0  0
 57129  1  0  0  0
 58130  1  0  0  0
 59 60  1  0  0  0
 59 61  1  0  0  0
 59 62  1  0  0  0
 60131  1  0  0  0
 60132  1  0  0  0
 60133  1  0  0  0
 61134  1  0  0  0
 61135  1  0  0  0
 61136  1  0  0  0
 62137  1  0  0  0
 62138  1  0  0  0
 62139  1  0  0  0
 63 65  1  0  0  0
 63140  1  0  0  0
 63141  1  0  0  0
 63142  1  0  0  0
 64143  1  0  0  0
 65144  1  0  0  0
 68 81  1  0  0  0
 71 73  2  0  0  0
 71 76  1  0  0  0
 71145  1  0  0  0
 72 74  1  0  0  0
 72 76  2  0  0  0
 72146  1  0  0  0
 73 75  1  0  0  0
 73 77  1  0  0  0
 74 75  2  0  0  0
 74 79  1  0  0  0
 75 78  1  0  0  0
 76 85  1  0  0  0
 77 82  1  0  0  0
 77 84  2  0  0  0
 78147  1  0  0  0
 78148  1  0  0  0
 78149  1  0  0  0
 79 83  1  0  0  0
 79150  1  0  0  0
 79151  1  0  0  0
 80 81  1  0  0  0
 80 82  1  0  0  0
 80152  1  0  0  0
 80153  1  0  0  0
 81154  1  0  0  0
 81155  1  0  0  0
 82156  1  0  0  0
 83157  1  0  0  0
M  ISO  4   1 100  68 101  81 101  83 100
M  END
> <chiral flag>
0

> <version>
0

> <s_m_source_file>
/data/baiqing/PycharmProjects/Reinvent-master-3.2/result/LINK_invent/BTK/process_docking_weight1_custom_product_contain_oxygen_bond_distance_aromatic_linkinvent_7_9_3/rearranged_h_0049.sdf

> <i_m_source_file_index>
6

> <r_mmod_Potential_Energy-OPLS-2005>
-172.807495117188

> <r_mmod_Stretch_Energy-OPLS-2005>
55.2832794189453

> <r_mmod_Bend_Energy-OPLS-2005>
123.756546020508

> <r_mmod_Torsional_Energy-OPLS-2005>
193.478561401367

> <r_mmod_Improper_Torsional_Energy-OPLS-2005>
3.43613505363464

> <r_mmod_Van_der_Waal_Energy-OPLS-2005>
149.387161254883

> <r_mmod_Electrostatic_Energy-OPLS-2005>
-484.497863769531

> <r_mmod_Solvation_Energy-OPLS-2005>
-234.006210327148

> <b_mmod_Minimization_Converged-OPLS-2005>
0

> <r_mmod_RMS_Derivative-OPLS-2005>
4.29879951477051

$$$$
6
                    3D
 Structure written by MMmdl.
157166  0  0  1  0            999 V2000
  -30.6275  -14.5670   20.5460 C   0  0  0  0  0  0
  -30.4391  -12.3577   19.4375 C   0  0  0  0  0  0
  -29.5054  -12.5232   18.2177 C   0  0  0  0  0  0
  -28.0250  -12.3706   18.6237 C   0  0  0  0  0  0
  -27.6605  -13.2104   19.8776 C   0  0  2  0  0  0
  -28.7021  -13.0011   21.0004 C   0  0  0  0  0  0
  -25.2582  -13.8169   20.5685 C   0  0  0  0  0  0
  -24.1844  -13.0444   20.9187 C   0  0  0  0  0  0
  -24.6401  -11.6911   20.8731 C   0  0  0  0  0  0
  -23.9072  -10.4292   21.0411 C   0  0  0  0  0  0
  -24.3620   -9.4204   21.9189 C   0  0  0  0  0  0
  -23.6294   -8.2243   22.0757 C   0  0  0  0  0  0
  -22.4275   -8.0281   21.3545 C   0  0  0  0  0  0
  -21.9909   -9.0263   20.4651 C   0  0  0  0  0  0
  -22.7242  -10.2141   20.3065 C   0  0  0  0  0  0
  -21.6848   -6.0738   22.5281 C   0  0  0  0  0  0
  -21.4015   -6.5646   23.8212 C   0  0  0  0  0  0
  -21.3661   -5.6797   24.9177 C   0  0  0  0  0  0
  -21.6041   -4.3059   24.7223 C   0  0  0  0  0  0
  -21.8821   -3.8150   23.4344 C   0  0  0  0  0  0
  -21.9196   -4.6969   22.3397 C   0  0  0  0  0  0
  -22.7864  -13.5241   21.1838 C   0  0  0  0  0  0
  -22.1660   -4.2152   21.0972 F   0  0  0  0  0  0
  -21.5631   -3.4543   25.7740 F   0  0  0  0  0  0
  -30.0259  -13.3439   20.4527 N   0  0  0  0  0  0
  -26.3015  -12.9337   20.3367 N   0  0  0  0  0  0
  -25.9330  -11.6497   20.5766 N   0  0  0  0  0  0
  -22.0502  -12.8241   22.0400 N   0  0  0  0  0  0
  -25.4319  -15.1882   20.4110 N   0  0  0  0  0  0
  -31.7605  -14.7736   20.0986 O   0  0  0  0  0  0
  -21.6640   -6.8878   21.4242 O   0  0  0  0  0  0
  -22.3548  -14.5541   20.6678 O   0  0  0  0  0  0
  -24.6243  -31.8590   23.2038 C   0  0  0  0  0  0
  -25.9114  -32.4767   23.8349 C   0  0  1  0  0  0
  -27.2427  -27.3715   20.1091 C   0  0  0  0  0  0
  -25.5929  -33.8568   24.2269 N   0  0  0  0  0  0
  -23.4146  -30.4802   21.5470 C   0  0  2  0  0  0
  -24.8612  -28.9307   20.1172 C   0  0  0  0  0  0
  -22.7442  -29.4621   22.4997 C   0  0  0  0  0  0
  -18.0252  -28.1396   22.8467 C   0  0  0  0  0  0
  -24.1493  -36.7312   23.2632 C   0  0  0  0  0  0
  -25.9471  -30.8061   21.3636 C   0  0  0  0  0  0
  -26.0220  -29.4330   20.7175 C   0  0  0  0  0  0
  -27.2139  -28.6624   20.7044 C   0  0  0  0  0  0
  -26.0608  -26.8949   19.5044 C   0  0  0  0  0  0
  -24.8787  -27.6626   19.5074 C   0  0  0  0  0  0
  -23.6254  -29.8040   20.1653 C   0  0  0  0  0  0
  -25.4113  -36.3073   24.0303 C   0  0  1  0  0  0
  -20.5851  -28.3689   23.1309 C   0  0  2  0  0  0
  -20.6764  -26.9425   22.5431 C   0  0  0  0  0  0
  -19.5750  -26.6406   21.5234 C   0  0  0  0  0  0
  -18.1921  -26.7939   22.1627 C   0  0  0  0  0  0
  -19.1500  -28.8859   23.2879 C   0  0  0  0  0  0
  -18.9429  -30.1457   23.8909 C   0  0  0  0  0  0
  -17.6431  -30.6598   24.0565 C   0  0  0  0  0  0
  -25.9041  -34.9441   23.5082 C   0  0  0  0  0  0
  -16.5318  -29.9103   23.6334 C   0  0  0  0  0  0
  -16.7241  -28.6526   23.0338 C   0  0  0  0  0  0
  -26.4523  -31.6572   25.0710 C   0  0  0  0  0  0
  -25.3754  -31.3708   26.1424 C   0  0  0  0  0  0
  -27.0349  -30.2984   24.6151 C   0  0  0  0  0  0
  -27.6083  -32.4309   25.7482 C   0  0  0  0  0  0
  -27.5566  -37.1802   24.8449 C   0  0  0  0  0  0
  -21.4163  -29.3027   22.3710 N   0  0  0  0  0  0
  -26.4289  -37.3769   23.9381 N   0  0  0  0  0  0
  -24.6810  -31.0633   22.0972 N   0  0  0  0  0  0
  -23.4162  -28.8188   23.3104 O   0  0  0  0  0  0
  -28.4291  -26.6461   20.0456 O   0  0  0  0  0  0
  -26.5623  -34.8909   22.4663 O   0  0  0  0  0  0
  -23.5418  -32.1382   23.7390 O   0  0  0  0  0  0
  -30.6691  -19.1368   20.0011 C   0  0  0  0  0  0
  -30.6723  -17.7150   20.0348 C   0  0  0  0  0  0
  -29.0451  -19.1818   21.7816 C   0  0  0  0  0  0
  -29.8816  -19.9027   20.8996 C   0  0  0  0  0  0
  -29.0289  -17.7604   21.8150 C   0  0  0  0  0  0
  -29.8749  -16.9949   20.9639 C   0  0  0  0  0  0
  -29.3782  -24.6099   19.2925 C   0  0  0  0  0  0
  -27.8435  -24.4637   21.1314 C   0  0  0  0  0  0
  -28.5111  -25.2490   20.1092 C   0  0  0  0  0  0
  -28.2349  -23.1410   21.3312 C   0  0  0  0  0  0
  -29.7222  -23.1821   19.4283 C   0  0  0  0  0  0
  -28.1156  -17.0726   22.8189 C   0  0  0  0  0  0
  -30.1389  -21.4270   21.1054 C   0  0  0  0  0  0
  -29.2649  -22.5346   20.5433 N   0  0  0  0  0  0
  -29.8419  -15.5494   21.0681 N   0  0  0  0  0  0
  -27.7820  -22.2776   22.1110 O   0  5  0  0  0  0
  -30.4742  -22.6194   18.6268 O   0  0  0  0  0  0
  -31.4788  -12.4888   19.1323 H   0  0  0  0  0  0
  -30.3728  -11.3465   19.8396 H   0  0  0  0  0  0
  -29.7562  -11.7964   17.4435 H   0  0  0  0  0  0
  -29.6606  -13.5077   17.7728 H   0  0  0  0  0  0
  -27.8406  -11.3144   18.8192 H   0  0  0  0  0  0
  -27.3765  -12.6410   17.7890 H   0  0  0  0  0  0
  -27.6967  -14.2572   19.5770 H   0  0  0  0  0  0
  -28.6989  -11.9628   21.3343 H   0  0  0  0  0  0
  -28.4491  -13.5882   21.8846 H   0  0  0  0  0  0
  -25.2770   -9.5682   22.4759 H   0  0  0  0  0  0
  -24.0004   -7.4636   22.7476 H   0  0  0  0  0  0
  -21.0834   -8.8786   19.8956 H   0  0  0  0  0  0
  -22.3699  -10.9687   19.6170 H   0  0  0  0  0  0
  -21.2003   -7.6154   23.9713 H   0  0  0  0  0  0
  -21.1480   -6.0530   25.9077 H   0  0  0  0  0  0
  -22.0598   -2.7615   23.2844 H   0  0  0  0  0  0
  -22.4113  -11.9910   22.4802 H   0  0  0  0  0  0
  -21.1119  -13.1272   22.2590 H   0  0  0  0  0  0
  -24.6684  -15.8446   20.5289 H   0  0  0  0  0  0
  -26.2833  -15.6263   20.0837 H   0  0  0  0  0  0
  -26.7179  -32.5459   23.1102 H   0  0  0  0  0  0
  -25.0049  -33.9736   25.0391 H   0  0  0  0  0  0
  -22.7083  -31.2995   21.4037 H   0  0  0  0  0  0
  -23.3719  -35.9686   23.3306 H   0  0  0  0  0  0
  -24.3593  -36.8943   22.2047 H   0  0  0  0  0  0
  -23.7289  -37.6527   23.6666 H   0  0  0  0  0  0
  -26.0606  -31.5647   20.5872 H   0  0  0  0  0  0
  -26.8362  -30.8677   21.9802 H   0  0  0  0  0  0
  -28.1171  -29.0552   21.1494 H   0  0  0  0  0  0
  -26.0603  -25.9253   19.0267 H   0  0  0  0  0  0
  -23.9879  -27.2689   19.0382 H   0  0  0  0  0  0
  -23.7323  -30.5746   19.4013 H   0  0  0  0  0  0
  -22.7513  -29.2213   19.8757 H   0  0  0  0  0  0
  -25.1303  -36.1915   25.0793 H   0  0  0  0  0  0
  -20.9900  -28.3268   24.1445 H   0  0  0  0  0  0
  -20.5691  -26.2306   23.3627 H   0  0  0  0  0  0
  -21.6640  -26.7501   22.1213 H   0  0  0  0  0  0
  -19.6926  -25.6330   21.1253 H   0  0  0  0  0  0
  -19.6692  -27.3236   20.6781 H   0  0  0  0  0  0
  -17.4198  -26.6654   21.4025 H   0  0  0  0  0  0
  -18.0295  -26.0108   22.9041 H   0  0  0  0  0  0
  -19.7899  -30.7262   24.2304 H   0  0  0  0  0  0
  -17.4987  -31.6281   24.5167 H   0  0  0  0  0  0
  -15.5319  -30.3008   23.7680 H   0  0  0  0  0  0
  -15.8631  -28.0868   22.7047 H   0  0  0  0  0  0
  -24.5919  -30.7090   25.7706 H   0  0  0  0  0  0
  -24.8961  -32.2875   26.4846 H   0  0  0  0  0  0
  -25.8052  -30.8844   27.0183 H   0  0  0  0  0  0
  -26.2912  -29.6723   24.1186 H   0  0  0  0  0  0
  -27.4034  -29.7232   25.4657 H   0  0  0  0  0  0
  -27.8791  -30.4240   23.9372 H   0  0  0  0  0  0
  -27.2681  -33.3578   26.2108 H   0  0  0  0  0  0
  -28.3861  -32.6920   25.0295 H   0  0  0  0  0  0
  -28.0796  -31.8414   26.5349 H   0  0  0  0  0  0
  -28.2584  -38.0097   24.7472 H   0  0  0  0  0  0
  -28.1062  -36.2619   24.6303 H   0  0  0  0  0  0
  -27.2285  -37.1487   25.8857 H   0  0  0  0  0  0
  -20.9352  -29.8695   21.6860 H   0  0  0  0  0  0
  -26.0154  -38.2840   24.1373 H   0  0  0  0  0  0
  -31.3349  -19.6421   19.3144 H   0  0  0  0  0  0
  -31.3138  -17.1872   19.3425 H   0  0  0  0  0  0
  -28.4504  -19.7293   22.4991 H   0  0  0  0  0  0
  -29.9192  -25.1887   18.5579 H   0  0  0  0  0  0
  -27.0393  -24.8928   21.7150 H   0  0  0  0  0  0
  -27.6489  -17.7900   23.4954 H   0  0  0  0  0  0
  -28.6721  -16.3612   23.4291 H   0  0  0  0  0  0
  -27.3144  -16.5367   22.3086 H   0  0  0  0  0  0
  -31.1717  -21.5971   20.7896 H   0  0  0  0  0  0
  -30.2247  -21.5797   22.1834 H   0  0  0  0  0  0
  -29.0189  -15.1855   21.5232 H   0  0  0  0  0  0
  1 25  1  0  0  0
  1 30  2  0  0  0
  1 85  1  0  0  0
  2  3  1  0  0  0
  2 25  1  0  0  0
  2 88  1  0  0  0
  2 89  1  0  0  0
  3  4  1  0  0  0
  3 90  1  0  0  0
  3 91  1  0  0  0
  4  5  1  0  0  0
  4 92  1  0  0  0
  4 93  1  0  0  0
  5  6  1  0  0  0
  5 26  1  0  0  0
  5 94  1  0  0  0
  6 25  1  0  0  0
  6 95  1  0  0  0
  6 96  1  0  0  0
  7  8  2  0  0  0
  7 26  1  0  0  0
  7 29  1  0  0  0
  8  9  1  0  0  0
  8 22  1  0  0  0
  9 10  1  0  0  0
  9 27  2  0  0  0
 10 11  2  0  0  0
 10 15  1  0  0  0
 11 12  1  0  0  0
 11 97  1  0  0  0
 12 13  2  0  0  0
 12 98  1  0  0  0
 13 14  1  0  0  0
 13 31  1  0  0  0
 14 15  2  0  0  0
 14 99  1  0  0  0
 15100  1  0  0  0
 16 17  2  0  0  0
 16 21  1  0  0  0
 16 31  1  0  0  0
 17 18  1  0  0  0
 17101  1  0  0  0
 18 19  2  0  0  0
 18102  1  0  0  0
 19 20  1  0  0  0
 19 24  1  0  0  0
 20 21  2  0  0  0
 20103  1  0  0  0
 21 23  1  0  0  0
 22 28  1  0  0  0
 22 32  2  0  0  0
 26 27  1  0  0  0
 28104  1  0  0  0
 28105  1  0  0  0
 29106  1  0  0  0
 29107  1  0  0  0
 33 34  1  0  0  0
 33 66  1  0  0  0
 33 70  2  0  0  0
 34 36  1  0  0  0
 34 59  1  0  0  0
 34108  1  0  0  0
 35 44  2  0  0  0
 35 45  1  0  0  0
 35 68  1  0  0  0
 36 56  1  0  0  0
 36109  1  0  0  0
 37 39  1  0  0  0
 37 47  1  0  0  0
 37 66  1  0  0  0
 37110  1  0  0  0
 38 43  2  0  0  0
 38 46  1  0  0  0
 38 47  1  0  0  0
 39 64  1  0  0  0
 39 67  2  0  0  0
 40 52  1  0  0  0
 40 53  2  0  0  0
 40 58  1  0  0  0
 41111  1  0  0  0
 41112  1  0  0  0
 41113  1  0  0  0
 41 48  1  0  0  0
 42 43  1  0  0  0
 42 66  1  0  0  0
 42114  1  0  0  0
 42115  1  0  0  0
 43 44  1  0  0  0
 44116  1  0  0  0
 45 46  2  0  0  0
 45117  1  0  0  0
 46118  1  0  0  0
 47119  1  0  0  0
 47120  1  0  0  0
 48 56  1  0  0  0
 48 65  1  0  0  0
 48121  1  0  0  0
 49 50  1  0  0  0
 49 53  1  0  0  0
 49 64  1  0  0  0
 49122  1  0  0  0
 50 51  1  0  0  0
 50123  1  0  0  0
 50124  1  0  0  0
 51 52  1  0  0  0
 51125  1  0  0  0
 51126  1  0  0  0
 52127  1  0  0  0
 52128  1  0  0  0
 53 54  1  0  0  0
 54 55  2  0  0  0
 54129  1  0  0  0
 55 57  1  0  0  0
 55130  1  0  0  0
 56 69  2  0  0  0
 57 58  2  0  0  0
 57131  1  0  0  0
 58132  1  0  0  0
 59 60  1  0  0  0
 59 61  1  0  0  0
 59 62  1  0  0  0
 60133  1  0  0  0
 60134  1  0  0  0
 60135  1  0  0  0
 61136  1  0  0  0
 61137  1  0  0  0
 61138  1  0  0  0
 62139  1  0  0  0
 62140  1  0  0  0
 62141  1  0  0  0
 63 65  1  0  0  0
 63142  1  0  0  0
 63143  1  0  0  0
 63144  1  0  0  0
 64145  1  0  0  0
 65146  1  0  0  0
 68 79  1  0  0  0
 71 72  2  0  0  0
 71 74  1  0  0  0
 71147  1  0  0  0
 72 76  1  0  0  0
 72148  1  0  0  0
 73 74  2  0  0  0
 73 75  1  0  0  0
 73149  1  0  0  0
 74 83  1  0  0  0
 75 76  2  0  0  0
 75 82  1  0  0  0
 76 85  1  0  0  0
 77 79  2  0  0  0
 77 81  1  0  0  0
 77150  1  0  0  0
 78 79  1  0  0  0
 78 80  2  0  0  0
 78151  1  0  0  0
 80 84  1  0  0  0
 80 86  1  0  0  0
 81 84  1  0  0  0
 81 87  2  0  0  0
 82152  1  0  0  0
 82153  1  0  0  0
 82154  1  0  0  0
 83 84  1  0  0  0
 83155  1  0  0  0
 83156  1  0  0  0
 85157  1  0  0  0
M  CHG  1  86  -1
M  ISO  4   1 100  68 101  79 101  85 100
M  END
> <chiral flag>
0

> <version>
0

> <s_m_source_file>
/data/baiqing/PycharmProjects/Reinvent-master-3.2/result/LINK_invent/BTK/process_docking_weight1_custom_product_contain_oxygen_bond_distance_aromatic_linkinvent_7_9_3/rearranged_h_0049.sdf

> <i_m_source_file_index>
7

> <r_mmod_Potential_Energy-OPLS-2005>
-245.576034545898

> <r_mmod_Stretch_Energy-OPLS-2005>
65.0122299194336

> <r_mmod_Bend_Energy-OPLS-2005>
143.421844482422

> <r_mmod_Torsional_Energy-OPLS-2005>
259.711395263672

> <r_mmod_Improper_Torsional_Energy-OPLS-2005>
6.83864116668701

> <r_mmod_Van_der_Waal_Energy-OPLS-2005>
176.469055175781

> <r_mmod_Electrostatic_Energy-OPLS-2005>
-480.829833984375

> <r_mmod_Solvation_Energy-OPLS-2005>
-440.698699951172

> <b_mmod_Minimization_Converged-OPLS-2005>
0

> <r_mmod_RMS_Derivative-OPLS-2005>
3.23810076713562

$$$$
7
                    3D
 Structure written by MMmdl.
170179  0  0  1  0            999 V2000
  -30.7206  -14.4940   20.4877 C   0  0  0  0  0  0
  -30.4078  -12.2991   19.4407 C   0  0  0  0  0  0
  -29.4936  -12.4793   18.2120 C   0  0  0  0  0  0
  -28.0141  -12.3507   18.6220 C   0  0  0  0  0  0
  -27.6532  -13.2163   19.8602 C   0  0  2  0  0  0
  -28.6981  -13.0646   20.9900 C   0  0  0  0  0  0
  -25.2557  -13.8181   20.5671 C   0  0  0  0  0  0
  -24.1833  -13.0446   20.9204 C   0  0  0  0  0  0
  -24.6398  -11.6919   20.8757 C   0  0  0  0  0  0
  -23.9068  -10.4300   21.0416 C   0  0  0  0  0  0
  -24.3623   -9.4212   21.9188 C   0  0  0  0  0  0
  -23.6298   -8.2244   22.0756 C   0  0  0  0  0  0
  -22.4280   -8.0286   21.3545 C   0  0  0  0  0  0
  -21.9917   -9.0258   20.4645 C   0  0  0  0  0  0
  -22.7244  -10.2138   20.3058 C   0  0  0  0  0  0
  -21.6857   -6.0740   22.5283 C   0  0  0  0  0  0
  -21.4009   -6.5643   23.8217 C   0  0  0  0  0  0
  -21.3659   -5.6795   24.9178 C   0  0  0  0  0  0
  -21.6048   -4.3057   24.7231 C   0  0  0  0  0  0
  -21.8818   -3.8150   23.4348 C   0  0  0  0  0  0
  -21.9190   -4.6965   22.3402 C   0  0  0  0  0  0
  -22.7851  -13.5232   21.1857 C   0  0  0  0  0  0
  -22.1664   -4.2150   21.0976 F   0  0  0  0  0  0
  -21.5630   -3.4538   25.7745 F   0  0  0  0  0  0
  -30.0242  -13.3289   20.4187 N   0  0  0  0  0  0
  -26.2990  -12.9370   20.3309 N   0  0  0  0  0  0
  -25.9325  -11.6526   20.5769 N   0  0  0  0  0  0
  -22.0492  -12.8222   22.0410 N   0  0  0  0  0  0
  -25.4240  -15.1891   20.4019 N   0  0  0  0  0  0
  -31.9103  -14.5650   20.1750 O   0  0  0  0  0  0
  -21.6642   -6.8884   21.4246 O   0  0  0  0  0  0
  -22.3537  -14.5540   20.6710 O   0  0  0  0  0  0
  -24.6160  -31.8676   23.2092 C   0  0  0  0  0  0
  -25.9057  -32.4821   23.8385 C   0  0  1  0  0  0
  -27.2260  -27.4237   20.1011 C   0  0  0  0  0  0
  -25.5907  -33.8615   24.2318 N   0  0  0  0  0  0
  -23.4045  -30.4913   21.5509 C   0  0  2  0  0  0
  -24.8510  -28.9614   20.1101 C   0  0  0  0  0  0
  -22.7425  -29.4648   22.4980 C   0  0  0  0  0  0
  -18.0272  -28.1369   22.8480 C   0  0  0  0  0  0
  -24.1496  -36.7317   23.2637 C   0  0  0  0  0  0
  -25.9354  -30.8310   21.3641 C   0  0  0  0  0  0
  -26.0130  -29.4664   20.7075 C   0  0  0  0  0  0
  -27.2077  -28.7064   20.6976 C   0  0  0  0  0  0
  -26.0529  -26.9482   19.4748 C   0  0  0  0  0  0
  -24.8663  -27.7025   19.4869 C   0  0  0  0  0  0
  -23.6128  -29.8276   20.1641 C   0  0  0  0  0  0
  -25.4111  -36.3110   24.0339 C   0  0  1  0  0  0
  -20.5862  -28.3657   23.1314 C   0  0  2  0  0  0
  -20.6767  -26.9395   22.5415 C   0  0  0  0  0  0
  -19.5753  -26.6379   21.5208 C   0  0  0  0  0  0
  -18.1919  -26.7918   22.1612 C   0  0  0  0  0  0
  -19.1519  -28.8830   23.2889 C   0  0  0  0  0  0
  -18.9455  -30.1432   23.8911 C   0  0  0  0  0  0
  -17.6458  -30.6582   24.0559 C   0  0  0  0  0  0
  -25.9042  -34.9479   23.5122 C   0  0  0  0  0  0
  -16.5346  -29.9084   23.6327 C   0  0  0  0  0  0
  -16.7261  -28.6497   23.0346 C   0  0  0  0  0  0
  -26.4482  -31.6594   25.0711 C   0  0  0  0  0  0
  -25.3747  -31.3694   26.1461 C   0  0  0  0  0  0
  -27.0300  -30.3035   24.6074 C   0  0  0  0  0  0
  -27.6048  -32.4312   25.7484 C   0  0  0  0  0  0
  -27.5579  -37.1807   24.8461 C   0  0  0  0  0  0
  -21.4149  -29.3023   22.3725 N   0  0  0  0  0  0
  -26.4294  -37.3789   23.9406 N   0  0  0  0  0  0
  -24.6703  -31.0776   22.0993 N   0  0  0  0  0  0
  -23.4197  -28.8191   23.3022 O   0  0  0  0  0  0
  -28.3542  -26.6276   20.1474 O   0  0  0  0  0  0
  -26.5603  -34.8933   22.4683 O   0  0  0  0  0  0
  -23.5356  -32.1422   23.7493 O   0  0  0  0  0  0
  -28.2338  -20.5649   21.0365 C   0  0  0  0  0  0
  -28.3495  -18.1409   20.7892 C   0  0  0  0  0  0
  -29.6252  -20.6823   20.8206 C   0  0  0  0  0  0
  -29.7379  -18.2100   20.5471 C   0  0  0  0  0  0
  -30.3845  -19.4908   20.5906 C   0  0  0  0  0  0
  -27.6053  -19.3077   21.0355 C   0  0  0  0  0  0
  -29.1609  -24.2673   20.3513 C   0  0  0  0  0  0
  -28.0608  -24.2135   23.0559 C   0  0  0  0  0  0
  -28.1478  -25.5601   22.3383 C   0  0  0  0  0  0
  -29.2532  -23.3334   22.6606 C   0  0  0  0  0  0
  -28.1492  -25.3534   20.8144 C   0  0  1  0  0  0
  -32.6505  -19.3996   21.7274 C   0  0  0  0  0  0
  -30.5084  -16.9222   18.5532 C   0  0  0  0  0  0
  -31.9021  -19.5951   20.4024 C   0  0  0  0  0  0
  -30.2948  -22.0786   20.8058 C   0  0  0  0  0  0
  -30.4890  -16.9367   20.1001 C   0  0  2  0  0  0
  -29.4771  -23.2493   21.2057 N   0  0  0  0  0  0
  -29.9916  -15.6285   20.5954 N   0  0  0  0  0  0
  -29.5891  -24.3184   19.1934 O   0  0  0  0  0  0
  -25.9047  -19.2020   21.3061 Cl  0  0  0  0  0  0
  -31.4560  -12.3641   19.1434 H   0  0  0  0  0  0
  -30.2819  -11.3058   19.8735 H   0  0  0  0  0  0
  -29.7339  -11.7365   17.4503 H   0  0  0  0  0  0
  -29.6679  -13.4551   17.7553 H   0  0  0  0  0  0
  -27.8244  -11.2986   18.8370 H   0  0  0  0  0  0
  -27.3671  -12.6082   17.7825 H   0  0  0  0  0  0
  -27.6762  -14.2530   19.5250 H   0  0  0  0  0  0
  -28.6712  -12.0568   21.4063 H   0  0  0  0  0  0
  -28.4794  -13.7426   21.8168 H   0  0  0  0  0  0
  -25.2770   -9.5686   22.4763 H   0  0  0  0  0  0
  -24.0010   -7.4634   22.7478 H   0  0  0  0  0  0
  -21.0850   -8.8778   19.8946 H   0  0  0  0  0  0
  -22.3709  -10.9680   19.6169 H   0  0  0  0  0  0
  -21.1999   -7.6154   23.9720 H   0  0  0  0  0  0
  -21.1483   -6.0525   25.9081 H   0  0  0  0  0  0
  -22.0596   -2.7612   23.2849 H   0  0  0  0  0  0
  -22.4119  -11.9884   22.4789 H   0  0  0  0  0  0
  -21.1106  -13.1241   22.2609 H   0  0  0  0  0  0
  -24.6512  -15.8374   20.5045 H   0  0  0  0  0  0
  -26.2487  -15.6187   20.0062 H   0  0  0  0  0  0
  -26.7131  -32.5544   23.1152 H   0  0  0  0  0  0
  -25.0066  -33.9772   25.0476 H   0  0  0  0  0  0
  -22.6941  -31.3085   21.4132 H   0  0  0  0  0  0
  -23.3756  -35.9652   23.3318 H   0  0  0  0  0  0
  -24.3588  -36.8913   22.2045 H   0  0  0  0  0  0
  -23.7254  -37.6525   23.6652 H   0  0  0  0  0  0
  -26.0498  -31.5990   20.5978 H   0  0  0  0  0  0
  -26.8232  -30.8815   21.9836 H   0  0  0  0  0  0
  -28.1016  -29.0841   21.1731 H   0  0  0  0  0  0
  -26.0483  -25.9873   18.9792 H   0  0  0  0  0  0
  -23.9767  -27.3114   19.0120 H   0  0  0  0  0  0
  -23.7220  -30.6065   19.4082 H   0  0  0  0  0  0
  -22.7362  -29.2489   19.8679 H   0  0  0  0  0  0
  -25.1288  -36.1970   25.0831 H   0  0  0  0  0  0
  -20.9938  -28.3234   24.1442 H   0  0  0  0  0  0
  -20.5684  -26.2265   23.3597 H   0  0  0  0  0  0
  -21.6633  -26.7447   22.1193 H   0  0  0  0  0  0
  -19.6926  -25.6296   21.1219 H   0  0  0  0  0  0
  -19.6707  -27.3213   20.6750 H   0  0  0  0  0  0
  -17.4192  -26.6665   21.4011 H   0  0  0  0  0  0
  -18.0315  -26.0060   22.9010 H   0  0  0  0  0  0
  -19.7938  -30.7218   24.2310 H   0  0  0  0  0  0
  -17.5026  -31.6272   24.5140 H   0  0  0  0  0  0
  -15.5351  -30.2989   23.7651 H   0  0  0  0  0  0
  -15.8654  -28.0824   22.7056 H   0  0  0  0  0  0
  -24.5921  -30.7037   25.7797 H   0  0  0  0  0  0
  -24.8938  -32.2851   26.4919 H   0  0  0  0  0  0
  -25.8098  -30.8855   27.0219 H   0  0  0  0  0  0
  -26.2826  -29.6800   24.1144 H   0  0  0  0  0  0
  -27.4089  -29.7255   25.4513 H   0  0  0  0  0  0
  -27.8670  -30.4348   23.9204 H   0  0  0  0  0  0
  -27.2653  -33.3601   26.2079 H   0  0  0  0  0  0
  -28.3853  -32.6880   25.0311 H   0  0  0  0  0  0
  -28.0730  -31.8428   26.5386 H   0  0  0  0  0  0
  -28.2588  -38.0109   24.7500 H   0  0  0  0  0  0
  -28.1075  -36.2635   24.6298 H   0  0  0  0  0  0
  -27.2297  -37.1466   25.8862 H   0  0  0  0  0  0
  -20.9316  -29.8759   21.6955 H   0  0  0  0  0  0
  -26.0197  -38.2870   24.1406 H   0  0  0  0  0  0
  -27.6248  -21.4402   21.2058 H   0  0  0  0  0  0
  -27.8298  -17.1961   20.7501 H   0  0  0  0  0  0
  -27.1256  -23.7130   22.7977 H   0  0  0  0  0  0
  -28.0455  -24.3611   24.1365 H   0  0  0  0  0  0
  -29.0508  -26.0914   22.6417 H   0  0  0  0  0  0
  -27.3045  -26.1858   22.6319 H   0  0  0  0  0  0
  -29.1252  -22.3373   23.0869 H   0  0  0  0  0  0
  -30.1602  -23.7384   23.1122 H   0  0  0  0  0  0
  -27.1848  -24.9234   20.5460 H   0  0  0  0  0  0
  -33.7289  -19.4510   21.5774 H   0  0  0  0  0  0
  -32.4259  -18.4321   22.1770 H   0  0  0  0  0  0
  -32.3815  -20.1682   22.4517 H   0  0  0  0  0  0
  -30.9213  -17.8455   18.1470 H   0  0  0  0  0  0
  -29.5017  -16.8175   18.1471 H   0  0  0  0  0  0
  -31.1121  -16.1087   18.1515 H   0  0  0  0  0  0
  -32.1871  -20.5514   19.9685 H   0  0  0  0  0  0
  -32.2634  -18.8787   19.6679 H   0  0  0  0  0  0
  -30.7113  -22.2288   19.8088 H   0  0  0  0  0  0
  -31.1572  -22.0529   21.4728 H   0  0  0  0  0  0
  -31.5110  -17.0170   20.4691 H   0  0  0  0  0  0
  -29.0134  -15.5395   20.8168 H   0  0  0  0  0  0
  1 25  1  0  0  0
  1 30  2  0  0  0
  1 88  1  0  0  0
  2  3  1  0  0  0
  2 25  1  0  0  0
  2 91  1  0  0  0
  2 92  1  0  0  0
  3  4  1  0  0  0
  3 93  1  0  0  0
  3 94  1  0  0  0
  4  5  1  0  0  0
  4 95  1  0  0  0
  4 96  1  0  0  0
  5  6  1  0  0  0
  5 26  1  0  0  0
  5 97  1  0  0  0
  6 25  1  0  0  0
  6 98  1  0  0  0
  6 99  1  0  0  0
  7  8  2  0  0  0
  7 26  1  0  0  0
  7 29  1  0  0  0
  8  9  1  0  0  0
  8 22  1  0  0  0
  9 10  1  0  0  0
  9 27  2  0  0  0
 10 11  2  0  0  0
 10 15  1  0  0  0
 11 12  1  0  0  0
 11100  1  0  0  0
 12 13  2  0  0  0
 12101  1  0  0  0
 13 14  1  0  0  0
 13 31  1  0  0  0
 14 15  2  0  0  0
 14102  1  0  0  0
 15103  1  0  0  0
 16 17  2  0  0  0
 16 21  1  0  0  0
 16 31  1  0  0  0
 17 18  1  0  0  0
 17104  1  0  0  0
 18 19  2  0  0  0
 18105  1  0  0  0
 19 20  1  0  0  0
 19 24  1  0  0  0
 20 21  2  0  0  0
 20106  1  0  0  0
 21 23  1  0  0  0
 22 28  1  0  0  0
 22 32  2  0  0  0
 26 27  1  0  0  0
 28107  1  0  0  0
 28108  1  0  0  0
 29109  1  0  0  0
 29110  1  0  0  0
 33 34  1  0  0  0
 33 66  1  0  0  0
 33 70  2  0  0  0
 34 36  1  0  0  0
 34 59  1  0  0  0
 34111  1  0  0  0
 35 44  2  0  0  0
 35 45  1  0  0  0
 35 68  1  0  0  0
 36 56  1  0  0  0
 36112  1  0  0  0
 37 39  1  0  0  0
 37 47  1  0  0  0
 37 66  1  0  0  0
 37113  1  0  0  0
 38 43  2  0  0  0
 38 46  1  0  0  0
 38 47  1  0  0  0
 39 64  1  0  0  0
 39 67  2  0  0  0
 40 52  1  0  0  0
 40 53  2  0  0  0
 40 58  1  0  0  0
 41114  1  0  0  0
 41115  1  0  0  0
 41116  1  0  0  0
 41 48  1  0  0  0
 42 43  1  0  0  0
 42 66  1  0  0  0
 42117  1  0  0  0
 42118  1  0  0  0
 43 44  1  0  0  0
 44119  1  0  0  0
 45 46  2  0  0  0
 45120  1  0  0  0
 46121  1  0  0  0
 47122  1  0  0  0
 47123  1  0  0  0
 48 56  1  0  0  0
 48 65  1  0  0  0
 48124  1  0  0  0
 49 50  1  0  0  0
 49 53  1  0  0  0
 49 64  1  0  0  0
 49125  1  0  0  0
 50 51  1  0  0  0
 50126  1  0  0  0
 50127  1  0  0  0
 51 52  1  0  0  0
 51128  1  0  0  0
 51129  1  0  0  0
 52130  1  0  0  0
 52131  1  0  0  0
 53 54  1  0  0  0
 54 55  2  0  0  0
 54132  1  0  0  0
 55 57  1  0  0  0
 55133  1  0  0  0
 56 69  2  0  0  0
 57 58  2  0  0  0
 57134  1  0  0  0
 58135  1  0  0  0
 59 60  1  0  0  0
 59 61  1  0  0  0
 59 62  1  0  0  0
 60136  1  0  0  0
 60137  1  0  0  0
 60138  1  0  0  0
 61139  1  0  0  0
 61140  1  0  0  0
 61141  1  0  0  0
 62142  1  0  0  0
 62143  1  0  0  0
 62144  1  0  0  0
 63 65  1  0  0  0
 63145  1  0  0  0
 63146  1  0  0  0
 63147  1  0  0  0
 64148  1  0  0  0
 65149  1  0  0  0
 68 81  1  0  0  0
 71 73  2  0  0  0
 71 76  1  0  0  0
 71150  1  0  0  0
 72 74  1  0  0  0
 72 76  2  0  0  0
 72151  1  0  0  0
 73 75  1  0  0  0
 73 85  1  0  0  0
 74 75  2  0  0  0
 74 86  1  0  0  0
 75 84  1  0  0  0
 76 90  1  0  0  0
 77 81  1  0  0  0
 77 87  1  0  0  0
 77 89  2  0  0  0
 78 79  1  0  0  0
 78 80  1  0  0  0
 78152  1  0  0  0
 78153  1  0  0  0
 79 81  1  0  0  0
 79154  1  0  0  0
 79155  1  0  0  0
 80 87  1  0  0  0
 80156  1  0  0  0
 80157  1  0  0  0
 81158  1  0  0  0
 82 84  1  0  0  0
 82159  1  0  0  0
 82160  1  0  0  0
 82161  1  0  0  0
 83162  1  0  0  0
 83163  1  0  0  0
 83164  1  0  0  0
 83 86  1  0  0  0
 84165  1  0  0  0
 84166  1  0  0  0
 85 87  1  0  0  0
 85167  1  0  0  0
 85168  1  0  0  0
 86 88  1  0  0  0
 86169  1  0  0  0
 88170  1  0  0  0
M  ISO  4   1 100  68 101  81 101  88 100
M  END
> <chiral flag>
0

> <version>
0

> <s_m_source_file>
/data/baiqing/PycharmProjects/Reinvent-master-3.2/result/LINK_invent/BTK/process_docking_weight1_custom_product_contain_oxygen_bond_distance_aromatic_linkinvent_7_9_3/rearranged_h_0049.sdf

> <i_m_source_file_index>
8

> <r_mmod_Potential_Energy-OPLS-2005>
-13.4140043258667

> <r_mmod_Stretch_Energy-OPLS-2005>
50.2290649414062

> <r_mmod_Bend_Energy-OPLS-2005>
103.139190673828

> <r_mmod_Torsional_Energy-OPLS-2005>
243.251739501953

> <r_mmod_Improper_Torsional_Energy-OPLS-2005>
10.1133165359497

> <r_mmod_Van_der_Waal_Energy-OPLS-2005>
163.327239990234

> <r_mmod_Electrostatic_Energy-OPLS-2005>
-387.665802001953

> <r_mmod_Solvation_Energy-OPLS-2005>
-219.986633300781

> <b_mmod_Minimization_Converged-OPLS-2005>
0

> <r_mmod_RMS_Derivative-OPLS-2005>
1.43621969223022

$$$$
8
                    3D
 Structure written by MMmdl.
157165  0  0  1  0            999 V2000
  -30.6947  -14.5522   20.5113 C   0  0  0  0  0  0
  -30.4173  -12.3449   19.4351 C   0  0  0  0  0  0
  -29.4947  -12.4909   18.2090 C   0  0  0  0  0  0
  -28.0167  -12.3516   18.6239 C   0  0  0  0  0  0
  -27.6511  -13.2193   19.8601 C   0  0  2  0  0  0
  -28.6985  -13.0704   20.9857 C   0  0  0  0  0  0
  -25.2536  -13.8193   20.5674 C   0  0  0  0  0  0
  -24.1819  -13.0445   20.9194 C   0  0  0  0  0  0
  -24.6397  -11.6919   20.8750 C   0  0  0  0  0  0
  -23.9065  -10.4292   21.0405 C   0  0  0  0  0  0
  -24.3615   -9.4204   21.9183 C   0  0  0  0  0  0
  -23.6287   -8.2241   22.0761 C   0  0  0  0  0  0
  -22.4270   -8.0277   21.3552 C   0  0  0  0  0  0
  -21.9903   -9.0250   20.4653 C   0  0  0  0  0  0
  -22.7237  -10.2127   20.3055 C   0  0  0  0  0  0
  -21.6849   -6.0728   22.5281 C   0  0  0  0  0  0
  -21.4015   -6.5636   23.8214 C   0  0  0  0  0  0
  -21.3658   -5.6789   24.9178 C   0  0  0  0  0  0
  -21.6041   -4.3052   24.7227 C   0  0  0  0  0  0
  -21.8818   -3.8143   23.4350 C   0  0  0  0  0  0
  -21.9189   -4.6957   22.3404 C   0  0  0  0  0  0
  -22.7841  -13.5231   21.1852 C   0  0  0  0  0  0
  -22.1659   -4.2145   21.0982 F   0  0  0  0  0  0
  -21.5623   -3.4536   25.7739 F   0  0  0  0  0  0
  -30.0148  -13.3732   20.4102 N   0  0  0  0  0  0
  -26.2981  -12.9386   20.3329 N   0  0  0  0  0  0
  -25.9328  -11.6535   20.5772 N   0  0  0  0  0  0
  -22.0483  -12.8226   22.0408 N   0  0  0  0  0  0
  -25.4171  -15.1916   20.4046 N   0  0  0  0  0  0
  -31.8643  -14.6563   20.1364 O   0  0  0  0  0  0
  -21.6640   -6.8874   21.4244 O   0  0  0  0  0  0
  -22.3526  -14.5536   20.6689 O   0  0  0  0  0  0
  -24.6200  -31.8635   23.2056 C   0  0  0  0  0  0
  -25.9076  -32.4799   23.8373 C   0  0  1  0  0  0
  -27.2333  -27.3706   20.0953 C   0  0  0  0  0  0
  -25.5916  -33.8603   24.2312 N   0  0  0  0  0  0
  -23.4113  -30.4875   21.5463 C   0  0  2  0  0  0
  -24.8564  -28.9436   20.1107 C   0  0  0  0  0  0
  -22.7448  -29.4631   22.4936 C   0  0  0  0  0  0
  -18.0272  -28.1392   22.8469 C   0  0  0  0  0  0
  -24.1487  -36.7307   23.2639 C   0  0  0  0  0  0
  -25.9457  -30.8070   21.3680 C   0  0  0  0  0  0
  -26.0192  -29.4358   20.7154 C   0  0  0  0  0  0
  -27.2045  -28.6542   20.7085 C   0  0  0  0  0  0
  -26.0406  -26.9021   19.4972 C   0  0  0  0  0  0
  -24.8649  -27.6778   19.4999 C   0  0  0  0  0  0
  -23.6239  -29.8225   20.1596 C   0  0  0  0  0  0
  -25.4105  -36.3101   24.0341 C   0  0  1  0  0  0
  -20.5873  -28.3671   23.1264 C   0  0  2  0  0  0
  -20.6754  -26.9395   22.5401 C   0  0  0  0  0  0
  -19.5705  -26.6329   21.5243 C   0  0  0  0  0  0
  -18.1901  -26.7906   22.1685 C   0  0  0  0  0  0
  -19.1530  -28.8848   23.2867 C   0  0  0  0  0  0
  -18.9469  -30.1432   23.8909 C   0  0  0  0  0  0
  -17.6472  -30.6557   24.0606 C   0  0  0  0  0  0
  -25.9037  -34.9467   23.5125 C   0  0  0  0  0  0
  -16.5349  -29.9085   23.6350 C   0  0  0  0  0  0
  -16.7266  -28.6525   23.0312 C   0  0  0  0  0  0
  -26.4478  -31.6586   25.0720 C   0  0  0  0  0  0
  -25.3729  -31.3706   26.1456 C   0  0  0  0  0  0
  -27.0322  -30.3029   24.6123 C   0  0  0  0  0  0
  -27.6056  -32.4300   25.7483 C   0  0  0  0  0  0
  -27.5579  -37.1812   24.8471 C   0  0  0  0  0  0
  -21.4173  -29.3028   22.3663 N   0  0  0  0  0  0
  -26.4292  -37.3787   23.9411 N   0  0  0  0  0  0
  -24.6778  -31.0685   22.0980 N   0  0  0  0  0  0
  -23.4190  -28.8175   23.3011 O   0  0  0  0  0  0
  -28.3954  -26.6032   20.1388 O   0  0  0  0  0  0
  -26.5604  -34.8926   22.4688 O   0  0  0  0  0  0
  -23.5380  -32.1418   23.7417 O   0  0  0  0  0  0
  -28.6164  -19.8102   19.2249 C   0  0  0  0  0  0
  -29.2730  -18.5781   19.4908 C   0  0  0  0  0  0
  -29.6051  -19.2788   21.7794 C   0  0  0  0  0  0
  -28.4236  -20.7958   20.2269 C   0  0  0  0  0  0
  -29.7712  -18.2853   20.7803 C   0  0  0  0  0  0
  -28.9380  -20.5126   21.5232 C   0  0  0  0  0  0
  -28.6008  -24.0432   19.7678 C   0  0  0  0  0  0
  -27.4562  -21.9318   19.9476 C   0  0  0  0  0  0
  -28.7553  -21.4967   22.6681 C   0  0  0  0  0  0
  -30.5990  -17.0033   21.0715 C   0  0  0  0  0  0
  -28.6129  -25.5000   19.2108 C   0  0  0  0  0  0
  -27.5629  -23.2869   19.7234 N   0  0  0  0  0  0
  -29.9931  -15.6574   20.8777 N   0  0  0  0  0  0
  -26.2276  -21.5355   19.8884 N   0  3  0  0  0  0
  -31.4620  -12.4351   19.1329 H   0  0  0  0  0  0
  -30.3188  -11.3507   19.8726 H   0  0  0  0  0  0
  -29.7431  -11.7386   17.4587 H   0  0  0  0  0  0
  -29.6560  -13.4608   17.7357 H   0  0  0  0  0  0
  -27.8365  -11.2988   18.8447 H   0  0  0  0  0  0
  -27.3656  -12.5987   17.7849 H   0  0  0  0  0  0
  -27.6725  -14.2570   19.5264 H   0  0  0  0  0  0
  -28.6924  -12.0554   21.3858 H   0  0  0  0  0  0
  -28.4647  -13.7258   21.8255 H   0  0  0  0  0  0
  -25.2766   -9.5679   22.4752 H   0  0  0  0  0  0
  -23.9991   -7.4635   22.7491 H   0  0  0  0  0  0
  -21.0826   -8.8766   19.8967 H   0  0  0  0  0  0
  -22.3697  -10.9657   19.6154 H   0  0  0  0  0  0
  -21.2016   -7.6148   23.9715 H   0  0  0  0  0  0
  -21.1481   -6.0525   25.9080 H   0  0  0  0  0  0
  -22.0598   -2.7604   23.2855 H   0  0  0  0  0  0
  -22.4111  -11.9901   22.4815 H   0  0  0  0  0  0
  -21.1096  -13.1245   22.2612 H   0  0  0  0  0  0
  -24.6292  -15.8261   20.4770 H   0  0  0  0  0  0
  -26.2535  -15.6368   20.0494 H   0  0  0  0  0  0
  -26.7144  -32.5496   23.1123 H   0  0  0  0  0  0
  -25.0100  -33.9764   25.0484 H   0  0  0  0  0  0
  -22.7035  -31.3072   21.4084 H   0  0  0  0  0  0
  -23.3747  -35.9642   23.3305 H   0  0  0  0  0  0
  -24.3583  -36.8921   22.2054 H   0  0  0  0  0  0
  -23.7245  -37.6518   23.6647 H   0  0  0  0  0  0
  -26.0655  -31.5685   20.5956 H   0  0  0  0  0  0
  -26.8310  -30.8614   21.9898 H   0  0  0  0  0  0
  -28.0999  -29.0288   21.1844 H   0  0  0  0  0  0
  -25.9854  -25.9206   19.0511 H   0  0  0  0  0  0
  -23.9678  -27.2865   19.0400 H   0  0  0  0  0  0
  -23.7440  -30.6009   19.4046 H   0  0  0  0  0  0
  -22.7432  -29.2532   19.8571 H   0  0  0  0  0  0
  -25.1277  -36.1964   25.0837 H   0  0  0  0  0  0
  -20.9964  -28.3244   24.1391 H   0  0  0  0  0  0
  -20.5671  -26.2301   23.3623 H   0  0  0  0  0  0
  -21.6609  -26.7427   22.1149 H   0  0  0  0  0  0
  -19.6848  -25.6212   21.1344 H   0  0  0  0  0  0
  -19.6637  -27.3082   20.6733 H   0  0  0  0  0  0
  -17.4144  -26.6566   21.4130 H   0  0  0  0  0  0
  -18.0331  -26.0137   22.9187 H   0  0  0  0  0  0
  -19.7954  -30.7211   24.2323 H   0  0  0  0  0  0
  -17.5030  -31.6206   24.5271 H   0  0  0  0  0  0
  -15.5349  -30.2980   23.7693 H   0  0  0  0  0  0
  -15.8676  -28.0864   22.6997 H   0  0  0  0  0  0
  -24.5912  -30.7042   25.7782 H   0  0  0  0  0  0
  -24.8904  -32.2866   26.4876 H   0  0  0  0  0  0
  -25.8062  -30.8890   27.0231 H   0  0  0  0  0  0
  -26.2890  -29.6776   24.1171 H   0  0  0  0  0  0
  -27.4092  -29.7275   25.4588 H   0  0  0  0  0  0
  -27.8713  -30.4353   23.9289 H   0  0  0  0  0  0
  -27.2696  -33.3605   26.2063 H   0  0  0  0  0  0
  -28.3860  -32.6844   25.0302 H   0  0  0  0  0  0
  -28.0721  -31.8417   26.5396 H   0  0  0  0  0  0
  -28.2598  -38.0106   24.7502 H   0  0  0  0  0  0
  -28.1073  -36.2639   24.6302 H   0  0  0  0  0  0
  -27.2302  -37.1465   25.8877 H   0  0  0  0  0  0
  -20.9367  -29.8723   21.6841 H   0  0  0  0  0  0
  -26.0180  -38.2867   24.1401 H   0  0  0  0  0  0
  -28.2165  -19.9869   18.2383 H   0  0  0  0  0  0
  -29.4003  -17.8610   18.6912 H   0  0  0  0  0  0
  -29.9942  -19.0888   22.7702 H   0  0  0  0  0  0
  -29.5694  -23.6939   20.1385 H   0  0  0  0  0  0
  -29.3258  -22.4052   22.4740 H   0  0  0  0  0  0
  -29.1003  -21.0808   23.6150 H   0  0  0  0  0  0
  -27.7063  -21.7702   22.7894 H   0  0  0  0  0  0
  -31.4913  -17.0939   20.4490 H   0  0  0  0  0  0
  -30.9675  -17.0423   22.0971 H   0  0  0  0  0  0
  -27.9704  -25.5586   18.3335 H   0  0  0  0  0  0
  -29.6119  -25.6595   18.8048 H   0  0  0  0  0  0
  -29.0190  -15.5416   21.1104 H   0  0  0  0  0  0
  -25.4637  -22.1764   19.7020 H   0  0  0  0  0  0
  -25.9577  -20.5645   20.0339 H   0  0  0  0  0  0
  1 25  1  0  0  0
  1 30  2  0  0  0
  1 83  1  0  0  0
  2  3  1  0  0  0
  2 25  1  0  0  0
  2 85  1  0  0  0
  2 86  1  0  0  0
  3  4  1  0  0  0
  3 87  1  0  0  0
  3 88  1  0  0  0
  4  5  1  0  0  0
  4 89  1  0  0  0
  4 90  1  0  0  0
  5  6  1  0  0  0
  5 26  1  0  0  0
  5 91  1  0  0  0
  6 25  1  0  0  0
  6 92  1  0  0  0
  6 93  1  0  0  0
  7  8  2  0  0  0
  7 26  1  0  0  0
  7 29  1  0  0  0
  8  9  1  0  0  0
  8 22  1  0  0  0
  9 10  1  0  0  0
  9 27  2  0  0  0
 10 11  2  0  0  0
 10 15  1  0  0  0
 11 12  1  0  0  0
 11 94  1  0  0  0
 12 13  2  0  0  0
 12 95  1  0  0  0
 13 14  1  0  0  0
 13 31  1  0  0  0
 14 15  2  0  0  0
 14 96  1  0  0  0
 15 97  1  0  0  0
 16 17  2  0  0  0
 16 21  1  0  0  0
 16 31  1  0  0  0
 17 18  1  0  0  0
 17 98  1  0  0  0
 18 19  2  0  0  0
 18 99  1  0  0  0
 19 20  1  0  0  0
 19 24  1  0  0  0
 20 21  2  0  0  0
 20100  1  0  0  0
 21 23  1  0  0  0
 22 28  1  0  0  0
 22 32  2  0  0  0
 26 27  1  0  0  0
 28101  1  0  0  0
 28102  1  0  0  0
 29103  1  0  0  0
 29104  1  0  0  0
 33 34  1  0  0  0
 33 66  1  0  0  0
 33 70  2  0  0  0
 34 36  1  0  0  0
 34 59  1  0  0  0
 34105  1  0  0  0
 35 44  2  0  0  0
 35 45  1  0  0  0
 35 68  1  0  0  0
 36 56  1  0  0  0
 36106  1  0  0  0
 37 39  1  0  0  0
 37 47  1  0  0  0
 37 66  1  0  0  0
 37107  1  0  0  0
 38 43  2  0  0  0
 38 46  1  0  0  0
 38 47  1  0  0  0
 39 64  1  0  0  0
 39 67  2  0  0  0
 40 52  1  0  0  0
 40 53  2  0  0  0
 40 58  1  0  0  0
 41108  1  0  0  0
 41109  1  0  0  0
 41110  1  0  0  0
 41 48  1  0  0  0
 42 43  1  0  0  0
 42 66  1  0  0  0
 42111  1  0  0  0
 42112  1  0  0  0
 43 44  1  0  0  0
 44113  1  0  0  0
 45 46  2  0  0  0
 45114  1  0  0  0
 46115  1  0  0  0
 47116  1  0  0  0
 47117  1  0  0  0
 48 56  1  0  0  0
 48 65  1  0  0  0
 48118  1  0  0  0
 49 50  1  0  0  0
 49 53  1  0  0  0
 49 64  1  0  0  0
 49119  1  0  0  0
 50 51  1  0  0  0
 50120  1  0  0  0
 50121  1  0  0  0
 51 52  1  0  0  0
 51122  1  0  0  0
 51123  1  0  0  0
 52124  1  0  0  0
 52125  1  0  0  0
 53 54  1  0  0  0
 54 55  2  0  0  0
 54126  1  0  0  0
 55 57  1  0  0  0
 55127  1  0  0  0
 56 69  2  0  0  0
 57 58  2  0  0  0
 57128  1  0  0  0
 58129  1  0  0  0
 59 60  1  0  0  0
 59 61  1  0  0  0
 59 62  1  0  0  0
 60130  1  0  0  0
 60131  1  0  0  0
 60132  1  0  0  0
 61133  1  0  0  0
 61134  1  0  0  0
 61135  1  0  0  0
 62136  1  0  0  0
 62137  1  0  0  0
 62138  1  0  0  0
 63 65  1  0  0  0
 63139  1  0  0  0
 63140  1  0  0  0
 63141  1  0  0  0
 64142  1  0  0  0
 65143  1  0  0  0
 68 81  1  0  0  0
 71 72  2  0  0  0
 71 74  1  0  0  0
 71144  1  0  0  0
 72 75  1  0  0  0
 72145  1  0  0  0
 73 75  2  0  0  0
 73 76  1  0  0  0
 73146  1  0  0  0
 74 76  2  0  0  0
 74 78  1  0  0  0
 75 80  1  0  0  0
 76 79  1  0  0  0
 77 81  1  0  0  0
 77 82  2  0  0  0
 77147  1  0  0  0
 78 82  1  0  0  0
 78 84  2  0  0  0
 79148  1  0  0  0
 79149  1  0  0  0
 79150  1  0  0  0
 80 83  1  0  0  0
 80151  1  0  0  0
 80152  1  0  0  0
 81153  1  0  0  0
 81154  1  0  0  0
 83155  1  0  0  0
 84156  1  0  0  0
 84157  1  0  0  0
M  CHG  1  84   1
M  ISO  4   1 100  68 101  81 101  83 100
M  END
> <chiral flag>
0

> <version>
0

> <s_m_source_file>
/data/baiqing/PycharmProjects/Reinvent-master-3.2/result/LINK_invent/BTK/process_docking_weight1_custom_product_contain_oxygen_bond_distance_aromatic_linkinvent_7_9_3/rearranged_h_0049.sdf

> <i_m_source_file_index>
9

> <r_mmod_Potential_Energy-OPLS-2005>
30.9176597595215

> <r_mmod_Stretch_Energy-OPLS-2005>
60.4517402648926

> <r_mmod_Bend_Energy-OPLS-2005>
153.381759643555

> <r_mmod_Torsional_Energy-OPLS-2005>
228.803268432617

> <r_mmod_Improper_Torsional_Energy-OPLS-2005>
6.50924825668335

> <r_mmod_Van_der_Waal_Energy-OPLS-2005>
144.288452148438

> <r_mmod_Electrostatic_Energy-OPLS-2005>
-139.127059936523

> <r_mmod_Solvation_Energy-OPLS-2005>
-451.760375976562

> <b_mmod_Minimization_Converged-OPLS-2005>
0

> <r_mmod_RMS_Derivative-OPLS-2005>
1.7780898809433

$$$$
9
                    3D
 Structure written by MMmdl.
161170  0  0  1  0            999 V2000
  -30.5676  -14.9384   20.4605 C   0  0  0  0  0  0
  -30.4381  -12.5921   19.4951 C   0  0  0  0  0  0
  -29.5275  -12.5341   18.2487 C   0  0  0  0  0  0
  -28.0575  -12.3223   18.6634 C   0  0  0  0  0  0
  -27.6307  -13.2506   19.8320 C   0  0  2  0  0  0
  -28.6716  -13.2846   20.9680 C   0  0  0  0  0  0
  -25.2457  -13.8217   20.5683 C   0  0  0  0  0  0
  -24.1777  -13.0447   20.9215 C   0  0  0  0  0  0
  -24.6395  -11.6940   20.8720 C   0  0  0  0  0  0
  -23.9069  -10.4303   21.0389 C   0  0  0  0  0  0
  -24.3621   -9.4224   21.9183 C   0  0  0  0  0  0
  -23.6293   -8.2262   22.0763 C   0  0  0  0  0  0
  -22.4270   -8.0283   21.3555 C   0  0  0  0  0  0
  -21.9904   -9.0250   20.4666 C   0  0  0  0  0  0
  -22.7228  -10.2125   20.3055 C   0  0  0  0  0  0
  -21.6852   -6.0727   22.5266 C   0  0  0  0  0  0
  -21.4026   -6.5629   23.8195 C   0  0  0  0  0  0
  -21.3654   -5.6776   24.9155 C   0  0  0  0  0  0
  -21.6056   -4.3041   24.7209 C   0  0  0  0  0  0
  -21.8819   -3.8137   23.4325 C   0  0  0  0  0  0
  -21.9186   -4.6958   22.3379 C   0  0  0  0  0  0
  -22.7789  -13.5218   21.1849 C   0  0  0  0  0  0
  -22.1663   -4.2143   21.0950 F   0  0  0  0  0  0
  -21.5641   -3.4524   25.7735 F   0  0  0  0  0  0
  -29.9425  -13.6967   20.3632 N   0  0  0  0  0  0
  -26.2884  -12.9478   20.3185 N   0  0  0  0  0  0
  -25.9332  -11.6596   20.5686 N   0  0  0  0  0  0
  -22.0412  -12.8221   22.0412 N   0  0  0  0  0  0
  -25.4109  -15.1943   20.4117 N   0  0  0  0  0  0
  -31.7707  -14.9745   20.1741 O   0  0  0  0  0  0
  -21.6639   -6.8875   21.4236 O   0  0  0  0  0  0
  -22.3464  -14.5498   20.6646 O   0  0  0  0  0  0
  -24.6422  -31.8425   23.1873 C   0  0  0  0  0  0
  -25.9200  -32.4681   23.8250 C   0  0  1  0  0  0
  -27.2200  -27.1396   20.1645 C   0  0  0  0  0  0
  -25.5946  -33.8494   24.2184 N   0  0  0  0  0  0
  -23.4437  -30.4619   21.5309 C   0  0  2  0  0  0
  -24.8934  -28.8789   20.1191 C   0  0  0  0  0  0
  -22.7556  -29.4524   22.4834 C   0  0  0  0  0  0
  -18.0301  -28.1373   22.8473 C   0  0  0  0  0  0
  -24.1495  -36.7255   23.2641 C   0  0  0  0  0  0
  -25.9971  -30.7219   21.3811 C   0  0  0  0  0  0
  -26.0694  -29.3286   20.7318 C   0  0  0  0  0  0
  -27.2351  -28.4773   20.7297 C   0  0  0  0  0  0
  -26.0165  -26.7781   19.5264 C   0  0  0  0  0  0
  -24.8785  -27.6169   19.5019 C   0  0  0  0  0  0
  -23.6735  -29.7872   20.1517 C   0  0  0  0  0  0
  -25.4125  -36.3022   24.0318 C   0  0  1  0  0  0
  -20.5915  -28.3694   23.1240 C   0  0  2  0  0  0
  -20.6774  -26.9394   22.5406 C   0  0  0  0  0  0
  -19.5750  -26.6362   21.5200 C   0  0  0  0  0  0
  -18.1931  -26.7914   22.1609 C   0  0  0  0  0  0
  -19.1561  -28.8845   23.2855 C   0  0  0  0  0  0
  -18.9475  -30.1443   23.8874 C   0  0  0  0  0  0
  -17.6470  -30.6575   24.0547 C   0  0  0  0  0  0
  -25.9072  -34.9401   23.5061 C   0  0  0  0  0  0
  -16.5358  -29.9070   23.6325 C   0  0  0  0  0  0
  -16.7286  -28.6488   23.0349 C   0  0  0  0  0  0
  -26.4534  -31.6536   25.0681 C   0  0  0  0  0  0
  -25.3737  -31.3716   26.1394 C   0  0  0  0  0  0
  -27.0392  -30.2930   24.6238 C   0  0  0  0  0  0
  -27.6057  -32.4290   25.7492 C   0  0  0  0  0  0
  -27.5584  -37.1779   24.8462 C   0  0  0  0  0  0
  -21.4242  -29.3036   22.3622 N   0  0  0  0  0  0
  -26.4273  -37.3746   23.9418 N   0  0  0  0  0  0
  -24.7143  -31.0304   22.0894 N   0  0  0  0  0  0
  -23.4210  -28.8068   23.2979 O   0  0  0  0  0  0
  -28.3239  -26.2201   20.1350 O   0  0  0  0  0  0
  -26.5656  -34.8899   22.4638 O   0  0  0  0  0  0
  -23.5545  -32.1280   23.7105 O   0  0  0  0  0  0
  -31.4051  -19.3976   23.2414 C   0  0  0  0  0  0
  -31.5132  -18.0445   23.5198 C   0  0  0  0  0  0
  -30.6178  -19.8014   22.1671 C   0  0  0  0  0  0
  -30.8965  -17.0861   22.6995 C   0  0  0  0  0  0
  -29.9921  -18.9192   21.2500 C   0  0  0  0  0  0
  -30.2344  -17.4179   21.4559 C   0  0  0  0  0  0
  -27.6714  -22.0327   20.3140 C   0  0  0  0  0  0
  -27.4317  -23.5573   19.8459 C   0  0  0  0  0  0
  -29.7598  -24.0241   20.4286 C   0  0  0  0  0  0
  -29.9797  -22.4634   20.0226 C   0  0  0  0  0  0
  -28.3225  -24.6981   20.4910 C   0  0  1  0  0  0
  -30.9383  -15.6860   23.3149 C   0  0  0  0  0  0
  -29.1623  -19.8456   20.1885 C   0  0  0  0  0  0
  -28.9152  -21.4332   20.2991 N   0  0  0  0  0  0
  -29.8447  -16.1525   20.6856 N   0  0  0  0  0  0
  -26.6723  -21.3714   20.6070 O   0  0  0  0  0  0
  -31.4758  -12.7412   19.1921 H   0  0  0  0  0  0
  -30.4281  -11.6430   20.0327 H   0  0  0  0  0  0
  -29.8540  -11.7380   17.5789 H   0  0  0  0  0  0
  -29.6208  -13.4631   17.6839 H   0  0  0  0  0  0
  -27.9472  -11.2802   18.9612 H   0  0  0  0  0  0
  -27.3990  -12.4665   17.8085 H   0  0  0  0  0  0
  -27.5972  -14.2543   19.4063 H   0  0  0  0  0  0
  -28.7624  -12.3132   21.4562 H   0  0  0  0  0  0
  -28.3709  -13.9910   21.7414 H   0  0  0  0  0  0
  -25.2790   -9.5703   22.4721 H   0  0  0  0  0  0
  -24.0017   -7.4651   22.7460 H   0  0  0  0  0  0
  -21.0866   -8.8762   19.8953 H   0  0  0  0  0  0
  -22.3708  -10.9658   19.6141 H   0  0  0  0  0  0
  -21.2027   -7.6144   23.9698 H   0  0  0  0  0  0
  -21.1487   -6.0507   25.9051 H   0  0  0  0  0  0
  -22.0605   -2.7608   23.2804 H   0  0  0  0  0  0
  -22.4008  -11.9942   22.4906 H   0  0  0  0  0  0
  -21.1005  -13.1247   22.2539 H   0  0  0  0  0  0
  -24.6436  -15.8478   20.5286 H   0  0  0  0  0  0
  -26.2546  -15.6364   20.0729 H   0  0  0  0  0  0
  -26.7259  -32.5294   23.0974 H   0  0  0  0  0  0
  -25.0085  -33.9594   25.0319 H   0  0  0  0  0  0
  -22.7458  -31.2876   21.3755 H   0  0  0  0  0  0
  -23.3757  -35.9585   23.3267 H   0  0  0  0  0  0
  -24.3581  -36.8924   22.2064 H   0  0  0  0  0  0
  -23.7254  -37.6442   23.6698 H   0  0  0  0  0  0
  -26.1455  -31.4747   20.6051 H   0  0  0  0  0  0
  -26.8708  -30.7782   22.0187 H   0  0  0  0  0  0
  -28.1423  -28.8280   21.2019 H   0  0  0  0  0  0
  -25.9468  -25.8196   19.0349 H   0  0  0  0  0  0
  -23.9821  -27.2712   19.0080 H   0  0  0  0  0  0
  -23.8200  -30.5596   19.3963 H   0  0  0  0  0  0
  -22.7873  -29.2360   19.8345 H   0  0  0  0  0  0
  -25.1303  -36.1835   25.0805 H   0  0  0  0  0  0
  -21.0010  -28.3276   24.1357 H   0  0  0  0  0  0
  -20.5634  -26.2299   23.3625 H   0  0  0  0  0  0
  -21.6653  -26.7371   22.1232 H   0  0  0  0  0  0
  -19.6909  -25.6266   21.1247 H   0  0  0  0  0  0
  -19.6693  -27.3165   20.6726 H   0  0  0  0  0  0
  -17.4203  -26.6664   21.4011 H   0  0  0  0  0  0
  -18.0323  -26.0056   22.9006 H   0  0  0  0  0  0
  -19.7950  -30.7265   24.2241 H   0  0  0  0  0  0
  -17.5023  -31.6255   24.5151 H   0  0  0  0  0  0
  -15.5356  -30.2960   23.7654 H   0  0  0  0  0  0
  -15.8691  -28.0793   22.7070 H   0  0  0  0  0  0
  -24.5928  -30.7045   25.7729 H   0  0  0  0  0  0
  -24.8914  -32.2895   26.4760 H   0  0  0  0  0  0
  -25.8045  -30.8940   27.0200 H   0  0  0  0  0  0
  -26.2989  -29.6653   24.1272 H   0  0  0  0  0  0
  -27.4043  -29.7229   25.4784 H   0  0  0  0  0  0
  -27.8880  -30.4157   23.9514 H   0  0  0  0  0  0
  -27.2640  -33.3607   26.2009 H   0  0  0  0  0  0
  -28.3925  -32.6813   25.0372 H   0  0  0  0  0  0
  -28.0662  -31.8448   26.5466 H   0  0  0  0  0  0
  -28.2562  -38.0111   24.7522 H   0  0  0  0  0  0
  -28.1104  -36.2632   24.6243 H   0  0  0  0  0  0
  -27.2295  -37.1395   25.8859 H   0  0  0  0  0  0
  -20.9430  -29.8789   21.6849 H   0  0  0  0  0  0
  -26.0131  -38.2802   24.1425 H   0  0  0  0  0  0
  -31.8725  -20.1310   23.8867 H   0  0  0  0  0  0
  -32.0511  -17.7460   24.4108 H   0  0  0  0  0  0
  -30.5099  -20.8669   22.0825 H   0  0  0  0  0  0
  -26.3812  -23.7940   20.0191 H   0  0  0  0  0  0
  -27.5624  -23.5809   18.7645 H   0  0  0  0  0  0
  -30.3526  -24.6033   19.7205 H   0  0  0  0  0  0
  -30.2448  -24.2045   21.3884 H   0  0  0  0  0  0
  -30.9304  -22.1408   20.4446 H   0  0  0  0  0  0
  -30.1505  -22.4255   18.9465 H   0  0  0  0  0  0
  -28.0311  -24.6939   21.5422 H   0  0  0  0  0  0
  -31.0201  -15.7418   24.4010 H   0  0  0  0  0  0
  -31.7996  -15.1216   22.9561 H   0  0  0  0  0  0
  -30.0218  -15.1245   23.1356 H   0  0  0  0  0  0
  -28.1918  -19.3618   20.0769 H   0  0  0  0  0  0
  -29.6499  -19.6906   19.2273 H   0  0  0  0  0  0
  -28.8503  -16.0587   20.5360 H   0  0  0  0  0  0
  1 25  1  0  0  0
  1 30  2  0  0  0
  1 85  1  0  0  0
  2  3  1  0  0  0
  2 25  1  0  0  0
  2 87  1  0  0  0
  2 88  1  0  0  0
  3  4  1  0  0  0
  3 89  1  0  0  0
  3 90  1  0  0  0
  4  5  1  0  0  0
  4 91  1  0  0  0
  4 92  1  0  0  0
  5  6  1  0  0  0
  5 26  1  0  0  0
  5 93  1  0  0  0
  6 25  1  0  0  0
  6 94  1  0  0  0
  6 95  1  0  0  0
  7  8  2  0  0  0
  7 26  1  0  0  0
  7 29  1  0  0  0
  8  9  1  0  0  0
  8 22  1  0  0  0
  9 10  1  0  0  0
  9 27  2  0  0  0
 10 11  2  0  0  0
 10 15  1  0  0  0
 11 12  1  0  0  0
 11 96  1  0  0  0
 12 13  2  0  0  0
 12 97  1  0  0  0
 13 14  1  0  0  0
 13 31  1  0  0  0
 14 15  2  0  0  0
 14 98  1  0  0  0
 15 99  1  0  0  0
 16 17  2  0  0  0
 16 21  1  0  0  0
 16 31  1  0  0  0
 17 18  1  0  0  0
 17100  1  0  0  0
 18 19  2  0  0  0
 18101  1  0  0  0
 19 20  1  0  0  0
 19 24  1  0  0  0
 20 21  2  0  0  0
 20102  1  0  0  0
 21 23  1  0  0  0
 22 28  1  0  0  0
 22 32  2  0  0  0
 26 27  1  0  0  0
 28103  1  0  0  0
 28104  1  0  0  0
 29105  1  0  0  0
 29106  1  0  0  0
 33 34  1  0  0  0
 33 66  1  0  0  0
 33 70  2  0  0  0
 34 36  1  0  0  0
 34 59  1  0  0  0
 34107  1  0  0  0
 35 44  2  0  0  0
 35 45  1  0  0  0
 35 68  1  0  0  0
 36 56  1  0  0  0
 36108  1  0  0  0
 37 39  1  0  0  0
 37 47  1  0  0  0
 37 66  1  0  0  0
 37109  1  0  0  0
 38 43  2  0  0  0
 38 46  1  0  0  0
 38 47  1  0  0  0
 39 64  1  0  0  0
 39 67  2  0  0  0
 40 52  1  0  0  0
 40 53  2  0  0  0
 40 58  1  0  0  0
 41110  1  0  0  0
 41111  1  0  0  0
 41112  1  0  0  0
 41 48  1  0  0  0
 42 43  1  0  0  0
 42 66  1  0  0  0
 42113  1  0  0  0
 42114  1  0  0  0
 43 44  1  0  0  0
 44115  1  0  0  0
 45 46  2  0  0  0
 45116  1  0  0  0
 46117  1  0  0  0
 47118  1  0  0  0
 47119  1  0  0  0
 48 56  1  0  0  0
 48 65  1  0  0  0
 48120  1  0  0  0
 49 50  1  0  0  0
 49 53  1  0  0  0
 49 64  1  0  0  0
 49121  1  0  0  0
 50 51  1  0  0  0
 50122  1  0  0  0
 50123  1  0  0  0
 51 52  1  0  0  0
 51124  1  0  0  0
 51125  1  0  0  0
 52126  1  0  0  0
 52127  1  0  0  0
 53 54  1  0  0  0
 54 55  2  0  0  0
 54128  1  0  0  0
 55 57  1  0  0  0
 55129  1  0  0  0
 56 69  2  0  0  0
 57 58  2  0  0  0
 57130  1  0  0  0
 58131  1  0  0  0
 59 60  1  0  0  0
 59 61  1  0  0  0
 59 62  1  0  0  0
 60132  1  0  0  0
 60133  1  0  0  0
 60134  1  0  0  0
 61135  1  0  0  0
 61136  1  0  0  0
 61137  1  0  0  0
 62138  1  0  0  0
 62139  1  0  0  0
 62140  1  0  0  0
 63 65  1  0  0  0
 63141  1  0  0  0
 63142  1  0  0  0
 63143  1  0  0  0
 64144  1  0  0  0
 65145  1  0  0  0
 68 81  1  0  0  0
 71 72  2  0  0  0
 71 73  1  0  0  0
 71146  1  0  0  0
 72 74  1  0  0  0
 72147  1  0  0  0
 73 75  2  0  0  0
 73148  1  0  0  0
 74 76  2  0  0  0
 74 82  1  0  0  0
 75 76  1  0  0  0
 75 83  1  0  0  0
 76 85  1  0  0  0
 77 78  1  0  0  0
 77 84  1  0  0  0
 77 86  2  0  0  0
 78 81  1  0  0  0
 78149  1  0  0  0
 78150  1  0  0  0
 79 80  1  0  0  0
 79 81  1  0  0  0
 79151  1  0  0  0
 79152  1  0  0  0
 80 84  1  0  0  0
 80153  1  0  0  0
 80154  1  0  0  0
 81155  1  0  0  0
 82156  1  0  0  0
 82157  1  0  0  0
 82158  1  0  0  0
 83 84  1  0  0  0
 83159  1  0  0  0
 83160  1  0  0  0
 85161  1  0  0  0
M  ISO  4   1 100  68 101  81 101  85 100
M  END
> <chiral flag>
0

> <version>
0

> <s_m_source_file>
/data/baiqing/PycharmProjects/Reinvent-master-3.2/result/LINK_invent/BTK/process_docking_weight1_custom_product_contain_oxygen_bond_distance_aromatic_linkinvent_7_9_3/rearranged_h_0049.sdf

> <i_m_source_file_index>
10

> <r_mmod_Potential_Energy-OPLS-2005>
597.289001464844

> <r_mmod_Stretch_Energy-OPLS-2005>
271.553527832031

> <r_mmod_Bend_Energy-OPLS-2005>
331.178070068359

> <r_mmod_Torsional_Energy-OPLS-2005>
290.7900390625

> <r_mmod_Improper_Torsional_Energy-OPLS-2005>
6.35585451126099

> <r_mmod_Van_der_Waal_Energy-OPLS-2005>
158.019073486328

> <r_mmod_Electrostatic_Energy-OPLS-2005>
-405.767425537109

> <r_mmod_Solvation_Energy-OPLS-2005>
-231.500427246094

> <b_mmod_Minimization_Converged-OPLS-2005>
0

> <r_mmod_RMS_Derivative-OPLS-2005>
3.62499856948853

$$$$
10
                    3D
 Structure written by MMmdl.
168176  0  0  1  0            999 V2000
  -30.6755  -14.5257   20.5360 C   0  0  0  0  0  0
  -30.4192  -12.3238   19.4440 C   0  0  0  0  0  0
  -29.5037  -12.5047   18.2138 C   0  0  0  0  0  0
  -28.0195  -12.3698   18.6153 C   0  0  0  0  0  0
  -27.6550  -13.2047   19.8720 C   0  0  2  0  0  0
  -28.6966  -13.0229   20.9986 C   0  0  0  0  0  0
  -25.2572  -13.8160   20.5683 C   0  0  0  0  0  0
  -24.1818  -13.0446   20.9196 C   0  0  0  0  0  0
  -24.6354  -11.6900   20.8763 C   0  0  0  0  0  0
  -23.9009  -10.4291   21.0419 C   0  0  0  0  0  0
  -24.3563   -9.4207   21.9202 C   0  0  0  0  0  0
  -23.6260   -8.2233   22.0761 C   0  0  0  0  0  0
  -22.4248   -8.0275   21.3538 C   0  0  0  0  0  0
  -21.9864   -9.0254   20.4648 C   0  0  0  0  0  0
  -22.7181  -10.2138   20.3066 C   0  0  0  0  0  0
  -21.6852   -6.0735   22.5271 C   0  0  0  0  0  0
  -21.4032   -6.5634   23.8210 C   0  0  0  0  0  0
  -21.3665   -5.6780   24.9166 C   0  0  0  0  0  0
  -21.6025   -4.3045   24.7215 C   0  0  0  0  0  0
  -21.8830   -3.8148   23.4341 C   0  0  0  0  0  0
  -21.9196   -4.6966   22.3397 C   0  0  0  0  0  0
  -22.7842  -13.5272   21.1874 C   0  0  0  0  0  0
  -22.1664   -4.2149   21.0979 F   0  0  0  0  0  0
  -21.5612   -3.4529   25.7732 F   0  0  0  0  0  0
  -30.0212  -13.3318   20.4389 N   0  0  0  0  0  0
  -26.2974  -12.9298   20.3348 N   0  0  0  0  0  0
  -25.9264  -11.6457   20.5747 N   0  0  0  0  0  0
  -22.0444  -12.8295   22.0424 N   0  0  0  0  0  0
  -25.4337  -15.1882   20.4044 N   0  0  0  0  0  0
  -31.8210  -14.6907   20.1107 O   0  0  0  0  0  0
  -21.6617   -6.8871   21.4233 O   0  0  0  0  0  0
  -22.3531  -14.5572   20.6707 O   0  0  0  0  0  0
  -24.6112  -31.8697   23.2123 C   0  0  0  0  0  0
  -25.9031  -32.4829   23.8378 C   0  0  1  0  0  0
  -27.2216  -27.4348   20.0983 C   0  0  0  0  0  0
  -25.5900  -33.8618   24.2318 N   0  0  0  0  0  0
  -23.3978  -30.4935   21.5520 C   0  0  2  0  0  0
  -24.8476  -28.9606   20.1129 C   0  0  0  0  0  0
  -22.7376  -29.4675   22.5005 C   0  0  0  0  0  0
  -18.0256  -28.1385   22.8474 C   0  0  0  0  0  0
  -24.1485  -36.7325   23.2632 C   0  0  0  0  0  0
  -25.9244  -30.8306   21.3690 C   0  0  0  0  0  0
  -26.0034  -29.4602   20.7296 C   0  0  0  0  0  0
  -27.1944  -28.6976   20.7379 C   0  0  0  0  0  0
  -26.0634  -26.9652   19.4518 C   0  0  0  0  0  0
  -24.8729  -27.7114   19.4699 C   0  0  0  0  0  0
  -23.6077  -29.8250   20.1648 C   0  0  0  0  0  0
  -25.4103  -36.3103   24.0332 C   0  0  1  0  0  0
  -20.5844  -28.3695   23.1309 C   0  0  2  0  0  0
  -20.6754  -26.9450   22.5355 C   0  0  0  0  0  0
  -19.5725  -26.6429   21.5165 C   0  0  0  0  0  0
  -18.1916  -26.7940   22.1590 C   0  0  0  0  0  0
  -19.1503  -28.8850   23.2892 C   0  0  0  0  0  0
  -18.9418  -30.1451   23.8909 C   0  0  0  0  0  0
  -17.6423  -30.6592   24.0568 C   0  0  0  0  0  0
  -25.9035  -34.9485   23.5119 C   0  0  0  0  0  0
  -16.5315  -29.9084   23.6310 C   0  0  0  0  0  0
  -16.7245  -28.6502   23.0324 C   0  0  0  0  0  0
  -26.4477  -31.6572   25.0676 C   0  0  0  0  0  0
  -25.3762  -31.3665   26.1435 C   0  0  0  0  0  0
  -27.0280  -30.3003   24.6021 C   0  0  0  0  0  0
  -27.6046  -32.4290   25.7437 C   0  0  0  0  0  0
  -27.5579  -37.1816   24.8462 C   0  0  0  0  0  0
  -21.4104  -29.3095   22.3770 N   0  0  0  0  0  0
  -26.4288  -37.3794   23.9410 N   0  0  0  0  0  0
  -24.6621  -31.0788   22.1039 N   0  0  0  0  0  0
  -23.4151  -28.8181   23.3012 O   0  0  0  0  0  0
  -28.3437  -26.6454   20.0163 O   0  0  0  0  0  0
  -26.5586  -34.8918   22.4674 O   0  0  0  0  0  0
  -23.5317  -32.1468   23.7522 O   0  0  0  0  0  0
  -27.8472  -19.8278   18.6477 C   0  0  0  0  0  0
  -27.7923  -18.4532   18.3833 C   0  0  0  0  0  0
  -28.6994  -20.3433   19.6461 C   0  0  0  0  0  0
  -29.5080  -19.4320   20.4053 C   0  0  0  0  0  0
  -29.4382  -18.0142   20.1534 C   0  0  0  0  0  0
  -28.5895  -17.5583   19.1114 C   0  0  0  0  0  0
  -28.6756  -21.8267   19.7540 C   0  0  0  0  0  0
  -30.4897  -19.9626   21.4473 C   0  0  0  0  0  0
  -26.8127  -25.4763   22.6023 C   0  0  0  0  0  0
  -28.9477  -24.2799   22.9811 C   0  0  0  0  0  0
  -30.3077  -17.0072   20.9615 C   0  0  0  0  0  0
  -27.5785  -23.8198   20.8555 C   0  0  0  0  0  0
  -28.8643  -26.0725   21.2221 C   0  0  0  0  0  0
  -28.0574  -24.9004   21.8843 C   0  0  0  0  0  0
  -28.9768  -22.5345   18.6677 N   0  0  0  0  0  0
  -29.9325  -15.5693   20.9678 N   0  0  0  0  0  0
  -28.2625  -22.4902   20.8507 N   0  3  0  0  0  0
  -28.5322  -16.2505   18.7698 F   0  0  0  0  0  0
  -31.4716  -12.4062   19.1656 H   0  0  0  0  0  0
  -30.3000  -11.3227   19.8618 H   0  0  0  0  0  0
  -29.7517  -11.7663   17.4504 H   0  0  0  0  0  0
  -29.6792  -13.4836   17.7620 H   0  0  0  0  0  0
  -27.8191  -11.3135   18.8034 H   0  0  0  0  0  0
  -27.3795  -12.6603   17.7815 H   0  0  0  0  0  0
  -27.6812  -14.2448   19.5622 H   0  0  0  0  0  0
  -28.6782  -11.9946   21.3626 H   0  0  0  0  0  0
  -28.4577  -13.6466   21.8610 H   0  0  0  0  0  0
  -25.2706   -9.5702   22.4766 H   0  0  0  0  0  0
  -23.9981   -7.4625   22.7476 H   0  0  0  0  0  0
  -21.0791   -8.8785   19.8947 H   0  0  0  0  0  0
  -22.3655  -10.9683   19.6179 H   0  0  0  0  0  0
  -21.2043   -7.6141   23.9735 H   0  0  0  0  0  0
  -21.1460   -6.0491   25.9069 H   0  0  0  0  0  0
  -22.0601   -2.7605   23.2840 H   0  0  0  0  0  0
  -22.3988  -11.9943   22.4832 H   0  0  0  0  0  0
  -21.1084  -13.1403   22.2636 H   0  0  0  0  0  0
  -24.6662  -15.8477   20.4783 H   0  0  0  0  0  0
  -26.2743  -15.6023   20.0229 H   0  0  0  0  0  0
  -26.7078  -32.5550   23.1118 H   0  0  0  0  0  0
  -25.0043  -33.9780   25.0453 H   0  0  0  0  0  0
  -22.6873  -31.3108   21.4142 H   0  0  0  0  0  0
  -23.3722  -35.9688   23.3302 H   0  0  0  0  0  0
  -24.3578  -36.8935   22.2047 H   0  0  0  0  0  0
  -23.7264  -37.6541   23.6641 H   0  0  0  0  0  0
  -26.0296  -31.5886   20.5915 H   0  0  0  0  0  0
  -26.8172  -30.8958   21.9800 H   0  0  0  0  0  0
  -28.0845  -29.0810   21.2169 H   0  0  0  0  0  0
  -26.0847  -26.0160   18.9353 H   0  0  0  0  0  0
  -23.9937  -27.3314   18.9704 H   0  0  0  0  0  0
  -23.7071  -30.5966   19.4011 H   0  0  0  0  0  0
  -22.7330  -29.2413   19.8734 H   0  0  0  0  0  0
  -25.1283  -36.1961   25.0828 H   0  0  0  0  0  0
  -20.9916  -28.3229   24.1438 H   0  0  0  0  0  0
  -20.5664  -26.2289   23.3528 H   0  0  0  0  0  0
  -21.6618  -26.7516   22.1134 H   0  0  0  0  0  0
  -19.6892  -25.6341   21.1191 H   0  0  0  0  0  0
  -19.6633  -27.3239   20.6698 H   0  0  0  0  0  0
  -17.4188  -26.6703   21.3979 H   0  0  0  0  0  0
  -18.0304  -26.0060   22.8953 H   0  0  0  0  0  0
  -19.7877  -30.7269   24.2307 H   0  0  0  0  0  0
  -17.4953  -31.6258   24.5195 H   0  0  0  0  0  0
  -15.5309  -30.2981   23.7632 H   0  0  0  0  0  0
  -15.8641  -28.0821   22.7037 H   0  0  0  0  0  0
  -24.5941  -30.7010   25.7767 H   0  0  0  0  0  0
  -24.8948  -32.2821   26.4881 H   0  0  0  0  0  0
  -25.8153  -30.8827   27.0176 H   0  0  0  0  0  0
  -26.2795  -29.6774   24.1115 H   0  0  0  0  0  0
  -27.4082  -29.7223   25.4452 H   0  0  0  0  0  0
  -27.8624  -30.4281   23.9122 H   0  0  0  0  0  0
  -27.2650  -33.3578   26.2030 H   0  0  0  0  0  0
  -28.3848  -32.6883   25.0269 H   0  0  0  0  0  0
  -28.0723  -31.8407   26.5341 H   0  0  0  0  0  0
  -28.2601  -38.0107   24.7493 H   0  0  0  0  0  0
  -28.1070  -36.2640   24.6302 H   0  0  0  0  0  0
  -27.2302  -37.1489   25.8865 H   0  0  0  0  0  0
  -20.9271  -29.8883   21.7049 H   0  0  0  0  0  0
  -26.0167  -38.2873   24.1397 H   0  0  0  0  0  0
  -27.2343  -20.4972   18.0590 H   0  0  0  0  0  0
  -27.1478  -18.0779   17.6015 H   0  0  0  0  0  0
  -30.7390  -21.0127   21.3016 H   0  0  0  0  0  0
  -31.4390  -19.4265   21.4074 H   0  0  0  0  0  0
  -30.0771  -19.8492   22.4495 H   0  0  0  0  0  0
  -26.3324  -24.7235   23.2289 H   0  0  0  0  0  0
  -26.0518  -25.8237   21.9056 H   0  0  0  0  0  0
  -27.0702  -26.3184   23.2451 H   0  0  0  0  0  0
  -28.4448  -23.4665   23.5038 H   0  0  0  0  0  0
  -29.2236  -25.0280   23.7244 H   0  0  0  0  0  0
  -29.8755  -23.8909   22.5610 H   0  0  0  0  0  0
  -30.3014  -17.3179   22.0058 H   0  0  0  0  0  0
  -31.3392  -17.1293   20.6270 H   0  0  0  0  0  0
  -27.5637  -24.2552   19.8547 H   0  0  0  0  0  0
  -26.5299  -23.5902   21.0521 H   0  0  0  0  0  0
  -29.8513  -25.6963   20.9516 H   0  0  0  0  0  0
  -29.0509  -26.8649   21.9466 H   0  0  0  0  0  0
  -29.0773  -23.5355   18.6959 H   0  0  0  0  0  0
  -29.2987  -22.0448   17.8453 H   0  0  0  0  0  0
  -28.9939  -15.3533   21.2656 H   0  0  0  0  0  0
  -28.0980  -21.9116   21.6659 H   0  0  0  0  0  0
  1 25  1  0  0  0
  1 30  2  0  0  0
  1 86  1  0  0  0
  2  3  1  0  0  0
  2 25  1  0  0  0
  2 89  1  0  0  0
  2 90  1  0  0  0
  3  4  1  0  0  0
  3 91  1  0  0  0
  3 92  1  0  0  0
  4  5  1  0  0  0
  4 93  1  0  0  0
  4 94  1  0  0  0
  5  6  1  0  0  0
  5 26  1  0  0  0
  5 95  1  0  0  0
  6 25  1  0  0  0
  6 96  1  0  0  0
  6 97  1  0  0  0
  7  8  2  0  0  0
  7 26  1  0  0  0
  7 29  1  0  0  0
  8  9  1  0  0  0
  8 22  1  0  0  0
  9 10  1  0  0  0
  9 27  2  0  0  0
 10 11  2  0  0  0
 10 15  1  0  0  0
 11 12  1  0  0  0
 11 98  1  0  0  0
 12 13  2  0  0  0
 12 99  1  0  0  0
 13 14  1  0  0  0
 13 31  1  0  0  0
 14 15  2  0  0  0
 14100  1  0  0  0
 15101  1  0  0  0
 16 17  2  0  0  0
 16 21  1  0  0  0
 16 31  1  0  0  0
 17 18  1  0  0  0
 17102  1  0  0  0
 18 19  2  0  0  0
 18103  1  0  0  0
 19 20  1  0  0  0
 19 24  1  0  0  0
 20 21  2  0  0  0
 20104  1  0  0  0
 21 23  1  0  0  0
 22 28  1  0  0  0
 22 32  2  0  0  0
 26 27  1  0  0  0
 28105  1  0  0  0
 28106  1  0  0  0
 29107  1  0  0  0
 29108  1  0  0  0
 33 34  1  0  0  0
 33 66  1  0  0  0
 33 70  2  0  0  0
 34 36  1  0  0  0
 34 59  1  0  0  0
 34109  1  0  0  0
 35 44  2  0  0  0
 35 45  1  0  0  0
 35 68  1  0  0  0
 36 56  1  0  0  0
 36110  1  0  0  0
 37 39  1  0  0  0
 37 47  1  0  0  0
 37 66  1  0  0  0
 37111  1  0  0  0
 38 43  2  0  0  0
 38 46  1  0  0  0
 38 47  1  0  0  0
 39 64  1  0  0  0
 39 67  2  0  0  0
 40 52  1  0  0  0
 40 53  2  0  0  0
 40 58  1  0  0  0
 41112  1  0  0  0
 41113  1  0  0  0
 41114  1  0  0  0
 41 48  1  0  0  0
 42 43  1  0  0  0
 42 66  1  0  0  0
 42115  1  0  0  0
 42116  1  0  0  0
 43 44  1  0  0  0
 44117  1  0  0  0
 45 46  2  0  0  0
 45118  1  0  0  0
 46119  1  0  0  0
 47120  1  0  0  0
 47121  1  0  0  0
 48 56  1  0  0  0
 48 65  1  0  0  0
 48122  1  0  0  0
 49 50  1  0  0  0
 49 53  1  0  0  0
 49 64  1  0  0  0
 49123  1  0  0  0
 50 51  1  0  0  0
 50124  1  0  0  0
 50125  1  0  0  0
 51 52  1  0  0  0
 51126  1  0  0  0
 51127  1  0  0  0
 52128  1  0  0  0
 52129  1  0  0  0
 53 54  1  0  0  0
 54 55  2  0  0  0
 54130  1  0  0  0
 55 57  1  0  0  0
 55131  1  0  0  0
 56 69  2  0  0  0
 57 58  2  0  0  0
 57132  1  0  0  0
 58133  1  0  0  0
 59 60  1  0  0  0
 59 61  1  0  0  0
 59 62  1  0  0  0
 60134  1  0  0  0
 60135  1  0  0  0
 60136  1  0  0  0
 61137  1  0  0  0
 61138  1  0  0  0
 61139  1  0  0  0
 62140  1  0  0  0
 62141  1  0  0  0
 62142  1  0  0  0
 63 65  1  0  0  0
 63143  1  0  0  0
 63144  1  0  0  0
 63145  1  0  0  0
 64146  1  0  0  0
 65147  1  0  0  0
 68 83  1  0  0  0
 71 72  2  0  0  0
 71 73  1  0  0  0
 71148  1  0  0  0
 72 76  1  0  0  0
 72149  1  0  0  0
 73 74  2  0  0  0
 73 77  1  0  0  0
 74 75  1  0  0  0
 74 78  1  0  0  0
 75 76  2  0  0  0
 75 81  1  0  0  0
 76 88  1  0  0  0
 77 85  1  0  0  0
 77 87  2  0  0  0
 78150  1  0  0  0
 78151  1  0  0  0
 78152  1  0  0  0
 79153  1  0  0  0
 79154  1  0  0  0
 79155  1  0  0  0
 79 84  1  0  0  0
 80 84  1  0  0  0
 80156  1  0  0  0
 80157  1  0  0  0
 80158  1  0  0  0
 81 86  1  0  0  0
 81159  1  0  0  0
 81160  1  0  0  0
 82 84  1  0  0  0
 82 87  1  0  0  0
 82161  1  0  0  0
 82162  1  0  0  0
 83 84  1  0  0  0
 83163  1  0  0  0
 83164  1  0  0  0
 85165  1  0  0  0
 85166  1  0  0  0
 86167  1  0  0  0
 87168  1  0  0  0
M  CHG  1  87   1
M  ISO  4   1 100  68 101  83 101  86 100
M  END
> <chiral flag>
0

> <version>
0

> <s_m_source_file>
/data/baiqing/PycharmProjects/Reinvent-master-3.2/result/LINK_invent/BTK/process_docking_weight1_custom_product_contain_oxygen_bond_distance_aromatic_linkinvent_7_9_3/rearranged_h_0049.sdf

> <i_m_source_file_index>
11

> <r_mmod_Potential_Energy-OPLS-2005>
-146.239547729492

> <r_mmod_Stretch_Energy-OPLS-2005>
50.221607208252

> <r_mmod_Bend_Energy-OPLS-2005>
127.682731628418

> <r_mmod_Torsional_Energy-OPLS-2005>
282.281524658203

> <r_mmod_Improper_Torsional_Energy-OPLS-2005>
6.65895509719849

> <r_mmod_Van_der_Waal_Energy-OPLS-2005>
154.805618286133

> <r_mmod_Electrostatic_Energy-OPLS-2005>
-386.161804199219

> <r_mmod_Solvation_Energy-OPLS-2005>
-399.372497558594

> <b_mmod_Minimization_Converged-OPLS-2005>
0

> <r_mmod_RMS_Derivative-OPLS-2005>
3.53749632835388

$$$$
11
                    3D
 Structure written by MMmdl.
170179  0  0  1  0            999 V2000
  -30.7677  -14.3899   20.6719 C   0  0  0  0  0  0
  -30.4143  -12.3013   19.4007 C   0  0  0  0  0  0
  -29.4837  -12.5215   18.1946 C   0  0  0  0  0  0
  -28.0084  -12.3784   18.6118 C   0  0  0  0  0  0
  -27.6632  -13.2082   19.8766 C   0  0  2  0  0  0
  -28.7018  -12.9686   20.9939 C   0  0  0  0  0  0
  -25.2593  -13.8171   20.5683 C   0  0  0  0  0  0
  -24.1844  -13.0446   20.9177 C   0  0  0  0  0  0
  -24.6398  -11.6914   20.8733 C   0  0  0  0  0  0
  -23.9064  -10.4297   21.0404 C   0  0  0  0  0  0
  -24.3614   -9.4212   21.9185 C   0  0  0  0  0  0
  -23.6289   -8.2246   22.0754 C   0  0  0  0  0  0
  -22.4275   -8.0283   21.3541 C   0  0  0  0  0  0
  -21.9912   -9.0256   20.4645 C   0  0  0  0  0  0
  -22.7238  -10.2136   20.3053 C   0  0  0  0  0  0
  -21.6854   -6.0737   22.5279 C   0  0  0  0  0  0
  -21.4015   -6.5640   23.8212 C   0  0  0  0  0  0
  -21.3658   -5.6791   24.9174 C   0  0  0  0  0  0
  -21.6043   -4.3054   24.7224 C   0  0  0  0  0  0
  -21.8819   -3.8146   23.4346 C   0  0  0  0  0  0
  -21.9193   -4.6964   22.3403 C   0  0  0  0  0  0
  -22.7865  -13.5241   21.1839 C   0  0  0  0  0  0
  -22.1660   -4.2149   21.0981 F   0  0  0  0  0  0
  -21.5628   -3.4539   25.7737 F   0  0  0  0  0  0
  -30.0413  -13.2620   20.4507 N   0  0  0  0  0  0
  -26.3033  -12.9347   20.3368 N   0  0  0  0  0  0
  -25.9324  -11.6503   20.5759 N   0  0  0  0  0  0
  -22.0500  -12.8228   22.0390 N   0  0  0  0  0  0
  -25.4322  -15.1888   20.4095 N   0  0  0  0  0  0
  -31.8062  -14.6506   20.0577 O   0  0  0  0  0  0
  -21.6638   -6.8879   21.4241 O   0  0  0  0  0  0
  -22.3551  -14.5552   20.6695 O   0  0  0  0  0  0
  -24.6137  -31.8692   23.2108 C   0  0  0  0  0  0
  -25.9033  -32.4830   23.8404 C   0  0  1  0  0  0
  -27.2319  -27.4487   20.0929 C   0  0  0  0  0  0
  -25.5893  -33.8627   24.2343 N   0  0  0  0  0  0
  -23.4008  -30.4929   21.5511 C   0  0  2  0  0  0
  -24.8474  -28.9608   20.1150 C   0  0  0  0  0  0
  -22.7406  -29.4663   22.4996 C   0  0  0  0  0  0
  -18.0270  -28.1372   22.8495 C   0  0  0  0  0  0
  -24.1487  -36.7312   23.2640 C   0  0  0  0  0  0
  -25.9283  -30.8398   21.3604 C   0  0  0  0  0  0
  -26.0071  -29.4752   20.7085 C   0  0  0  0  0  0
  -27.2055  -28.7261   20.6944 C   0  0  0  0  0  0
  -26.0583  -26.9464   19.4937 C   0  0  0  0  0  0
  -24.8669  -27.6945   19.5057 C   0  0  0  0  0  0
  -23.6078  -29.8245   20.1657 C   0  0  0  0  0  0
  -25.4106  -36.3118   24.0346 C   0  0  1  0  0  0
  -20.5861  -28.3654   23.1323 C   0  0  2  0  0  0
  -20.6762  -26.9393   22.5415 C   0  0  0  0  0  0
  -19.5741  -26.6385   21.5211 C   0  0  0  0  0  0
  -18.1918  -26.7922   22.1618 C   0  0  0  0  0  0
  -19.1519  -28.8828   23.2909 C   0  0  0  0  0  0
  -18.9449  -30.1434   23.8921 C   0  0  0  0  0  0
  -17.6454  -30.6582   24.0567 C   0  0  0  0  0  0
  -25.9030  -34.9482   23.5143 C   0  0  0  0  0  0
  -16.5346  -29.9087   23.6325 C   0  0  0  0  0  0
  -16.7259  -28.6499   23.0352 C   0  0  0  0  0  0
  -26.4468  -31.6599   25.0721 C   0  0  0  0  0  0
  -25.3741  -31.3683   26.1472 C   0  0  0  0  0  0
  -27.0306  -30.3057   24.6056 C   0  0  0  0  0  0
  -27.6051  -32.4310   25.7478 C   0  0  0  0  0  0
  -27.5581  -37.1810   24.8470 C   0  0  0  0  0  0
  -21.4134  -29.3032   22.3735 N   0  0  0  0  0  0
  -26.4296  -37.3799   23.9411 N   0  0  0  0  0  0
  -24.6661  -31.0806   22.0999 N   0  0  0  0  0  0
  -23.4186  -28.8203   23.3029 O   0  0  0  0  0  0
  -28.3849  -26.6975   20.0944 O   0  0  0  0  0  0
  -26.5592  -34.8931   22.4703 O   0  0  0  0  0  0
  -23.5330  -32.1427   23.7511 O   0  0  0  0  0  0
  -31.3424  -18.7472   21.9830 C   0  0  0  0  0  0
  -28.7184  -19.3070   22.7506 C   0  0  0  0  0  0
  -30.9373  -20.0925   22.1293 C   0  0  0  0  0  0
  -29.1311  -17.9601   22.6263 C   0  0  0  0  0  0
  -30.4714  -17.6706   22.2622 C   0  0  0  0  0  0
  -29.6140  -20.3829   22.5477 C   0  0  0  0  0  0
  -28.1276  -22.9546   20.9269 C   0  0  0  0  0  0
  -27.1673  -22.0186   20.7951 C   0  0  0  0  0  0
  -28.2080  -24.2147   20.0561 C   0  0  0  0  0  0
  -29.5814  -25.4008   21.7360 C   0  0  0  0  0  0
  -29.4956  -24.1768   22.6618 C   0  0  0  0  0  0
  -28.3153  -25.5047   20.8904 C   0  0  1  0  0  0
  -31.9659  -21.1879   21.8920 C   0  0  0  0  0  0
  -28.1321  -16.8647   22.9648 C   0  0  0  0  0  0
  -31.0735  -16.2591   22.2961 C   0  0  0  0  0  0
  -29.1733  -21.7936   22.9717 C   0  0  0  0  0  0
  -30.3162  -15.1829   21.6521 N   0  0  0  0  0  0
  -29.2485  -22.8853   21.9512 N   0  3  1  0  0  0
  -31.4578  -12.3964   19.0945 H   0  0  0  0  0  0
  -30.3114  -11.2832   19.7797 H   0  0  0  0  0  0
  -29.7186  -11.8081   17.4035 H   0  0  0  0  0  0
  -29.6533  -13.5138   17.7733 H   0  0  0  0  0  0
  -27.8159  -11.3213   18.7980 H   0  0  0  0  0  0
  -27.3556  -12.6628   17.7855 H   0  0  0  0  0  0
  -27.7159  -14.2606   19.5954 H   0  0  0  0  0  0
  -28.6680  -11.9294   21.3235 H   0  0  0  0  0  0
  -28.4471  -13.5569   21.8753 H   0  0  0  0  0  0
  -25.2760   -9.5686   22.4760 H   0  0  0  0  0  0
  -23.9997   -7.4638   22.7478 H   0  0  0  0  0  0
  -21.0841   -8.8771   19.8951 H   0  0  0  0  0  0
  -22.3698  -10.9670   19.6157 H   0  0  0  0  0  0
  -21.2009   -7.6149   23.9716 H   0  0  0  0  0  0
  -21.1480   -6.0522   25.9075 H   0  0  0  0  0  0
  -22.0601   -2.7610   23.2846 H   0  0  0  0  0  0
  -22.4096  -11.9873   22.4762 H   0  0  0  0  0  0
  -21.1115  -13.1252   22.2589 H   0  0  0  0  0  0
  -24.6687  -15.8470   20.5180 H   0  0  0  0  0  0
  -26.2866  -15.6232   20.0834 H   0  0  0  0  0  0
  -26.7107  -32.5550   23.1173 H   0  0  0  0  0  0
  -25.0077  -33.9799   25.0509 H   0  0  0  0  0  0
  -22.6890  -31.3094   21.4121 H   0  0  0  0  0  0
  -23.3758  -35.9637   23.3315 H   0  0  0  0  0  0
  -24.3581  -36.8906   22.2052 H   0  0  0  0  0  0
  -23.7229  -37.6519   23.6638 H   0  0  0  0  0  0
  -26.0358  -31.6053   20.5909 H   0  0  0  0  0  0
  -26.8185  -30.8958   21.9751 H   0  0  0  0  0  0
  -28.1022  -29.1168   21.1544 H   0  0  0  0  0  0
  -26.0569  -25.9807   19.0128 H   0  0  0  0  0  0
  -23.9751  -27.2918   19.0456 H   0  0  0  0  0  0
  -23.7134  -30.5994   19.4057 H   0  0  0  0  0  0
  -22.7328  -29.2424   19.8706 H   0  0  0  0  0  0
  -25.1279  -36.1995   25.0840 H   0  0  0  0  0  0
  -20.9947  -28.3209   24.1447 H   0  0  0  0  0  0
  -20.5668  -26.2258   23.3594 H   0  0  0  0  0  0
  -21.6631  -26.7444   22.1201 H   0  0  0  0  0  0
  -19.6910  -25.6306   21.1215 H   0  0  0  0  0  0
  -19.6687  -27.3218   20.6762 H   0  0  0  0  0  0
  -17.4192  -26.6682   21.4015 H   0  0  0  0  0  0
  -18.0315  -26.0053   22.9000 H   0  0  0  0  0  0
  -19.7931  -30.7239   24.2300 H   0  0  0  0  0  0
  -17.5016  -31.6265   24.5163 H   0  0  0  0  0  0
  -15.5347  -30.2999   23.7642 H   0  0  0  0  0  0
  -15.8656  -28.0827   22.7062 H   0  0  0  0  0  0
  -24.5918  -30.7025   25.7803 H   0  0  0  0  0  0
  -24.8929  -32.2833   26.4940 H   0  0  0  0  0  0
  -25.8101  -30.8838   27.0218 H   0  0  0  0  0  0
  -26.2842  -29.6814   24.1129 H   0  0  0  0  0  0
  -27.4140  -29.7283   25.4478 H   0  0  0  0  0  0
  -27.8643  -30.4418   23.9160 H   0  0  0  0  0  0
  -27.2684  -33.3604   26.2081 H   0  0  0  0  0  0
  -28.3844  -32.6873   25.0289 H   0  0  0  0  0  0
  -28.0739  -31.8417   26.5368 H   0  0  0  0  0  0
  -28.2606  -38.0102   24.7515 H   0  0  0  0  0  0
  -28.1069  -36.2632   24.6298 H   0  0  0  0  0  0
  -27.2297  -37.1463   25.8874 H   0  0  0  0  0  0
  -20.9282  -29.8769   21.6975 H   0  0  0  0  0  0
  -26.0192  -38.2882   24.1407 H   0  0  0  0  0  0
  -32.3687  -18.5355   21.7131 H   0  0  0  0  0  0
  -27.7117  -19.5141   23.0872 H   0  0  0  0  0  0
  -26.3964  -22.1295   20.0459 H   0  0  0  0  0  0
  -27.1134  -21.1318   21.4051 H   0  0  0  0  0  0
  -27.3282  -24.2518   19.4167 H   0  0  0  0  0  0
  -29.0604  -24.1256   19.3819 H   0  0  0  0  0  0
  -30.4632  -25.3356   21.0972 H   0  0  0  0  0  0
  -29.7026  -26.3031   22.3364 H   0  0  0  0  0  0
  -28.6968  -24.3381   23.3881 H   0  0  0  0  0  0
  -30.4233  -24.1122   23.2323 H   0  0  0  0  0  0
  -27.4585  -25.5562   21.5684 H   0  0  0  0  0  0
  -32.9506  -20.7685   21.6814 H   0  0  0  0  0  0
  -32.0732  -21.8290   22.7675 H   0  0  0  0  0  0
  -31.6910  -21.7997   21.0329 H   0  0  0  0  0  0
  -27.2214  -17.2756   23.4022 H   0  0  0  0  0  0
  -28.5487  -16.1626   23.6875 H   0  0  0  0  0  0
  -27.8439  -16.3171   22.0676 H   0  0  0  0  0  0
  -31.1849  -15.9846   23.3457 H   0  0  0  0  0  0
  -32.0943  -16.2943   21.9110 H   0  0  0  0  0  0
  -29.8195  -22.0346   23.8171 H   0  0  0  0  0  0
  -28.1711  -21.7717   23.4012 H   0  0  0  0  0  0
  -29.4572  -14.9004   22.0958 H   0  0  0  0  0  0
  -30.1016  -22.6876   21.4500 H   0  0  0  0  0  0
  1 25  1  0  0  0
  1 30  2  0  0  0
  1 87  1  0  0  0
  2  3  1  0  0  0
  2 25  1  0  0  0
  2 89  1  0  0  0
  2 90  1  0  0  0
  3  4  1  0  0  0
  3 91  1  0  0  0
  3 92  1  0  0  0
  4  5  1  0  0  0
  4 93  1  0  0  0
  4 94  1  0  0  0
  5  6  1  0  0  0
  5 26  1  0  0  0
  5 95  1  0  0  0
  6 25  1  0  0  0
  6 96  1  0  0  0
  6 97  1  0  0  0
  7  8  2  0  0  0
  7 26  1  0  0  0
  7 29  1  0  0  0
  8  9  1  0  0  0
  8 22  1  0  0  0
  9 10  1  0  0  0
  9 27  2  0  0  0
 10 11  2  0  0  0
 10 15  1  0  0  0
 11 12  1  0  0  0
 11 98  1  0  0  0
 12 13  2  0  0  0
 12 99  1  0  0  0
 13 14  1  0  0  0
 13 31  1  0  0  0
 14 15  2  0  0  0
 14100  1  0  0  0
 15101  1  0  0  0
 16 17  2  0  0  0
 16 21  1  0  0  0
 16 31  1  0  0  0
 17 18  1  0  0  0
 17102  1  0  0  0
 18 19  2  0  0  0
 18103  1  0  0  0
 19 20  1  0  0  0
 19 24  1  0  0  0
 20 21  2  0  0  0
 20104  1  0  0  0
 21 23  1  0  0  0
 22 28  1  0  0  0
 22 32  2  0  0  0
 26 27  1  0  0  0
 28105  1  0  0  0
 28106  1  0  0  0
 29107  1  0  0  0
 29108  1  0  0  0
 33 34  1  0  0  0
 33 66  1  0  0  0
 33 70  2  0  0  0
 34 36  1  0  0  0
 34 59  1  0  0  0
 34109  1  0  0  0
 35 44  2  0  0  0
 35 45  1  0  0  0
 35 68  1  0  0  0
 36 56  1  0  0  0
 36110  1  0  0  0
 37 39  1  0  0  0
 37 47  1  0  0  0
 37 66  1  0  0  0
 37111  1  0  0  0
 38 43  2  0  0  0
 38 46  1  0  0  0
 38 47  1  0  0  0
 39 64  1  0  0  0
 39 67  2  0  0  0
 40 52  1  0  0  0
 40 53  2  0  0  0
 40 58  1  0  0  0
 41112  1  0  0  0
 41113  1  0  0  0
 41114  1  0  0  0
 41 48  1  0  0  0
 42 43  1  0  0  0
 42 66  1  0  0  0
 42115  1  0  0  0
 42116  1  0  0  0
 43 44  1  0  0  0
 44117  1  0  0  0
 45 46  2  0  0  0
 45118  1  0  0  0
 46119  1  0  0  0
 47120  1  0  0  0
 47121  1  0  0  0
 48 56  1  0  0  0
 48 65  1  0  0  0
 48122  1  0  0  0
 49 50  1  0  0  0
 49 53  1  0  0  0
 49 64  1  0  0  0
 49123  1  0  0  0
 50 51  1  0  0  0
 50124  1  0  0  0
 50125  1  0  0  0
 51 52  1  0  0  0
 51126  1  0  0  0
 51127  1  0  0  0
 52128  1  0  0  0
 52129  1  0  0  0
 53 54  1  0  0  0
 54 55  2  0  0  0
 54130  1  0  0  0
 55 57  1  0  0  0
 55131  1  0  0  0
 56 69  2  0  0  0
 57 58  2  0  0  0
 57132  1  0  0  0
 58133  1  0  0  0
 59 60  1  0  0  0
 59 61  1  0  0  0
 59 62  1  0  0  0
 60134  1  0  0  0
 60135  1  0  0  0
 60136  1  0  0  0
 61137  1  0  0  0
 61138  1  0  0  0
 61139  1  0  0  0
 62140  1  0  0  0
 62141  1  0  0  0
 62142  1  0  0  0
 63 65  1  0  0  0
 63143  1  0  0  0
 63144  1  0  0  0
 63145  1  0  0  0
 64146  1  0  0  0
 65147  1  0  0  0
 68 82  1  0  0  0
 71 73  2  0  0  0
 71 75  1  0  0  0
 71148  1  0  0  0
 72 74  1  0  0  0
 72 76  2  0  0  0
 72149  1  0  0  0
 73 76  1  0  0  0
 73 83  1  0  0  0
 74 75  2  0  0  0
 74 84  1  0  0  0
 75 85  1  0  0  0
 76 86  1  0  0  0
 77 78  2  0  0  0
 77 79  1  0  0  0
 77 88  1  0  0  0
 78150  1  0  0  0
 78151  1  0  0  0
 79 82  1  0  0  0
 79152  1  0  0  0
 79153  1  0  0  0
 80 81  1  0  0  0
 80 82  1  0  0  0
 80154  1  0  0  0
 80155  1  0  0  0
 81 88  1  0  0  0
 81156  1  0  0  0
 81157  1  0  0  0
 82158  1  0  0  0
 83159  1  0  0  0
 83160  1  0  0  0
 83161  1  0  0  0
 84162  1  0  0  0
 84163  1  0  0  0
 84164  1  0  0  0
 85 87  1  0  0  0
 85165  1  0  0  0
 85166  1  0  0  0
 86167  1  0  0  0
 86168  1  0  0  0
 86 88  1  0  0  0
 87169  1  0  0  0
 88170  1  0  0  0
M  CHG  1  88   1
M  ISO  4   1 100  68 101  82 101  87 100
M  END
> <chiral flag>
0

> <version>
0

> <s_m_source_file>
/data/baiqing/PycharmProjects/Reinvent-master-3.2/result/LINK_invent/BTK/process_docking_weight1_custom_product_contain_oxygen_bond_distance_aromatic_linkinvent_7_9_3/rearranged_h_0049.sdf

> <i_m_source_file_index>
12

> <r_mmod_Potential_Energy-OPLS-2005>
-198.432601928711

> <r_mmod_Stretch_Energy-OPLS-2005>
40.7881507873535

> <r_mmod_Bend_Energy-OPLS-2005>
111.752105712891

> <r_mmod_Torsional_Energy-OPLS-2005>
233.309158325195

> <r_mmod_Improper_Torsional_Energy-OPLS-2005>
3.68488669395447

> <r_mmod_Van_der_Waal_Energy-OPLS-2005>
159.079956054688

> <r_mmod_Electrostatic_Energy-OPLS-2005>
-325.599945068359

> <r_mmod_Solvation_Energy-OPLS-2005>
-429.526611328125

> <b_mmod_Minimization_Converged-OPLS-2005>
0

> <r_mmod_RMS_Derivative-OPLS-2005>
0.88753080368042

$$$$
12
                    3D
 Structure written by MMmdl.
173182  0  0  1  0            999 V2000
  -30.6433  -14.6243   20.5716 C   0  0  0  0  0  0
  -30.4431  -12.4073   19.4464 C   0  0  0  0  0  0
  -29.5137  -12.5411   18.2214 C   0  0  0  0  0  0
  -28.0329  -12.3893   18.6250 C   0  0  0  0  0  0
  -27.6575  -13.2267   19.8777 C   0  0  2  0  0  0
  -28.7006  -13.0593   21.0045 C   0  0  0  0  0  0
  -25.2548  -13.8194   20.5698 C   0  0  0  0  0  0
  -24.1809  -13.0407   20.9180 C   0  0  0  0  0  0
  -24.6409  -11.6903   20.8705 C   0  0  0  0  0  0
  -23.9062  -10.4274   21.0384 C   0  0  0  0  0  0
  -24.3595   -9.4218   21.9185 C   0  0  0  0  0  0
  -23.6272   -8.2253   22.0774 C   0  0  0  0  0  0
  -22.4266   -8.0276   21.3539 C   0  0  0  0  0  0
  -21.9899   -9.0252   20.4653 C   0  0  0  0  0  0
  -22.7226  -10.2131   20.3058 C   0  0  0  0  0  0
  -21.6864   -6.0723   22.5272 C   0  0  0  0  0  0
  -21.4024   -6.5628   23.8209 C   0  0  0  0  0  0
  -21.3662   -5.6783   24.9175 C   0  0  0  0  0  0
  -21.6031   -4.3042   24.7231 C   0  0  0  0  0  0
  -21.8814   -3.8133   23.4354 C   0  0  0  0  0  0
  -21.9197   -4.6943   22.3413 C   0  0  0  0  0  0
  -22.7833  -13.5232   21.1782 C   0  0  0  0  0  0
  -22.1659   -4.2117   21.0992 F   0  0  0  0  0  0
  -21.5629   -3.4551   25.7754 F   0  0  0  0  0  0
  -30.0171  -13.4108   20.4452 N   0  0  0  0  0  0
  -26.2985  -12.9367   20.3351 N   0  0  0  0  0  0
  -25.9343  -11.6495   20.5724 N   0  0  0  0  0  0
  -22.0453  -12.8258   22.0365 N   0  0  0  0  0  0
  -25.4155  -15.1932   20.4153 N   0  0  0  0  0  0
  -31.7850  -14.8068   20.1397 O   0  0  0  0  0  0
  -21.6638   -6.8863   21.4229 O   0  0  0  0  0  0
  -22.3501  -14.5510   20.6627 O   0  0  0  0  0  0
  -24.6312  -31.8633   23.2030 C   0  0  0  0  0  0
  -25.9184  -32.4791   23.8364 C   0  0  1  0  0  0
  -27.2140  -27.3184   20.0931 C   0  0  0  0  0  0
  -25.5999  -33.8591   24.2312 N   0  0  0  0  0  0
  -23.4213  -30.4989   21.5458 C   0  0  2  0  0  0
  -24.8630  -28.9543   20.1243 C   0  0  0  0  0  0
  -22.7403  -29.4750   22.4907 C   0  0  0  0  0  0
  -18.0242  -28.1408   22.8390 C   0  0  0  0  0  0
  -24.1510  -36.7286   23.2646 C   0  0  0  0  0  0
  -25.9710  -30.7951   21.3759 C   0  0  0  0  0  0
  -26.0449  -29.4295   20.7042 C   0  0  0  0  0  0
  -27.2336  -28.6358   20.6552 C   0  0  0  0  0  0
  -25.9826  -26.8864   19.5492 C   0  0  0  0  0  0
  -24.8334  -27.6868   19.5400 C   0  0  0  0  0  0
  -23.6329  -29.8352   20.1655 C   0  0  0  0  0  0
  -25.4135  -36.3102   24.0333 C   0  0  1  0  0  0
  -20.5873  -28.3731   23.1215 C   0  0  2  0  0  0
  -20.6793  -26.9428   22.5356 C   0  0  0  0  0  0
  -19.5767  -26.6449   21.5124 C   0  0  0  0  0  0
  -18.1895  -26.7995   22.1422 C   0  0  0  0  0  0
  -19.1494  -28.8868   23.2833 C   0  0  0  0  0  0
  -18.9418  -30.1421   23.8956 C   0  0  0  0  0  0
  -17.6434  -30.6559   24.0662 C   0  0  0  0  0  0
  -25.9069  -34.9469   23.5121 C   0  0  0  0  0  0
  -16.5350  -29.9104   23.6292 C   0  0  0  0  0  0
  -16.7245  -28.6581   23.0211 C   0  0  0  0  0  0
  -26.4536  -31.6604   25.0745 C   0  0  0  0  0  0
  -25.3699  -31.3757   26.1406 C   0  0  0  0  0  0
  -27.0393  -30.3019   24.6233 C   0  0  0  0  0  0
  -27.6063  -32.4303   25.7575 C   0  0  0  0  0  0
  -27.5599  -37.1787   24.8478 C   0  0  0  0  0  0
  -21.4118  -29.3106   22.3565 N   0  0  0  0  0  0
  -26.4311  -37.3779   23.9409 N   0  0  0  0  0  0
  -24.6952  -31.0639   22.0984 N   0  0  0  0  0  0
  -23.4095  -28.8247   23.3021 O   0  0  0  0  0  0
  -28.3337  -26.4654   20.0706 O   0  0  0  0  0  0
  -26.5594  -34.8902   22.4679 O   0  0  0  0  0  0
  -23.5456  -32.1430   23.7318 O   0  0  0  0  0  0
  -29.2063  -19.5386   20.8433 C   0  0  0  0  0  0
  -29.2198  -17.8449   19.1012 C   0  0  0  0  0  0
  -28.5815  -20.5366   19.9923 C   0  0  0  0  0  0
  -29.5269  -18.1932   20.4174 C   0  0  0  0  0  0
  -28.3654  -20.1103   18.6277 C   0  0  0  0  0  0
  -28.6615  -18.7775   18.2237 C   0  0  0  0  0  0
  -28.8535  -22.8749   21.5644 C   0  0  0  0  0  0
  -28.8550  -22.7461   22.9228 C   0  0  0  0  0  0
  -29.3444  -24.2063   20.9081 C   0  0  0  0  0  0
  -27.6451  -24.0494   19.2279 C   0  0  0  0  0  0
  -28.0258  -21.9203   20.6228 C   0  0  1  0  0  0
  -28.1246  -25.0191   20.3478 C   0  0  2  0  0  0
  -27.8077  -20.9856   17.5102 C   0  0  0  0  0  0
  -29.5012  -23.7327   23.8952 C   0  0  0  0  0  0
  -28.1027  -21.6556   23.6751 C   0  0  0  0  0  0
  -25.7820  -22.3104   19.3757 C   0  0  0  0  0  0
  -30.2499  -17.1063   21.2804 C   0  0  0  0  0  0
  -29.8937  -15.6578   21.0568 N   0  0  0  0  0  0
  -27.0730  -22.8287   19.8889 N   0  3  2  0  0  0
  -28.3478  -18.2175   16.6133 Cl  0  0  0  0  0  0
  -31.4838  -12.5448   19.1444 H   0  0  0  0  0  0
  -30.3845  -11.4055   19.8698 H   0  0  0  0  0  0
  -29.7747  -11.8012   17.4639 H   0  0  0  0  0  0
  -29.6697  -13.5140   17.7538 H   0  0  0  0  0  0
  -27.8475  -11.3322   18.8112 H   0  0  0  0  0  0
  -27.3943  -12.6631   17.7853 H   0  0  0  0  0  0
  -27.6805  -14.2706   19.5672 H   0  0  0  0  0  0
  -28.7074  -12.0309   21.3690 H   0  0  0  0  0  0
  -28.4421  -13.6771   21.8642 H   0  0  0  0  0  0
  -25.2737   -9.5708   22.4758 H   0  0  0  0  0  0
  -23.9965   -7.4666   22.7540 H   0  0  0  0  0  0
  -21.0818   -8.8768   19.8992 H   0  0  0  0  0  0
  -22.3662  -10.9653   19.6173 H   0  0  0  0  0  0
  -21.2016   -7.6134   23.9693 H   0  0  0  0  0  0
  -21.1488   -6.0526   25.9063 H   0  0  0  0  0  0
  -22.0589   -2.7593   23.2880 H   0  0  0  0  0  0
  -22.4016  -11.9953   22.4819 H   0  0  0  0  0  0
  -21.1060  -13.1316   22.2481 H   0  0  0  0  0  0
  -24.6330  -15.8297   20.5232 H   0  0  0  0  0  0
  -26.2554  -15.6554   20.0913 H   0  0  0  0  0  0
  -26.7269  -32.5423   23.1113 H   0  0  0  0  0  0
  -25.0147  -33.9750   25.0455 H   0  0  0  0  0  0
  -22.7308  -31.3335   21.3997 H   0  0  0  0  0  0
  -23.3765  -35.9635   23.3315 H   0  0  0  0  0  0
  -24.3604  -36.8863   22.2064 H   0  0  0  0  0  0
  -23.7246  -37.6482   23.6638 H   0  0  0  0  0  0
  -26.1109  -31.5650   20.6129 H   0  0  0  0  0  0
  -26.8507  -30.8275   22.0080 H   0  0  0  0  0  0
  -28.1558  -29.0154   21.0770 H   0  0  0  0  0  0
  -25.8143  -25.9112   19.1474 H   0  0  0  0  0  0
  -23.9176  -27.2926   19.1207 H   0  0  0  0  0  0
  -23.7545  -30.6033   19.4004 H   0  0  0  0  0  0
  -22.7514  -29.2645   19.8699 H   0  0  0  0  0  0
  -25.1312  -36.1958   25.0808 H   0  0  0  0  0  0
  -20.9947  -28.3381   24.1336 H   0  0  0  0  0  0
  -21.6671  -26.7488   22.1137 H   0  0  0  0  0  0
  -20.5732  -26.2279   23.3562 H   0  0  0  0  0  0
  -19.6900  -25.6390   21.1093 H   0  0  0  0  0  0
  -19.6759  -27.3294   20.6707 H   0  0  0  0  0  0
  -17.4275  -26.6896   21.3717 H   0  0  0  0  0  0
  -18.0056  -26.0010   22.8597 H   0  0  0  0  0  0
  -19.7909  -30.7156   24.2397 H   0  0  0  0  0  0
  -17.4965  -31.6167   24.5436 H   0  0  0  0  0  0
  -15.5345  -30.3030   23.7593 H   0  0  0  0  0  0
  -15.8697  -28.1026   22.6649 H   0  0  0  0  0  0
  -24.5867  -30.7167   25.7670 H   0  0  0  0  0  0
  -24.8912  -32.2933   26.4811 H   0  0  0  0  0  0
  -25.7902  -30.8882   27.0209 H   0  0  0  0  0  0
  -26.3023  -29.6740   24.1199 H   0  0  0  0  0  0
  -27.4037  -29.7293   25.4781 H   0  0  0  0  0  0
  -27.8919  -30.4325   23.9560 H   0  0  0  0  0  0
  -27.2701  -33.3591   26.2211 H   0  0  0  0  0  0
  -28.3907  -32.6843   25.0438 H   0  0  0  0  0  0
  -28.0731  -31.8366   26.5443 H   0  0  0  0  0  0
  -28.2606  -38.0092   24.7521 H   0  0  0  0  0  0
  -28.1089  -36.2593   24.6321 H   0  0  0  0  0  0
  -27.2310  -37.1494   25.8881 H   0  0  0  0  0  0
  -20.9287  -29.8811   21.6763 H   0  0  0  0  0  0
  -26.0191  -38.2856   24.1344 H   0  0  0  0  0  0
  -29.4519  -19.7931   21.8635 H   0  0  0  0  0  0
  -29.4397  -16.8507   18.7420 H   0  0  0  0  0  0
  -30.0425  -23.9521   20.1124 H   0  0  0  0  0  0
  -29.9433  -24.8299   21.5529 H   0  0  0  0  0  0
  -28.4873  -23.7890   18.5895 H   0  0  0  0  0  0
  -26.9373  -24.4587   18.5243 H   0  0  0  0  0  0
  -27.3049  -21.4825   21.3048 H   0  0  0  0  0  0
  -27.3648  -25.0305   21.1320 H   0  0  0  0  0  0
  -26.7528  -20.7700   17.3353 H   0  0  0  0  0  0
  -28.3131  -20.7855   16.5688 H   0  0  0  0  0  0
  -27.9443  -22.0437   17.6419 H   0  0  0  0  0  0
  -29.6235  -24.7462   23.5355 H   0  0  0  0  0  0
  -30.4817  -23.3589   24.1925 H   0  0  0  0  0  0
  -28.9067  -23.8385   24.8021 H   0  0  0  0  0  0
  -28.1631  -20.6785   23.2092 H   0  0  0  0  0  0
  -27.0478  -21.9341   23.7632 H   0  0  0  0  0  0
  -28.4836  -21.5437   24.6916 H   0  0  0  0  0  0
  -24.9718  -22.8344   19.8825 H   0  0  0  0  0  0
  -25.6558  -21.2475   19.5772 H   0  0  0  0  0  0
  -25.6454  -22.5027   18.3103 H   0  0  0  0  0  0
  -31.3188  -17.2302   21.1035 H   0  0  0  0  0  0
  -30.1047  -17.3346   22.3366 H   0  0  0  0  0  0
  -28.9688  -15.3981   21.3603 H   0  0  0  0  0  0
  -26.6855  -23.2680   20.7147 H   0  0  0  0  0  0
  1 25  1  0  0  0
  1 30  2  0  0  0
  1 88  1  0  0  0
  2  3  1  0  0  0
  2 25  1  0  0  0
  2 91  1  0  0  0
  2 92  1  0  0  0
  3  4  1  0  0  0
  3 93  1  0  0  0
  3 94  1  0  0  0
  4  5  1  0  0  0
  4 95  1  0  0  0
  4 96  1  0  0  0
  5  6  1  0  0  0
  5 26  1  0  0  0
  5 97  1  0  0  0
  6 25  1  0  0  0
  6 98  1  0  0  0
  6 99  1  0  0  0
  7  8  2  0  0  0
  7 26  1  0  0  0
  7 29  1  0  0  0
  8  9  1  0  0  0
  8 22  1  0  0  0
  9 10  1  0  0  0
  9 27  2  0  0  0
 10 11  2  0  0  0
 10 15  1  0  0  0
 11 12  1  0  0  0
 11100  1  0  0  0
 12 13  2  0  0  0
 12101  1  0  0  0
 13 14  1  0  0  0
 13 31  1  0  0  0
 14 15  2  0  0  0
 14102  1  0  0  0
 15103  1  0  0  0
 16 17  2  0  0  0
 16 21  1  0  0  0
 16 31  1  0  0  0
 17 18  1  0  0  0
 17104  1  0  0  0
 18 19  2  0  0  0
 18105  1  0  0  0
 19 20  1  0  0  0
 19 24  1  0  0  0
 20 21  2  0  0  0
 20106  1  0  0  0
 21 23  1  0  0  0
 22 28  1  0  0  0
 22 32  2  0  0  0
 26 27  1  0  0  0
 28107  1  0  0  0
 28108  1  0  0  0
 29109  1  0  0  0
 29110  1  0  0  0
 33 34  1  0  0  0
 33 66  1  0  0  0
 33 70  2  0  0  0
 34 36  1  0  0  0
 34 59  1  0  0  0
 34111  1  0  0  0
 35 44  2  0  0  0
 35 45  1  0  0  0
 35 68  1  0  0  0
 36 56  1  0  0  0
 36112  1  0  0  0
 37 39  1  0  0  0
 37 47  1  0  0  0
 37 66  1  0  0  0
 37113  1  0  0  0
 38 43  2  0  0  0
 38 46  1  0  0  0
 38 47  1  0  0  0
 39 64  1  0  0  0
 39 67  2  0  0  0
 40 52  1  0  0  0
 40 53  2  0  0  0
 40 58  1  0  0  0
 41114  1  0  0  0
 41115  1  0  0  0
 41116  1  0  0  0
 41 48  1  0  0  0
 42 43  1  0  0  0
 42 66  1  0  0  0
 42117  1  0  0  0
 42118  1  0  0  0
 43 44  1  0  0  0
 44119  1  0  0  0
 45 46  2  0  0  0
 45120  1  0  0  0
 46121  1  0  0  0
 47122  1  0  0  0
 47123  1  0  0  0
 48 56  1  0  0  0
 48 65  1  0  0  0
 48124  1  0  0  0
 49 50  1  0  0  0
 49 53  1  0  0  0
 49 64  1  0  0  0
 49125  1  0  0  0
 50 51  1  0  0  0
 50126  1  0  0  0
 50127  1  0  0  0
 51 52  1  0  0  0
 51128  1  0  0  0
 51129  1  0  0  0
 52130  1  0  0  0
 52131  1  0  0  0
 53 54  1  0  0  0
 54 55  2  0  0  0
 54132  1  0  0  0
 55 57  1  0  0  0
 55133  1  0  0  0
 56 69  2  0  0  0
 57 58  2  0  0  0
 57134  1  0  0  0
 58135  1  0  0  0
 59 60  1  0  0  0
 59 61  1  0  0  0
 59 62  1  0  0  0
 60136  1  0  0  0
 60137  1  0  0  0
 60138  1  0  0  0
 61139  1  0  0  0
 61140  1  0  0  0
 61141  1  0  0  0
 62142  1  0  0  0
 62143  1  0  0  0
 62144  1  0  0  0
 63 65  1  0  0  0
 63145  1  0  0  0
 63146  1  0  0  0
 63147  1  0  0  0
 64148  1  0  0  0
 65149  1  0  0  0
 68 82  1  0  0  0
 71 73  2  0  0  0
 71 74  1  0  0  0
 71150  1  0  0  0
 72 74  2  0  0  0
 72 76  1  0  0  0
 72151  1  0  0  0
 73 75  1  0  0  0
 73 81  1  0  0  0
 74 87  1  0  0  0
 75 76  2  0  0  0
 75 83  1  0  0  0
 76 90  1  0  0  0
 77 78  2  0  0  0
 77 79  1  0  0  0
 77 81  1  0  0  0
 78 84  1  0  0  0
 78 85  1  0  0  0
 79 82  1  0  0  0
 79152  1  0  0  0
 79153  1  0  0  0
 80 82  1  0  0  0
 80 89  1  0  0  0
 80154  1  0  0  0
 80155  1  0  0  0
 81 89  1  0  0  0
 81156  1  0  0  0
 82157  1  0  0  0
 83158  1  0  0  0
 83159  1  0  0  0
 83160  1  0  0  0
 84161  1  0  0  0
 84162  1  0  0  0
 84163  1  0  0  0
 85164  1  0  0  0
 85165  1  0  0  0
 85166  1  0  0  0
 86167  1  0  0  0
 86168  1  0  0  0
 86169  1  0  0  0
 86 89  1  0  0  0
 87 88  1  0  0  0
 87170  1  0  0  0
 87171  1  0  0  0
 88172  1  0  0  0
 89173  1  0  0  0
M  CHG  1  89   1
M  ISO  4   1 100  68 101  82 101  88 100
M  END
> <chiral flag>
0

> <version>
0

> <s_m_source_file>
/data/baiqing/PycharmProjects/Reinvent-master-3.2/result/LINK_invent/BTK/process_docking_weight1_custom_product_contain_oxygen_bond_distance_aromatic_linkinvent_7_9_3/rearranged_h_0049.sdf

> <i_m_source_file_index>
13

> <r_mmod_Potential_Energy-OPLS-2005>
121.910491943359

> <r_mmod_Stretch_Energy-OPLS-2005>
109.124351501465

> <r_mmod_Bend_Energy-OPLS-2005>
242.280120849609

> <r_mmod_Torsional_Energy-OPLS-2005>
258.508941650391

> <r_mmod_Improper_Torsional_Energy-OPLS-2005>
4.96995735168457

> <r_mmod_Van_der_Waal_Energy-OPLS-2005>
183.329315185547

> <r_mmod_Electrostatic_Energy-OPLS-2005>
-293.245483398438

> <r_mmod_Solvation_Energy-OPLS-2005>
-428.809875488281

> <b_mmod_Minimization_Converged-OPLS-2005>
0

> <r_mmod_RMS_Derivative-OPLS-2005>
7.76445198059082

$$$$
13
                    3D
 Structure written by MMmdl.
154162  0  0  1  0            999 V2000
  -30.6757  -14.5080   20.4956 C   0  0  0  0  0  0
  -30.4152  -12.2979   19.4537 C   0  0  0  0  0  0
  -29.5055  -12.4799   18.2200 C   0  0  0  0  0  0
  -28.0181  -12.3750   18.6125 C   0  0  0  0  0  0
  -27.6534  -13.2202   19.8644 C   0  0  2  0  0  0
  -28.6919  -13.0343   20.9944 C   0  0  0  0  0  0
  -25.2516  -13.8187   20.5707 C   0  0  0  0  0  0
  -24.1785  -13.0440   20.9200 C   0  0  0  0  0  0
  -24.6373  -11.6917   20.8745 C   0  0  0  0  0  0
  -23.9049  -10.4281   21.0395 C   0  0  0  0  0  0
  -24.3614   -9.4187   21.9159 C   0  0  0  0  0  0
  -23.6282   -8.2224   22.0733 C   0  0  0  0  0  0
  -22.4251   -8.0271   21.3536 C   0  0  0  0  0  0
  -21.9887   -9.0238   20.4645 C   0  0  0  0  0  0
  -22.7227  -10.2109   20.3040 C   0  0  0  0  0  0
  -21.6835   -6.0727   22.5271 C   0  0  0  0  0  0
  -21.4025   -6.5625   23.8212 C   0  0  0  0  0  0
  -21.3676   -5.6780   24.9178 C   0  0  0  0  0  0
  -21.6035   -4.3043   24.7225 C   0  0  0  0  0  0
  -21.8811   -3.8136   23.4351 C   0  0  0  0  0  0
  -21.9176   -4.6956   22.3404 C   0  0  0  0  0  0
  -22.7809  -13.5225   21.1855 C   0  0  0  0  0  0
  -22.1642   -4.2142   21.0982 F   0  0  0  0  0  0
  -21.5627   -3.4527   25.7740 F   0  0  0  0  0  0
  -30.0224  -13.3157   20.4399 N   0  0  0  0  0  0
  -26.2963  -12.9396   20.3310 N   0  0  0  0  0  0
  -25.9295  -11.6538   20.5730 N   0  0  0  0  0  0
  -22.0445  -12.8246   22.0444 N   0  0  0  0  0  0
  -25.4206  -15.1924   20.4148 N   0  0  0  0  0  0
  -31.8518  -14.6309   20.1443 O   0  0  0  0  0  0
  -21.6616   -6.8865   21.4233 O   0  0  0  0  0  0
  -22.3495  -14.5523   20.6705 O   0  0  0  0  0  0
  -24.6175  -31.8671   23.2102 C   0  0  0  0  0  0
  -25.9044  -32.4820   23.8408 C   0  0  1  0  0  0
  -27.2379  -27.4040   20.0878 C   0  0  0  0  0  0
  -25.5875  -33.8622   24.2315 N   0  0  0  0  0  0
  -23.4056  -30.4908   21.5540 C   0  0  2  0  0  0
  -24.8511  -28.9568   20.1180 C   0  0  0  0  0  0
  -22.7425  -29.4646   22.5009 C   0  0  0  0  0  0
  -18.0265  -28.1349   22.8521 C   0  0  0  0  0  0
  -24.1477  -36.7306   23.2640 C   0  0  0  0  0  0
  -25.9432  -30.8192   21.3745 C   0  0  0  0  0  0
  -26.0145  -29.4548   20.7140 C   0  0  0  0  0  0
  -27.2060  -28.6880   20.6924 C   0  0  0  0  0  0
  -26.0430  -26.9314   19.4912 C   0  0  0  0  0  0
  -24.8628  -27.6947   19.5062 C   0  0  0  0  0  0
  -23.6150  -29.8266   20.1680 C   0  0  0  0  0  0
  -25.4100  -36.3115   24.0340 C   0  0  1  0  0  0
  -20.5875  -28.3628   23.1330 C   0  0  2  0  0  0
  -20.6760  -26.9359   22.5424 C   0  0  0  0  0  0
  -19.5733  -26.6358   21.5225 C   0  0  0  0  0  0
  -18.1912  -26.7893   22.1638 C   0  0  0  0  0  0
  -19.1522  -28.8807   23.2923 C   0  0  0  0  0  0
  -18.9446  -30.1421   23.8923 C   0  0  0  0  0  0
  -17.6446  -30.6563   24.0555 C   0  0  0  0  0  0
  -25.9026  -34.9477   23.5128 C   0  0  0  0  0  0
  -16.5340  -29.9061   23.6326 C   0  0  0  0  0  0
  -16.7263  -28.6474   23.0377 C   0  0  0  0  0  0
  -26.4458  -31.6628   25.0749 C   0  0  0  0  0  0
  -25.3725  -31.3770   26.1497 C   0  0  0  0  0  0
  -27.0294  -30.3057   24.6183 C   0  0  0  0  0  0
  -27.6000  -32.4394   25.7505 C   0  0  0  0  0  0
  -27.5589  -37.1799   24.8459 C   0  0  0  0  0  0
  -21.4156  -29.2986   22.3728 N   0  0  0  0  0  0
  -26.4290  -37.3802   23.9421 N   0  0  0  0  0  0
  -24.6735  -31.0743   22.1026 N   0  0  0  0  0  0
  -23.4181  -28.8161   23.3041 O   0  0  0  0  0  0
  -28.4334  -26.6935   20.1084 O   0  0  0  0  0  0
  -26.5608  -34.8939   22.4697 O   0  0  0  0  0  0
  -23.5353  -32.1414   23.7481 O   0  0  0  0  0  0
  -29.3312  -17.9958   20.9338 C   0  0  0  0  0  0
  -30.3044  -19.6411   19.4166 C   0  0  0  0  0  0
  -30.9071  -17.2820   19.2286 C   0  0  0  0  0  0
  -29.4520  -19.3451   20.5000 C   0  0  0  0  0  0
  -30.0688  -16.9451   20.3221 C   0  0  0  0  0  0
  -31.0243  -18.6130   18.7807 C   0  0  0  0  0  0
  -28.4021  -22.9197   20.6940 C   0  0  0  0  0  0
  -28.6503  -20.4589   21.1932 C   0  0  0  0  0  0
  -29.0611  -24.3244   20.7114 C   0  0  0  0  0  0
  -28.5310  -25.3247   19.6374 C   0  0  0  0  0  0
  -29.9043  -15.5878   20.7839 N   0  0  0  0  0  0
  -29.1493  -21.8377   20.9988 N   0  0  0  0  0  0
  -27.2000  -22.8159   20.4402 O   0  0  0  0  0  0
  -32.0538  -18.9840   17.4443 Cl  0  0  0  0  0  0
  -31.4671  -12.3714   19.1706 H   0  0  0  0  0  0
  -30.2918  -11.3006   19.8786 H   0  0  0  0  0  0
  -29.7458  -11.7318   17.4650 H   0  0  0  0  0  0
  -29.7001  -13.4514   17.7624 H   0  0  0  0  0  0
  -27.8013  -11.3248   18.8031 H   0  0  0  0  0  0
  -27.3899  -12.6678   17.7711 H   0  0  0  0  0  0
  -27.6879  -14.2645   19.5515 H   0  0  0  0  0  0
  -28.6560  -12.0151   21.3819 H   0  0  0  0  0  0
  -28.4615  -13.6771   21.8457 H   0  0  0  0  0  0
  -25.2761   -9.5666   22.4733 H   0  0  0  0  0  0
  -23.9991   -7.4613   22.7450 H   0  0  0  0  0  0
  -21.0803   -8.8773   19.8960 H   0  0  0  0  0  0
  -22.3687  -10.9648   19.6154 H   0  0  0  0  0  0
  -21.2033   -7.6127   23.9734 H   0  0  0  0  0  0
  -21.1514   -6.0499   25.9082 H   0  0  0  0  0  0
  -22.0580   -2.7600   23.2843 H   0  0  0  0  0  0
  -22.4059  -11.9951   22.4919 H   0  0  0  0  0  0
  -21.1060  -13.1272   22.2595 H   0  0  0  0  0  0
  -24.6574  -15.8468   20.5414 H   0  0  0  0  0  0
  -26.2673  -15.6330   20.0818 H   0  0  0  0  0  0
  -26.7107  -32.5511   23.1157 H   0  0  0  0  0  0
  -25.0039  -33.9784   25.0468 H   0  0  0  0  0  0
  -22.6948  -31.3085   21.4159 H   0  0  0  0  0  0
  -23.3761  -35.9620   23.3296 H   0  0  0  0  0  0
  -24.3573  -36.8920   22.2055 H   0  0  0  0  0  0
  -23.7194  -37.6490   23.6662 H   0  0  0  0  0  0
  -26.0803  -31.5914   20.6148 H   0  0  0  0  0  0
  -26.8209  -30.8568   22.0095 H   0  0  0  0  0  0
  -28.1055  -29.0784   21.1460 H   0  0  0  0  0  0
  -25.9670  -25.9801   18.9928 H   0  0  0  0  0  0
  -23.9675  -27.3030   19.0426 H   0  0  0  0  0  0
  -23.7273  -30.6026   19.4095 H   0  0  0  0  0  0
  -22.7386  -29.2475   19.8709 H   0  0  0  0  0  0
  -25.1275  -36.1985   25.0839 H   0  0  0  0  0  0
  -20.9991  -28.3183   24.1441 H   0  0  0  0  0  0
  -20.5675  -26.2222   23.3601 H   0  0  0  0  0  0
  -21.6627  -26.7396   22.1203 H   0  0  0  0  0  0
  -19.6879  -25.6275   21.1236 H   0  0  0  0  0  0
  -19.6669  -27.3190   20.6778 H   0  0  0  0  0  0
  -17.4180  -26.6682   21.4032 H   0  0  0  0  0  0
  -18.0285  -26.0015   22.9016 H   0  0  0  0  0  0
  -19.7922  -30.7235   24.2309 H   0  0  0  0  0  0
  -17.4993  -31.6253   24.5130 H   0  0  0  0  0  0
  -15.5340  -30.2964   23.7621 H   0  0  0  0  0  0
  -15.8669  -28.0777   22.7107 H   0  0  0  0  0  0
  -24.5825  -30.7204   25.7830 H   0  0  0  0  0  0
  -24.9015  -32.2962   26.4998 H   0  0  0  0  0  0
  -25.8052  -30.8868   27.0221 H   0  0  0  0  0  0
  -26.2863  -29.6823   24.1193 H   0  0  0  0  0  0
  -27.3975  -29.7289   25.4672 H   0  0  0  0  0  0
  -27.8747  -30.4335   23.9414 H   0  0  0  0  0  0
  -27.2557  -33.3669   26.2107 H   0  0  0  0  0  0
  -28.3781  -32.7023   25.0321 H   0  0  0  0  0  0
  -28.0719  -31.8539   26.5401 H   0  0  0  0  0  0
  -28.2589  -38.0117   24.7544 H   0  0  0  0  0  0
  -28.1105  -36.2642   24.6241 H   0  0  0  0  0  0
  -27.2320  -37.1398   25.8868 H   0  0  0  0  0  0
  -20.9301  -29.8701   21.6953 H   0  0  0  0  0  0
  -26.0181  -38.2888   24.1431 H   0  0  0  0  0  0
  -28.6643  -17.7719   21.7542 H   0  0  0  0  0  0
  -30.4117  -20.6526   19.0482 H   0  0  0  0  0  0
  -31.4699  -16.5327   18.6932 H   0  0  0  0  0  0
  -28.6469  -20.2584   22.2674 H   0  0  0  0  0  0
  -27.6106  -20.3738   20.8730 H   0  0  0  0  0  0
  -30.1423  -24.2254   20.6047 H   0  0  0  0  0  0
  -28.8924  -24.7466   21.7024 H   0  0  0  0  0  0
  -27.6355  -24.9336   19.1741 H   0  0  0  0  0  0
  -29.2490  -25.3363   18.8177 H   0  0  0  0  0  0
  -29.0221  -15.3743   21.2228 H   0  0  0  0  0  0
  -30.1230  -21.9890   21.2245 H   0  0  0  0  0  0
  1 25  1  0  0  0
  1 30  2  0  0  0
  1 81  1  0  0  0
  2  3  1  0  0  0
  2 25  1  0  0  0
  2 85  1  0  0  0
  2 86  1  0  0  0
  3  4  1  0  0  0
  3 87  1  0  0  0
  3 88  1  0  0  0
  4  5  1  0  0  0
  4 89  1  0  0  0
  4 90  1  0  0  0
  5  6  1  0  0  0
  5 26  1  0  0  0
  5 91  1  0  0  0
  6 25  1  0  0  0
  6 92  1  0  0  0
  6 93  1  0  0  0
  7  8  2  0  0  0
  7 26  1  0  0  0
  7 29  1  0  0  0
  8  9  1  0  0  0
  8 22  1  0  0  0
  9 10  1  0  0  0
  9 27  2  0  0  0
 10 11  2  0  0  0
 10 15  1  0  0  0
 11 12  1  0  0  0
 11 94  1  0  0  0
 12 13  2  0  0  0
 12 95  1  0  0  0
 13 14  1  0  0  0
 13 31  1  0  0  0
 14 15  2  0  0  0
 14 96  1  0  0  0
 15 97  1  0  0  0
 16 17  2  0  0  0
 16 21  1  0  0  0
 16 31  1  0  0  0
 17 18  1  0  0  0
 17 98  1  0  0  0
 18 19  2  0  0  0
 18 99  1  0  0  0
 19 20  1  0  0  0
 19 24  1  0  0  0
 20 21  2  0  0  0
 20100  1  0  0  0
 21 23  1  0  0  0
 22 28  1  0  0  0
 22 32  2  0  0  0
 26 27  1  0  0  0
 28101  1  0  0  0
 28102  1  0  0  0
 29103  1  0  0  0
 29104  1  0  0  0
 33 34  1  0  0  0
 33 66  1  0  0  0
 33 70  2  0  0  0
 34 36  1  0  0  0
 34 59  1  0  0  0
 34105  1  0  0  0
 35 44  2  0  0  0
 35 45  1  0  0  0
 35 68  1  0  0  0
 36 56  1  0  0  0
 36106  1  0  0  0
 37 39  1  0  0  0
 37 47  1  0  0  0
 37 66  1  0  0  0
 37107  1  0  0  0
 38 43  2  0  0  0
 38 46  1  0  0  0
 38 47  1  0  0  0
 39 64  1  0  0  0
 39 67  2  0  0  0
 40 52  1  0  0  0
 40 53  2  0  0  0
 40 58  1  0  0  0
 41108  1  0  0  0
 41109  1  0  0  0
 41110  1  0  0  0
 41 48  1  0  0  0
 42 43  1  0  0  0
 42 66  1  0  0  0
 42111  1  0  0  0
 42112  1  0  0  0
 43 44  1  0  0  0
 44113  1  0  0  0
 45 46  2  0  0  0
 45114  1  0  0  0
 46115  1  0  0  0
 47116  1  0  0  0
 47117  1  0  0  0
 48 56  1  0  0  0
 48 65  1  0  0  0
 48118  1  0  0  0
 49 50  1  0  0  0
 49 53  1  0  0  0
 49 64  1  0  0  0
 49119  1  0  0  0
 50 51  1  0  0  0
 50120  1  0  0  0
 50121  1  0  0  0
 51 52  1  0  0  0
 51122  1  0  0  0
 51123  1  0  0  0
 52124  1  0  0  0
 52125  1  0  0  0
 53 54  1  0  0  0
 54 55  2  0  0  0
 54126  1  0  0  0
 55 57  1  0  0  0
 55127  1  0  0  0
 56 69  2  0  0  0
 57 58  2  0  0  0
 57128  1  0  0  0
 58129  1  0  0  0
 59 60  1  0  0  0
 59 61  1  0  0  0
 59 62  1  0  0  0
 60130  1  0  0  0
 60131  1  0  0  0
 60132  1  0  0  0
 61133  1  0  0  0
 61134  1  0  0  0
 61135  1  0  0  0
 62136  1  0  0  0
 62137  1  0  0  0
 62138  1  0  0  0
 63 65  1  0  0  0
 63139  1  0  0  0
 63140  1  0  0  0
 63141  1  0  0  0
 64142  1  0  0  0
 65143  1  0  0  0
 68 80  1  0  0  0
 71 74  2  0  0  0
 71 75  1  0  0  0
 71144  1  0  0  0
 72 74  1  0  0  0
 72 76  2  0  0  0
 72145  1  0  0  0
 73 75  2  0  0  0
 73 76  1  0  0  0
 73146  1  0  0  0
 74 78  1  0  0  0
 75 81  1  0  0  0
 76 84  1  0  0  0
 77 79  1  0  0  0
 77 82  1  0  0  0
 77 83  2  0  0  0
 78 82  1  0  0  0
 78147  1  0  0  0
 78148  1  0  0  0
 79 80  1  0  0  0
 79149  1  0  0  0
 79150  1  0  0  0
 80151  1  0  0  0
 80152  1  0  0  0
 81153  1  0  0  0
 82154  1  0  0  0
M  ISO  4   1 100  68 101  80 101  81 100
M  END
> <chiral flag>
0

> <version>
0

> <s_m_source_file>
/data/baiqing/PycharmProjects/Reinvent-master-3.2/result/LINK_invent/BTK/process_docking_weight1_custom_product_contain_oxygen_bond_distance_aromatic_linkinvent_7_9_3/rearranged_h_0049.sdf

> <i_m_source_file_index>
14

> <r_mmod_Potential_Energy-OPLS-2005>
-114.050033569336

> <r_mmod_Stretch_Energy-OPLS-2005>
45.2667083740234

> <r_mmod_Bend_Energy-OPLS-2005>
110.716697692871

> <r_mmod_Torsional_Energy-OPLS-2005>
216.310165405273

> <r_mmod_Improper_Torsional_Energy-OPLS-2005>
4.91485977172852

> <r_mmod_Van_der_Waal_Energy-OPLS-2005>
160.912841796875

> <r_mmod_Electrostatic_Energy-OPLS-2005>
-433.863586425781

> <r_mmod_Solvation_Energy-OPLS-2005>
-238.843658447266

> <b_mmod_Minimization_Converged-OPLS-2005>
0

> <r_mmod_RMS_Derivative-OPLS-2005>
4.14831447601318

$$$$
14
                    3D
 Structure written by MMmdl.
166174  0  0  1  0            999 V2000
  -30.7308  -14.4007   20.6340 C   0  0  0  0  0  0
  -30.4188  -12.2934   19.3864 C   0  0  0  0  0  0
  -29.4775  -12.5125   18.1840 C   0  0  0  0  0  0
  -28.0012  -12.3716   18.6027 C   0  0  0  0  0  0
  -27.6615  -13.1942   19.8729 C   0  0  2  0  0  0
  -28.7047  -12.9333   20.9799 C   0  0  0  0  0  0
  -25.2635  -13.8156   20.5689 C   0  0  0  0  0  0
  -24.1841  -13.0448   20.9150 C   0  0  0  0  0  0
  -24.6389  -11.6905   20.8734 C   0  0  0  0  0  0
  -23.9057  -10.4301   21.0420 C   0  0  0  0  0  0
  -24.3627   -9.4220   21.9195 C   0  0  0  0  0  0
  -23.6302   -8.2258   22.0761 C   0  0  0  0  0  0
  -22.4282   -8.0304   21.3556 C   0  0  0  0  0  0
  -21.9919   -9.0275   20.4657 C   0  0  0  0  0  0
  -22.7240  -10.2157   20.3067 C   0  0  0  0  0  0
  -21.6865   -6.0744   22.5272 C   0  0  0  0  0  0
  -21.4018   -6.5654   23.8201 C   0  0  0  0  0  0
  -21.3648   -5.6803   24.9164 C   0  0  0  0  0  0
  -21.6037   -4.3065   24.7217 C   0  0  0  0  0  0
  -21.8814   -3.8157   23.4341 C   0  0  0  0  0  0
  -21.9192   -4.6967   22.3398 C   0  0  0  0  0  0
  -22.7889  -13.5292   21.1798 C   0  0  0  0  0  0
  -22.1653   -4.2156   21.0972 F   0  0  0  0  0  0
  -21.5631   -3.4557   25.7732 F   0  0  0  0  0  0
  -30.0390  -13.2467   20.4390 N   0  0  0  0  0  0
  -26.3025  -12.9284   20.3374 N   0  0  0  0  0  0
  -25.9297  -11.6450   20.5747 N   0  0  0  0  0  0
  -22.0513  -12.8317   22.0380 N   0  0  0  0  0  0
  -25.4428  -15.1869   20.4184 N   0  0  0  0  0  0
  -31.8160  -14.6429   20.0999 O   0  0  0  0  0  0
  -21.6644   -6.8906   21.4243 O   0  0  0  0  0  0
  -22.3566  -14.5579   20.6610 O   0  0  0  0  0  0
  -24.6158  -31.8678   23.2088 C   0  0  0  0  0  0
  -25.9068  -32.4813   23.8376 C   0  0  1  0  0  0
  -27.2567  -27.4464   20.0772 C   0  0  0  0  0  0
  -25.5913  -33.8605   24.2294 N   0  0  0  0  0  0
  -23.4039  -30.4888   21.5505 C   0  0  2  0  0  0
  -24.8517  -28.9512   20.1185 C   0  0  0  0  0  0
  -22.7445  -29.4615   22.4999 C   0  0  0  0  0  0
  -18.0293  -28.1359   22.8457 C   0  0  0  0  0  0
  -24.1502  -36.7320   23.2632 C   0  0  0  0  0  0
  -25.9331  -30.8334   21.3600 C   0  0  0  0  0  0
  -26.0122  -29.4676   20.7080 C   0  0  0  0  0  0
  -27.2100  -28.7210   20.6873 C   0  0  0  0  0  0
  -26.0651  -26.9295   19.5106 C   0  0  0  0  0  0
  -24.8723  -27.6767   19.5245 C   0  0  0  0  0  0
  -23.6135  -29.8204   20.1645 C   0  0  0  0  0  0
  -25.4105  -36.3072   24.0314 C   0  0  1  0  0  0
  -20.5881  -28.3685   23.1396 C   0  0  2  0  0  0
  -20.6798  -26.9412   22.5484 C   0  0  0  0  0  0
  -19.5857  -26.6509   21.5156 C   0  0  0  0  0  0
  -18.1980  -26.7962   22.1474 C   0  0  0  0  0  0
  -19.1530  -28.8830   23.2915 C   0  0  0  0  0  0
  -18.9412  -30.1395   23.8967 C   0  0  0  0  0  0
  -17.6413  -30.6513   24.0573 C   0  0  0  0  0  0
  -25.9046  -34.9460   23.5089 C   0  0  0  0  0  0
  -16.5329  -29.8998   23.6297 C   0  0  0  0  0  0
  -16.7262  -28.6418   23.0324 C   0  0  0  0  0  0
  -26.4502  -31.6600   25.0717 C   0  0  0  0  0  0
  -25.3782  -31.3736   26.1486 C   0  0  0  0  0  0
  -27.0322  -30.3037   24.6070 C   0  0  0  0  0  0
  -27.6071  -32.4325   25.7502 C   0  0  0  0  0  0
  -27.5554  -37.1800   24.8452 C   0  0  0  0  0  0
  -21.4150  -29.3066   22.3819 N   0  0  0  0  0  0
  -26.4271  -37.3757   23.9384 N   0  0  0  0  0  0
  -24.6684  -31.0784   22.0982 N   0  0  0  0  0  0
  -23.4237  -28.8088   23.2989 O   0  0  0  0  0  0
  -28.4746  -26.7890   20.0735 O   0  0  0  0  0  0
  -26.5622  -34.8933   22.4658 O   0  0  0  0  0  0
  -23.5360  -32.1454   23.7483 O   0  0  0  0  0  0
  -27.2216  -19.2279   22.6313 C   0  0  0  0  0  0
  -27.4215  -18.0554   23.3646 C   0  0  0  0  0  0
  -28.1751  -19.6585   21.6899 C   0  0  0  0  0  0
  -28.5340  -17.2365   23.1115 C   0  0  0  0  0  0
  -29.3649  -18.8880   21.4824 C   0  0  0  0  0  0
  -29.4994  -17.6156   22.1324 C   0  0  0  0  0  0
  -27.8044  -20.8525   20.8475 C   0  0  0  0  0  0
  -28.6282  -15.9510   23.9202 C   0  0  0  0  0  0
  -30.4466  -19.4483   20.5473 C   0  0  0  0  0  0
  -27.8199  -24.5607   21.7263 C   0  0  0  0  0  0
  -30.6243  -16.6251   21.7759 C   0  0  0  0  0  0
  -28.5857  -22.9882   19.8500 C   0  0  0  0  0  0
  -28.6351  -25.4969   19.4767 C   0  0  0  0  0  0
  -28.7684  -24.3661   20.5275 C   0  0  1  0  0  0
  -28.6751  -21.8692   20.7900 N   0  0  0  0  0  0
  -30.1162  -15.3016   21.4106 N   0  0  0  0  0  0
  -26.7252  -20.8608   20.2487 O   0  0  0  0  0  0
  -31.4599  -12.4051   19.0778 H   0  0  0  0  0  0
  -30.3334  -11.2700   19.7574 H   0  0  0  0  0  0
  -29.7093  -11.8041   17.3867 H   0  0  0  0  0  0
  -29.6416  -13.5061   17.7611 H   0  0  0  0  0  0
  -27.8063  -11.3146   18.7791 H   0  0  0  0  0  0
  -27.3488  -12.6627   17.7783 H   0  0  0  0  0  0
  -27.7189  -14.2450   19.5943 H   0  0  0  0  0  0
  -28.6758  -11.8826   21.2727 H   0  0  0  0  0  0
  -28.4608  -13.4864   21.8850 H   0  0  0  0  0  0
  -25.2777   -9.5697   22.4756 H   0  0  0  0  0  0
  -24.0009   -7.4666   22.7486 H   0  0  0  0  0  0
  -21.0843   -8.8813   19.8977 H   0  0  0  0  0  0
  -22.3716  -10.9705   19.6176 H   0  0  0  0  0  0
  -21.2013   -7.6170   23.9721 H   0  0  0  0  0  0
  -21.1465   -6.0527   25.9071 H   0  0  0  0  0  0
  -22.0601   -2.7624   23.2830 H   0  0  0  0  0  0
  -22.4155  -12.0008   22.4788 H   0  0  0  0  0  0
  -21.1134  -13.1361   22.2562 H   0  0  0  0  0  0
  -24.6931  -15.8551   20.5553 H   0  0  0  0  0  0
  -26.3170  -15.6297   20.1639 H   0  0  0  0  0  0
  -26.7127  -32.5537   23.1131 H   0  0  0  0  0  0
  -25.0068  -33.9800   25.0434 H   0  0  0  0  0  0
  -22.6899  -31.3039   21.4093 H   0  0  0  0  0  0
  -23.3737  -35.9680   23.3315 H   0  0  0  0  0  0
  -24.3589  -36.8941   22.2040 H   0  0  0  0  0  0
  -23.7320  -37.6550   23.6669 H   0  0  0  0  0  0
  -26.0473  -31.5970   20.5897 H   0  0  0  0  0  0
  -26.8211  -30.8892   21.9774 H   0  0  0  0  0  0
  -28.1064  -29.1273   21.1337 H   0  0  0  0  0  0
  -26.0143  -25.9547   19.0531 H   0  0  0  0  0  0
  -23.9801  -27.2611   19.0788 H   0  0  0  0  0  0
  -23.7212  -30.5977   19.4036 H   0  0  0  0  0  0
  -22.7409  -29.2357   19.8703 H   0  0  0  0  0  0
  -25.1278  -36.1896   25.0798 H   0  0  0  0  0  0
  -20.9907  -28.3285   24.1545 H   0  0  0  0  0  0
  -20.5553  -26.2255   23.3636 H   0  0  0  0  0  0
  -21.6707  -26.7359   22.1448 H   0  0  0  0  0  0
  -19.7045  -25.6478   21.1048 H   0  0  0  0  0  0
  -19.6858  -27.3444   20.6797 H   0  0  0  0  0  0
  -17.4332  -26.6802   21.3773 H   0  0  0  0  0  0
  -18.0302  -26.0044   22.8772 H   0  0  0  0  0  0
  -19.7857  -30.7184   24.2449 H   0  0  0  0  0  0
  -17.4924  -31.6185   24.5165 H   0  0  0  0  0  0
  -15.5297  -30.2883   23.7548 H   0  0  0  0  0  0
  -15.8662  -28.0715   22.7026 H   0  0  0  0  0  0
  -24.5893  -30.7140   25.7856 H   0  0  0  0  0  0
  -24.9066  -32.2930   26.4969 H   0  0  0  0  0  0
  -25.8151  -30.8878   27.0215 H   0  0  0  0  0  0
  -26.2854  -29.6819   24.1105 H   0  0  0  0  0  0
  -27.4118  -29.7233   25.4492 H   0  0  0  0  0  0
  -27.8676  -30.4409   23.9196 H   0  0  0  0  0  0
  -27.2638  -33.3562   26.2176 H   0  0  0  0  0  0
  -28.3834  -32.6992   25.0319 H   0  0  0  0  0  0
  -28.0796  -31.8400   26.5357 H   0  0  0  0  0  0
  -28.2557  -38.0119   24.7427 H   0  0  0  0  0  0
  -28.1063  -36.2613   24.6303 H   0  0  0  0  0  0
  -27.2283  -37.1466   25.8878 H   0  0  0  0  0  0
  -20.9250  -29.8910   21.7192 H   0  0  0  0  0  0
  -26.0154  -38.2827   24.1397 H   0  0  0  0  0  0
  -26.3170  -19.8010   22.7859 H   0  0  0  0  0  0
  -26.6872  -17.7611   24.1034 H   0  0  0  0  0  0
  -28.0753  -15.1558   23.4227 H   0  0  0  0  0  0
  -28.1818  -16.0757   24.9052 H   0  0  0  0  0  0
  -29.6555  -15.6270   24.0831 H   0  0  0  0  0  0
  -30.7963  -20.4046   20.9372 H   0  0  0  0  0  0
  -30.0439  -19.6164   19.5478 H   0  0  0  0  0  0
  -31.3556  -18.8706   20.4327 H   0  0  0  0  0  0
  -27.8243  -23.7036   22.3965 H   0  0  0  0  0  0
  -26.7929  -24.7267   21.3990 H   0  0  0  0  0  0
  -28.1373  -25.4172   22.3217 H   0  0  0  0  0  0
  -31.2950  -16.5242   22.6289 H   0  0  0  0  0  0
  -31.2415  -16.9615   20.9507 H   0  0  0  0  0  0
  -29.3562  -22.8346   19.0908 H   0  0  0  0  0  0
  -27.6352  -22.9765   19.3157 H   0  0  0  0  0  0
  -27.8856  -25.2589   18.7273 H   0  0  0  0  0  0
  -29.5654  -25.5343   18.9066 H   0  0  0  0  0  0
  -29.7851  -24.3991   20.9243 H   0  0  0  0  0  0
  -29.4942  -21.8170   21.3826 H   0  0  0  0  0  0
  -29.2017  -15.0572   21.7578 H   0  0  0  0  0  0
  1 25  1  0  0  0
  1 30  2  0  0  0
  1 86  1  0  0  0
  2  3  1  0  0  0
  2 25  1  0  0  0
  2 88  1  0  0  0
  2 89  1  0  0  0
  3  4  1  0  0  0
  3 90  1  0  0  0
  3 91  1  0  0  0
  4  5  1  0  0  0
  4 92  1  0  0  0
  4 93  1  0  0  0
  5  6  1  0  0  0
  5 26  1  0  0  0
  5 94  1  0  0  0
  6 25  1  0  0  0
  6 95  1  0  0  0
  6 96  1  0  0  0
  7  8  2  0  0  0
  7 26  1  0  0  0
  7 29  1  0  0  0
  8  9  1  0  0  0
  8 22  1  0  0  0
  9 10  1  0  0  0
  9 27  2  0  0  0
 10 11  2  0  0  0
 10 15  1  0  0  0
 11 12  1  0  0  0
 11 97  1  0  0  0
 12 13  2  0  0  0
 12 98  1  0  0  0
 13 14  1  0  0  0
 13 31  1  0  0  0
 14 15  2  0  0  0
 14 99  1  0  0  0
 15100  1  0  0  0
 16 17  2  0  0  0
 16 21  1  0  0  0
 16 31  1  0  0  0
 17 18  1  0  0  0
 17101  1  0  0  0
 18 19  2  0  0  0
 18102  1  0  0  0
 19 20  1  0  0  0
 19 24  1  0  0  0
 20 21  2  0  0  0
 20103  1  0  0  0
 21 23  1  0  0  0
 22 28  1  0  0  0
 22 32  2  0  0  0
 26 27  1  0  0  0
 28104  1  0  0  0
 28105  1  0  0  0
 29106  1  0  0  0
 29107  1  0  0  0
 33 34  1  0  0  0
 33 66  1  0  0  0
 33 70  2  0  0  0
 34 36  1  0  0  0
 34 59  1  0  0  0
 34108  1  0  0  0
 35 44  2  0  0  0
 35 45  1  0  0  0
 35 68  1  0  0  0
 36 56  1  0  0  0
 36109  1  0  0  0
 37 39  1  0  0  0
 37 47  1  0  0  0
 37 66  1  0  0  0
 37110  1  0  0  0
 38 43  2  0  0  0
 38 46  1  0  0  0
 38 47  1  0  0  0
 39 64  1  0  0  0
 39 67  2  0  0  0
 40 52  1  0  0  0
 40 53  2  0  0  0
 40 58  1  0  0  0
 41111  1  0  0  0
 41112  1  0  0  0
 41113  1  0  0  0
 41 48  1  0  0  0
 42 43  1  0  0  0
 42 66  1  0  0  0
 42114  1  0  0  0
 42115  1  0  0  0
 43 44  1  0  0  0
 44116  1  0  0  0
 45 46  2  0  0  0
 45117  1  0  0  0
 46118  1  0  0  0
 47119  1  0  0  0
 47120  1  0  0  0
 48 56  1  0  0  0
 48 65  1  0  0  0
 48121  1  0  0  0
 49 50  1  0  0  0
 49 53  1  0  0  0
 49 64  1  0  0  0
 49122  1  0  0  0
 50 51  1  0  0  0
 50123  1  0  0  0
 50124  1  0  0  0
 51 52  1  0  0  0
 51125  1  0  0  0
 51126  1  0  0  0
 52127  1  0  0  0
 52128  1  0  0  0
 53 54  1  0  0  0
 54 55  2  0  0  0
 54129  1  0  0  0
 55 57  1  0  0  0
 55130  1  0  0  0
 56 69  2  0  0  0
 57 58  2  0  0  0
 57131  1  0  0  0
 58132  1  0  0  0
 59 60  1  0  0  0
 59 61  1  0  0  0
 59 62  1  0  0  0
 60133  1  0  0  0
 60134  1  0  0  0
 60135  1  0  0  0
 61136  1  0  0  0
 61137  1  0  0  0
 61138  1  0  0  0
 62139  1  0  0  0
 62140  1  0  0  0
 62141  1  0  0  0
 63 65  1  0  0  0
 63142  1  0  0  0
 63143  1  0  0  0
 63144  1  0  0  0
 64145  1  0  0  0
 65146  1  0  0  0
 68 83  1  0  0  0
 71 72  2  0  0  0
 71 73  1  0  0  0
 71147  1  0  0  0
 72 74  1  0  0  0
 72148  1  0  0  0
 73 75  2  0  0  0
 73 77  1  0  0  0
 74 76  2  0  0  0
 74 78  1  0  0  0
 75 76  1  0  0  0
 75 79  1  0  0  0
 76 81  1  0  0  0
 77 85  1  0  0  0
 77 87  2  0  0  0
 78149  1  0  0  0
 78150  1  0  0  0
 78151  1  0  0  0
 79152  1  0  0  0
 79153  1  0  0  0
 79154  1  0  0  0
 80155  1  0  0  0
 80156  1  0  0  0
 80157  1  0  0  0
 80 84  1  0  0  0
 81 86  1  0  0  0
 81158  1  0  0  0
 81159  1  0  0  0
 82 84  1  0  0  0
 82 85  1  0  0  0
 82160  1  0  0  0
 82161  1  0  0  0
 83 84  1  0  0  0
 83162  1  0  0  0
 83163  1  0  0  0
 84164  1  0  0  0
 85165  1  0  0  0
 86166  1  0  0  0
M  ISO  4   1 100  68 101  83 101  86 100
M  END
> <chiral flag>
0

> <version>
0

> <s_m_source_file>
/data/baiqing/PycharmProjects/Reinvent-master-3.2/result/LINK_invent/BTK/process_docking_weight1_custom_product_contain_oxygen_bond_distance_aromatic_linkinvent_7_9_3/rearranged_h_0049.sdf

> <i_m_source_file_index>
15

> <r_mmod_Potential_Energy-OPLS-2005>
-103.949760437012

> <r_mmod_Stretch_Energy-OPLS-2005>
41.4408569335938

> <r_mmod_Bend_Energy-OPLS-2005>
113.333824157715

> <r_mmod_Torsional_Energy-OPLS-2005>
229.471542358398

> <r_mmod_Improper_Torsional_Energy-OPLS-2005>
2.39910268783569

> <r_mmod_Van_der_Waal_Energy-OPLS-2005>
174.121246337891

> <r_mmod_Electrostatic_Energy-OPLS-2005>
-456.760650634766

> <r_mmod_Solvation_Energy-OPLS-2005>
-217.732406616211

> <b_mmod_Minimization_Converged-OPLS-2005>
0

> <r_mmod_RMS_Derivative-OPLS-2005>
4.79393482208252

$$$$
15
                    3D
 Structure written by MMmdl.
157165  0  0  1  0            999 V2000
  -30.5906  -14.7988   20.4345 C   0  0  0  0  0  0
  -30.4417  -12.4936   19.4666 C   0  0  0  0  0  0
  -29.5200  -12.5396   18.2278 C   0  0  0  0  0  0
  -28.0394  -12.3716   18.6269 C   0  0  0  0  0  0
  -27.6425  -13.2473   19.8450 C   0  0  2  0  0  0
  -28.6897  -13.1913   20.9800 C   0  0  0  0  0  0
  -25.2500  -13.8214   20.5667 C   0  0  0  0  0  0
  -24.1814  -13.0464   20.9200 C   0  0  0  0  0  0
  -24.6437  -11.6944   20.8717 C   0  0  0  0  0  0
  -23.9108  -10.4320   21.0346 C   0  0  0  0  0  0
  -24.3643   -9.4206   21.9117 C   0  0  0  0  0  0
  -23.6311   -8.2247   22.0717 C   0  0  0  0  0  0
  -22.4284   -8.0293   21.3529 C   0  0  0  0  0  0
  -21.9927   -9.0257   20.4598 C   0  0  0  0  0  0
  -22.7267  -10.2141   20.2982 C   0  0  0  0  0  0
  -21.6873   -6.0723   22.5250 C   0  0  0  0  0  0
  -21.4035   -6.5625   23.8184 C   0  0  0  0  0  0
  -21.3666   -5.6764   24.9141 C   0  0  0  0  0  0
  -21.6053   -4.3031   24.7177 C   0  0  0  0  0  0
  -21.8836   -3.8136   23.4298 C   0  0  0  0  0  0
  -21.9219   -4.6958   22.3367 C   0  0  0  0  0  0
  -22.7818  -13.5211   21.1866 C   0  0  0  0  0  0
  -22.1670   -4.2156   21.0940 F   0  0  0  0  0  0
  -21.5636   -3.4498   25.7691 F   0  0  0  0  0  0
  -29.9889  -13.5547   20.3992 N   0  0  0  0  0  0
  -26.2961  -12.9473   20.3217 N   0  0  0  0  0  0
  -25.9372  -11.6609   20.5690 N   0  0  0  0  0  0
  -22.0512  -12.8176   22.0416 N   0  0  0  0  0  0
  -25.4173  -15.1942   20.4059 N   0  0  0  0  0  0
  -31.7780  -14.9061   20.1154 O   0  0  0  0  0  0
  -21.6664   -6.8880   21.4224 O   0  0  0  0  0  0
  -22.3472  -14.5499   20.6677 O   0  0  0  0  0  0
  -24.6373  -31.8493   23.1920 C   0  0  0  0  0  0
  -25.9184  -32.4718   23.8273 C   0  0  1  0  0  0
  -27.2315  -27.2435   20.1365 C   0  0  0  0  0  0
  -25.5958  -33.8506   24.2165 N   0  0  0  0  0  0
  -23.4379  -30.4697   21.5338 C   0  0  2  0  0  0
  -24.8884  -28.9113   20.1090 C   0  0  0  0  0  0
  -22.7538  -29.4541   22.4812 C   0  0  0  0  0  0
  -18.0321  -28.1435   22.8457 C   0  0  0  0  0  0
  -24.1514  -36.7275   23.2637 C   0  0  0  0  0  0
  -25.9889  -30.7627   21.3720 C   0  0  0  0  0  0
  -26.0633  -29.3827   20.7126 C   0  0  0  0  0  0
  -27.2444  -28.5701   20.6930 C   0  0  0  0  0  0
  -26.0314  -26.8335   19.5222 C   0  0  0  0  0  0
  -24.8789  -27.6483   19.4965 C   0  0  0  0  0  0
  -23.6586  -29.7987   20.1536 C   0  0  0  0  0  0
  -25.4138  -36.3010   24.0290 C   0  0  1  0  0  0
  -20.5937  -28.3726   23.1260 C   0  0  2  0  0  0
  -20.6803  -26.9420   22.5420 C   0  0  0  0  0  0
  -19.5779  -26.6384   21.5224 C   0  0  0  0  0  0
  -18.1955  -26.7974   22.1617 C   0  0  0  0  0  0
  -19.1575  -28.8893   23.2853 C   0  0  0  0  0  0
  -18.9491  -30.1502   23.8865 C   0  0  0  0  0  0
  -17.6478  -30.6609   24.0585 C   0  0  0  0  0  0
  -25.9079  -34.9389   23.5012 C   0  0  0  0  0  0
  -16.5371  -29.9103   23.6354 C   0  0  0  0  0  0
  -16.7306  -28.6547   23.0330 C   0  0  0  0  0  0
  -26.4530  -31.6587   25.0705 C   0  0  0  0  0  0
  -25.3722  -31.3788   26.1412 C   0  0  0  0  0  0
  -27.0435  -30.2996   24.6265 C   0  0  0  0  0  0
  -27.6061  -32.4363   25.7499 C   0  0  0  0  0  0
  -27.5570  -37.1775   24.8432 C   0  0  0  0  0  0
  -21.4226  -29.3056   22.3606 N   0  0  0  0  0  0
  -26.4294  -37.3726   23.9380 N   0  0  0  0  0  0
  -24.7068  -31.0445   22.0881 N   0  0  0  0  0  0
  -23.4206  -28.8082   23.2930 O   0  0  0  0  0  0
  -28.3313  -26.3538   20.0919 O   0  0  0  0  0  0
  -26.5655  -34.8875   22.4584 O   0  0  0  0  0  0
  -23.5530  -32.1294   23.7224 O   0  0  0  0  0  0
  -29.3111  -20.5152   22.8327 C   0  0  0  0  0  0
  -29.6252  -19.8392   24.0211 C   0  0  0  0  0  0
  -30.1553  -17.8801   22.7284 C   0  0  0  0  0  0
  -29.4518  -19.9485   21.5364 C   0  0  0  0  0  0
  -29.8221  -18.4988   21.4969 C   0  0  0  0  0  0
  -30.0841  -18.5264   23.9648 C   0  0  0  0  0  0
  -28.4161  -23.6115   20.2286 C   0  0  0  0  0  0
  -30.5056  -22.9607   21.3295 C   0  0  0  0  0  0
  -29.1547  -21.0364   20.3856 C   0  0  0  0  0  0
  -29.9839  -17.4365   20.3172 C   0  0  0  0  0  0
  -28.3378  -25.0867   20.9156 C   0  0  0  0  0  0
  -29.7868  -15.9235   20.6067 N   0  0  0  0  0  0
  -29.2472  -22.5694   20.6818 N   0  0  0  0  0  0
  -27.6164  -23.3871   19.3152 O   0  0  0  0  0  0
  -30.5610  -17.6982   25.4022 Cl  0  0  0  0  0  0
  -31.4798  -12.6333   19.1592 H   0  0  0  0  0  0
  -30.4004  -11.5158   19.9468 H   0  0  0  0  0  0
  -29.8034  -11.7700   17.5075 H   0  0  0  0  0  0
  -29.6483  -13.4996   17.7244 H   0  0  0  0  0  0
  -27.8665  -11.3164   18.8433 H   0  0  0  0  0  0
  -27.4041  -12.6131   17.7712 H   0  0  0  0  0  0
  -27.6278  -14.2720   19.4758 H   0  0  0  0  0  0
  -28.7399  -12.1984   21.4272 H   0  0  0  0  0  0
  -28.4116  -13.8822   21.7785 H   0  0  0  0  0  0
  -25.2798   -9.5701   22.4673 H   0  0  0  0  0  0
  -24.0048   -7.4633   22.7411 H   0  0  0  0  0  0
  -21.0887   -8.8762   19.8863 H   0  0  0  0  0  0
  -22.3727  -10.9670   19.6085 H   0  0  0  0  0  0
  -21.2015   -7.6130   23.9703 H   0  0  0  0  0  0
  -21.1479   -6.0464   25.9047 H   0  0  0  0  0  0
  -22.0623   -2.7603   23.2776 H   0  0  0  0  0  0
  -22.4187  -11.9900   22.4852 H   0  0  0  0  0  0
  -21.1077  -13.1087   22.2549 H   0  0  0  0  0  0
  -24.6501  -15.8478   20.5024 H   0  0  0  0  0  0
  -26.2524  -15.6324   20.0414 H   0  0  0  0  0  0
  -26.7261  -32.5339   23.1025 H   0  0  0  0  0  0
  -25.0135  -33.9637   25.0337 H   0  0  0  0  0  0
  -22.7380  -31.2933   21.3791 H   0  0  0  0  0  0
  -23.3752  -35.9633   23.3270 H   0  0  0  0  0  0
  -24.3609  -36.8955   22.2058 H   0  0  0  0  0  0
  -23.7322  -37.6469   23.6735 H   0  0  0  0  0  0
  -26.1412  -31.5286   20.6092 H   0  0  0  0  0  0
  -26.8640  -30.8003   22.0102 H   0  0  0  0  0  0
  -28.1618  -28.9498   21.1228 H   0  0  0  0  0  0
  -25.9861  -25.8573   19.0612 H   0  0  0  0  0  0
  -23.9827  -27.2847   19.0123 H   0  0  0  0  0  0
  -23.7814  -30.5758   19.3975 H   0  0  0  0  0  0
  -22.7813  -29.2260   19.8470 H   0  0  0  0  0  0
  -25.1336  -36.1804   25.0793 H   0  0  0  0  0  0
  -21.0042  -28.3327   24.1376 H   0  0  0  0  0  0
  -20.5728  -26.2290   23.3618 H   0  0  0  0  0  0
  -21.6660  -26.7434   22.1181 H   0  0  0  0  0  0
  -19.6920  -25.6272   21.1297 H   0  0  0  0  0  0
  -19.6792  -27.3157   20.6737 H   0  0  0  0  0  0
  -17.4221  -26.6733   21.4024 H   0  0  0  0  0  0
  -18.0345  -26.0150   22.9048 H   0  0  0  0  0  0
  -19.7961  -30.7363   24.2167 H   0  0  0  0  0  0
  -17.5035  -31.6286   24.5214 H   0  0  0  0  0  0
  -15.5374  -30.3008   23.7714 H   0  0  0  0  0  0
  -15.8704  -28.0905   22.7001 H   0  0  0  0  0  0
  -24.5866  -30.7186   25.7707 H   0  0  0  0  0  0
  -24.8982  -32.3004   26.4782 H   0  0  0  0  0  0
  -25.7990  -30.8957   27.0206 H   0  0  0  0  0  0
  -26.3069  -29.6686   24.1283 H   0  0  0  0  0  0
  -27.4097  -29.7303   25.4811 H   0  0  0  0  0  0
  -27.8924  -30.4238   23.9546 H   0  0  0  0  0  0
  -27.2624  -33.3643   26.2063 H   0  0  0  0  0  0
  -28.3896  -32.6957   25.0367 H   0  0  0  0  0  0
  -28.0730  -31.8521   26.5434 H   0  0  0  0  0  0
  -28.2522  -38.0128   24.7500 H   0  0  0  0  0  0
  -28.1123  -36.2633   24.6233 H   0  0  0  0  0  0
  -27.2270  -37.1380   25.8831 H   0  0  0  0  0  0
  -20.9384  -29.8737   21.6794 H   0  0  0  0  0  0
  -26.0120  -38.2768   24.1447 H   0  0  0  0  0  0
  -28.9709  -21.5304   22.9604 H   0  0  0  0  0  0
  -29.5317  -20.3348   24.9766 H   0  0  0  0  0  0
  -30.5070  -16.8631   22.7568 H   0  0  0  0  0  0
  -30.9611  -23.8219   20.8385 H   0  0  0  0  0  0
  -31.2459  -22.1588   21.3104 H   0  0  0  0  0  0
  -30.3397  -23.2314   22.3719 H   0  0  0  0  0  0
  -28.1452  -20.8306   20.0284 H   0  0  0  0  0  0
  -29.8195  -20.8236   19.5462 H   0  0  0  0  0  0
  -29.2936  -17.7153   19.5211 H   0  0  0  0  0  0
  -30.9850  -17.5687   19.8988 H   0  0  0  0  0  0
  -29.1601  -25.2021   21.6193 H   0  0  0  0  0  0
  -27.4465  -25.0955   21.5436 H   0  0  0  0  0  0
  -28.8354  -15.6932   20.8442 H   0  0  0  0  0  0
  1 25  1  0  0  0
  1 30  2  0  0  0
  1 82  1  0  0  0
  2  3  1  0  0  0
  2 25  1  0  0  0
  2 86  1  0  0  0
  2 87  1  0  0  0
  3  4  1  0  0  0
  3 88  1  0  0  0
  3 89  1  0  0  0
  4  5  1  0  0  0
  4 90  1  0  0  0
  4 91  1  0  0  0
  5  6  1  0  0  0
  5 26  1  0  0  0
  5 92  1  0  0  0
  6 25  1  0  0  0
  6 93  1  0  0  0
  6 94  1  0  0  0
  7  8  2  0  0  0
  7 26  1  0  0  0
  7 29  1  0  0  0
  8  9  1  0  0  0
  8 22  1  0  0  0
  9 10  1  0  0  0
  9 27  2  0  0  0
 10 11  2  0  0  0
 10 15  1  0  0  0
 11 12  1  0  0  0
 11 95  1  0  0  0
 12 13  2  0  0  0
 12 96  1  0  0  0
 13 14  1  0  0  0
 13 31  1  0  0  0
 14 15  2  0  0  0
 14 97  1  0  0  0
 15 98  1  0  0  0
 16 17  2  0  0  0
 16 21  1  0  0  0
 16 31  1  0  0  0
 17 18  1  0  0  0
 17 99  1  0  0  0
 18 19  2  0  0  0
 18100  1  0  0  0
 19 20  1  0  0  0
 19 24  1  0  0  0
 20 21  2  0  0  0
 20101  1  0  0  0
 21 23  1  0  0  0
 22 28  1  0  0  0
 22 32  2  0  0  0
 26 27  1  0  0  0
 28102  1  0  0  0
 28103  1  0  0  0
 29104  1  0  0  0
 29105  1  0  0  0
 33 34  1  0  0  0
 33 66  1  0  0  0
 33 70  2  0  0  0
 34 36  1  0  0  0
 34 59  1  0  0  0
 34106  1  0  0  0
 35 44  2  0  0  0
 35 45  1  0  0  0
 35 68  1  0  0  0
 36 56  1  0  0  0
 36107  1  0  0  0
 37 39  1  0  0  0
 37 47  1  0  0  0
 37 66  1  0  0  0
 37108  1  0  0  0
 38 43  2  0  0  0
 38 46  1  0  0  0
 38 47  1  0  0  0
 39 64  1  0  0  0
 39 67  2  0  0  0
 40 52  1  0  0  0
 40 53  2  0  0  0
 40 58  1  0  0  0
 41109  1  0  0  0
 41110  1  0  0  0
 41111  1  0  0  0
 41 48  1  0  0  0
 42 43  1  0  0  0
 42 66  1  0  0  0
 42112  1  0  0  0
 42113  1  0  0  0
 43 44  1  0  0  0
 44114  1  0  0  0
 45 46  2  0  0  0
 45115  1  0  0  0
 46116  1  0  0  0
 47117  1  0  0  0
 47118  1  0  0  0
 48 56  1  0  0  0
 48 65  1  0  0  0
 48119  1  0  0  0
 49 50  1  0  0  0
 49 53  1  0  0  0
 49 64  1  0  0  0
 49120  1  0  0  0
 50 51  1  0  0  0
 50121  1  0  0  0
 50122  1  0  0  0
 51 52  1  0  0  0
 51123  1  0  0  0
 51124  1  0  0  0
 52125  1  0  0  0
 52126  1  0  0  0
 53 54  1  0  0  0
 54 55  2  0  0  0
 54127  1  0  0  0
 55 57  1  0  0  0
 55128  1  0  0  0
 56 69  2  0  0  0
 57 58  2  0  0  0
 57129  1  0  0  0
 58130  1  0  0  0
 59 60  1  0  0  0
 59 61  1  0  0  0
 59 62  1  0  0  0
 60131  1  0  0  0
 60132  1  0  0  0
 60133  1  0  0  0
 61134  1  0  0  0
 61135  1  0  0  0
 61136  1  0  0  0
 62137  1  0  0  0
 62138  1  0  0  0
 62139  1  0  0  0
 63 65  1  0  0  0
 63140  1  0  0  0
 63141  1  0  0  0
 63142  1  0  0  0
 64143  1  0  0  0
 65144  1  0  0  0
 68 81  1  0  0  0
 71 72  2  0  0  0
 71 74  1  0  0  0
 71145  1  0  0  0
 72 76  1  0  0  0
 72146  1  0  0  0
 73 75  1  0  0  0
 73 76  2  0  0  0
 73147  1  0  0  0
 74 75  2  0  0  0
 74 79  1  0  0  0
 75 80  1  0  0  0
 76 85  1  0  0  0
 77 81  1  0  0  0
 77 83  1  0  0  0
 77 84  2  0  0  0
 78 83  1  0  0  0
 78148  1  0  0  0
 78149  1  0  0  0
 78150  1  0  0  0
 79 83  1  0  0  0
 79151  1  0  0  0
 79152  1  0  0  0
 80 82  1  0  0  0
 80153  1  0  0  0
 80154  1  0  0  0
 81155  1  0  0  0
 81156  1  0  0  0
 82157  1  0  0  0
M  ISO  4   1 100  68 101  81 101  82 100
M  END
> <chiral flag>
0

> <version>
0

> <s_m_source_file>
/data/baiqing/PycharmProjects/Reinvent-master-3.2/result/LINK_invent/BTK/process_docking_weight1_custom_product_contain_oxygen_bond_distance_aromatic_linkinvent_7_9_3/rearranged_h_0049.sdf

> <i_m_source_file_index>
16

> <r_mmod_Potential_Energy-OPLS-2005>
257.021820068359

> <r_mmod_Stretch_Energy-OPLS-2005>
170.65299987793

> <r_mmod_Bend_Energy-OPLS-2005>
219.048202514648

> <r_mmod_Torsional_Energy-OPLS-2005>
249.242599487305

> <r_mmod_Improper_Torsional_Energy-OPLS-2005>
6.79881811141968

> <r_mmod_Van_der_Waal_Energy-OPLS-2005>
139.864471435547

> <r_mmod_Electrostatic_Energy-OPLS-2005>
-393.102020263672

> <r_mmod_Solvation_Energy-OPLS-2005>
-236.456939697266

> <b_mmod_Minimization_Converged-OPLS-2005>
0

> <r_mmod_RMS_Derivative-OPLS-2005>
5.2352352142334

$$$$
16
                    3D
 Structure written by MMmdl.
163172  0  0  1  0            999 V2000
  -30.5866  -14.7356   20.4490 C   0  0  0  0  0  0
  -30.4241  -12.4418   19.4816 C   0  0  0  0  0  0
  -29.5055  -12.5167   18.2402 C   0  0  0  0  0  0
  -28.0288  -12.3476   18.6450 C   0  0  0  0  0  0
  -27.6399  -13.2337   19.8587 C   0  0  2  0  0  0
  -28.6789  -13.1453   20.9986 C   0  0  0  0  0  0
  -25.2465  -13.8225   20.5676 C   0  0  0  0  0  0
  -24.1765  -13.0455   20.9181 C   0  0  0  0  0  0
  -24.6370  -11.6940   20.8746 C   0  0  0  0  0  0
  -23.9056  -10.4315   21.0413 C   0  0  0  0  0  0
  -24.3616   -9.4229   21.9182 C   0  0  0  0  0  0
  -23.6307   -8.2255   22.0768 C   0  0  0  0  0  0
  -22.4283   -8.0281   21.3563 C   0  0  0  0  0  0
  -21.9913   -9.0244   20.4651 C   0  0  0  0  0  0
  -22.7239  -10.2127   20.3056 C   0  0  0  0  0  0
  -21.6853   -6.0735   22.5291 C   0  0  0  0  0  0
  -21.4015   -6.5651   23.8224 C   0  0  0  0  0  0
  -21.3680   -5.6805   24.9191 C   0  0  0  0  0  0
  -21.6060   -4.3065   24.7238 C   0  0  0  0  0  0
  -21.8806   -3.8146   23.4359 C   0  0  0  0  0  0
  -21.9191   -4.6964   22.3415 C   0  0  0  0  0  0
  -22.7783  -13.5218   21.1869 C   0  0  0  0  0  0
  -22.1657   -4.2155   21.0990 F   0  0  0  0  0  0
  -21.5644   -3.4552   25.7750 F   0  0  0  0  0  0
  -29.9891  -13.4936   20.4318 N   0  0  0  0  0  0
  -26.2900  -12.9434   20.3299 N   0  0  0  0  0  0
  -25.9298  -11.6570   20.5747 N   0  0  0  0  0  0
  -22.0436  -12.8185   22.0415 N   0  0  0  0  0  0
  -25.4149  -15.1948   20.4080 N   0  0  0  0  0  0
  -31.7461  -14.8623   20.0418 O   0  0  0  0  0  0
  -21.6656   -6.8873   21.4253 O   0  0  0  0  0  0
  -22.3465  -14.5538   20.6750 O   0  0  0  0  0  0
  -24.6295  -31.8543   23.1944 C   0  0  0  0  0  0
  -25.9137  -32.4738   23.8282 C   0  0  1  0  0  0
  -27.2224  -27.2625   20.1196 C   0  0  0  0  0  0
  -25.5941  -33.8544   24.2218 N   0  0  0  0  0  0
  -23.4248  -30.4747   21.5361 C   0  0  2  0  0  0
  -24.8713  -28.9157   20.1047 C   0  0  0  0  0  0
  -22.7483  -29.4592   22.4889 C   0  0  0  0  0  0
  -18.0294  -28.1367   22.8456 C   0  0  0  0  0  0
  -24.1509  -36.7289   23.2634 C   0  0  0  0  0  0
  -25.9673  -30.7661   21.3716 C   0  0  0  0  0  0
  -26.0395  -29.3876   20.7141 C   0  0  0  0  0  0
  -27.2123  -28.5710   20.7119 C   0  0  0  0  0  0
  -26.0286  -26.8467   19.4907 C   0  0  0  0  0  0
  -24.8706  -27.6537   19.4851 C   0  0  0  0  0  0
  -23.6424  -29.8040   20.1527 C   0  0  0  0  0  0
  -25.4128  -36.3052   24.0312 C   0  0  1  0  0  0
  -20.5891  -28.3685   23.1252 C   0  0  2  0  0  0
  -20.6791  -26.9407   22.5387 C   0  0  0  0  0  0
  -19.5782  -26.6375   21.5178 C   0  0  0  0  0  0
  -18.1953  -26.7909   22.1581 C   0  0  0  0  0  0
  -19.1543  -28.8840   23.2850 C   0  0  0  0  0  0
  -18.9476  -30.1438   23.8873 C   0  0  0  0  0  0
  -17.6481  -30.6575   24.0549 C   0  0  0  0  0  0
  -25.9064  -34.9427   23.5065 C   0  0  0  0  0  0
  -16.5374  -29.9075   23.6318 C   0  0  0  0  0  0
  -16.7284  -28.6493   23.0331 C   0  0  0  0  0  0
  -26.4512  -31.6574   25.0676 C   0  0  0  0  0  0
  -25.3729  -31.3711   26.1384 C   0  0  0  0  0  0
  -27.0391  -30.3001   24.6178 C   0  0  0  0  0  0
  -27.6058  -32.4330   25.7448 C   0  0  0  0  0  0
  -27.5590  -37.1785   24.8453 C   0  0  0  0  0  0
  -21.4192  -29.3040   22.3636 N   0  0  0  0  0  0
  -26.4295  -37.3759   23.9407 N   0  0  0  0  0  0
  -24.6926  -31.0505   22.0907 N   0  0  0  0  0  0
  -23.4185  -28.8128   23.2985 O   0  0  0  0  0  0
  -28.3507  -26.4204   20.2125 O   0  0  0  0  0  0
  -26.5649  -34.8906   22.4639 O   0  0  0  0  0  0
  -23.5454  -32.1376   23.7249 O   0  0  0  0  0  0
  -28.8566  -18.0940   17.9441 C   0  0  0  0  0  0
  -29.3439  -17.0010   18.6854 C   0  0  0  0  0  0
  -29.3671  -18.4265   20.6472 C   0  0  0  0  0  0
  -28.5870  -19.3587   18.5237 C   0  0  0  0  0  0
  -28.9036  -19.5965   19.8977 C   0  0  0  0  0  0
  -29.5748  -17.1034   20.0706 C   0  0  0  0  0  0
  -30.4483  -23.7538   18.5318 C   0  0  0  0  0  0
  -29.9670  -25.0787   19.1518 C   0  0  0  0  0  0
  -30.2754  -22.5573   19.4894 C   0  0  0  0  0  0
  -28.2946  -23.6848   20.4729 C   0  0  0  0  0  0
  -28.4974  -25.0500   19.6142 C   0  0  1  0  0  0
  -28.6141  -21.0256   20.5850 C   0  0  0  0  0  0
  -27.9305  -20.4146   17.6242 C   0  0  0  0  0  0
  -29.8341  -15.8446   20.8149 N   0  0  0  0  0  0
  -28.8507  -22.3732   19.8585 N   0  3  2  0  0  0
  -27.3654  -19.8769   16.5425 F   0  0  0  0  0  0
  -26.9811  -21.0824   18.2779 F   0  0  0  0  0  0
  -28.8448  -21.2884   17.2168 F   0  0  0  0  0  0
  -31.4681  -12.5536   19.1840 H   0  0  0  0  0  0
  -30.3531  -11.4607   19.9518 H   0  0  0  0  0  0
  -29.7849  -11.7494   17.5174 H   0  0  0  0  0  0
  -29.6374  -13.4737   17.7347 H   0  0  0  0  0  0
  -27.8691  -11.2961   18.8839 H   0  0  0  0  0  0
  -27.3790  -12.5634   17.7966 H   0  0  0  0  0  0
  -27.6402  -14.2625   19.4966 H   0  0  0  0  0  0
  -28.7008  -12.1406   21.4239 H   0  0  0  0  0  0
  -28.4110  -13.8121   21.8190 H   0  0  0  0  0  0
  -25.2764   -9.5711   22.4742 H   0  0  0  0  0  0
  -24.0040   -7.4651   22.7478 H   0  0  0  0  0  0
  -21.0865   -8.8736   19.8938 H   0  0  0  0  0  0
  -22.3699  -10.9648   19.6150 H   0  0  0  0  0  0
  -21.1994   -7.6157   23.9735 H   0  0  0  0  0  0
  -21.1532   -6.0535   25.9103 H   0  0  0  0  0  0
  -22.0561   -2.7603   23.2864 H   0  0  0  0  0  0
  -22.4065  -11.9838   22.4777 H   0  0  0  0  0  0
  -21.1049  -13.1184   22.2635 H   0  0  0  0  0  0
  -24.6395  -15.8452   20.4812 H   0  0  0  0  0  0
  -26.2712  -15.6310   20.0904 H   0  0  0  0  0  0
  -26.7186  -32.5386   23.1001 H   0  0  0  0  0  0
  -25.0063  -33.9682   25.0346 H   0  0  0  0  0  0
  -22.7202  -31.2951   21.3860 H   0  0  0  0  0  0
  -23.3773  -35.9617   23.3246 H   0  0  0  0  0  0
  -24.3601  -36.8991   22.2060 H   0  0  0  0  0  0
  -23.7276  -37.6468   23.6712 H   0  0  0  0  0  0
  -26.1060  -31.5267   20.6014 H   0  0  0  0  0  0
  -26.8439  -30.8145   22.0055 H   0  0  0  0  0  0
  -28.1063  -28.9265   21.2036 H   0  0  0  0  0  0
  -25.9513  -25.8751   19.0281 H   0  0  0  0  0  0
  -23.9714  -27.2840   19.0117 H   0  0  0  0  0  0
  -23.7657  -30.5780   19.3936 H   0  0  0  0  0  0
  -22.7604  -29.2365   19.8501 H   0  0  0  0  0  0
  -25.1312  -36.1869   25.0804 H   0  0  0  0  0  0
  -20.9978  -28.3274   24.1374 H   0  0  0  0  0  0
  -20.5680  -26.2299   23.3585 H   0  0  0  0  0  0
  -21.6669  -26.7431   22.1202 H   0  0  0  0  0  0
  -19.6958  -25.6278   21.1231 H   0  0  0  0  0  0
  -19.6735  -27.3157   20.6686 H   0  0  0  0  0  0
  -17.4226  -26.6635   21.3984 H   0  0  0  0  0  0
  -18.0364  -26.0043   22.8968 H   0  0  0  0  0  0
  -19.7961  -30.7237   24.2252 H   0  0  0  0  0  0
  -17.5049  -31.6251   24.5159 H   0  0  0  0  0  0
  -15.5374  -30.2976   23.7659 H   0  0  0  0  0  0
  -15.8680  -28.0820   22.7052 H   0  0  0  0  0  0
  -24.5900  -30.7082   25.7678 H   0  0  0  0  0  0
  -24.8919  -32.2878   26.4799 H   0  0  0  0  0  0
  -25.8028  -30.8865   27.0160 H   0  0  0  0  0  0
  -26.2984  -29.6688   24.1257 H   0  0  0  0  0  0
  -27.4144  -29.7322   25.4702 H   0  0  0  0  0  0
  -27.8816  -30.4279   23.9380 H   0  0  0  0  0  0
  -27.2663  -33.3639   26.1996 H   0  0  0  0  0  0
  -28.3863  -32.6893   25.0270 H   0  0  0  0  0  0
  -28.0726  -31.8480   26.5380 H   0  0  0  0  0  0
  -28.2556  -38.0130   24.7550 H   0  0  0  0  0  0
  -28.1142  -36.2659   24.6216 H   0  0  0  0  0  0
  -27.2307  -37.1357   25.8855 H   0  0  0  0  0  0
  -20.9371  -29.8783   21.6862 H   0  0  0  0  0  0
  -26.0161  -38.2822   24.1434 H   0  0  0  0  0  0
  -28.6443  -17.9343   16.8961 H   0  0  0  0  0  0
  -29.4650  -16.0542   18.1782 H   0  0  0  0  0  0
  -29.5289  -18.5438   21.7088 H   0  0  0  0  0  0
  -31.5032  -23.8461   18.2695 H   0  0  0  0  0  0
  -29.9242  -23.5720   17.5925 H   0  0  0  0  0  0
  -30.1048  -25.8880   18.4335 H   0  0  0  0  0  0
  -30.6020  -25.3179   20.0048 H   0  0  0  0  0  0
  -30.8702  -22.7054   20.3925 H   0  0  0  0  0  0
  -30.6603  -21.6543   19.0142 H   0  0  0  0  0  0
  -27.2311  -23.5544   20.6758 H   0  0  0  0  0  0
  -28.7672  -23.8208   21.4464 H   0  0  0  0  0  0
  -27.8870  -24.9766   18.7146 H   0  0  0  0  0  0
  -29.1780  -21.0598   21.5172 H   0  0  0  0  0  0
  -27.5684  -21.0094   20.8925 H   0  0  0  0  0  0
  -29.1045  -15.6177   21.4749 H   0  0  0  0  0  0
  -28.3501  -22.2593   18.9850 H   0  0  0  0  0  0
  1 25  1  0  0  0
  1 30  2  0  0  0
  1 84  1  0  0  0
  2  3  1  0  0  0
  2 25  1  0  0  0
  2 89  1  0  0  0
  2 90  1  0  0  0
  3  4  1  0  0  0
  3 91  1  0  0  0
  3 92  1  0  0  0
  4  5  1  0  0  0
  4 93  1  0  0  0
  4 94  1  0  0  0
  5  6  1  0  0  0
  5 26  1  0  0  0
  5 95  1  0  0  0
  6 25  1  0  0  0
  6 96  1  0  0  0
  6 97  1  0  0  0
  7  8  2  0  0  0
  7 26  1  0  0  0
  7 29  1  0  0  0
  8  9  1  0  0  0
  8 22  1  0  0  0
  9 10  1  0  0  0
  9 27  2  0  0  0
 10 11  2  0  0  0
 10 15  1  0  0  0
 11 12  1  0  0  0
 11 98  1  0  0  0
 12 13  2  0  0  0
 12 99  1  0  0  0
 13 14  1  0  0  0
 13 31  1  0  0  0
 14 15  2  0  0  0
 14100  1  0  0  0
 15101  1  0  0  0
 16 17  2  0  0  0
 16 21  1  0  0  0
 16 31  1  0  0  0
 17 18  1  0  0  0
 17102  1  0  0  0
 18 19  2  0  0  0
 18103  1  0  0  0
 19 20  1  0  0  0
 19 24  1  0  0  0
 20 21  2  0  0  0
 20104  1  0  0  0
 21 23  1  0  0  0
 22 28  1  0  0  0
 22 32  2  0  0  0
 26 27  1  0  0  0
 28105  1  0  0  0
 28106  1  0  0  0
 29107  1  0  0  0
 29108  1  0  0  0
 33 34  1  0  0  0
 33 66  1  0  0  0
 33 70  2  0  0  0
 34 36  1  0  0  0
 34 59  1  0  0  0
 34109  1  0  0  0
 35 44  2  0  0  0
 35 45  1  0  0  0
 35 68  1  0  0  0
 36 56  1  0  0  0
 36110  1  0  0  0
 37 39  1  0  0  0
 37 47  1  0  0  0
 37 66  1  0  0  0
 37111  1  0  0  0
 38 43  2  0  0  0
 38 46  1  0  0  0
 38 47  1  0  0  0
 39 64  1  0  0  0
 39 67  2  0  0  0
 40 52  1  0  0  0
 40 53  2  0  0  0
 40 58  1  0  0  0
 41112  1  0  0  0
 41113  1  0  0  0
 41114  1  0  0  0
 41 48  1  0  0  0
 42 43  1  0  0  0
 42 66  1  0  0  0
 42115  1  0  0  0
 42116  1  0  0  0
 43 44  1  0  0  0
 44117  1  0  0  0
 45 46  2  0  0  0
 45118  1  0  0  0
 46119  1  0  0  0
 47120  1  0  0  0
 47121  1  0  0  0
 48 56  1  0  0  0
 48 65  1  0  0  0
 48122  1  0  0  0
 49 50  1  0  0  0
 49 53  1  0  0  0
 49 64  1  0  0  0
 49123  1  0  0  0
 50 51  1  0  0  0
 50124  1  0  0  0
 50125  1  0  0  0
 51 52  1  0  0  0
 51126  1  0  0  0
 51127  1  0  0  0
 52128  1  0  0  0
 52129  1  0  0  0
 53 54  1  0  0  0
 54 55  2  0  0  0
 54130  1  0  0  0
 55 57  1  0  0  0
 55131  1  0  0  0
 56 69  2  0  0  0
 57 58  2  0  0  0
 57132  1  0  0  0
 58133  1  0  0  0
 59 60  1  0  0  0
 59 61  1  0  0  0
 59 62  1  0  0  0
 60134  1  0  0  0
 60135  1  0  0  0
 60136  1  0  0  0
 61137  1  0  0  0
 61138  1  0  0  0
 61139  1  0  0  0
 62140  1  0  0  0
 62141  1  0  0  0
 62142  1  0  0  0
 63 65  1  0  0  0
 63143  1  0  0  0
 63144  1  0  0  0
 63145  1  0  0  0
 64146  1  0  0  0
 65147  1  0  0  0
 68 81  1  0  0  0
 71 72  2  0  0  0
 71 74  1  0  0  0
 71148  1  0  0  0
 72 76  1  0  0  0
 72149  1  0  0  0
 73 75  1  0  0  0
 73 76  2  0  0  0
 73150  1  0  0  0
 74 75  2  0  0  0
 74 83  1  0  0  0
 75 82  1  0  0  0
 76 84  1  0  0  0
 77 78  1  0  0  0
 77 79  1  0  0  0
 77151  1  0  0  0
 77152  1  0  0  0
 78 81  1  0  0  0
 78153  1  0  0  0
 78154  1  0  0  0
 79 85  1  0  0  0
 79155  1  0  0  0
 79156  1  0  0  0
 80 81  1  0  0  0
 80 85  1  0  0  0
 80157  1  0  0  0
 80158  1  0  0  0
 81159  1  0  0  0
 82160  1  0  0  0
 82161  1  0  0  0
 82 85  1  0  0  0
 83 86  1  0  0  0
 83 87  1  0  0  0
 83 88  1  0  0  0
 84162  1  0  0  0
 85163  1  0  0  0
M  CHG  1  85   1
M  ISO  4   1 100  68 101  81 101  84 100
M  END
> <chiral flag>
0

> <version>
0

> <s_m_source_file>
/data/baiqing/PycharmProjects/Reinvent-master-3.2/result/LINK_invent/BTK/process_docking_weight1_custom_product_contain_oxygen_bond_distance_aromatic_linkinvent_7_9_3/rearranged_h_0049.sdf

> <i_m_source_file_index>
17

> <r_mmod_Potential_Energy-OPLS-2005>
122.821426391602

> <r_mmod_Stretch_Energy-OPLS-2005>
132.280380249023

> <r_mmod_Bend_Energy-OPLS-2005>
183.312561035156

> <r_mmod_Torsional_Energy-OPLS-2005>
271.315185546875

> <r_mmod_Improper_Torsional_Energy-OPLS-2005>
5.94931650161743

> <r_mmod_Van_der_Waal_Energy-OPLS-2005>
139.746444702148

> <r_mmod_Electrostatic_Energy-OPLS-2005>
-266.53662109375

> <r_mmod_Solvation_Energy-OPLS-2005>
-423.489074707031

> <b_mmod_Minimization_Converged-OPLS-2005>
0

> <r_mmod_RMS_Derivative-OPLS-2005>
2.58832359313965

$$$$
17
                    3D
 Structure written by MMmdl.
164173  0  0  1  0            999 V2000
  -30.6491  -14.5867   20.5394 C   0  0  0  0  0  0
  -30.4478  -12.3771   19.4155 C   0  0  0  0  0  0
  -29.5009  -12.4904   18.2002 C   0  0  0  0  0  0
  -28.0275  -12.3258   18.6250 C   0  0  0  0  0  0
  -27.6590  -13.2010   19.8535 C   0  0  2  0  0  0
  -28.7107  -13.0298   20.9742 C   0  0  0  0  0  0
  -25.2634  -13.8142   20.5678 C   0  0  0  0  0  0
  -24.1883  -13.0440   20.9204 C   0  0  0  0  0  0
  -24.6428  -11.6908   20.8743 C   0  0  0  0  0  0
  -23.9101  -10.4295   21.0419 C   0  0  0  0  0  0
  -24.3649   -9.4200   21.9189 C   0  0  0  0  0  0
  -23.6314   -8.2242   22.0756 C   0  0  0  0  0  0
  -22.4281   -8.0316   21.3572 C   0  0  0  0  0  0
  -21.9938   -9.0302   20.4661 C   0  0  0  0  0  0
  -22.7289  -10.2156   20.3060 C   0  0  0  0  0  0
  -21.6834   -6.0759   22.5305 C   0  0  0  0  0  0
  -21.4016   -6.5644   23.8244 C   0  0  0  0  0  0
  -21.3652   -5.6775   24.9187 C   0  0  0  0  0  0
  -21.6040   -4.3046   24.7231 C   0  0  0  0  0  0
  -21.8820   -3.8159   23.4347 C   0  0  0  0  0  0
  -21.9201   -4.6993   22.3405 C   0  0  0  0  0  0
  -22.7918  -13.5278   21.1839 C   0  0  0  0  0  0
  -22.1670   -4.2177   21.0986 F   0  0  0  0  0  0
  -21.5613   -3.4533   25.7739 F   0  0  0  0  0  0
  -30.0235  -13.3782   20.4081 N   0  0  0  0  0  0
  -26.3036  -12.9290   20.3301 N   0  0  0  0  0  0
  -25.9337  -11.6457   20.5758 N   0  0  0  0  0  0
  -22.0539  -12.8279   22.0377 N   0  0  0  0  0  0
  -25.4340  -15.1864   20.4069 N   0  0  0  0  0  0
  -31.8145  -14.7695   20.1804 O   0  0  0  0  0  0
  -21.6635   -6.8930   21.4277 O   0  0  0  0  0  0
  -22.3628  -14.5607   20.6703 O   0  0  0  0  0  0
  -24.6217  -31.8622   23.2016 C   0  0  0  0  0  0
  -25.9089  -32.4789   23.8337 C   0  0  1  0  0  0
  -27.2258  -27.3736   20.1026 C   0  0  0  0  0  0
  -25.5937  -33.8584   24.2282 N   0  0  0  0  0  0
  -23.4112  -30.4814   21.5462 C   0  0  2  0  0  0
  -24.8564  -28.9332   20.1118 C   0  0  0  0  0  0
  -22.7427  -29.4635   22.4996 C   0  0  0  0  0  0
  -18.0253  -28.1414   22.8506 C   0  0  0  0  0  0
  -24.1481  -36.7219   23.2629 C   0  0  0  0  0  0
  -25.9452  -30.8027   21.3651 C   0  0  0  0  0  0
  -26.0198  -29.4349   20.7073 C   0  0  0  0  0  0
  -27.2151  -28.6675   20.6872 C   0  0  0  0  0  0
  -26.0406  -26.8899   19.5119 C   0  0  0  0  0  0
  -24.8645  -27.6643   19.5107 C   0  0  0  0  0  0
  -23.6187  -29.8051   20.1645 C   0  0  0  0  0  0
  -25.4117  -36.3080   24.0330 C   0  0  1  0  0  0
  -20.5869  -28.3653   23.1352 C   0  0  2  0  0  0
  -20.6735  -26.9395   22.5433 C   0  0  0  0  0  0
  -19.5705  -26.6415   21.5225 C   0  0  0  0  0  0
  -18.1896  -26.7974   22.1646 C   0  0  0  0  0  0
  -19.1529  -28.8858   23.2928 C   0  0  0  0  0  0
  -18.9456  -30.1466   23.8930 C   0  0  0  0  0  0
  -17.6462  -30.6629   24.0596 C   0  0  0  0  0  0
  -25.9058  -34.9452   23.5112 C   0  0  0  0  0  0
  -16.5335  -29.9140   23.6358 C   0  0  0  0  0  0
  -16.7254  -28.6557   23.0374 C   0  0  0  0  0  0
  -26.4496  -31.6560   25.0668 C   0  0  0  0  0  0
  -25.3787  -31.3634   26.1426 C   0  0  0  0  0  0
  -27.0258  -30.2990   24.6036 C   0  0  0  0  0  0
  -27.6083  -32.4220   25.7453 C   0  0  0  0  0  0
  -27.5564  -37.1773   24.8490 C   0  0  0  0  0  0
  -21.4155  -29.3022   22.3742 N   0  0  0  0  0  0
  -26.4287  -37.3781   23.9423 N   0  0  0  0  0  0
  -24.6770  -31.0660   22.0938 N   0  0  0  0  0  0
  -23.4186  -28.8210   23.3081 O   0  0  0  0  0  0
  -28.3655  -26.5822   20.0902 O   0  0  0  0  0  0
  -26.5635  -34.8921   22.4686 O   0  0  0  0  0  0
  -23.5412  -32.1392   23.7396 O   0  0  0  0  0  0
  -29.9254  -19.5239   22.5630 C   0  0  0  0  0  0
  -29.6979  -18.3829   23.3490 C   0  0  0  0  0  0
  -30.2871  -18.0903   20.6220 C   0  0  0  0  0  0
  -30.2444  -19.3994   21.2006 C   0  0  0  0  0  0
  -29.7695  -17.0895   22.7904 C   0  0  0  0  0  0
  -30.0393  -16.9177   21.4085 C   0  0  0  0  0  0
  -29.2681  -22.8225   20.8442 C   0  0  0  0  0  0
  -29.1320  -22.7172   17.9248 C   0  0  0  0  0  0
  -29.1536  -24.0726   18.6787 C   0  0  0  0  0  0
  -28.8729  -21.5013   18.8456 C   0  0  0  0  0  0
  -28.4972  -23.9581   20.0754 C   0  0  2  0  0  0
  -29.5446  -15.8986   23.7068 C   0  0  0  0  0  0
  -30.6065  -20.6874   20.4318 C   0  0  0  0  0  0
  -28.2835  -25.3266   20.8318 C   0  0  0  0  0  0
  -29.5249  -21.6716   20.1482 N   0  0  0  0  0  0
  -29.8095  -15.6146   20.8332 N   0  0  0  0  0  0
  -29.6757  -23.0023   21.9968 O   0  0  0  0  0  0
  -31.4840  -12.5194   19.1056 H   0  0  0  0  0  0
  -30.3980  -11.3785   19.8494 H   0  0  0  0  0  0
  -29.7566  -11.7336   17.4591 H   0  0  0  0  0  0
  -29.6327  -13.4569   17.7117 H   0  0  0  0  0  0
  -27.8739  -11.2724   18.8657 H   0  0  0  0  0  0
  -27.3639  -12.5402   17.7860 H   0  0  0  0  0  0
  -27.6823  -14.2376   19.5127 H   0  0  0  0  0  0
  -28.7261  -11.9980   21.3262 H   0  0  0  0  0  0
  -28.4597  -13.6311   21.8466 H   0  0  0  0  0  0
  -25.2800   -9.5649   22.4764 H   0  0  0  0  0  0
  -24.0034   -7.4600   22.7434 H   0  0  0  0  0  0
  -21.0881   -8.8864   19.8928 H   0  0  0  0  0  0
  -22.3815  -10.9729   19.6163 H   0  0  0  0  0  0
  -21.2007   -7.6139   23.9789 H   0  0  0  0  0  0
  -21.1464   -6.0471   25.9100 H   0  0  0  0  0  0
  -22.0598   -2.7636   23.2830 H   0  0  0  0  0  0
  -22.4135  -11.9947   22.4769 H   0  0  0  0  0  0
  -21.1164  -13.1344   22.2554 H   0  0  0  0  0  0
  -24.6594  -15.8339   20.5115 H   0  0  0  0  0  0
  -26.2793  -15.6385   20.0821 H   0  0  0  0  0  0
  -26.7123  -32.5451   23.1047 H   0  0  0  0  0  0
  -25.0092  -33.9748   25.0438 H   0  0  0  0  0  0
  -22.7018  -31.3000   21.4059 H   0  0  0  0  0  0
  -23.3779  -35.9516   23.3346 H   0  0  0  0  0  0
  -24.3541  -36.8765   22.2018 H   0  0  0  0  0  0
  -23.7197  -37.6422   23.6600 H   0  0  0  0  0  0
  -26.0838  -31.5673   20.6016 H   0  0  0  0  0  0
  -26.8253  -30.8446   21.9947 H   0  0  0  0  0  0
  -28.1183  -29.0502   21.1395 H   0  0  0  0  0  0
  -26.0207  -25.9104   19.0536 H   0  0  0  0  0  0
  -23.9661  -27.2742   19.0515 H   0  0  0  0  0  0
  -23.7139  -30.5722   19.3952 H   0  0  0  0  0  0
  -22.7429  -29.2192   19.8818 H   0  0  0  0  0  0
  -25.1306  -36.1909   25.0825 H   0  0  0  0  0  0
  -20.9952  -28.3174   24.1470 H   0  0  0  0  0  0
  -20.5631  -26.2227   23.3588 H   0  0  0  0  0  0
  -21.6606  -26.7441   22.1215 H   0  0  0  0  0  0
  -19.6841  -25.6331   21.1229 H   0  0  0  0  0  0
  -19.6670  -27.3256   20.6780 H   0  0  0  0  0  0
  -17.4149  -26.6730   21.4053 H   0  0  0  0  0  0
  -18.0290  -26.0142   22.9064 H   0  0  0  0  0  0
  -19.7928  -30.7307   24.2299 H   0  0  0  0  0  0
  -17.5011  -31.6327   24.5192 H   0  0  0  0  0  0
  -15.5340  -30.3072   23.7683 H   0  0  0  0  0  0
  -15.8627  -28.0909   22.7070 H   0  0  0  0  0  0
  -24.6020  -30.6912   25.7745 H   0  0  0  0  0  0
  -24.8920  -32.2754   26.4876 H   0  0  0  0  0  0
  -25.8213  -30.8815   27.0159 H   0  0  0  0  0  0
  -26.2732  -29.6807   24.1119 H   0  0  0  0  0  0
  -27.4006  -29.7172   25.4462 H   0  0  0  0  0  0
  -27.8621  -30.4245   23.9157 H   0  0  0  0  0  0
  -27.2748  -33.3484   26.2151 H   0  0  0  0  0  0
  -28.3909  -32.6833   25.0307 H   0  0  0  0  0  0
  -28.0777  -31.8256   26.5299 H   0  0  0  0  0  0
  -28.2661  -38.0004   24.7543 H   0  0  0  0  0  0
  -28.1014  -36.2557   24.6362 H   0  0  0  0  0  0
  -27.2280  -37.1452   25.8898 H   0  0  0  0  0  0
  -20.9285  -29.8684   21.6919 H   0  0  0  0  0  0
  -26.0167  -38.2841   24.1486 H   0  0  0  0  0  0
  -29.8788  -20.5032   23.0224 H   0  0  0  0  0  0
  -29.4680  -18.5116   24.3988 H   0  0  0  0  0  0
  -30.4879  -17.9862   19.5650 H   0  0  0  0  0  0
  -30.0825  -22.5820   17.4060 H   0  0  0  0  0  0
  -28.3692  -22.7376   17.1448 H   0  0  0  0  0  0
  -28.6632  -24.8348   18.0736 H   0  0  0  0  0  0
  -30.1904  -24.4039   18.7830 H   0  0  0  0  0  0
  -29.1810  -20.5798   18.3528 H   0  0  0  0  0  0
  -27.8011  -21.3808   19.0279 H   0  0  0  0  0  0
  -27.4910  -23.5686   19.9168 H   0  0  0  0  0  0
  -30.2848  -15.1201   23.5184 H   0  0  0  0  0  0
  -28.5474  -15.4854   23.5607 H   0  0  0  0  0  0
  -29.6324  -16.1896   24.7543 H   0  0  0  0  0  0
  -31.0975  -20.4069   19.4956 H   0  0  0  0  0  0
  -31.4009  -21.1921   20.9867 H   0  0  0  0  0  0
  -27.3061  -25.2580   21.3126 H   0  0  0  0  0  0
  -28.9767  -25.4249   21.6646 H   0  0  0  0  0  0
  -28.8548  -15.3056   20.9201 H   0  0  0  0  0  0
  1 25  1  0  0  0
  1 30  2  0  0  0
  1 86  1  0  0  0
  2  3  1  0  0  0
  2 25  1  0  0  0
  2 88  1  0  0  0
  2 89  1  0  0  0
  3  4  1  0  0  0
  3 90  1  0  0  0
  3 91  1  0  0  0
  4  5  1  0  0  0
  4 92  1  0  0  0
  4 93  1  0  0  0
  5  6  1  0  0  0
  5 26  1  0  0  0
  5 94  1  0  0  0
  6 25  1  0  0  0
  6 95  1  0  0  0
  6 96  1  0  0  0
  7  8  2  0  0  0
  7 26  1  0  0  0
  7 29  1  0  0  0
  8  9  1  0  0  0
  8 22  1  0  0  0
  9 10  1  0  0  0
  9 27  2  0  0  0
 10 11  2  0  0  0
 10 15  1  0  0  0
 11 12  1  0  0  0
 11 97  1  0  0  0
 12 13  2  0  0  0
 12 98  1  0  0  0
 13 14  1  0  0  0
 13 31  1  0  0  0
 14 15  2  0  0  0
 14 99  1  0  0  0
 15100  1  0  0  0
 16 17  2  0  0  0
 16 21  1  0  0  0
 16 31  1  0  0  0
 17 18  1  0  0  0
 17101  1  0  0  0
 18 19  2  0  0  0
 18102  1  0  0  0
 19 20  1  0  0  0
 19 24  1  0  0  0
 20 21  2  0  0  0
 20103  1  0  0  0
 21 23  1  0  0  0
 22 28  1  0  0  0
 22 32  2  0  0  0
 26 27  1  0  0  0
 28104  1  0  0  0
 28105  1  0  0  0
 29106  1  0  0  0
 29107  1  0  0  0
 33 34  1  0  0  0
 33 66  1  0  0  0
 33 70  2  0  0  0
 34 36  1  0  0  0
 34 59  1  0  0  0
 34108  1  0  0  0
 35 44  2  0  0  0
 35 45  1  0  0  0
 35 68  1  0  0  0
 36 56  1  0  0  0
 36109  1  0  0  0
 37 39  1  0  0  0
 37 47  1  0  0  0
 37 66  1  0  0  0
 37110  1  0  0  0
 38 43  2  0  0  0
 38 46  1  0  0  0
 38 47  1  0  0  0
 39 64  1  0  0  0
 39 67  2  0  0  0
 40 52  1  0  0  0
 40 53  2  0  0  0
 40 58  1  0  0  0
 41111  1  0  0  0
 41112  1  0  0  0
 41113  1  0  0  0
 41 48  1  0  0  0
 42 43  1  0  0  0
 42 66  1  0  0  0
 42114  1  0  0  0
 42115  1  0  0  0
 43 44  1  0  0  0
 44116  1  0  0  0
 45 46  2  0  0  0
 45117  1  0  0  0
 46118  1  0  0  0
 47119  1  0  0  0
 47120  1  0  0  0
 48 56  1  0  0  0
 48 65  1  0  0  0
 48121  1  0  0  0
 49 50  1  0  0  0
 49 53  1  0  0  0
 49 64  1  0  0  0
 49122  1  0  0  0
 50 51  1  0  0  0
 50123  1  0  0  0
 50124  1  0  0  0
 51 52  1  0  0  0
 51125  1  0  0  0
 51126  1  0  0  0
 52127  1  0  0  0
 52128  1  0  0  0
 53 54  1  0  0  0
 54 55  2  0  0  0
 54129  1  0  0  0
 55 57  1  0  0  0
 55130  1  0  0  0
 56 69  2  0  0  0
 57 58  2  0  0  0
 57131  1  0  0  0
 58132  1  0  0  0
 59 60  1  0  0  0
 59 61  1  0  0  0
 59 62  1  0  0  0
 60133  1  0  0  0
 60134  1  0  0  0
 60135  1  0  0  0
 61136  1  0  0  0
 61137  1  0  0  0
 61138  1  0  0  0
 62139  1  0  0  0
 62140  1  0  0  0
 62141  1  0  0  0
 63 65  1  0  0  0
 63142  1  0  0  0
 63143  1  0  0  0
 63144  1  0  0  0
 64145  1  0  0  0
 65146  1  0  0  0
 68 84  1  0  0  0
 71 72  2  0  0  0
 71 74  1  0  0  0
 71147  1  0  0  0
 72 75  1  0  0  0
 72148  1  0  0  0
 73 74  2  0  0  0
 73 76  1  0  0  0
 73149  1  0  0  0
 74 83  1  0  0  0
 75 76  2  0  0  0
 75 82  1  0  0  0
 76 86  1  0  0  0
 77 81  1  0  0  0
 77 85  1  0  0  0
 77 87  2  0  0  0
 78 79  1  0  0  0
 78 80  1  0  0  0
 78150  1  0  0  0
 78151  1  0  0  0
 79 81  1  0  0  0
 79152  1  0  0  0
 79153  1  0  0  0
 80 85  1  0  0  0
 80154  1  0  0  0
 80155  1  0  0  0
 81 84  1  0  0  0
 81156  1  0  0  0
 82157  1  0  0  0
 82158  1  0  0  0
 82159  1  0  0  0
 83 85  1  0  0  0
 83160  1  0  0  0
 83161  1  0  0  0
 84162  1  0  0  0
 84163  1  0  0  0
 86164  1  0  0  0
M  ISO  4   1 100  68 101  84 101  86 100
M  END
> <chiral flag>
0

> <version>
0

> <s_m_source_file>
/data/baiqing/PycharmProjects/Reinvent-master-3.2/result/LINK_invent/BTK/process_docking_weight1_custom_product_contain_oxygen_bond_distance_aromatic_linkinvent_7_9_3/rearranged_h_0049.sdf

> <i_m_source_file_index>
18

> <r_mmod_Potential_Energy-OPLS-2005>
89.4905471801758

> <r_mmod_Stretch_Energy-OPLS-2005>
59.0158576965332

> <r_mmod_Bend_Energy-OPLS-2005>
123.89102935791

> <r_mmod_Torsional_Energy-OPLS-2005>
316.016296386719

> <r_mmod_Improper_Torsional_Energy-OPLS-2005>
9.50290393829346

> <r_mmod_Van_der_Waal_Energy-OPLS-2005>
153.433349609375

> <r_mmod_Electrostatic_Energy-OPLS-2005>
-382.149322509766

> <r_mmod_Solvation_Energy-OPLS-2005>
-221.619201660156

> <b_mmod_Minimization_Converged-OPLS-2005>
0

> <r_mmod_RMS_Derivative-OPLS-2005>
5.5800609588623

$$$$
18
                    3D
 Structure written by MMmdl.
154162  0  0  1  0            999 V2000
  -30.6188  -14.7529   20.4384 C   0  0  0  0  0  0
  -30.4276  -12.4573   19.4854 C   0  0  0  0  0  0
  -29.5149  -12.5292   18.2417 C   0  0  0  0  0  0
  -28.0349  -12.3597   18.6391 C   0  0  0  0  0  0
  -27.6456  -13.2399   19.8562 C   0  0  2  0  0  0
  -28.6893  -13.1779   20.9936 C   0  0  0  0  0  0
  -25.2517  -13.8220   20.5700 C   0  0  0  0  0  0
  -24.1823  -13.0453   20.9206 C   0  0  0  0  0  0
  -24.6398  -11.6935   20.8703 C   0  0  0  0  0  0
  -23.9033  -10.4336   21.0363 C   0  0  0  0  0  0
  -24.3593   -9.4264   21.9136 C   0  0  0  0  0  0
  -23.6294   -8.2282   22.0707 C   0  0  0  0  0  0
  -22.4279   -8.0287   21.3516 C   0  0  0  0  0  0
  -21.9892   -9.0239   20.4619 C   0  0  0  0  0  0
  -22.7193  -10.2143   20.3018 C   0  0  0  0  0  0
  -21.6833   -6.0750   22.5287 C   0  0  0  0  0  0
  -21.4005   -6.5654   23.8216 C   0  0  0  0  0  0
  -21.3677   -5.6789   24.9179 C   0  0  0  0  0  0
  -21.6045   -4.3048   24.7213 C   0  0  0  0  0  0
  -21.8822   -3.8136   23.4338 C   0  0  0  0  0  0
  -21.9200   -4.6978   22.3397 C   0  0  0  0  0  0
  -22.7872  -13.5242   21.1885 C   0  0  0  0  0  0
  -22.1661   -4.2177   21.0971 F   0  0  0  0  0  0
  -21.5626   -3.4534   25.7714 F   0  0  0  0  0  0
  -29.9973  -13.5228   20.4225 N   0  0  0  0  0  0
  -26.2959  -12.9452   20.3303 N   0  0  0  0  0  0
  -25.9344  -11.6587   20.5727 N   0  0  0  0  0  0
  -22.0506  -12.8242   22.0442 N   0  0  0  0  0  0
  -25.4182  -15.1960   20.4135 N   0  0  0  0  0  0
  -31.7907  -14.8422   20.0589 O   0  0  0  0  0  0
  -21.6629   -6.8894   21.4241 O   0  0  0  0  0  0
  -22.3570  -14.5532   20.6706 O   0  0  0  0  0  0
  -24.6317  -31.8565   23.1977 C   0  0  0  0  0  0
  -25.9154  -32.4750   23.8325 C   0  0  1  0  0  0
  -27.2360  -27.2672   20.1248 C   0  0  0  0  0  0
  -25.5978  -33.8562   24.2251 N   0  0  0  0  0  0
  -23.4299  -30.4763   21.5387 C   0  0  2  0  0  0
  -24.8782  -28.9236   20.1120 C   0  0  0  0  0  0
  -22.7502  -29.4629   22.4906 C   0  0  0  0  0  0
  -18.0312  -28.1404   22.8479 C   0  0  0  0  0  0
  -24.1490  -36.7261   23.2634 C   0  0  0  0  0  0
  -25.9748  -30.7674   21.3782 C   0  0  0  0  0  0
  -26.0472  -29.3916   20.7223 C   0  0  0  0  0  0
  -27.2265  -28.5742   20.7199 C   0  0  0  0  0  0
  -26.0415  -26.8786   19.4735 C   0  0  0  0  0  0
  -24.8798  -27.6730   19.4817 C   0  0  0  0  0  0
  -23.6472  -29.8045   20.1576 C   0  0  0  0  0  0
  -25.4117  -36.3048   24.0318 C   0  0  1  0  0  0
  -20.5913  -28.3709   23.1238 C   0  0  2  0  0  0
  -20.6790  -26.9419   22.5387 C   0  0  0  0  0  0
  -19.5773  -26.6384   21.5196 C   0  0  0  0  0  0
  -18.1957  -26.7940   22.1600 C   0  0  0  0  0  0
  -19.1560  -28.8869   23.2858 C   0  0  0  0  0  0
  -18.9479  -30.1466   23.8878 C   0  0  0  0  0  0
  -17.6476  -30.6588   24.0559 C   0  0  0  0  0  0
  -25.9066  -34.9427   23.5070 C   0  0  0  0  0  0
  -16.5382  -29.9069   23.6334 C   0  0  0  0  0  0
  -16.7296  -28.6496   23.0352 C   0  0  0  0  0  0
  -26.4536  -31.6556   25.0698 C   0  0  0  0  0  0
  -25.3758  -31.3690   26.1403 C   0  0  0  0  0  0
  -27.0420  -30.2991   24.6200 C   0  0  0  0  0  0
  -27.6114  -32.4305   25.7461 C   0  0  0  0  0  0
  -27.5593  -37.1760   24.8447 C   0  0  0  0  0  0
  -21.4206  -29.3063   22.3617 N   0  0  0  0  0  0
  -26.4267  -37.3774   23.9432 N   0  0  0  0  0  0
  -24.6971  -31.0512   22.0951 N   0  0  0  0  0  0
  -23.4173  -28.8157   23.3026 O   0  0  0  0  0  0
  -28.3359  -26.3720   20.2001 O   0  0  0  0  0  0
  -26.5607  -34.8926   22.4631 O   0  0  0  0  0  0
  -23.5466  -32.1380   23.7251 O   0  0  0  0  0  0
  -29.7871  -18.4665   17.9516 C   0  0  0  0  0  0
  -29.8633  -17.2550   18.6683 C   0  0  0  0  0  0
  -29.7569  -18.5269   20.7308 C   0  0  0  0  0  0
  -29.7055  -19.7232   18.5944 C   0  0  0  0  0  0
  -29.6568  -19.8016   20.0178 C   0  0  0  0  0  0
  -29.8775  -17.2253   20.0810 C   0  0  0  0  0  0
  -29.1197  -23.8030   20.4389 C   0  0  0  0  0  0
  -29.7136  -20.9593   17.7004 C   0  0  0  0  0  0
  -29.5955  -21.2145   20.7727 C   0  0  0  0  0  0
  -28.1081  -24.9136   19.8825 C   0  0  0  0  0  0
  -29.8901  -15.8941   20.7536 N   0  0  0  0  0  0
  -28.8928  -22.4508   20.2086 N   0  0  0  0  0  0
  -30.0975  -24.1719   21.0947 O   0  0  0  0  0  0
  -31.4718  -12.5651   19.1873 H   0  0  0  0  0  0
  -30.3519  -11.4794   19.9632 H   0  0  0  0  0  0
  -29.8027  -11.7700   17.5140 H   0  0  0  0  0  0
  -29.6564  -13.4909   17.7481 H   0  0  0  0  0  0
  -27.8728  -11.3072   18.8696 H   0  0  0  0  0  0
  -27.3794  -12.5841   17.7970 H   0  0  0  0  0  0
  -27.6413  -14.2683   19.4921 H   0  0  0  0  0  0
  -28.7238  -12.1853   21.4473 H   0  0  0  0  0  0
  -28.4254  -13.8731   21.7901 H   0  0  0  0  0  0
  -25.2736   -9.5767   22.4724 H   0  0  0  0  0  0
  -24.0023   -7.4664   22.7423 H   0  0  0  0  0  0
  -21.0828   -8.8702   19.8957 H   0  0  0  0  0  0
  -22.3562  -10.9652   19.6124 H   0  0  0  0  0  0
  -21.1974   -7.6147   23.9722 H   0  0  0  0  0  0
  -21.1509   -6.0520   25.9089 H   0  0  0  0  0  0
  -22.0592   -2.7617   23.2795 H   0  0  0  0  0  0
  -22.4039  -11.9864   22.4823 H   0  0  0  0  0  0
  -21.1127  -13.1284   22.2588 H   0  0  0  0  0  0
  -24.6567  -15.8492   20.5605 H   0  0  0  0  0  0
  -26.2389  -15.6301   20.0099 H   0  0  0  0  0  0
  -26.7210  -32.5375   23.1050 H   0  0  0  0  0  0
  -25.0197  -33.9707   25.0441 H   0  0  0  0  0  0
  -22.7298  -31.2983   21.3852 H   0  0  0  0  0  0
  -23.3802  -35.9536   23.3191 H   0  0  0  0  0  0
  -24.3606  -36.8995   22.2068 H   0  0  0  0  0  0
  -23.7175  -37.6406   23.6726 H   0  0  0  0  0  0
  -26.1090  -31.5278   20.6055 H   0  0  0  0  0  0
  -26.8536  -30.8188   22.0085 H   0  0  0  0  0  0
  -28.1180  -28.9354   21.2110 H   0  0  0  0  0  0
  -25.9690  -25.9344   18.9569 H   0  0  0  0  0  0
  -23.9859  -27.3056   18.9953 H   0  0  0  0  0  0
  -23.7637  -30.5704   19.3933 H   0  0  0  0  0  0
  -22.7720  -29.2237   19.8579 H   0  0  0  0  0  0
  -25.1293  -36.1873   25.0809 H   0  0  0  0  0  0
  -21.0043  -28.3292   24.1343 H   0  0  0  0  0  0
  -20.5653  -26.2345   23.3607 H   0  0  0  0  0  0
  -21.6659  -26.7411   22.1194 H   0  0  0  0  0  0
  -19.6901  -25.6278   21.1230 H   0  0  0  0  0  0
  -19.6688  -27.3180   20.6711 H   0  0  0  0  0  0
  -17.4224  -26.6701   21.4004 H   0  0  0  0  0  0
  -18.0349  -26.0078   22.8989 H   0  0  0  0  0  0
  -19.7970  -30.7302   24.2215 H   0  0  0  0  0  0
  -17.5043  -31.6271   24.5162 H   0  0  0  0  0  0
  -15.5373  -30.2970   23.7694 H   0  0  0  0  0  0
  -15.8709  -28.0821   22.7062 H   0  0  0  0  0  0
  -24.5987  -30.6988   25.7693 H   0  0  0  0  0  0
  -24.8884  -32.2843   26.4781 H   0  0  0  0  0  0
  -25.8071  -30.8888   27.0195 H   0  0  0  0  0  0
  -26.3009  -29.6694   24.1274 H   0  0  0  0  0  0
  -27.4161  -29.7308   25.4720 H   0  0  0  0  0  0
  -27.8854  -30.4271   23.9429 H   0  0  0  0  0  0
  -27.2769  -33.3654   26.1974 H   0  0  0  0  0  0
  -28.3965  -32.6774   25.0300 H   0  0  0  0  0  0
  -28.0740  -31.8457   26.5416 H   0  0  0  0  0  0
  -28.2512  -38.0158   24.7687 H   0  0  0  0  0  0
  -28.1202  -36.2716   24.6044 H   0  0  0  0  0  0
  -27.2343  -37.1127   25.8848 H   0  0  0  0  0  0
  -20.9399  -29.8768   21.6797 H   0  0  0  0  0  0
  -26.0133  -38.2815   24.1564 H   0  0  0  0  0  0
  -29.7994  -18.4244   16.8699 H   0  0  0  0  0  0
  -29.8967  -16.3385   18.0976 H   0  0  0  0  0  0
  -29.7519  -18.5619   21.8136 H   0  0  0  0  0  0
  -30.0029  -20.7122   16.6764 H   0  0  0  0  0  0
  -30.4270  -21.7057   18.0553 H   0  0  0  0  0  0
  -28.7246  -21.4126   17.6502 H   0  0  0  0  0  0
  -30.6260  -21.4864   21.0040 H   0  0  0  0  0  0
  -29.1344  -21.0298   21.7439 H   0  0  0  0  0  0
  -27.1344  -24.6093   20.2662 H   0  0  0  0  0  0
  -28.0786  -24.8138   18.7973 H   0  0  0  0  0  0
  -29.0981  -15.7226   21.3555 H   0  0  0  0  0  0
  -28.0643  -22.2470   19.6693 H   0  0  0  0  0  0
  1 25  1  0  0  0
  1 30  2  0  0  0
  1 81  1  0  0  0
  2  3  1  0  0  0
  2 25  1  0  0  0
  2 84  1  0  0  0
  2 85  1  0  0  0
  3  4  1  0  0  0
  3 86  1  0  0  0
  3 87  1  0  0  0
  4  5  1  0  0  0
  4 88  1  0  0  0
  4 89  1  0  0  0
  5  6  1  0  0  0
  5 26  1  0  0  0
  5 90  1  0  0  0
  6 25  1  0  0  0
  6 91  1  0  0  0
  6 92  1  0  0  0
  7  8  2  0  0  0
  7 26  1  0  0  0
  7 29  1  0  0  0
  8  9  1  0  0  0
  8 22  1  0  0  0
  9 10  1  0  0  0
  9 27  2  0  0  0
 10 11  2  0  0  0
 10 15  1  0  0  0
 11 12  1  0  0  0
 11 93  1  0  0  0
 12 13  2  0  0  0
 12 94  1  0  0  0
 13 14  1  0  0  0
 13 31  1  0  0  0
 14 15  2  0  0  0
 14 95  1  0  0  0
 15 96  1  0  0  0
 16 17  2  0  0  0
 16 21  1  0  0  0
 16 31  1  0  0  0
 17 18  1  0  0  0
 17 97  1  0  0  0
 18 19  2  0  0  0
 18 98  1  0  0  0
 19 20  1  0  0  0
 19 24  1  0  0  0
 20 21  2  0  0  0
 20 99  1  0  0  0
 21 23  1  0  0  0
 22 28  1  0  0  0
 22 32  2  0  0  0
 26 27  1  0  0  0
 28100  1  0  0  0
 28101  1  0  0  0
 29102  1  0  0  0
 29103  1  0  0  0
 33 34  1  0  0  0
 33 66  1  0  0  0
 33 70  2  0  0  0
 34 36  1  0  0  0
 34 59  1  0  0  0
 34104  1  0  0  0
 35 44  2  0  0  0
 35 45  1  0  0  0
 35 68  1  0  0  0
 36 56  1  0  0  0
 36105  1  0  0  0
 37 39  1  0  0  0
 37 47  1  0  0  0
 37 66  1  0  0  0
 37106  1  0  0  0
 38 43  2  0  0  0
 38 46  1  0  0  0
 38 47  1  0  0  0
 39 64  1  0  0  0
 39 67  2  0  0  0
 40 52  1  0  0  0
 40 53  2  0  0  0
 40 58  1  0  0  0
 41107  1  0  0  0
 41108  1  0  0  0
 41109  1  0  0  0
 41 48  1  0  0  0
 42 43  1  0  0  0
 42 66  1  0  0  0
 42110  1  0  0  0
 42111  1  0  0  0
 43 44  1  0  0  0
 44112  1  0  0  0
 45 46  2  0  0  0
 45113  1  0  0  0
 46114  1  0  0  0
 47115  1  0  0  0
 47116  1  0  0  0
 48 56  1  0  0  0
 48 65  1  0  0  0
 48117  1  0  0  0
 49 50  1  0  0  0
 49 53  1  0  0  0
 49 64  1  0  0  0
 49118  1  0  0  0
 50 51  1  0  0  0
 50119  1  0  0  0
 50120  1  0  0  0
 51 52  1  0  0  0
 51121  1  0  0  0
 51122  1  0  0  0
 52123  1  0  0  0
 52124  1  0  0  0
 53 54  1  0  0  0
 54 55  2  0  0  0
 54125  1  0  0  0
 55 57  1  0  0  0
 55126  1  0  0  0
 56 69  2  0  0  0
 57 58  2  0  0  0
 57127  1  0  0  0
 58128  1  0  0  0
 59 60  1  0  0  0
 59 61  1  0  0  0
 59 62  1  0  0  0
 60129  1  0  0  0
 60130  1  0  0  0
 60131  1  0  0  0
 61132  1  0  0  0
 61133  1  0  0  0
 61134  1  0  0  0
 62135  1  0  0  0
 62136  1  0  0  0
 62137  1  0  0  0
 63 65  1  0  0  0
 63138  1  0  0  0
 63139  1  0  0  0
 63140  1  0  0  0
 64141  1  0  0  0
 65142  1  0  0  0
 68 80  1  0  0  0
 71 72  2  0  0  0
 71 74  1  0  0  0
 71143  1  0  0  0
 72 76  1  0  0  0
 72144  1  0  0  0
 73 75  1  0  0  0
 73 76  2  0  0  0
 73145  1  0  0  0
 74 75  2  0  0  0
 74 78  1  0  0  0
 75 79  1  0  0  0
 76 81  1  0  0  0
 77 80  1  0  0  0
 77 82  1  0  0  0
 77 83  2  0  0  0
 78146  1  0  0  0
 78147  1  0  0  0
 78148  1  0  0  0
 79 82  1  0  0  0
 79149  1  0  0  0
 79150  1  0  0  0
 80151  1  0  0  0
 80152  1  0  0  0
 81153  1  0  0  0
 82154  1  0  0  0
M  ISO  4   1 100  68 101  80 101  81 100
M  END
> <chiral flag>
0

> <version>
0

> <s_m_source_file>
/data/baiqing/PycharmProjects/Reinvent-master-3.2/result/LINK_invent/BTK/process_docking_weight1_custom_product_contain_oxygen_bond_distance_aromatic_linkinvent_7_9_3/rearranged_h_0049.sdf

> <i_m_source_file_index>
19

> <r_mmod_Potential_Energy-OPLS-2005>
100.975120544434

> <r_mmod_Stretch_Energy-OPLS-2005>
128.956878662109

> <r_mmod_Bend_Energy-OPLS-2005>
159.108367919922

> <r_mmod_Torsional_Energy-OPLS-2005>
237.841979980469

> <r_mmod_Improper_Torsional_Energy-OPLS-2005>
4.69848155975342

> <r_mmod_Van_der_Waal_Energy-OPLS-2005>
139.847930908203

> <r_mmod_Electrostatic_Energy-OPLS-2005>
-404.097412109375

> <r_mmod_Solvation_Energy-OPLS-2005>
-251.028945922852

> <b_mmod_Minimization_Converged-OPLS-2005>
0

> <r_mmod_RMS_Derivative-OPLS-2005>
5.51674318313599

$$$$
19
                    3D
 Structure written by MMmdl.
154162  0  0  1  0            999 V2000
  -30.6757  -14.5080   20.4956 C   0  0  0  0  0  0
  -30.4152  -12.2979   19.4537 C   0  0  0  0  0  0
  -29.5055  -12.4799   18.2200 C   0  0  0  0  0  0
  -28.0181  -12.3750   18.6125 C   0  0  0  0  0  0
  -27.6534  -13.2202   19.8644 C   0  0  2  0  0  0
  -28.6919  -13.0343   20.9944 C   0  0  0  0  0  0
  -25.2516  -13.8187   20.5707 C   0  0  0  0  0  0
  -24.1785  -13.0440   20.9200 C   0  0  0  0  0  0
  -24.6373  -11.6917   20.8745 C   0  0  0  0  0  0
  -23.9049  -10.4281   21.0395 C   0  0  0  0  0  0
  -24.3614   -9.4187   21.9159 C   0  0  0  0  0  0
  -23.6282   -8.2224   22.0733 C   0  0  0  0  0  0
  -22.4251   -8.0271   21.3536 C   0  0  0  0  0  0
  -21.9887   -9.0238   20.4645 C   0  0  0  0  0  0
  -22.7227  -10.2109   20.3040 C   0  0  0  0  0  0
  -21.6835   -6.0727   22.5271 C   0  0  0  0  0  0
  -21.4025   -6.5625   23.8212 C   0  0  0  0  0  0
  -21.3676   -5.6780   24.9178 C   0  0  0  0  0  0
  -21.6035   -4.3043   24.7225 C   0  0  0  0  0  0
  -21.8811   -3.8136   23.4351 C   0  0  0  0  0  0
  -21.9176   -4.6956   22.3404 C   0  0  0  0  0  0
  -22.7809  -13.5225   21.1855 C   0  0  0  0  0  0
  -22.1642   -4.2142   21.0982 F   0  0  0  0  0  0
  -21.5627   -3.4527   25.7740 F   0  0  0  0  0  0
  -30.0224  -13.3157   20.4399 N   0  0  0  0  0  0
  -26.2963  -12.9396   20.3310 N   0  0  0  0  0  0
  -25.9295  -11.6538   20.5730 N   0  0  0  0  0  0
  -22.0445  -12.8246   22.0444 N   0  0  0  0  0  0
  -25.4206  -15.1924   20.4148 N   0  0  0  0  0  0
  -31.8518  -14.6309   20.1443 O   0  0  0  0  0  0
  -21.6616   -6.8865   21.4233 O   0  0  0  0  0  0
  -22.3495  -14.5523   20.6705 O   0  0  0  0  0  0
  -24.6175  -31.8671   23.2102 C   0  0  0  0  0  0
  -25.9044  -32.4820   23.8408 C   0  0  1  0  0  0
  -27.2379  -27.4040   20.0878 C   0  0  0  0  0  0
  -25.5875  -33.8622   24.2315 N   0  0  0  0  0  0
  -23.4056  -30.4908   21.5540 C   0  0  2  0  0  0
  -24.8511  -28.9568   20.1180 C   0  0  0  0  0  0
  -22.7425  -29.4646   22.5009 C   0  0  0  0  0  0
  -18.0265  -28.1349   22.8521 C   0  0  0  0  0  0
  -24.1477  -36.7306   23.2640 C   0  0  0  0  0  0
  -25.9432  -30.8192   21.3745 C   0  0  0  0  0  0
  -26.0145  -29.4548   20.7140 C   0  0  0  0  0  0
  -27.2060  -28.6880   20.6924 C   0  0  0  0  0  0
  -26.0430  -26.9314   19.4912 C   0  0  0  0  0  0
  -24.8628  -27.6947   19.5062 C   0  0  0  0  0  0
  -23.6150  -29.8266   20.1680 C   0  0  0  0  0  0
  -25.4100  -36.3115   24.0340 C   0  0  1  0  0  0
  -20.5875  -28.3628   23.1330 C   0  0  2  0  0  0
  -20.6760  -26.9359   22.5424 C   0  0  0  0  0  0
  -19.5733  -26.6358   21.5225 C   0  0  0  0  0  0
  -18.1912  -26.7893   22.1638 C   0  0  0  0  0  0
  -19.1522  -28.8807   23.2923 C   0  0  0  0  0  0
  -18.9446  -30.1421   23.8923 C   0  0  0  0  0  0
  -17.6446  -30.6563   24.0555 C   0  0  0  0  0  0
  -25.9026  -34.9477   23.5128 C   0  0  0  0  0  0
  -16.5340  -29.9061   23.6326 C   0  0  0  0  0  0
  -16.7263  -28.6474   23.0377 C   0  0  0  0  0  0
  -26.4458  -31.6628   25.0749 C   0  0  0  0  0  0
  -25.3725  -31.3770   26.1497 C   0  0  0  0  0  0
  -27.0294  -30.3057   24.6183 C   0  0  0  0  0  0
  -27.6000  -32.4394   25.7505 C   0  0  0  0  0  0
  -27.5589  -37.1799   24.8459 C   0  0  0  0  0  0
  -21.4156  -29.2986   22.3728 N   0  0  0  0  0  0
  -26.4290  -37.3802   23.9421 N   0  0  0  0  0  0
  -24.6735  -31.0743   22.1026 N   0  0  0  0  0  0
  -23.4181  -28.8161   23.3041 O   0  0  0  0  0  0
  -28.4334  -26.6935   20.1084 O   0  0  0  0  0  0
  -26.5608  -34.8939   22.4697 O   0  0  0  0  0  0
  -23.5353  -32.1414   23.7481 O   0  0  0  0  0  0
  -29.3312  -17.9958   20.9338 C   0  0  0  0  0  0
  -30.3044  -19.6411   19.4166 C   0  0  0  0  0  0
  -30.9071  -17.2820   19.2286 C   0  0  0  0  0  0
  -29.4520  -19.3451   20.5000 C   0  0  0  0  0  0
  -30.0688  -16.9451   20.3221 C   0  0  0  0  0  0
  -31.0243  -18.6130   18.7807 C   0  0  0  0  0  0
  -28.4021  -22.9197   20.6940 C   0  0  0  0  0  0
  -28.6503  -20.4589   21.1932 C   0  0  0  0  0  0
  -29.0611  -24.3244   20.7114 C   0  0  0  0  0  0
  -28.5310  -25.3247   19.6374 C   0  0  0  0  0  0
  -29.9043  -15.5878   20.7839 N   0  0  0  0  0  0
  -29.1493  -21.8377   20.9988 N   0  0  0  0  0  0
  -27.2000  -22.8159   20.4402 O   0  0  0  0  0  0
  -32.0538  -18.9840   17.4443 Cl  0  0  0  0  0  0
  -31.4671  -12.3714   19.1706 H   0  0  0  0  0  0
  -30.2918  -11.3006   19.8786 H   0  0  0  0  0  0
  -29.7458  -11.7318   17.4650 H   0  0  0  0  0  0
  -29.7001  -13.4514   17.7624 H   0  0  0  0  0  0
  -27.8013  -11.3248   18.8031 H   0  0  0  0  0  0
  -27.3899  -12.6678   17.7711 H   0  0  0  0  0  0
  -27.6879  -14.2645   19.5515 H   0  0  0  0  0  0
  -28.6560  -12.0151   21.3819 H   0  0  0  0  0  0
  -28.4615  -13.6771   21.8457 H   0  0  0  0  0  0
  -25.2761   -9.5666   22.4733 H   0  0  0  0  0  0
  -23.9991   -7.4613   22.7450 H   0  0  0  0  0  0
  -21.0803   -8.8773   19.8960 H   0  0  0  0  0  0
  -22.3687  -10.9648   19.6154 H   0  0  0  0  0  0
  -21.2033   -7.6127   23.9734 H   0  0  0  0  0  0
  -21.1514   -6.0499   25.9082 H   0  0  0  0  0  0
  -22.0580   -2.7600   23.2843 H   0  0  0  0  0  0
  -22.4059  -11.9951   22.4919 H   0  0  0  0  0  0
  -21.1060  -13.1272   22.2595 H   0  0  0  0  0  0
  -24.6574  -15.8468   20.5414 H   0  0  0  0  0  0
  -26.2673  -15.6330   20.0818 H   0  0  0  0  0  0
  -26.7107  -32.5511   23.1157 H   0  0  0  0  0  0
  -25.0039  -33.9784   25.0468 H   0  0  0  0  0  0
  -22.6948  -31.3085   21.4159 H   0  0  0  0  0  0
  -23.3761  -35.9620   23.3296 H   0  0  0  0  0  0
  -24.3573  -36.8920   22.2055 H   0  0  0  0  0  0
  -23.7194  -37.6490   23.6662 H   0  0  0  0  0  0
  -26.0803  -31.5914   20.6148 H   0  0  0  0  0  0
  -26.8209  -30.8568   22.0095 H   0  0  0  0  0  0
  -28.1055  -29.0784   21.1460 H   0  0  0  0  0  0
  -25.9670  -25.9801   18.9928 H   0  0  0  0  0  0
  -23.9675  -27.3030   19.0426 H   0  0  0  0  0  0
  -23.7273  -30.6026   19.4095 H   0  0  0  0  0  0
  -22.7386  -29.2475   19.8709 H   0  0  0  0  0  0
  -25.1275  -36.1985   25.0839 H   0  0  0  0  0  0
  -20.9991  -28.3183   24.1441 H   0  0  0  0  0  0
  -20.5675  -26.2222   23.3601 H   0  0  0  0  0  0
  -21.6627  -26.7396   22.1203 H   0  0  0  0  0  0
  -19.6879  -25.6275   21.1236 H   0  0  0  0  0  0
  -19.6669  -27.3190   20.6778 H   0  0  0  0  0  0
  -17.4180  -26.6682   21.4032 H   0  0  0  0  0  0
  -18.0285  -26.0015   22.9016 H   0  0  0  0  0  0
  -19.7922  -30.7235   24.2309 H   0  0  0  0  0  0
  -17.4993  -31.6253   24.5130 H   0  0  0  0  0  0
  -15.5340  -30.2964   23.7621 H   0  0  0  0  0  0
  -15.8669  -28.0777   22.7107 H   0  0  0  0  0  0
  -24.5825  -30.7204   25.7830 H   0  0  0  0  0  0
  -24.9015  -32.2962   26.4998 H   0  0  0  0  0  0
  -25.8052  -30.8868   27.0221 H   0  0  0  0  0  0
  -26.2863  -29.6823   24.1193 H   0  0  0  0  0  0
  -27.3975  -29.7289   25.4672 H   0  0  0  0  0  0
  -27.8747  -30.4335   23.9414 H   0  0  0  0  0  0
  -27.2557  -33.3669   26.2107 H   0  0  0  0  0  0
  -28.3781  -32.7023   25.0321 H   0  0  0  0  0  0
  -28.0719  -31.8539   26.5401 H   0  0  0  0  0  0
  -28.2589  -38.0117   24.7544 H   0  0  0  0  0  0
  -28.1105  -36.2642   24.6241 H   0  0  0  0  0  0
  -27.2320  -37.1398   25.8868 H   0  0  0  0  0  0
  -20.9301  -29.8701   21.6953 H   0  0  0  0  0  0
  -26.0181  -38.2888   24.1431 H   0  0  0  0  0  0
  -28.6643  -17.7719   21.7542 H   0  0  0  0  0  0
  -30.4117  -20.6526   19.0482 H   0  0  0  0  0  0
  -31.4699  -16.5327   18.6932 H   0  0  0  0  0  0
  -28.6469  -20.2584   22.2674 H   0  0  0  0  0  0
  -27.6106  -20.3738   20.8730 H   0  0  0  0  0  0
  -30.1423  -24.2254   20.6047 H   0  0  0  0  0  0
  -28.8924  -24.7466   21.7024 H   0  0  0  0  0  0
  -27.6355  -24.9336   19.1741 H   0  0  0  0  0  0
  -29.2490  -25.3363   18.8177 H   0  0  0  0  0  0
  -29.0221  -15.3743   21.2228 H   0  0  0  0  0  0
  -30.1230  -21.9890   21.2245 H   0  0  0  0  0  0
  1 25  1  0  0  0
  1 30  2  0  0  0
  1 81  1  0  0  0
  2  3  1  0  0  0
  2 25  1  0  0  0
  2 85  1  0  0  0
  2 86  1  0  0  0
  3  4  1  0  0  0
  3 87  1  0  0  0
  3 88  1  0  0  0
  4  5  1  0  0  0
  4 89  1  0  0  0
  4 90  1  0  0  0
  5  6  1  0  0  0
  5 26  1  0  0  0
  5 91  1  0  0  0
  6 25  1  0  0  0
  6 92  1  0  0  0
  6 93  1  0  0  0
  7  8  2  0  0  0
  7 26  1  0  0  0
  7 29  1  0  0  0
  8  9  1  0  0  0
  8 22  1  0  0  0
  9 10  1  0  0  0
  9 27  2  0  0  0
 10 11  2  0  0  0
 10 15  1  0  0  0
 11 12  1  0  0  0
 11 94  1  0  0  0
 12 13  2  0  0  0
 12 95  1  0  0  0
 13 14  1  0  0  0
 13 31  1  0  0  0
 14 15  2  0  0  0
 14 96  1  0  0  0
 15 97  1  0  0  0
 16 17  2  0  0  0
 16 21  1  0  0  0
 16 31  1  0  0  0
 17 18  1  0  0  0
 17 98  1  0  0  0
 18 19  2  0  0  0
 18 99  1  0  0  0
 19 20  1  0  0  0
 19 24  1  0  0  0
 20 21  2  0  0  0
 20100  1  0  0  0
 21 23  1  0  0  0
 22 28  1  0  0  0
 22 32  2  0  0  0
 26 27  1  0  0  0
 28101  1  0  0  0
 28102  1  0  0  0
 29103  1  0  0  0
 29104  1  0  0  0
 33 34  1  0  0  0
 33 66  1  0  0  0
 33 70  2  0  0  0
 34 36  1  0  0  0
 34 59  1  0  0  0
 34105  1  0  0  0
 35 44  2  0  0  0
 35 45  1  0  0  0
 35 68  1  0  0  0
 36 56  1  0  0  0
 36106  1  0  0  0
 37 39  1  0  0  0
 37 47  1  0  0  0
 37 66  1  0  0  0
 37107  1  0  0  0
 38 43  2  0  0  0
 38 46  1  0  0  0
 38 47  1  0  0  0
 39 64  1  0  0  0
 39 67  2  0  0  0
 40 52  1  0  0  0
 40 53  2  0  0  0
 40 58  1  0  0  0
 41108  1  0  0  0
 41109  1  0  0  0
 41110  1  0  0  0
 41 48  1  0  0  0
 42 43  1  0  0  0
 42 66  1  0  0  0
 42111  1  0  0  0
 42112  1  0  0  0
 43 44  1  0  0  0
 44113  1  0  0  0
 45 46  2  0  0  0
 45114  1  0  0  0
 46115  1  0  0  0
 47116  1  0  0  0
 47117  1  0  0  0
 48 56  1  0  0  0
 48 65  1  0  0  0
 48118  1  0  0  0
 49 50  1  0  0  0
 49 53  1  0  0  0
 49 64  1  0  0  0
 49119  1  0  0  0
 50 51  1  0  0  0
 50120  1  0  0  0
 50121  1  0  0  0
 51 52  1  0  0  0
 51122  1  0  0  0
 51123  1  0  0  0
 52124  1  0  0  0
 52125  1  0  0  0
 53 54  1  0  0  0
 54 55  2  0  0  0
 54126  1  0  0  0
 55 57  1  0  0  0
 55127  1  0  0  0
 56 69  2  0  0  0
 57 58  2  0  0  0
 57128  1  0  0  0
 58129  1  0  0  0
 59 60  1  0  0  0
 59 61  1  0  0  0
 59 62  1  0  0  0
 60130  1  0  0  0
 60131  1  0  0  0
 60132  1  0  0  0
 61133  1  0  0  0
 61134  1  0  0  0
 61135  1  0  0  0
 62136  1  0  0  0
 62137  1  0  0  0
 62138  1  0  0  0
 63 65  1  0  0  0
 63139  1  0  0  0
 63140  1  0  0  0
 63141  1  0  0  0
 64142  1  0  0  0
 65143  1  0  0  0
 68 80  1  0  0  0
 71 74  2  0  0  0
 71 75  1  0  0  0
 71144  1  0  0  0
 72 74  1  0  0  0
 72 76  2  0  0  0
 72145  1  0  0  0
 73 75  2  0  0  0
 73 76  1  0  0  0
 73146  1  0  0  0
 74 78  1  0  0  0
 75 81  1  0  0  0
 76 84  1  0  0  0
 77 79  1  0  0  0
 77 82  1  0  0  0
 77 83  2  0  0  0
 78 82  1  0  0  0
 78147  1  0  0  0
 78148  1  0  0  0
 79 80  1  0  0  0
 79149  1  0  0  0
 79150  1  0  0  0
 80151  1  0  0  0
 80152  1  0  0  0
 81153  1  0  0  0
 82154  1  0  0  0
M  ISO  4   1 100  68 101  80 101  81 100
M  END
> <chiral flag>
0

> <version>
0

> <s_m_source_file>
/data/baiqing/PycharmProjects/Reinvent-master-3.2/result/LINK_invent/BTK/process_docking_weight1_custom_product_contain_oxygen_bond_distance_aromatic_linkinvent_7_9_3/rearranged_h_0049.sdf

> <i_m_source_file_index>
20

> <r_mmod_Potential_Energy-OPLS-2005>
-114.050033569336

> <r_mmod_Stretch_Energy-OPLS-2005>
45.2667083740234

> <r_mmod_Bend_Energy-OPLS-2005>
110.716697692871

> <r_mmod_Torsional_Energy-OPLS-2005>
216.310165405273

> <r_mmod_Improper_Torsional_Energy-OPLS-2005>
4.91485977172852

> <r_mmod_Van_der_Waal_Energy-OPLS-2005>
160.912841796875

> <r_mmod_Electrostatic_Energy-OPLS-2005>
-433.863586425781

> <r_mmod_Solvation_Energy-OPLS-2005>
-238.843658447266

> <b_mmod_Minimization_Converged-OPLS-2005>
0

> <r_mmod_RMS_Derivative-OPLS-2005>
4.14831447601318

$$$$
20
                    3D
 Structure written by MMmdl.
165174  0  0  1  0            999 V2000
  -30.6617  -14.6362   20.5006 C   0  0  0  0  0  0
  -30.4277  -12.3950   19.4526 C   0  0  0  0  0  0
  -29.5020  -12.4962   18.2223 C   0  0  0  0  0  0
  -28.0261  -12.3397   18.6372 C   0  0  0  0  0  0
  -27.6480  -13.2238   19.8557 C   0  0  2  0  0  0
  -28.6948  -13.1134   20.9866 C   0  0  0  0  0  0
  -25.2537  -13.8190   20.5683 C   0  0  0  0  0  0
  -24.1818  -13.0444   20.9197 C   0  0  0  0  0  0
  -24.6400  -11.6918   20.8746 C   0  0  0  0  0  0
  -23.9072  -10.4296   21.0407 C   0  0  0  0  0  0
  -24.3622   -9.4210   21.9186 C   0  0  0  0  0  0
  -23.6295   -8.2246   22.0757 C   0  0  0  0  0  0
  -22.4278   -8.0282   21.3545 C   0  0  0  0  0  0
  -21.9914   -9.0258   20.4646 C   0  0  0  0  0  0
  -22.7244  -10.2137   20.3056 C   0  0  0  0  0  0
  -21.6853   -6.0735   22.5280 C   0  0  0  0  0  0
  -21.4015   -6.5640   23.8212 C   0  0  0  0  0  0
  -21.3660   -5.6792   24.9174 C   0  0  0  0  0  0
  -21.6041   -4.3054   24.7224 C   0  0  0  0  0  0
  -21.8821   -3.8147   23.4347 C   0  0  0  0  0  0
  -21.9196   -4.6963   22.3403 C   0  0  0  0  0  0
  -22.7840  -13.5227   21.1855 C   0  0  0  0  0  0
  -22.1663   -4.2144   21.0980 F   0  0  0  0  0  0
  -21.5629   -3.4540   25.7742 F   0  0  0  0  0  0
  -30.0045  -13.4382   20.4075 N   0  0  0  0  0  0
  -26.2968  -12.9385   20.3299 N   0  0  0  0  0  0
  -25.9329  -11.6533   20.5763 N   0  0  0  0  0  0
  -22.0490  -12.8217   22.0412 N   0  0  0  0  0  0
  -25.4224  -15.1914   20.4085 N   0  0  0  0  0  0
  -31.8432  -14.7325   20.1594 O   0  0  0  0  0  0
  -21.6642   -6.8878   21.4241 O   0  0  0  0  0  0
  -22.3522  -14.5536   20.6707 O   0  0  0  0  0  0
  -24.6266  -31.8599   23.2031 C   0  0  0  0  0  0
  -25.9110  -32.4779   23.8353 C   0  0  1  0  0  0
  -27.2203  -27.3165   20.1162 C   0  0  0  0  0  0
  -25.5922  -33.8582   24.2267 N   0  0  0  0  0  0
  -23.4195  -30.4852   21.5466 C   0  0  2  0  0  0
  -24.8646  -28.9422   20.1143 C   0  0  0  0  0  0
  -22.7476  -29.4628   22.4941 C   0  0  0  0  0  0
  -18.0288  -28.1377   22.8480 C   0  0  0  0  0  0
  -24.1510  -36.7306   23.2639 C   0  0  0  0  0  0
  -25.9617  -30.7931   21.3726 C   0  0  0  0  0  0
  -26.0366  -29.4208   20.7135 C   0  0  0  0  0  0
  -27.2207  -28.6229   20.6983 C   0  0  0  0  0  0
  -26.0181  -26.8889   19.5118 C   0  0  0  0  0  0
  -24.8578  -27.6820   19.5035 C   0  0  0  0  0  0
  -23.6343  -29.8229   20.1617 C   0  0  0  0  0  0
  -25.4128  -36.3078   24.0319 C   0  0  1  0  0  0
  -20.5881  -28.3682   23.1271 C   0  0  2  0  0  0
  -20.6785  -26.9402   22.5405 C   0  0  0  0  0  0
  -19.5761  -26.6375   21.5208 C   0  0  0  0  0  0
  -18.1936  -26.7920   22.1612 C   0  0  0  0  0  0
  -19.1537  -28.8843   23.2871 C   0  0  0  0  0  0
  -18.9466  -30.1451   23.8881 C   0  0  0  0  0  0
  -17.6467  -30.6582   24.0557 C   0  0  0  0  0  0
  -25.9062  -34.9453   23.5095 C   0  0  0  0  0  0
  -16.5359  -29.9077   23.6335 C   0  0  0  0  0  0
  -16.7275  -28.6498   23.0344 C   0  0  0  0  0  0
  -26.4496  -31.6588   25.0718 C   0  0  0  0  0  0
  -25.3727  -31.3720   26.1438 C   0  0  0  0  0  0
  -27.0333  -30.3012   24.6161 C   0  0  0  0  0  0
  -27.6050  -32.4324   25.7490 C   0  0  0  0  0  0
  -27.5588  -37.1808   24.8456 C   0  0  0  0  0  0
  -21.4192  -29.3045   22.3676 N   0  0  0  0  0  0
  -26.4305  -37.3768   23.9397 N   0  0  0  0  0  0
  -24.6880  -31.0618   22.0983 N   0  0  0  0  0  0
  -23.4201  -28.8163   23.3011 O   0  0  0  0  0  0
  -28.3466  -26.4768   20.1216 O   0  0  0  0  0  0
  -26.5635  -34.8915   22.4665 O   0  0  0  0  0  0
  -23.5426  -32.1386   23.7363 O   0  0  0  0  0  0
  -31.2816  -19.8432   21.1433 C   0  0  0  0  0  0
  -31.5741  -17.4418   21.5074 C   0  0  0  0  0  0
  -30.0299  -19.6440   20.5229 C   0  0  0  0  0  0
  -30.3439  -17.1531   20.8732 C   0  0  0  0  0  0
  -32.0346  -18.7649   21.6414 C   0  0  0  0  0  0
  -29.5613  -18.2768   20.4089 C   0  0  0  0  0  0
  -29.3038  -22.9128   21.5808 C   0  0  0  0  0  0
  -29.9848  -20.9373   24.6493 C   0  0  0  0  0  0
  -29.6909  -22.5369   22.8193 C   0  0  0  0  0  0
  -29.4992  -21.2355   23.4344 C   0  0  0  0  0  0
  -29.4316  -24.3933   21.0967 C   0  0  0  0  0  0
  -27.9168  -24.0451   19.2560 C   0  0  0  0  0  0
  -27.5310  -22.6357   19.8046 C   0  0  0  0  0  0
  -28.1784  -25.0296   20.4238 C   0  0  2  0  0  0
  -29.3699  -20.9044   19.8430 C   0  0  0  0  0  0
  -29.9087  -15.7566   20.7516 N   0  0  0  0  0  0
  -28.5815  -21.9492   20.6304 N   0  3  1  0  0  0
  -33.5525  -19.0692   22.4033 Cl  0  0  0  0  0  0
  -28.0422  -17.9513   19.6502 Cl  0  0  0  0  0  0
  -31.4696  -12.5059   19.1475 H   0  0  0  0  0  0
  -30.3549  -11.4089   19.9128 H   0  0  0  0  0  0
  -29.7650  -11.7333   17.4882 H   0  0  0  0  0  0
  -29.6453  -13.4589   17.7281 H   0  0  0  0  0  0
  -27.8640  -11.2886   18.8798 H   0  0  0  0  0  0
  -27.3711  -12.5594   17.7932 H   0  0  0  0  0  0
  -27.6556  -14.2530   19.4966 H   0  0  0  0  0  0
  -28.7075  -12.1059   21.4050 H   0  0  0  0  0  0
  -28.4475  -13.7822   21.8126 H   0  0  0  0  0  0
  -25.2766   -9.5685   22.4759 H   0  0  0  0  0  0
  -24.0002   -7.4638   22.7480 H   0  0  0  0  0  0
  -21.0844   -8.8777   19.8954 H   0  0  0  0  0  0
  -22.3700  -10.9677   19.6164 H   0  0  0  0  0  0
  -21.2007   -7.6147   23.9711 H   0  0  0  0  0  0
  -21.1478   -6.0524   25.9074 H   0  0  0  0  0  0
  -22.0601   -2.7609   23.2852 H   0  0  0  0  0  0
  -22.4112  -11.9870   22.4784 H   0  0  0  0  0  0
  -21.1111  -13.1239   22.2631 H   0  0  0  0  0  0
  -24.6495  -15.8392   20.5123 H   0  0  0  0  0  0
  -26.2618  -15.6357   20.0606 H   0  0  0  0  0  0
  -26.7184  -32.5463   23.1106 H   0  0  0  0  0  0
  -25.0014  -33.9715   25.0374 H   0  0  0  0  0  0
  -22.7140  -31.3069   21.4057 H   0  0  0  0  0  0
  -23.3758  -35.9654   23.3295 H   0  0  0  0  0  0
  -24.3594  -36.8943   22.2056 H   0  0  0  0  0  0
  -23.7293  -37.6518   23.6676 H   0  0  0  0  0  0
  -26.0901  -31.5597   20.6069 H   0  0  0  0  0  0
  -26.8428  -30.8414   22.0004 H   0  0  0  0  0  0
  -28.1238  -28.9903   21.1649 H   0  0  0  0  0  0
  -25.9362  -25.9311   19.0347 H   0  0  0  0  0  0
  -23.9599  -27.3052   19.0327 H   0  0  0  0  0  0
  -23.7551  -30.6009   19.4067 H   0  0  0  0  0  0
  -22.7540  -29.2525   19.8594 H   0  0  0  0  0  0
  -25.1318  -36.1922   25.0810 H   0  0  0  0  0  0
  -20.9970  -28.3272   24.1393 H   0  0  0  0  0  0
  -20.5705  -26.2292   23.3602 H   0  0  0  0  0  0
  -21.6655  -26.7452   22.1183 H   0  0  0  0  0  0
  -19.6929  -25.6286   21.1240 H   0  0  0  0  0  0
  -19.6705  -27.3189   20.6735 H   0  0  0  0  0  0
  -17.4208  -26.6657   21.4018 H   0  0  0  0  0  0
  -18.0335  -26.0068   22.9016 H   0  0  0  0  0  0
  -19.7955  -30.7257   24.2251 H   0  0  0  0  0  0
  -17.5033  -31.6265   24.5157 H   0  0  0  0  0  0
  -15.5363  -30.2971   23.7675 H   0  0  0  0  0  0
  -15.8673  -28.0819   22.7053 H   0  0  0  0  0  0
  -24.5901  -30.7064   25.7766 H   0  0  0  0  0  0
  -24.8906  -32.2886   26.4858 H   0  0  0  0  0  0
  -25.8040  -30.8903   27.0224 H   0  0  0  0  0  0
  -26.2897  -29.6762   24.1191 H   0  0  0  0  0  0
  -27.4050  -29.7261   25.4656 H   0  0  0  0  0  0
  -27.8768  -30.4297   23.9362 H   0  0  0  0  0  0
  -27.2654  -33.3633   26.2045 H   0  0  0  0  0  0
  -28.3869  -32.6868   25.0320 H   0  0  0  0  0  0
  -28.0701  -31.8459   26.5424 H   0  0  0  0  0  0
  -28.2585  -38.0121   24.7497 H   0  0  0  0  0  0
  -28.1103  -36.2647   24.6290 H   0  0  0  0  0  0
  -27.2291  -37.1454   25.8853 H   0  0  0  0  0  0
  -20.9360  -29.8789   21.6909 H   0  0  0  0  0  0
  -26.0185  -38.2845   24.1393 H   0  0  0  0  0  0
  -31.6900  -20.8412   21.2241 H   0  0  0  0  0  0
  -32.1883  -16.6454   21.9000 H   0  0  0  0  0  0
  -29.8292  -19.9611   25.0873 H   0  0  0  0  0  0
  -30.5460  -21.6558   25.2298 H   0  0  0  0  0  0
  -30.1569  -23.2971   23.4326 H   0  0  0  0  0  0
  -28.9466  -20.4619   22.9225 H   0  0  0  0  0  0
  -30.2857  -24.4549   20.4206 H   0  0  0  0  0  0
  -29.6995  -25.0125   21.9542 H   0  0  0  0  0  0
  -27.1276  -24.3776   18.5903 H   0  0  0  0  0  0
  -28.7969  -23.9690   18.6167 H   0  0  0  0  0  0
  -27.1904  -22.0007   18.9876 H   0  0  0  0  0  0
  -26.6551  -22.7498   20.4436 H   0  0  0  0  0  0
  -27.3535  -24.9592   21.1356 H   0  0  0  0  0  0
  -28.7342  -20.5078   19.0532 H   0  0  0  0  0  0
  -30.1517  -21.4407   19.3048 H   0  0  0  0  0  0
  -28.9129  -15.6060   20.7951 H   0  0  0  0  0  0
  -28.0130  -21.3588   21.2189 H   0  0  0  0  0  0
  1 25  1  0  0  0
  1 30  2  0  0  0
  1 86  1  0  0  0
  2  3  1  0  0  0
  2 25  1  0  0  0
  2 90  1  0  0  0
  2 91  1  0  0  0
  3  4  1  0  0  0
  3 92  1  0  0  0
  3 93  1  0  0  0
  4  5  1  0  0  0
  4 94  1  0  0  0
  4 95  1  0  0  0
  5  6  1  0  0  0
  5 26  1  0  0  0
  5 96  1  0  0  0
  6 25  1  0  0  0
  6 97  1  0  0  0
  6 98  1  0  0  0
  7  8  2  0  0  0
  7 26  1  0  0  0
  7 29  1  0  0  0
  8  9  1  0  0  0
  8 22  1  0  0  0
  9 10  1  0  0  0
  9 27  2  0  0  0
 10 11  2  0  0  0
 10 15  1  0  0  0
 11 12  1  0  0  0
 11 99  1  0  0  0
 12 13  2  0  0  0
 12100  1  0  0  0
 13 14  1  0  0  0
 13 31  1  0  0  0
 14 15  2  0  0  0
 14101  1  0  0  0
 15102  1  0  0  0
 16 17  2  0  0  0
 16 21  1  0  0  0
 16 31  1  0  0  0
 17 18  1  0  0  0
 17103  1  0  0  0
 18 19  2  0  0  0
 18104  1  0  0  0
 19 20  1  0  0  0
 19 24  1  0  0  0
 20 21  2  0  0  0
 20105  1  0  0  0
 21 23  1  0  0  0
 22 28  1  0  0  0
 22 32  2  0  0  0
 26 27  1  0  0  0
 28106  1  0  0  0
 28107  1  0  0  0
 29108  1  0  0  0
 29109  1  0  0  0
 33 34  1  0  0  0
 33 66  1  0  0  0
 33 70  2  0  0  0
 34 36  1  0  0  0
 34 59  1  0  0  0
 34110  1  0  0  0
 35 44  2  0  0  0
 35 45  1  0  0  0
 35 68  1  0  0  0
 36 56  1  0  0  0
 36111  1  0  0  0
 37 39  1  0  0  0
 37 47  1  0  0  0
 37 66  1  0  0  0
 37112  1  0  0  0
 38 43  2  0  0  0
 38 46  1  0  0  0
 38 47  1  0  0  0
 39 64  1  0  0  0
 39 67  2  0  0  0
 40 52  1  0  0  0
 40 53  2  0  0  0
 40 58  1  0  0  0
 41113  1  0  0  0
 41114  1  0  0  0
 41115  1  0  0  0
 41 48  1  0  0  0
 42 43  1  0  0  0
 42 66  1  0  0  0
 42116  1  0  0  0
 42117  1  0  0  0
 43 44  1  0  0  0
 44118  1  0  0  0
 45 46  2  0  0  0
 45119  1  0  0  0
 46120  1  0  0  0
 47121  1  0  0  0
 47122  1  0  0  0
 48 56  1  0  0  0
 48 65  1  0  0  0
 48123  1  0  0  0
 49 50  1  0  0  0
 49 53  1  0  0  0
 49 64  1  0  0  0
 49124  1  0  0  0
 50 51  1  0  0  0
 50125  1  0  0  0
 50126  1  0  0  0
 51 52  1  0  0  0
 51127  1  0  0  0
 51128  1  0  0  0
 52129  1  0  0  0
 52130  1  0  0  0
 53 54  1  0  0  0
 54 55  2  0  0  0
 54131  1  0  0  0
 55 57  1  0  0  0
 55132  1  0  0  0
 56 69  2  0  0  0
 57 58  2  0  0  0
 57133  1  0  0  0
 58134  1  0  0  0
 59 60  1  0  0  0
 59 61  1  0  0  0
 59 62  1  0  0  0
 60135  1  0  0  0
 60136  1  0  0  0
 60137  1  0  0  0
 61138  1  0  0  0
 61139  1  0  0  0
 61140  1  0  0  0
 62141  1  0  0  0
 62142  1  0  0  0
 62143  1  0  0  0
 63 65  1  0  0  0
 63144  1  0  0  0
 63145  1  0  0  0
 63146  1  0  0  0
 64147  1  0  0  0
 65148  1  0  0  0
 68 84  1  0  0  0
 71 73  2  0  0  0
 71 75  1  0  0  0
 71149  1  0  0  0
 72 74  1  0  0  0
 72 75  2  0  0  0
 72150  1  0  0  0
 73 76  1  0  0  0
 73 85  1  0  0  0
 74 76  2  0  0  0
 74 86  1  0  0  0
 75 88  1  0  0  0
 76 89  1  0  0  0
 77 79  2  0  0  0
 77 81  1  0  0  0
 77 87  1  0  0  0
 78 80  2  0  0  0
 78151  1  0  0  0
 78152  1  0  0  0
 79 80  1  0  0  0
 79153  1  0  0  0
 80154  1  0  0  0
 81 84  1  0  0  0
 81155  1  0  0  0
 81156  1  0  0  0
 82 83  1  0  0  0
 82 84  1  0  0  0
 82157  1  0  0  0
 82158  1  0  0  0
 83 87  1  0  0  0
 83159  1  0  0  0
 83160  1  0  0  0
 84161  1  0  0  0
 85162  1  0  0  0
 85163  1  0  0  0
 85 87  1  0  0  0
 86164  1  0  0  0
 87165  1  0  0  0
M  CHG  1  87   1
M  ISO  4   1 100  68 101  84 101  86 100
M  END
> <chiral flag>
0

> <version>
0

> <s_m_source_file>
/data/baiqing/PycharmProjects/Reinvent-master-3.2/result/LINK_invent/BTK/process_docking_weight1_custom_product_contain_oxygen_bond_distance_aromatic_linkinvent_7_9_3/rearranged_h_0049.sdf

> <i_m_source_file_index>
21

> <r_mmod_Potential_Energy-OPLS-2005>
-79.9631118774414

> <r_mmod_Stretch_Energy-OPLS-2005>
87.4280242919922

> <r_mmod_Bend_Energy-OPLS-2005>
166.181762695312

> <r_mmod_Torsional_Energy-OPLS-2005>
240.704360961914

> <r_mmod_Improper_Torsional_Energy-OPLS-2005>
6.28936338424683

> <r_mmod_Van_der_Waal_Energy-OPLS-2005>
142.54704284668

> <r_mmod_Electrostatic_Energy-OPLS-2005>
-313.164459228516

> <r_mmod_Solvation_Energy-OPLS-2005>
-458.314514160156

> <b_mmod_Minimization_Converged-OPLS-2005>
0

> <r_mmod_RMS_Derivative-OPLS-2005>
1.4772537946701

$$$$
21
                    3D
 Structure written by MMmdl.
157165  0  0  1  0            999 V2000
  -30.6767  -14.5238   20.4697 C   0  0  0  0  0  0
  -30.4259  -12.3116   19.4467 C   0  0  0  0  0  0
  -29.5032  -12.4746   18.2190 C   0  0  0  0  0  0
  -28.0223  -12.3377   18.6289 C   0  0  0  0  0  0
  -27.6535  -13.2070   19.8601 C   0  0  2  0  0  0
  -28.6988  -13.0521   20.9894 C   0  0  0  0  0  0
  -25.2563  -13.8150   20.5681 C   0  0  0  0  0  0
  -24.1821  -13.0434   20.9200 C   0  0  0  0  0  0
  -24.6369  -11.6904   20.8738 C   0  0  0  0  0  0
  -23.9036  -10.4300   21.0421 C   0  0  0  0  0  0
  -24.3591   -9.4213   21.9185 C   0  0  0  0  0  0
  -23.6274   -8.2251   22.0749 C   0  0  0  0  0  0
  -22.4257   -8.0292   21.3550 C   0  0  0  0  0  0
  -21.9890   -9.0260   20.4649 C   0  0  0  0  0  0
  -22.7219  -10.2140   20.3066 C   0  0  0  0  0  0
  -21.6845   -6.0749   22.5294 C   0  0  0  0  0  0
  -21.4017   -6.5648   23.8230 C   0  0  0  0  0  0
  -21.3651   -5.6793   24.9181 C   0  0  0  0  0  0
  -21.6033   -4.3056   24.7224 C   0  0  0  0  0  0
  -21.8808   -3.8151   23.4344 C   0  0  0  0  0  0
  -21.9185   -4.6977   22.3407 C   0  0  0  0  0  0
  -22.7846  -13.5247   21.1838 C   0  0  0  0  0  0
  -22.1661   -4.2180   21.0982 F   0  0  0  0  0  0
  -21.5613   -3.4535   25.7726 F   0  0  0  0  0  0
  -30.0267  -13.3307   20.4247 N   0  0  0  0  0  0
  -26.2980  -12.9311   20.3301 N   0  0  0  0  0  0
  -25.9290  -11.6479   20.5750 N   0  0  0  0  0  0
  -22.0459  -12.8292   22.0408 N   0  0  0  0  0  0
  -25.4264  -15.1875   20.4122 N   0  0  0  0  0  0
  -31.8830  -14.6295   20.2356 O   0  0  0  0  0  0
  -21.6626   -6.8892   21.4255 O   0  0  0  0  0  0
  -22.3560  -14.5556   20.6673 O   0  0  0  0  0  0
  -24.6191  -31.8701   23.2096 C   0  0  0  0  0  0
  -25.9085  -32.4838   23.8397 C   0  0  1  0  0  0
  -27.2208  -27.4106   20.0911 C   0  0  0  0  0  0
  -25.5932  -33.8630   24.2348 N   0  0  0  0  0  0
  -23.4064  -30.4962   21.5538 C   0  0  2  0  0  0
  -24.8466  -28.9625   20.1176 C   0  0  0  0  0  0
  -22.7445  -29.4688   22.5012 C   0  0  0  0  0  0
  -18.0297  -28.1377   22.8505 C   0  0  0  0  0  0
  -24.1495  -36.7301   23.2636 C   0  0  0  0  0  0
  -25.9397  -30.8262   21.3679 C   0  0  0  0  0  0
  -26.0137  -29.4611   20.7118 C   0  0  0  0  0  0
  -27.2053  -28.6934   20.6941 C   0  0  0  0  0  0
  -26.0323  -26.9420   19.4842 C   0  0  0  0  0  0
  -24.8513  -27.7009   19.5067 C   0  0  0  0  0  0
  -23.6130  -29.8324   20.1674 C   0  0  0  0  0  0
  -25.4114  -36.3118   24.0349 C   0  0  1  0  0  0
  -20.5891  -28.3685   23.1312 C   0  0  2  0  0  0
  -20.6803  -26.9424   22.5418 C   0  0  0  0  0  0
  -19.5761  -26.6389   21.5233 C   0  0  0  0  0  0
  -18.1938  -26.7930   22.1630 C   0  0  0  0  0  0
  -19.1550  -28.8842   23.2899 C   0  0  0  0  0  0
  -18.9465  -30.1453   23.8915 C   0  0  0  0  0  0
  -17.6466  -30.6580   24.0569 C   0  0  0  0  0  0
  -25.9036  -34.9489   23.5136 C   0  0  0  0  0  0
  -16.5362  -29.9085   23.6326 C   0  0  0  0  0  0
  -16.7283  -28.6491   23.0363 C   0  0  0  0  0  0
  -26.4497  -31.6610   25.0724 C   0  0  0  0  0  0
  -25.3751  -31.3749   26.1467 C   0  0  0  0  0  0
  -27.0336  -30.3050   24.6117 C   0  0  0  0  0  0
  -27.6065  -32.4344   25.7491 C   0  0  0  0  0  0
  -27.5598  -37.1810   24.8472 C   0  0  0  0  0  0
  -21.4175  -29.3058   22.3723 N   0  0  0  0  0  0
  -26.4309  -37.3796   23.9412 N   0  0  0  0  0  0
  -24.6737  -31.0782   22.1016 N   0  0  0  0  0  0
  -23.4207  -28.8239   23.3064 O   0  0  0  0  0  0
  -28.3739  -26.6419   20.1012 O   0  0  0  0  0  0
  -26.5579  -34.8940   22.4687 O   0  0  0  0  0  0
  -23.5370  -32.1484   23.7467 O   0  0  0  0  0  0
  -30.6118  -19.6124   19.1789 C   0  0  0  0  0  0
  -31.1017  -18.5298   18.4318 C   0  0  0  0  0  0
  -29.6009  -18.0493   20.7437 C   0  0  0  0  0  0
  -29.7955  -19.3892   20.3070 C   0  0  0  0  0  0
  -30.1414  -16.9385   20.0365 C   0  0  0  0  0  0
  -30.8324  -17.2023   18.8138 C   0  0  0  0  0  0
  -29.3991  -23.0442   21.0149 C   0  0  0  0  0  0
  -28.4694  -21.8990   19.0330 C   0  0  0  0  0  0
  -29.1171  -20.5592   21.0486 C   0  0  0  0  0  0
  -29.4886  -24.3923   20.2550 C   0  0  0  0  0  0
  -28.1819  -25.2204   20.2975 C   0  0  0  0  0  0
  -29.8770  -15.6120   20.5385 N   0  0  0  0  0  0
  -29.0782  -21.8866   20.3701 N   0  0  0  0  0  0
  -29.6747  -23.0601   22.2198 O   0  0  0  0  0  0
  -31.2888  -15.9769   17.6771 Cl  0  0  0  0  0  0
  -31.4733  -12.4078   19.1527 H   0  0  0  0  0  0
  -30.3262  -11.3163   19.8828 H   0  0  0  0  0  0
  -29.7540  -11.7352   17.4567 H   0  0  0  0  0  0
  -29.6691  -13.4495   17.7582 H   0  0  0  0  0  0
  -27.8421  -11.2857   18.8533 H   0  0  0  0  0  0
  -27.3748  -12.5845   17.7868 H   0  0  0  0  0  0
  -27.6755  -14.2409   19.5173 H   0  0  0  0  0  0
  -28.6742  -12.0394   21.3934 H   0  0  0  0  0  0
  -28.4752  -13.7158   21.8260 H   0  0  0  0  0  0
  -25.2730   -9.5694   22.4777 H   0  0  0  0  0  0
  -24.0001   -7.4626   22.7437 H   0  0  0  0  0  0
  -21.0834   -8.8765   19.8940 H   0  0  0  0  0  0
  -22.3667  -10.9681   19.6187 H   0  0  0  0  0  0
  -21.2039   -7.6160   23.9748 H   0  0  0  0  0  0
  -21.1475   -6.0522   25.9089 H   0  0  0  0  0  0
  -22.0592   -2.7628   23.2824 H   0  0  0  0  0  0
  -22.4024  -11.9998   22.4918 H   0  0  0  0  0  0
  -21.1053  -13.1339   22.2497 H   0  0  0  0  0  0
  -24.6499  -15.8338   20.5130 H   0  0  0  0  0  0
  -26.2639  -15.6307   20.0592 H   0  0  0  0  0  0
  -26.7170  -32.5549   23.1166 H   0  0  0  0  0  0
  -25.0187  -33.9797   25.0568 H   0  0  0  0  0  0
  -22.6972  -31.3149   21.4160 H   0  0  0  0  0  0
  -23.3769  -35.9620   23.3308 H   0  0  0  0  0  0
  -24.3585  -36.8897   22.2045 H   0  0  0  0  0  0
  -23.7240  -37.6512   23.6630 H   0  0  0  0  0  0
  -26.0617  -31.5952   20.6036 H   0  0  0  0  0  0
  -26.8234  -30.8721   21.9922 H   0  0  0  0  0  0
  -28.1061  -29.0681   21.1608 H   0  0  0  0  0  0
  -25.9816  -25.9943   18.9718 H   0  0  0  0  0  0
  -23.9552  -27.3099   19.0453 H   0  0  0  0  0  0
  -23.7270  -30.6083   19.4099 H   0  0  0  0  0  0
  -22.7339  -29.2596   19.8689 H   0  0  0  0  0  0
  -25.1290  -36.1994   25.0843 H   0  0  0  0  0  0
  -20.9981  -28.3252   24.1432 H   0  0  0  0  0  0
  -20.5754  -26.2286   23.3608 H   0  0  0  0  0  0
  -21.6659  -26.7495   22.1176 H   0  0  0  0  0  0
  -19.6920  -25.6306   21.1249 H   0  0  0  0  0  0
  -19.6681  -27.3214   20.6770 H   0  0  0  0  0  0
  -17.4224  -26.6729   21.4016 H   0  0  0  0  0  0
  -18.0286  -26.0058   22.8996 H   0  0  0  0  0  0
  -19.7943  -30.7274   24.2283 H   0  0  0  0  0  0
  -17.5017  -31.6264   24.5177 H   0  0  0  0  0  0
  -15.5358  -30.2981   23.7634 H   0  0  0  0  0  0
  -15.8689  -28.0801   22.7072 H   0  0  0  0  0  0
  -24.5889  -30.7135   25.7815 H   0  0  0  0  0  0
  -24.8975  -32.2924   26.4920 H   0  0  0  0  0  0
  -25.8066  -30.8912   27.0238 H   0  0  0  0  0  0
  -26.2884  -29.6802   24.1173 H   0  0  0  0  0  0
  -27.4132  -29.7297   25.4576 H   0  0  0  0  0  0
  -27.8713  -30.4386   23.9261 H   0  0  0  0  0  0
  -27.2670  -33.3634   26.2095 H   0  0  0  0  0  0
  -28.3846  -32.6940   25.0296 H   0  0  0  0  0  0
  -28.0770  -31.8469   26.5394 H   0  0  0  0  0  0
  -28.2628  -38.0099   24.7512 H   0  0  0  0  0  0
  -28.1090  -36.2634   24.6302 H   0  0  0  0  0  0
  -27.2313  -37.1457   25.8876 H   0  0  0  0  0  0
  -20.9351  -29.8751   21.6917 H   0  0  0  0  0  0
  -26.0215  -38.2893   24.1367 H   0  0  0  0  0  0
  -30.8269  -20.6149   18.8382 H   0  0  0  0  0  0
  -31.6577  -18.7232   17.5241 H   0  0  0  0  0  0
  -29.0101  -17.8756   21.6318 H   0  0  0  0  0  0
  -27.6079  -22.5654   18.9934 H   0  0  0  0  0  0
  -28.1080  -20.9112   18.7436 H   0  0  0  0  0  0
  -29.1846  -22.2196   18.2744 H   0  0  0  0  0  0
  -29.5927  -20.6284   22.0274 H   0  0  0  0  0  0
  -28.0856  -20.2723   21.2559 H   0  0  0  0  0  0
  -29.8247  -24.2480   19.2280 H   0  0  0  0  0  0
  -30.2769  -24.9727   20.7365 H   0  0  0  0  0  0
  -27.6660  -25.0663   21.2467 H   0  0  0  0  0  0
  -27.5450  -24.7990   19.5264 H   0  0  0  0  0  0
  -28.9422  -15.4486   20.8781 H   0  0  0  0  0  0
  1 25  1  0  0  0
  1 30  2  0  0  0
  1 82  1  0  0  0
  2  3  1  0  0  0
  2 25  1  0  0  0
  2 86  1  0  0  0
  2 87  1  0  0  0
  3  4  1  0  0  0
  3 88  1  0  0  0
  3 89  1  0  0  0
  4  5  1  0  0  0
  4 90  1  0  0  0
  4 91  1  0  0  0
  5  6  1  0  0  0
  5 26  1  0  0  0
  5 92  1  0  0  0
  6 25  1  0  0  0
  6 93  1  0  0  0
  6 94  1  0  0  0
  7  8  2  0  0  0
  7 26  1  0  0  0
  7 29  1  0  0  0
  8  9  1  0  0  0
  8 22  1  0  0  0
  9 10  1  0  0  0
  9 27  2  0  0  0
 10 11  2  0  0  0
 10 15  1  0  0  0
 11 12  1  0  0  0
 11 95  1  0  0  0
 12 13  2  0  0  0
 12 96  1  0  0  0
 13 14  1  0  0  0
 13 31  1  0  0  0
 14 15  2  0  0  0
 14 97  1  0  0  0
 15 98  1  0  0  0
 16 17  2  0  0  0
 16 21  1  0  0  0
 16 31  1  0  0  0
 17 18  1  0  0  0
 17 99  1  0  0  0
 18 19  2  0  0  0
 18100  1  0  0  0
 19 20  1  0  0  0
 19 24  1  0  0  0
 20 21  2  0  0  0
 20101  1  0  0  0
 21 23  1  0  0  0
 22 28  1  0  0  0
 22 32  2  0  0  0
 26 27  1  0  0  0
 28102  1  0  0  0
 28103  1  0  0  0
 29104  1  0  0  0
 29105  1  0  0  0
 33 34  1  0  0  0
 33 66  1  0  0  0
 33 70  2  0  0  0
 34 36  1  0  0  0
 34 59  1  0  0  0
 34106  1  0  0  0
 35 44  2  0  0  0
 35 45  1  0  0  0
 35 68  1  0  0  0
 36 56  1  0  0  0
 36107  1  0  0  0
 37 39  1  0  0  0
 37 47  1  0  0  0
 37 66  1  0  0  0
 37108  1  0  0  0
 38 43  2  0  0  0
 38 46  1  0  0  0
 38 47  1  0  0  0
 39 64  1  0  0  0
 39 67  2  0  0  0
 40 52  1  0  0  0
 40 53  2  0  0  0
 40 58  1  0  0  0
 41109  1  0  0  0
 41110  1  0  0  0
 41111  1  0  0  0
 41 48  1  0  0  0
 42 43  1  0  0  0
 42 66  1  0  0  0
 42112  1  0  0  0
 42113  1  0  0  0
 43 44  1  0  0  0
 44114  1  0  0  0
 45 46  2  0  0  0
 45115  1  0  0  0
 46116  1  0  0  0
 47117  1  0  0  0
 47118  1  0  0  0
 48 56  1  0  0  0
 48 65  1  0  0  0
 48119  1  0  0  0
 49 50  1  0  0  0
 49 53  1  0  0  0
 49 64  1  0  0  0
 49120  1  0  0  0
 50 51  1  0  0  0
 50121  1  0  0  0
 50122  1  0  0  0
 51 52  1  0  0  0
 51123  1  0  0  0
 51124  1  0  0  0
 52125  1  0  0  0
 52126  1  0  0  0
 53 54  1  0  0  0
 54 55  2  0  0  0
 54127  1  0  0  0
 55 57  1  0  0  0
 55128  1  0  0  0
 56 69  2  0  0  0
 57 58  2  0  0  0
 57129  1  0  0  0
 58130  1  0  0  0
 59 60  1  0  0  0
 59 61  1  0  0  0
 59 62  1  0  0  0
 60131  1  0  0  0
 60132  1  0  0  0
 60133  1  0  0  0
 61134  1  0  0  0
 61135  1  0  0  0
 61136  1  0  0  0
 62137  1  0  0  0
 62138  1  0  0  0
 62139  1  0  0  0
 63 65  1  0  0  0
 63140  1  0  0  0
 63141  1  0  0  0
 63142  1  0  0  0
 64143  1  0  0  0
 65144  1  0  0  0
 68 81  1  0  0  0
 71 72  2  0  0  0
 71 74  1  0  0  0
 71145  1  0  0  0
 72 76  1  0  0  0
 72146  1  0  0  0
 73 74  2  0  0  0
 73 75  1  0  0  0
 73147  1  0  0  0
 74 79  1  0  0  0
 75 76  2  0  0  0
 75 82  1  0  0  0
 76 85  1  0  0  0
 77 80  1  0  0  0
 77 83  1  0  0  0
 77 84  2  0  0  0
 78 83  1  0  0  0
 78148  1  0  0  0
 78149  1  0  0  0
 78150  1  0  0  0
 79 83  1  0  0  0
 79151  1  0  0  0
 79152  1  0  0  0
 80 81  1  0  0  0
 80153  1  0  0  0
 80154  1  0  0  0
 81155  1  0  0  0
 81156  1  0  0  0
 82157  1  0  0  0
M  ISO  4   1 100  68 101  81 101  82 100
M  END
> <chiral flag>
0

> <version>
0

> <s_m_source_file>
/data/baiqing/PycharmProjects/Reinvent-master-3.2/result/LINK_invent/BTK/process_docking_weight1_custom_product_contain_oxygen_bond_distance_aromatic_linkinvent_7_9_3/rearranged_h_0049.sdf

> <i_m_source_file_index>
22

> <r_mmod_Potential_Energy-OPLS-2005>
-33.3303108215332

> <r_mmod_Stretch_Energy-OPLS-2005>
46.5307731628418

> <r_mmod_Bend_Energy-OPLS-2005>
102.506271362305

> <r_mmod_Torsional_Energy-OPLS-2005>
263.532958984375

> <r_mmod_Improper_Torsional_Energy-OPLS-2005>
6.92274618148804

> <r_mmod_Van_der_Waal_Energy-OPLS-2005>
168.296127319336

> <r_mmod_Electrostatic_Energy-OPLS-2005>
-410.304321289062

> <r_mmod_Solvation_Energy-OPLS-2005>
-237.229721069336

> <b_mmod_Minimization_Converged-OPLS-2005>
0

> <r_mmod_RMS_Derivative-OPLS-2005>
3.14687299728394

$$$$
22
                    3D
 Structure written by MMmdl.
173182  0  0  1  0            999 V2000
  -30.6948  -14.5306   20.5993 C   0  0  0  0  0  0
  -30.4218  -12.3549   19.4343 C   0  0  0  0  0  0
  -29.4904  -12.5248   18.2155 C   0  0  0  0  0  0
  -28.0154  -12.3699   18.6317 C   0  0  0  0  0  0
  -27.6554  -13.2182   19.8795 C   0  0  2  0  0  0
  -28.6985  -13.0264   21.0039 C   0  0  0  0  0  0
  -25.2511  -13.8137   20.5704 C   0  0  0  0  0  0
  -24.1792  -13.0412   20.9176 C   0  0  0  0  0  0
  -24.6378  -11.6885   20.8734 C   0  0  0  0  0  0
  -23.9059  -10.4276   21.0408 C   0  0  0  0  0  0
  -24.3604   -9.4191   21.9194 C   0  0  0  0  0  0
  -23.6281   -8.2227   22.0753 C   0  0  0  0  0  0
  -22.4267   -8.0270   21.3539 C   0  0  0  0  0  0
  -21.9904   -9.0243   20.4634 C   0  0  0  0  0  0
  -22.7232  -10.2126   20.3050 C   0  0  0  0  0  0
  -21.6846   -6.0728   22.5275 C   0  0  0  0  0  0
  -21.4009   -6.5633   23.8214 C   0  0  0  0  0  0
  -21.3662   -5.6788   24.9176 C   0  0  0  0  0  0
  -21.6047   -4.3048   24.7233 C   0  0  0  0  0  0
  -21.8818   -3.8140   23.4347 C   0  0  0  0  0  0
  -21.9192   -4.6952   22.3402 C   0  0  0  0  0  0
  -22.7811  -13.5197   21.1881 C   0  0  0  0  0  0
  -22.1660   -4.2132   21.0984 F   0  0  0  0  0  0
  -21.5640   -3.4540   25.7751 F   0  0  0  0  0  0
  -30.0247  -13.3488   20.4498 N   0  0  0  0  0  0
  -26.2994  -12.9363   20.3410 N   0  0  0  0  0  0
  -25.9313  -11.6506   20.5780 N   0  0  0  0  0  0
  -22.0477  -12.8167   22.0425 N   0  0  0  0  0  0
  -25.4178  -15.1857   20.4137 N   0  0  0  0  0  0
  -31.8230  -14.7055   20.1305 O   0  0  0  0  0  0
  -21.6635   -6.8868   21.4238 O   0  0  0  0  0  0
  -22.3485  -14.5528   20.6773 O   0  0  0  0  0  0
  -24.6144  -31.8685   23.2077 C   0  0  0  0  0  0
  -25.9026  -32.4807   23.8391 C   0  0  1  0  0  0
  -27.2196  -27.4246   20.1149 C   0  0  0  0  0  0
  -25.5886  -33.8609   24.2319 N   0  0  0  0  0  0
  -23.4001  -30.4917   21.5509 C   0  0  2  0  0  0
  -24.8459  -28.9580   20.1145 C   0  0  0  0  0  0
  -22.7406  -29.4655   22.4991 C   0  0  0  0  0  0
  -18.0266  -28.1362   22.8486 C   0  0  0  0  0  0
  -24.1482  -36.7326   23.2635 C   0  0  0  0  0  0
  -25.9265  -30.8376   21.3543 C   0  0  0  0  0  0
  -26.0070  -29.4700   20.7056 C   0  0  0  0  0  0
  -27.2027  -28.7119   20.6997 C   0  0  0  0  0  0
  -26.0444  -26.9301   19.5074 C   0  0  0  0  0  0
  -24.8590  -27.6887   19.5101 C   0  0  0  0  0  0
  -23.6070  -29.8271   20.1657 C   0  0  0  0  0  0
  -25.4100  -36.3107   24.0322 C   0  0  1  0  0  0
  -20.5856  -28.3667   23.1300 C   0  0  2  0  0  0
  -20.6773  -26.9407   22.5409 C   0  0  0  0  0  0
  -19.5763  -26.6390   21.5189 C   0  0  0  0  0  0
  -18.1933  -26.7907   22.1593 C   0  0  0  0  0  0
  -19.1513  -28.8837   23.2887 C   0  0  0  0  0  0
  -18.9449  -30.1427   23.8919 C   0  0  0  0  0  0
  -17.6459  -30.6593   24.0549 C   0  0  0  0  0  0
  -25.9032  -34.9468   23.5125 C   0  0  0  0  0  0
  -16.5342  -29.9092   23.6325 C   0  0  0  0  0  0
  -16.7252  -28.6486   23.0379 C   0  0  0  0  0  0
  -26.4471  -31.6569   25.0701 C   0  0  0  0  0  0
  -25.3755  -31.3575   26.1447 C   0  0  0  0  0  0
  -27.0315  -30.3046   24.6022 C   0  0  0  0  0  0
  -27.6086  -32.4259   25.7469 C   0  0  0  0  0  0
  -27.5572  -37.1809   24.8452 C   0  0  0  0  0  0
  -21.4131  -29.3017   22.3700 N   0  0  0  0  0  0
  -26.4286  -37.3788   23.9384 N   0  0  0  0  0  0
  -24.6656  -31.0797   22.0974 N   0  0  0  0  0  0
  -23.4184  -28.8210   23.3034 O   0  0  0  0  0  0
  -28.3522  -26.6420   20.1591 O   0  0  0  0  0  0
  -26.5627  -34.8922   22.4720 O   0  0  0  0  0  0
  -23.5334  -32.1449   23.7467 O   0  0  0  0  0  0
  -30.8842  -19.7023   21.6829 C   0  0  0  0  0  0
  -31.6229  -17.3695   21.6888 C   0  0  0  0  0  0
  -31.8998  -18.7451   21.8672 C   0  0  0  0  0  0
  -29.6010  -19.3303   21.2350 C   0  0  0  0  0  0
  -30.3310  -16.9436   21.2890 C   0  0  0  0  0  0
  -29.3284  -17.9367   21.0621 C   0  0  0  0  0  0
  -33.9486  -18.6816   23.2283 C   0  0  0  0  0  0
  -33.2381  -19.2465   22.2306 C   0  0  0  0  0  0
  -29.5767  -21.1706   18.0590 C   0  0  0  0  0  0
  -30.0079  -21.5552   19.2723 C   0  0  0  0  0  0
  -28.5780  -24.1870   19.8779 C   0  0  0  0  0  0
  -35.3207  -19.1594   23.6864 C   0  0  0  0  0  0
  -33.8259  -20.3965   21.4118 C   0  0  0  0  0  0
  -35.7119  -20.5186   23.0788 C   0  0  0  0  0  0
  -35.3405  -20.5778   21.5949 C   0  0  0  0  0  0
  -28.5460  -20.4400   20.9647 C   0  0  0  0  0  0
  -28.0052  -22.7680   20.1606 C   0  0  0  0  0  0
  -28.1534  -25.3546   20.7922 C   0  0  0  0  0  0
  -29.9930  -15.5430   21.1677 N   0  0  0  0  0  0
  -29.0720  -21.7430   20.4215 N   0  3  2  0  0  0
  -29.3371  -24.3964   18.9246 O   0  0  0  0  0  0
  -27.7535  -17.4268   20.5712 Cl  0  0  0  0  0  0
  -31.4637  -12.4620   19.1276 H   0  0  0  0  0  0
  -30.3335  -11.3476   19.8452 H   0  0  0  0  0  0
  -29.7393  -11.7958   17.4435 H   0  0  0  0  0  0
  -29.6451  -13.5082   17.7685 H   0  0  0  0  0  0
  -27.8387  -11.3144   18.8413 H   0  0  0  0  0  0
  -27.3588  -12.6309   17.8002 H   0  0  0  0  0  0
  -27.6886  -14.2639   19.5711 H   0  0  0  0  0  0
  -28.6863  -11.9948   21.3592 H   0  0  0  0  0  0
  -28.4478  -13.6362   21.8731 H   0  0  0  0  0  0
  -25.2748   -9.5675   22.4769 H   0  0  0  0  0  0
  -23.9995   -7.4618   22.7466 H   0  0  0  0  0  0
  -21.0842   -8.8755   19.8925 H   0  0  0  0  0  0
  -22.3695  -10.9664   19.6152 H   0  0  0  0  0  0
  -21.1998   -7.6137   23.9706 H   0  0  0  0  0  0
  -21.1490   -6.0523   25.9080 H   0  0  0  0  0  0
  -22.0599   -2.7592   23.2863 H   0  0  0  0  0  0
  -22.4092  -11.9780   22.4734 H   0  0  0  0  0  0
  -21.1112  -13.1169   22.2700 H   0  0  0  0  0  0
  -24.6579  -15.8430   20.5460 H   0  0  0  0  0  0
  -26.2903  -15.6378   20.1679 H   0  0  0  0  0  0
  -26.7096  -32.5542   23.1152 H   0  0  0  0  0  0
  -24.9926  -33.9755   25.0390 H   0  0  0  0  0  0
  -22.6836  -31.3046   21.4153 H   0  0  0  0  0  0
  -23.3723  -35.9680   23.3295 H   0  0  0  0  0  0
  -24.3551  -36.8980   22.2054 H   0  0  0  0  0  0
  -23.7269  -37.6529   23.6684 H   0  0  0  0  0  0
  -26.0212  -31.6040   20.5823 H   0  0  0  0  0  0
  -26.8162  -30.9042   21.9658 H   0  0  0  0  0  0
  -28.1004  -29.0908   21.1701 H   0  0  0  0  0  0
  -26.0373  -25.9528   19.0453 H   0  0  0  0  0  0
  -23.9620  -27.2890   19.0555 H   0  0  0  0  0  0
  -23.7013  -30.6035   19.4039 H   0  0  0  0  0  0
  -22.7302  -29.2432   19.8790 H   0  0  0  0  0  0
  -25.1273  -36.1978   25.0812 H   0  0  0  0  0  0
  -20.9930  -28.3278   24.1425 H   0  0  0  0  0  0
  -20.5696  -26.2279   23.3590 H   0  0  0  0  0  0
  -21.6653  -26.7489   22.1205 H   0  0  0  0  0  0
  -19.6951  -25.6306   21.1209 H   0  0  0  0  0  0
  -19.6707  -27.3199   20.6720 H   0  0  0  0  0  0
  -17.4208  -26.6640   21.3987 H   0  0  0  0  0  0
  -18.0333  -26.0027   22.8973 H   0  0  0  0  0  0
  -19.7925  -30.7201   24.2344 H   0  0  0  0  0  0
  -17.5024  -31.6277   24.5137 H   0  0  0  0  0  0
  -15.5351  -30.3018   23.7621 H   0  0  0  0  0  0
  -15.8631  -28.0791   22.7157 H   0  0  0  0  0  0
  -24.5988  -30.6884   25.7722 H   0  0  0  0  0  0
  -24.8874  -32.2678   26.4955 H   0  0  0  0  0  0
  -25.8148  -30.8701   27.0172 H   0  0  0  0  0  0
  -26.2856  -29.6735   24.1198 H   0  0  0  0  0  0
  -27.4248  -29.7314   25.4419 H   0  0  0  0  0  0
  -27.8589  -30.4332   23.9042 H   0  0  0  0  0  0
  -27.2783  -33.3578   26.2046 H   0  0  0  0  0  0
  -28.3921  -32.6772   25.0315 H   0  0  0  0  0  0
  -28.0718  -31.8367   26.5378 H   0  0  0  0  0  0
  -28.2583  -38.0115   24.7559 H   0  0  0  0  0  0
  -28.1095  -36.2667   24.6242 H   0  0  0  0  0  0
  -27.2290  -37.1429   25.8853 H   0  0  0  0  0  0
  -20.9302  -29.8678   21.6858 H   0  0  0  0  0  0
  -26.0180  -38.2857   24.1427 H   0  0  0  0  0  0
  -31.1103  -20.7408   21.8704 H   0  0  0  0  0  0
  -32.4062  -16.6465   21.8618 H   0  0  0  0  0  0
  -33.5337  -17.8458   23.7755 H   0  0  0  0  0  0
  -30.2679  -21.0621   17.2364 H   0  0  0  0  0  0
  -28.5343  -20.9643   17.8657 H   0  0  0  0  0  0
  -31.0427  -21.7686   19.5045 H   0  0  0  0  0  0
  -36.0595  -18.4020   23.4220 H   0  0  0  0  0  0
  -35.3249  -19.2346   24.7741 H   0  0  0  0  0  0
  -33.3063  -21.3175   21.6770 H   0  0  0  0  0  0
  -33.6217  -20.2101   20.3568 H   0  0  0  0  0  0
  -36.7788  -20.7029   23.2133 H   0  0  0  0  0  0
  -35.1945  -21.3200   23.6095 H   0  0  0  0  0  0
  -35.6548  -21.5267   21.1603 H   0  0  0  0  0  0
  -35.8787  -19.7983   21.0527 H   0  0  0  0  0  0
  -27.9940  -20.6196   21.8890 H   0  0  0  0  0  0
  -27.8154  -20.0659   20.2502 H   0  0  0  0  0  0
  -27.4277  -22.4584   19.2893 H   0  0  0  0  0  0
  -27.3064  -22.8224   20.9953 H   0  0  0  0  0  0
  -28.7636  -25.3248   21.6951 H   0  0  0  0  0  0
  -27.1238  -25.2103   21.1218 H   0  0  0  0  0  0
  -29.0392  -15.3139   21.4035 H   0  0  0  0  0  0
  -29.6022  -22.1475   21.1805 H   0  0  0  0  0  0
  1 25  1  0  0  0
  1 30  2  0  0  0
  1 89  1  0  0  0
  2  3  1  0  0  0
  2 25  1  0  0  0
  2 93  1  0  0  0
  2 94  1  0  0  0
  3  4  1  0  0  0
  3 95  1  0  0  0
  3 96  1  0  0  0
  4  5  1  0  0  0
  4 97  1  0  0  0
  4 98  1  0  0  0
  5  6  1  0  0  0
  5 26  1  0  0  0
  5 99  1  0  0  0
  6 25  1  0  0  0
  6100  1  0  0  0
  6101  1  0  0  0
  7  8  2  0  0  0
  7 26  1  0  0  0
  7 29  1  0  0  0
  8  9  1  0  0  0
  8 22  1  0  0  0
  9 10  1  0  0  0
  9 27  2  0  0  0
 10 11  2  0  0  0
 10 15  1  0  0  0
 11 12  1  0  0  0
 11102  1  0  0  0
 12 13  2  0  0  0
 12103  1  0  0  0
 13 14  1  0  0  0
 13 31  1  0  0  0
 14 15  2  0  0  0
 14104  1  0  0  0
 15105  1  0  0  0
 16 17  2  0  0  0
 16 21  1  0  0  0
 16 31  1  0  0  0
 17 18  1  0  0  0
 17106  1  0  0  0
 18 19  2  0  0  0
 18107  1  0  0  0
 19 20  1  0  0  0
 19 24  1  0  0  0
 20 21  2  0  0  0
 20108  1  0  0  0
 21 23  1  0  0  0
 22 28  1  0  0  0
 22 32  2  0  0  0
 26 27  1  0  0  0
 28109  1  0  0  0
 28110  1  0  0  0
 29111  1  0  0  0
 29112  1  0  0  0
 33 34  1  0  0  0
 33 66  1  0  0  0
 33 70  2  0  0  0
 34 36  1  0  0  0
 34 59  1  0  0  0
 34113  1  0  0  0
 35 44  2  0  0  0
 35 45  1  0  0  0
 35 68  1  0  0  0
 36 56  1  0  0  0
 36114  1  0  0  0
 37 39  1  0  0  0
 37 47  1  0  0  0
 37 66  1  0  0  0
 37115  1  0  0  0
 38 43  2  0  0  0
 38 46  1  0  0  0
 38 47  1  0  0  0
 39 64  1  0  0  0
 39 67  2  0  0  0
 40 52  1  0  0  0
 40 53  2  0  0  0
 40 58  1  0  0  0
 41116  1  0  0  0
 41117  1  0  0  0
 41118  1  0  0  0
 41 48  1  0  0  0
 42 43  1  0  0  0
 42 66  1  0  0  0
 42119  1  0  0  0
 42120  1  0  0  0
 43 44  1  0  0  0
 44121  1  0  0  0
 45 46  2  0  0  0
 45122  1  0  0  0
 46123  1  0  0  0
 47124  1  0  0  0
 47125  1  0  0  0
 48 56  1  0  0  0
 48 65  1  0  0  0
 48126  1  0  0  0
 49 50  1  0  0  0
 49 53  1  0  0  0
 49 64  1  0  0  0
 49127  1  0  0  0
 50 51  1  0  0  0
 50128  1  0  0  0
 50129  1  0  0  0
 51 52  1  0  0  0
 51130  1  0  0  0
 51131  1  0  0  0
 52132  1  0  0  0
 52133  1  0  0  0
 53 54  1  0  0  0
 54 55  2  0  0  0
 54134  1  0  0  0
 55 57  1  0  0  0
 55135  1  0  0  0
 56 69  2  0  0  0
 57 58  2  0  0  0
 57136  1  0  0  0
 58137  1  0  0  0
 59 60  1  0  0  0
 59 61  1  0  0  0
 59 62  1  0  0  0
 60138  1  0  0  0
 60139  1  0  0  0
 60140  1  0  0  0
 61141  1  0  0  0
 61142  1  0  0  0
 61143  1  0  0  0
 62144  1  0  0  0
 62145  1  0  0  0
 62146  1  0  0  0
 63 65  1  0  0  0
 63147  1  0  0  0
 63148  1  0  0  0
 63149  1  0  0  0
 64150  1  0  0  0
 65151  1  0  0  0
 68 88  1  0  0  0
 71 73  2  0  0  0
 71 74  1  0  0  0
 71152  1  0  0  0
 72 73  1  0  0  0
 72 75  2  0  0  0
 72153  1  0  0  0
 73 78  1  0  0  0
 74 76  2  0  0  0
 74 86  1  0  0  0
 75 76  1  0  0  0
 75 89  1  0  0  0
 76 92  1  0  0  0
 77 78  2  0  0  0
 77 82  1  0  0  0
 77154  1  0  0  0
 78 83  1  0  0  0
 79 80  2  0  0  0
 79155  1  0  0  0
 79156  1  0  0  0
 80 90  1  0  0  0
 80157  1  0  0  0
 81 87  1  0  0  0
 81 88  1  0  0  0
 81 91  2  0  0  0
 82 84  1  0  0  0
 82158  1  0  0  0
 82159  1  0  0  0
 83 85  1  0  0  0
 83160  1  0  0  0
 83161  1  0  0  0
 84 85  1  0  0  0
 84162  1  0  0  0
 84163  1  0  0  0
 85164  1  0  0  0
 85165  1  0  0  0
 86166  1  0  0  0
 86167  1  0  0  0
 86 90  1  0  0  0
 87 90  1  0  0  0
 87168  1  0  0  0
 87169  1  0  0  0
 88170  1  0  0  0
 88171  1  0  0  0
 89172  1  0  0  0
 90173  1  0  0  0
M  CHG  1  90   1
M  ISO  4   1 100  68 101  88 101  89 100
M  END
> <chiral flag>
0

> <version>
0

> <s_m_source_file>
/data/baiqing/PycharmProjects/Reinvent-master-3.2/result/LINK_invent/BTK/process_docking_weight1_custom_product_contain_oxygen_bond_distance_aromatic_linkinvent_7_9_3/rearranged_h_0049.sdf

> <i_m_source_file_index>
23

> <r_mmod_Potential_Energy-OPLS-2005>
-209.940948486328

> <r_mmod_Stretch_Energy-OPLS-2005>
51.1363716125488

> <r_mmod_Bend_Energy-OPLS-2005>
111.236785888672

> <r_mmod_Torsional_Energy-OPLS-2005>
266.990661621094

> <r_mmod_Improper_Torsional_Energy-OPLS-2005>
3.40975332260132

> <r_mmod_Van_der_Waal_Energy-OPLS-2005>
161.384582519531

> <r_mmod_Electrostatic_Energy-OPLS-2005>
-341.676483154297

> <r_mmod_Solvation_Energy-OPLS-2005>
-481.639862060547

> <b_mmod_Minimization_Converged-OPLS-2005>
0

> <r_mmod_RMS_Derivative-OPLS-2005>
3.92841124534607

$$$$
23
                    3D
 Structure written by MMmdl.
158166  0  0  1  0            999 V2000
  -30.7227  -14.6135   20.5568 C   0  0  0  0  0  0
  -30.4222  -12.3924   19.4775 C   0  0  0  0  0  0
  -29.5111  -12.5056   18.2379 C   0  0  0  0  0  0
  -28.0347  -12.3397   18.6506 C   0  0  0  0  0  0
  -27.6570  -13.2295   19.8653 C   0  0  2  0  0  0
  -28.6965  -13.1273   21.0052 C   0  0  0  0  0  0
  -25.2566  -13.8228   20.5666 C   0  0  0  0  0  0
  -24.1815  -13.0491   20.9172 C   0  0  0  0  0  0
  -24.6399  -11.6959   20.8776 C   0  0  0  0  0  0
  -23.9062  -10.4326   21.0445 C   0  0  0  0  0  0
  -24.3614   -9.4227   21.9223 C   0  0  0  0  0  0
  -23.6289   -8.2258   22.0775 C   0  0  0  0  0  0
  -22.4269   -8.0309   21.3565 C   0  0  0  0  0  0
  -21.9902   -9.0282   20.4676 C   0  0  0  0  0  0
  -22.7231  -10.2155   20.3086 C   0  0  0  0  0  0
  -21.6832   -6.0754   22.5290 C   0  0  0  0  0  0
  -21.4011   -6.5649   23.8234 C   0  0  0  0  0  0
  -21.3642   -5.6788   24.9187 C   0  0  0  0  0  0
  -21.6025   -4.3054   24.7237 C   0  0  0  0  0  0
  -21.8804   -3.8159   23.4357 C   0  0  0  0  0  0
  -21.9179   -4.6981   22.3416 C   0  0  0  0  0  0
  -22.7809  -13.5275   21.1789 C   0  0  0  0  0  0
  -22.1660   -4.2169   21.0996 F   0  0  0  0  0  0
  -21.5622   -3.4539   25.7762 F   0  0  0  0  0  0
  -30.0121  -13.4465   20.4363 N   0  0  0  0  0  0
  -26.3008  -12.9423   20.3345 N   0  0  0  0  0  0
  -25.9343  -11.6566   20.5814 N   0  0  0  0  0  0
  -22.0393  -12.8333   22.0352 N   0  0  0  0  0  0
  -25.4354  -15.1933   20.4014 N   0  0  0  0  0  0
  -31.8624  -14.6808   20.0886 O   0  0  0  0  0  0
  -21.6632   -6.8899   21.4251 O   0  0  0  0  0  0
  -22.3504  -14.5558   20.6602 O   0  0  0  0  0  0
  -24.6222  -31.8627   23.2057 C   0  0  0  0  0  0
  -25.9094  -32.4784   23.8360 C   0  0  1  0  0  0
  -27.2091  -27.3428   20.1281 C   0  0  0  0  0  0
  -25.5947  -33.8586   24.2293 N   0  0  0  0  0  0
  -23.4123  -30.4914   21.5433 C   0  0  2  0  0  0
  -24.8616  -28.9529   20.1081 C   0  0  0  0  0  0
  -22.7442  -29.4648   22.4898 C   0  0  0  0  0  0
  -18.0285  -28.1390   22.8494 C   0  0  0  0  0  0
  -24.1465  -36.7293   23.2629 C   0  0  0  0  0  0
  -25.9505  -30.8048   21.3715 C   0  0  0  0  0  0
  -26.0263  -29.4312   20.7207 C   0  0  0  0  0  0
  -27.2073  -28.6346   20.7308 C   0  0  0  0  0  0
  -26.0415  -26.9304   19.4575 C   0  0  0  0  0  0
  -24.8690  -27.7079   19.4626 C   0  0  0  0  0  0
  -23.6309  -29.8304   20.1557 C   0  0  0  0  0  0
  -25.4084  -36.3089   24.0335 C   0  0  1  0  0  0
  -20.5888  -28.3695   23.1257 C   0  0  2  0  0  0
  -20.6778  -26.9417   22.5386 C   0  0  0  0  0  0
  -19.5749  -26.6396   21.5194 C   0  0  0  0  0  0
  -18.1935  -26.7934   22.1617 C   0  0  0  0  0  0
  -19.1540  -28.8863   23.2892 C   0  0  0  0  0  0
  -18.9477  -30.1478   23.8882 C   0  0  0  0  0  0
  -17.6481  -30.6600   24.0574 C   0  0  0  0  0  0
  -25.9019  -34.9439   23.5094 C   0  0  0  0  0  0
  -16.5366  -29.9096   23.6349 C   0  0  0  0  0  0
  -16.7278  -28.6518   23.0362 C   0  0  0  0  0  0
  -26.4504  -31.6588   25.0702 C   0  0  0  0  0  0
  -25.3786  -31.3808   26.1486 C   0  0  0  0  0  0
  -27.0333  -30.3000   24.6125 C   0  0  0  0  0  0
  -27.6037  -32.4340   25.7500 C   0  0  0  0  0  0
  -27.5567  -37.1791   24.8468 C   0  0  0  0  0  0
  -21.4162  -29.3048   22.3644 N   0  0  0  0  0  0
  -26.4255  -37.3796   23.9438 N   0  0  0  0  0  0
  -24.6795  -31.0687   22.0981 N   0  0  0  0  0  0
  -23.4202  -28.8170   23.2955 O   0  0  0  0  0  0
  -28.2581  -26.4270   20.2332 O   0  0  0  0  0  0
  -26.5572  -34.8902   22.4647 O   0  0  0  0  0  0
  -23.5401  -32.1408   23.7408 O   0  0  0  0  0  0
  -33.0086  -17.8463   22.1994 C   0  0  0  0  0  0
  -32.8659  -19.0050   21.4255 C   0  0  0  0  0  0
  -30.5771  -18.3358   20.8107 C   0  0  0  0  0  0
  -30.8715  -16.9950   21.3078 C   0  0  0  0  0  0
  -32.0450  -16.8313   22.0992 C   0  0  0  0  0  0
  -31.6865  -19.2289   20.6967 C   0  0  0  0  0  0
  -28.2463  -22.6564   20.6888 C   0  0  0  0  0  0
  -28.7046  -23.9187   20.9738 C   0  0  0  0  0  0
  -28.9815  -21.3949   21.0007 C   0  0  0  0  0  0
  -28.0683  -20.4290   18.9090 C   0  0  0  0  0  0
  -29.1257  -18.8383   20.5041 C   0  0  0  0  0  0
  -27.8446  -25.2196   20.9735 C   0  0  0  0  0  0
  -30.1236  -15.7629   21.0283 N   0  0  0  0  0  0
  -28.7850  -20.2942   20.1867 N   0  0  0  0  0  0
  -29.6697  -21.3002   22.0217 O   0  0  0  0  0  0
  -32.2649  -15.6744   22.7703 F   0  0  0  0  0  0
  -31.7324  -20.5685   19.5943 Cl  0  0  0  0  0  0
  -31.4686  -12.4781   19.1752 H   0  0  0  0  0  0
  -30.3407  -11.4064   19.9400 H   0  0  0  0  0  0
  -29.7847  -11.7500   17.4996 H   0  0  0  0  0  0
  -29.6607  -13.4731   17.7570 H   0  0  0  0  0  0
  -27.8769  -11.2924   18.9065 H   0  0  0  0  0  0
  -27.3732  -12.5478   17.8108 H   0  0  0  0  0  0
  -27.6752  -14.2568   19.4984 H   0  0  0  0  0  0
  -28.6981  -12.1221   21.4301 H   0  0  0  0  0  0
  -28.4469  -13.7996   21.8271 H   0  0  0  0  0  0
  -25.2764   -9.5684   22.4794 H   0  0  0  0  0  0
  -24.0010   -7.4615   22.7462 H   0  0  0  0  0  0
  -21.0849   -8.8782   19.8979 H   0  0  0  0  0  0
  -22.3712  -10.9687   19.6182 H   0  0  0  0  0  0
  -21.2042   -7.6161   23.9746 H   0  0  0  0  0  0
  -21.1454   -6.0529   25.9080 H   0  0  0  0  0  0
  -22.0606   -2.7628   23.2850 H   0  0  0  0  0  0
  -22.3958  -12.0079   22.4926 H   0  0  0  0  0  0
  -21.1004  -13.1410   22.2483 H   0  0  0  0  0  0
  -24.6760  -15.8600   20.4892 H   0  0  0  0  0  0
  -26.2949  -15.6096   20.0642 H   0  0  0  0  0  0
  -26.7159  -32.5523   23.1123 H   0  0  0  0  0  0
  -25.0191  -33.9736   25.0507 H   0  0  0  0  0  0
  -22.7040  -31.3127   21.4032 H   0  0  0  0  0  0
  -23.3713  -35.9650   23.3292 H   0  0  0  0  0  0
  -24.3554  -36.8899   22.2047 H   0  0  0  0  0  0
  -23.7215  -37.6494   23.6625 H   0  0  0  0  0  0
  -26.0689  -31.5632   20.5964 H   0  0  0  0  0  0
  -26.8349  -30.8652   21.9923 H   0  0  0  0  0  0
  -28.0908  -28.9815   21.2480 H   0  0  0  0  0  0
  -26.0255  -25.9748   18.9528 H   0  0  0  0  0  0
  -23.9835  -27.3384   18.9657 H   0  0  0  0  0  0
  -23.7583  -30.6077   19.4032 H   0  0  0  0  0  0
  -22.7548  -29.2633   19.8403 H   0  0  0  0  0  0
  -25.1256  -36.1937   25.0833 H   0  0  0  0  0  0
  -21.0019  -28.3291   24.1364 H   0  0  0  0  0  0
  -20.5651  -26.2319   23.3594 H   0  0  0  0  0  0
  -21.6659  -26.7445   22.1203 H   0  0  0  0  0  0
  -19.6886  -25.6306   21.1231 H   0  0  0  0  0  0
  -19.6660  -27.3199   20.6717 H   0  0  0  0  0  0
  -17.4197  -26.6701   21.4020 H   0  0  0  0  0  0
  -18.0333  -26.0051   22.8989 H   0  0  0  0  0  0
  -19.7964  -30.7320   24.2189 H   0  0  0  0  0  0
  -17.5044  -31.6259   24.5218 H   0  0  0  0  0  0
  -15.5372  -30.3010   23.7680 H   0  0  0  0  0  0
  -15.8671  -28.0850   22.7065 H   0  0  0  0  0  0
  -24.5905  -30.7179   25.7902 H   0  0  0  0  0  0
  -24.9060  -32.3034   26.4874 H   0  0  0  0  0  0
  -25.8167  -30.9052   27.0274 H   0  0  0  0  0  0
  -26.2892  -29.6771   24.1138 H   0  0  0  0  0  0
  -27.4037  -29.7233   25.4616 H   0  0  0  0  0  0
  -27.8760  -30.4278   23.9323 H   0  0  0  0  0  0
  -27.2585  -33.3619   26.2099 H   0  0  0  0  0  0
  -28.3859  -32.6976   25.0358 H   0  0  0  0  0  0
  -28.0692  -31.8474   26.5439 H   0  0  0  0  0  0
  -28.2595  -38.0080   24.7514 H   0  0  0  0  0  0
  -28.1042  -36.2608   24.6274 H   0  0  0  0  0  0
  -27.2292  -37.1442   25.8874 H   0  0  0  0  0  0
  -20.9317  -29.8828   21.6915 H   0  0  0  0  0  0
  -26.0124  -38.2861   24.1477 H   0  0  0  0  0  0
  -33.8990  -17.6951   22.7917 H   0  0  0  0  0  0
  -33.6703  -19.7245   21.3833 H   0  0  0  0  0  0
  -27.2425  -22.5681   20.2945 H   0  0  0  0  0  0
  -29.7188  -24.0420   21.3238 H   0  0  0  0  0  0
  -26.9893  -20.4457   19.0773 H   0  0  0  0  0  0
  -28.2761  -19.6092   18.2210 H   0  0  0  0  0  0
  -28.3583  -21.3365   18.3791 H   0  0  0  0  0  0
  -28.5528  -18.6029   21.4034 H   0  0  0  0  0  0
  -28.7198  -18.1631   19.7502 H   0  0  0  0  0  0
  -27.7959  -25.5276   22.0201 H   0  0  0  0  0  0
  -26.8272  -24.9066   20.7350 H   0  0  0  0  0  0
  -29.1335  -15.7514   21.2166 H   0  0  0  0  0  0
  1 25  1  0  0  0
  1 30  2  0  0  0
  1 83  1  0  0  0
  2  3  1  0  0  0
  2 25  1  0  0  0
  2 88  1  0  0  0
  2 89  1  0  0  0
  3  4  1  0  0  0
  3 90  1  0  0  0
  3 91  1  0  0  0
  4  5  1  0  0  0
  4 92  1  0  0  0
  4 93  1  0  0  0
  5  6  1  0  0  0
  5 26  1  0  0  0
  5 94  1  0  0  0
  6 25  1  0  0  0
  6 95  1  0  0  0
  6 96  1  0  0  0
  7  8  2  0  0  0
  7 26  1  0  0  0
  7 29  1  0  0  0
  8  9  1  0  0  0
  8 22  1  0  0  0
  9 10  1  0  0  0
  9 27  2  0  0  0
 10 11  2  0  0  0
 10 15  1  0  0  0
 11 12  1  0  0  0
 11 97  1  0  0  0
 12 13  2  0  0  0
 12 98  1  0  0  0
 13 14  1  0  0  0
 13 31  1  0  0  0
 14 15  2  0  0  0
 14 99  1  0  0  0
 15100  1  0  0  0
 16 17  2  0  0  0
 16 21  1  0  0  0
 16 31  1  0  0  0
 17 18  1  0  0  0
 17101  1  0  0  0
 18 19  2  0  0  0
 18102  1  0  0  0
 19 20  1  0  0  0
 19 24  1  0  0  0
 20 21  2  0  0  0
 20103  1  0  0  0
 21 23  1  0  0  0
 22 28  1  0  0  0
 22 32  2  0  0  0
 26 27  1  0  0  0
 28104  1  0  0  0
 28105  1  0  0  0
 29106  1  0  0  0
 29107  1  0  0  0
 33 34  1  0  0  0
 33 66  1  0  0  0
 33 70  2  0  0  0
 34 36  1  0  0  0
 34 59  1  0  0  0
 34108  1  0  0  0
 35 44  2  0  0  0
 35 45  1  0  0  0
 35 68  1  0  0  0
 36 56  1  0  0  0
 36109  1  0  0  0
 37 39  1  0  0  0
 37 47  1  0  0  0
 37 66  1  0  0  0
 37110  1  0  0  0
 38 43  2  0  0  0
 38 46  1  0  0  0
 38 47  1  0  0  0
 39 64  1  0  0  0
 39 67  2  0  0  0
 40 52  1  0  0  0
 40 53  2  0  0  0
 40 58  1  0  0  0
 41111  1  0  0  0
 41112  1  0  0  0
 41113  1  0  0  0
 41 48  1  0  0  0
 42 43  1  0  0  0
 42 66  1  0  0  0
 42114  1  0  0  0
 42115  1  0  0  0
 43 44  1  0  0  0
 44116  1  0  0  0
 45 46  2  0  0  0
 45117  1  0  0  0
 46118  1  0  0  0
 47119  1  0  0  0
 47120  1  0  0  0
 48 56  1  0  0  0
 48 65  1  0  0  0
 48121  1  0  0  0
 49 50  1  0  0  0
 49 53  1  0  0  0
 49 64  1  0  0  0
 49122  1  0  0  0
 50 51  1  0  0  0
 50123  1  0  0  0
 50124  1  0  0  0
 51 52  1  0  0  0
 51125  1  0  0  0
 51126  1  0  0  0
 52127  1  0  0  0
 52128  1  0  0  0
 53 54  1  0  0  0
 54 55  2  0  0  0
 54129  1  0  0  0
 55 57  1  0  0  0
 55130  1  0  0  0
 56 69  2  0  0  0
 57 58  2  0  0  0
 57131  1  0  0  0
 58132  1  0  0  0
 59 60  1  0  0  0
 59 61  1  0  0  0
 59 62  1  0  0  0
 60133  1  0  0  0
 60134  1  0  0  0
 60135  1  0  0  0
 61136  1  0  0  0
 61137  1  0  0  0
 61138  1  0  0  0
 62139  1  0  0  0
 62140  1  0  0  0
 62141  1  0  0  0
 63 65  1  0  0  0
 63142  1  0  0  0
 63143  1  0  0  0
 63144  1  0  0  0
 64145  1  0  0  0
 65146  1  0  0  0
 68 82  1  0  0  0
 71 72  2  0  0  0
 71 75  1  0  0  0
 71147  1  0  0  0
 72 76  1  0  0  0
 72148  1  0  0  0
 73 74  1  0  0  0
 73 76  2  0  0  0
 73 81  1  0  0  0
 74 75  2  0  0  0
 74 83  1  0  0  0
 75 86  1  0  0  0
 76 87  1  0  0  0
 77 78  2  0  0  0
 77 79  1  0  0  0
 77149  1  0  0  0
 78 82  1  0  0  0
 78150  1  0  0  0
 79 84  1  0  0  0
 79 85  2  0  0  0
 80 84  1  0  0  0
 80151  1  0  0  0
 80152  1  0  0  0
 80153  1  0  0  0
 81 84  1  0  0  0
 81154  1  0  0  0
 81155  1  0  0  0
 82156  1  0  0  0
 82157  1  0  0  0
 83158  1  0  0  0
M  ISO  4   1 100  68 101  82 101  83 100
M  END
> <chiral flag>
0

> <version>
0

> <s_m_source_file>
/data/baiqing/PycharmProjects/Reinvent-master-3.2/result/LINK_invent/BTK/process_docking_weight1_custom_product_contain_oxygen_bond_distance_aromatic_linkinvent_7_9_3/rearranged_h_0049.sdf

> <i_m_source_file_index>
24

> <r_mmod_Potential_Energy-OPLS-2005>
144.629364013672

> <r_mmod_Stretch_Energy-OPLS-2005>
90.8259353637695

> <r_mmod_Bend_Energy-OPLS-2005>
154.704772949219

> <r_mmod_Torsional_Energy-OPLS-2005>
319.550323486328

> <r_mmod_Improper_Torsional_Energy-OPLS-2005>
7.80732488632202

> <r_mmod_Van_der_Waal_Energy-OPLS-2005>
170.640167236328

> <r_mmod_Electrostatic_Energy-OPLS-2005>
-423.51318359375

> <r_mmod_Solvation_Energy-OPLS-2005>
-226.497406005859

> <b_mmod_Minimization_Converged-OPLS-2005>
0

> <r_mmod_RMS_Derivative-OPLS-2005>
5.03874921798706

$$$$
24
                    3D
 Structure written by MMmdl.
167176  0  0  1  0            999 V2000
  -30.6692  -14.6366   20.5003 C   0  0  0  0  0  0
  -30.4340  -12.3839   19.4747 C   0  0  0  0  0  0
  -29.5253  -12.5129   18.2330 C   0  0  0  0  0  0
  -28.0431  -12.3587   18.6301 C   0  0  0  0  0  0
  -27.6444  -13.2379   19.8468 C   0  0  2  0  0  0
  -28.6888  -13.1205   20.9876 C   0  0  0  0  0  0
  -25.2265  -13.8017   20.5514 C   0  0  0  0  0  0
  -24.1671  -13.0263   20.9190 C   0  0  0  0  0  0
  -24.6362  -11.6830   20.8699 C   0  0  0  0  0  0
  -23.9057  -10.4225   21.0373 C   0  0  0  0  0  0
  -24.3607   -9.4181   21.9151 C   0  0  0  0  0  0
  -23.6294   -8.2213   22.0737 C   0  0  0  0  0  0
  -22.4279   -8.0232   21.3533 C   0  0  0  0  0  0
  -21.9902   -9.0206   20.4637 C   0  0  0  0  0  0
  -22.7222  -10.2083   20.3017 C   0  0  0  0  0  0
  -21.6854   -6.0713   22.5272 C   0  0  0  0  0  0
  -21.4019   -6.5622   23.8209 C   0  0  0  0  0  0
  -21.3654   -5.6760   24.9158 C   0  0  0  0  0  0
  -21.6044   -4.3023   24.7214 C   0  0  0  0  0  0
  -21.8831   -3.8124   23.4333 C   0  0  0  0  0  0
  -21.9202   -4.6937   22.3391 C   0  0  0  0  0  0
  -22.7678  -13.5094   21.1864 C   0  0  0  0  0  0
  -22.1678   -4.2131   21.0969 F   0  0  0  0  0  0
  -21.5623   -3.4510   25.7720 F   0  0  0  0  0  0
  -30.0208  -13.4286   20.4328 N   0  0  0  0  0  0
  -26.2884  -12.9389   20.3148 N   0  0  0  0  0  0
  -25.9318  -11.6528   20.5642 N   0  0  0  0  0  0
  -22.0355  -12.8120   22.0467 N   0  0  0  0  0  0
  -25.3386  -15.1649   20.3813 N   0  0  0  0  0  0
  -31.8319  -14.7688   20.1139 O   0  0  0  0  0  0
  -21.6636   -6.8850   21.4242 O   0  0  0  0  0  0
  -22.3326  -14.5363   20.6696 O   0  0  0  0  0  0
  -24.6291  -31.8546   23.1967 C   0  0  0  0  0  0
  -25.9151  -32.4710   23.8302 C   0  0  1  0  0  0
  -27.2488  -27.3431   20.0691 C   0  0  0  0  0  0
  -25.5974  -33.8512   24.2256 N   0  0  0  0  0  0
  -23.4239  -30.4744   21.5403 C   0  0  2  0  0  0
  -24.8673  -28.9153   20.1169 C   0  0  0  0  0  0
  -22.7488  -29.4603   22.4942 C   0  0  0  0  0  0
  -18.0314  -28.1393   22.8521 C   0  0  0  0  0  0
  -24.1488  -36.7235   23.2623 C   0  0  0  0  0  0
  -25.9614  -30.7845   21.3620 C   0  0  0  0  0  0
  -26.0354  -29.4111   20.7065 C   0  0  0  0  0  0
  -27.2281  -28.6362   20.6683 C   0  0  0  0  0  0
  -26.0493  -26.8722   19.4921 C   0  0  0  0  0  0
  -24.8707  -27.6478   19.5073 C   0  0  0  0  0  0
  -23.6384  -29.7998   20.1593 C   0  0  0  0  0  0
  -25.4082  -36.3000   24.0334 C   0  0  1  0  0  0
  -20.5913  -28.3689   23.1307 C   0  0  2  0  0  0
  -20.6808  -26.9414   22.5429 C   0  0  0  0  0  0
  -19.5787  -26.6405   21.5229 C   0  0  0  0  0  0
  -18.1958  -26.7951   22.1618 C   0  0  0  0  0  0
  -19.1557  -28.8849   23.2926 C   0  0  0  0  0  0
  -18.9465  -30.1462   23.8937 C   0  0  0  0  0  0
  -17.6455  -30.6580   24.0565 C   0  0  0  0  0  0
  -25.9070  -34.9381   23.5076 C   0  0  0  0  0  0
  -16.5363  -29.9091   23.6305 C   0  0  0  0  0  0
  -16.7295  -28.6508   23.0344 C   0  0  0  0  0  0
  -26.4526  -31.6498   25.0661 C   0  0  0  0  0  0
  -25.3768  -31.3592   26.1380 C   0  0  0  0  0  0
  -27.0359  -30.2933   24.6050 C   0  0  0  0  0  0
  -27.6107  -32.4173   25.7469 C   0  0  0  0  0  0
  -27.5574  -37.1744   24.8434 C   0  0  0  0  0  0
  -21.4199  -29.3049   22.3690 N   0  0  0  0  0  0
  -26.4218  -37.3727   23.9473 N   0  0  0  0  0  0
  -24.6913  -31.0565   22.0900 N   0  0  0  0  0  0
  -23.4216  -28.8153   23.3011 O   0  0  0  0  0  0
  -28.4265  -26.5927   20.0004 O   0  0  0  0  0  0
  -26.5615  -34.8881   22.4636 O   0  0  0  0  0  0
  -23.5461  -32.1351   23.7313 O   0  0  0  0  0  0
  -31.3758  -19.2490   20.5356 C   0  0  0  0  0  0
  -31.2792  -17.8307   20.6304 C   0  0  0  0  0  0
  -30.2384  -20.0937   20.4150 C   0  0  0  0  0  0
  -28.9725  -19.4388   20.4175 C   0  0  0  0  0  0
  -28.8656  -18.0130   20.6398 C   0  0  0  0  0  0
  -30.0270  -17.1666   20.6897 C   0  0  0  0  0  0
  -29.3369  -23.1761   18.6327 C   0  0  0  0  0  0
  -28.5290  -24.2490   18.9192 C   0  0  0  0  0  0
  -29.4111  -22.4922   17.2841 C   0  0  0  0  0  0
  -30.9028  -22.4801   16.9757 C   0  0  0  0  0  0
  -31.5472  -22.2019   18.3480 C   0  0  0  0  0  0
  -27.7202  -20.2876   20.1923 C   0  0  0  0  0  0
  -30.3753  -21.6670   20.5415 C   0  0  0  0  0  0
  -28.4153  -25.1332   20.1837 C   0  0  0  0  0  0
  -27.4741  -17.3903   20.7940 C   0  0  0  0  0  0
  -29.8935  -15.7067   20.8449 N   0  0  0  0  0  0
  -30.5459  -22.6210   19.3710 N   0  3  2  0  0  0
  -26.5699  -18.1816   21.3709 F   0  0  0  0  0  0
  -27.0594  -17.0684   19.5695 F   0  0  0  0  0  0
  -27.4993  -16.2936   21.5524 F   0  0  0  0  0  0
  -31.4866  -12.4672   19.1970 H   0  0  0  0  0  0
  -30.3202  -11.3960   19.9240 H   0  0  0  0  0  0
  -29.7994  -11.7552   17.4981 H   0  0  0  0  0  0
  -29.6903  -13.4800   17.7500 H   0  0  0  0  0  0
  -27.8840  -11.3074   18.8762 H   0  0  0  0  0  0
  -27.3985  -12.5765   17.7760 H   0  0  0  0  0  0
  -27.6452  -14.2698   19.4920 H   0  0  0  0  0  0
  -28.6741  -12.1221   21.4230 H   0  0  0  0  0  0
  -28.4296  -13.8007   21.7998 H   0  0  0  0  0  0
  -25.2784   -9.5693   22.4675 H   0  0  0  0  0  0
  -24.0014   -7.4626   22.7484 H   0  0  0  0  0  0
  -21.0802   -8.8740   19.8970 H   0  0  0  0  0  0
  -22.3696  -10.9585   19.6080 H   0  0  0  0  0  0
  -21.2024   -7.6141   23.9695 H   0  0  0  0  0  0
  -21.1455   -6.0499   25.9067 H   0  0  0  0  0  0
  -22.0621   -2.7584   23.2816 H   0  0  0  0  0  0
  -22.4043  -11.9838   22.4880 H   0  0  0  0  0  0
  -21.0956  -13.1126   22.2681 H   0  0  0  0  0  0
  -24.5819  -15.7931   20.6251 H   0  0  0  0  0  0
  -26.1845  -15.6508   20.1074 H   0  0  0  0  0  0
  -26.7227  -32.5379   23.1055 H   0  0  0  0  0  0
  -25.0171  -33.9626   25.0438 H   0  0  0  0  0  0
  -22.7209  -31.2965   21.3921 H   0  0  0  0  0  0
  -23.3754  -35.9567   23.3179 H   0  0  0  0  0  0
  -24.3635  -36.8939   22.2066 H   0  0  0  0  0  0
  -23.7216  -37.6392   23.6708 H   0  0  0  0  0  0
  -26.0938  -31.5390   20.5878 H   0  0  0  0  0  0
  -26.8443  -30.8339   21.9865 H   0  0  0  0  0  0
  -28.1393  -29.0174   21.1085 H   0  0  0  0  0  0
  -26.0226  -25.9064   19.0104 H   0  0  0  0  0  0
  -23.9725  -27.2630   19.0436 H   0  0  0  0  0  0
  -23.7723  -30.5713   19.3995 H   0  0  0  0  0  0
  -22.7575  -29.2326   19.8523 H   0  0  0  0  0  0
  -25.1243  -36.1776   25.0812 H   0  0  0  0  0  0
  -21.0048  -28.3262   24.1409 H   0  0  0  0  0  0
  -20.5740  -26.2280   23.3625 H   0  0  0  0  0  0
  -21.6681  -26.7473   22.1210 H   0  0  0  0  0  0
  -19.6950  -25.6330   21.1245 H   0  0  0  0  0  0
  -19.6734  -27.3219   20.6768 H   0  0  0  0  0  0
  -17.4260  -26.6761   21.3981 H   0  0  0  0  0  0
  -18.0320  -26.0075   22.8988 H   0  0  0  0  0  0
  -19.7921  -30.7279   24.2330 H   0  0  0  0  0  0
  -17.4993  -31.6257   24.5178 H   0  0  0  0  0  0
  -15.5352  -30.2988   23.7578 H   0  0  0  0  0  0
  -15.8733  -28.0819   22.7014 H   0  0  0  0  0  0
  -24.6066  -30.6778   25.7722 H   0  0  0  0  0  0
  -24.8805  -32.2715   26.4702 H   0  0  0  0  0  0
  -25.8135  -30.8899   27.0209 H   0  0  0  0  0  0
  -26.2893  -29.6685   24.1119 H   0  0  0  0  0  0
  -27.4143  -29.7148   25.4489 H   0  0  0  0  0  0
  -27.8739  -30.4234   23.9194 H   0  0  0  0  0  0
  -27.2778  -33.3525   26.1985 H   0  0  0  0  0  0
  -28.4005  -32.6590   25.0343 H   0  0  0  0  0  0
  -28.0675  -31.8280   26.5434 H   0  0  0  0  0  0
  -28.2424  -38.0194   24.7630 H   0  0  0  0  0  0
  -28.1217  -36.2721   24.6013 H   0  0  0  0  0  0
  -27.2376  -37.1097   25.8848 H   0  0  0  0  0  0
  -20.9360  -29.8722   21.6872 H   0  0  0  0  0  0
  -26.0043  -38.2754   24.1586 H   0  0  0  0  0  0
  -32.3593  -19.6928   20.6014 H   0  0  0  0  0  0
  -32.1922  -17.2604   20.7130 H   0  0  0  0  0  0
  -27.8082  -24.5077   18.1534 H   0  0  0  0  0  0
  -28.8443  -23.0074   16.5097 H   0  0  0  0  0  0
  -29.0255  -21.4739   17.3682 H   0  0  0  0  0  0
  -31.1789  -23.4719   16.6023 H   0  0  0  0  0  0
  -31.1798  -21.7611   16.2044 H   0  0  0  0  0  0
  -32.4921  -22.7473   18.4554 H   0  0  0  0  0  0
  -31.7793  -21.1402   18.4388 H   0  0  0  0  0  0
  -27.9260  -21.1784   19.6078 H   0  0  0  0  0  0
  -27.2753  -20.6057   21.1361 H   0  0  0  0  0  0
  -26.9673  -19.7450   19.6204 H   0  0  0  0  0  0
  -31.2529  -21.8272   21.1719 H   0  0  0  0  0  0
  -29.5548  -22.0497   21.1477 H   0  0  0  0  0  0
  -29.2561  -24.8740   20.8254 H   0  0  0  0  0  0
  -27.5279  -24.8133   20.7339 H   0  0  0  0  0  0
  -28.9624  -15.4140   21.1101 H   0  0  0  0  0  0
  -30.9852  -23.4204   19.8052 H   0  0  0  0  0  0
  1 25  1  0  0  0
  1 30  2  0  0  0
  1 86  1  0  0  0
  2  3  1  0  0  0
  2 25  1  0  0  0
  2 91  1  0  0  0
  2 92  1  0  0  0
  3  4  1  0  0  0
  3 93  1  0  0  0
  3 94  1  0  0  0
  4  5  1  0  0  0
  4 95  1  0  0  0
  4 96  1  0  0  0
  5  6  1  0  0  0
  5 26  1  0  0  0
  5 97  1  0  0  0
  6 25  1  0  0  0
  6 98  1  0  0  0
  6 99  1  0  0  0
  7  8  2  0  0  0
  7 26  1  0  0  0
  7 29  1  0  0  0
  8  9  1  0  0  0
  8 22  1  0  0  0
  9 10  1  0  0  0
  9 27  2  0  0  0
 10 11  2  0  0  0
 10 15  1  0  0  0
 11 12  1  0  0  0
 11100  1  0  0  0
 12 13  2  0  0  0
 12101  1  0  0  0
 13 14  1  0  0  0
 13 31  1  0  0  0
 14 15  2  0  0  0
 14102  1  0  0  0
 15103  1  0  0  0
 16 17  2  0  0  0
 16 21  1  0  0  0
 16 31  1  0  0  0
 17 18  1  0  0  0
 17104  1  0  0  0
 18 19  2  0  0  0
 18105  1  0  0  0
 19 20  1  0  0  0
 19 24  1  0  0  0
 20 21  2  0  0  0
 20106  1  0  0  0
 21 23  1  0  0  0
 22 28  1  0  0  0
 22 32  2  0  0  0
 26 27  1  0  0  0
 28107  1  0  0  0
 28108  1  0  0  0
 29109  1  0  0  0
 29110  1  0  0  0
 33 34  1  0  0  0
 33 66  1  0  0  0
 33 70  2  0  0  0
 34 36  1  0  0  0
 34 59  1  0  0  0
 34111  1  0  0  0
 35 44  2  0  0  0
 35 45  1  0  0  0
 35 68  1  0  0  0
 36 56  1  0  0  0
 36112  1  0  0  0
 37 39  1  0  0  0
 37 47  1  0  0  0
 37 66  1  0  0  0
 37113  1  0  0  0
 38 43  2  0  0  0
 38 46  1  0  0  0
 38 47  1  0  0  0
 39 64  1  0  0  0
 39 67  2  0  0  0
 40 52  1  0  0  0
 40 53  2  0  0  0
 40 58  1  0  0  0
 41114  1  0  0  0
 41115  1  0  0  0
 41116  1  0  0  0
 41 48  1  0  0  0
 42 43  1  0  0  0
 42 66  1  0  0  0
 42117  1  0  0  0
 42118  1  0  0  0
 43 44  1  0  0  0
 44119  1  0  0  0
 45 46  2  0  0  0
 45120  1  0  0  0
 46121  1  0  0  0
 47122  1  0  0  0
 47123  1  0  0  0
 48 56  1  0  0  0
 48 65  1  0  0  0
 48124  1  0  0  0
 49 50  1  0  0  0
 49 53  1  0  0  0
 49 64  1  0  0  0
 49125  1  0  0  0
 50 51  1  0  0  0
 50126  1  0  0  0
 50127  1  0  0  0
 51 52  1  0  0  0
 51128  1  0  0  0
 51129  1  0  0  0
 52130  1  0  0  0
 52131  1  0  0  0
 53 54  1  0  0  0
 54 55  2  0  0  0
 54132  1  0  0  0
 55 57  1  0  0  0
 55133  1  0  0  0
 56 69  2  0  0  0
 57 58  2  0  0  0
 57134  1  0  0  0
 58135  1  0  0  0
 59 60  1  0  0  0
 59 61  1  0  0  0
 59 62  1  0  0  0
 60136  1  0  0  0
 60137  1  0  0  0
 60138  1  0  0  0
 61139  1  0  0  0
 61140  1  0  0  0
 61141  1  0  0  0
 62142  1  0  0  0
 62143  1  0  0  0
 62144  1  0  0  0
 63 65  1  0  0  0
 63145  1  0  0  0
 63146  1  0  0  0
 63147  1  0  0  0
 64148  1  0  0  0
 65149  1  0  0  0
 68 84  1  0  0  0
 71 72  2  0  0  0
 71 73  1  0  0  0
 71150  1  0  0  0
 72 76  1  0  0  0
 72151  1  0  0  0
 73 74  2  0  0  0
 73 83  1  0  0  0
 74 75  1  0  0  0
 74 82  1  0  0  0
 75 76  2  0  0  0
 75 85  1  0  0  0
 76 86  1  0  0  0
 77 78  2  0  0  0
 77 79  1  0  0  0
 77 87  1  0  0  0
 78 84  1  0  0  0
 78152  1  0  0  0
 79 80  1  0  0  0
 79153  1  0  0  0
 79154  1  0  0  0
 80 81  1  0  0  0
 80155  1  0  0  0
 80156  1  0  0  0
 81 87  1  0  0  0
 81157  1  0  0  0
 81158  1  0  0  0
 82159  1  0  0  0
 82160  1  0  0  0
 82161  1  0  0  0
 83162  1  0  0  0
 83163  1  0  0  0
 83 87  1  0  0  0
 84164  1  0  0  0
 84165  1  0  0  0
 85 88  1  0  0  0
 85 89  1  0  0  0
 85 90  1  0  0  0
 86166  1  0  0  0
 87167  1  0  0  0
M  CHG  1  87   1
M  ISO  4   1 100  68 101  84 101  86 100
M  END
> <chiral flag>
0

> <version>
0

> <s_m_source_file>
/data/baiqing/PycharmProjects/Reinvent-master-3.2/result/LINK_invent/BTK/process_docking_weight1_custom_product_contain_oxygen_bond_distance_aromatic_linkinvent_7_9_3/rearranged_h_0049.sdf

> <i_m_source_file_index>
25

> <r_mmod_Potential_Energy-OPLS-2005>
119.189888000488

> <r_mmod_Stretch_Energy-OPLS-2005>
83.0896606445312

> <r_mmod_Bend_Energy-OPLS-2005>
200.459045410156

> <r_mmod_Torsional_Energy-OPLS-2005>
255.693084716797

> <r_mmod_Improper_Torsional_Energy-OPLS-2005>
6.56472206115723

> <r_mmod_Van_der_Waal_Energy-OPLS-2005>
155.600646972656

> <r_mmod_Electrostatic_Energy-OPLS-2005>
-180.674545288086

> <r_mmod_Solvation_Energy-OPLS-2005>
-444.747161865234

> <b_mmod_Minimization_Converged-OPLS-2005>
0

> <r_mmod_RMS_Derivative-OPLS-2005>
6.85543584823608

$$$$
25
                    3D
 Structure written by MMmdl.
160168  0  0  1  0            999 V2000
  -30.5861  -14.7779   20.4516 C   0  0  0  0  0  0
  -30.4334  -12.4787   19.4633 C   0  0  0  0  0  0
  -29.5008  -12.4978   18.2320 C   0  0  0  0  0  0
  -28.0295  -12.3198   18.6564 C   0  0  0  0  0  0
  -27.6330  -13.2320   19.8459 C   0  0  2  0  0  0
  -28.6826  -13.1839   20.9769 C   0  0  0  0  0  0
  -25.2450  -13.8181   20.5703 C   0  0  0  0  0  0
  -24.1768  -13.0416   20.9264 C   0  0  0  0  0  0
  -24.6378  -11.6910   20.8791 C   0  0  0  0  0  0
  -23.9071  -10.4289   21.0423 C   0  0  0  0  0  0
  -24.3623   -9.4195   21.9190 C   0  0  0  0  0  0
  -23.6305   -8.2223   22.0741 C   0  0  0  0  0  0
  -22.4292   -8.0271   21.3526 C   0  0  0  0  0  0
  -21.9934   -9.0246   20.4633 C   0  0  0  0  0  0
  -22.7254  -10.2130   20.3061 C   0  0  0  0  0  0
  -21.6852   -6.0749   22.5277 C   0  0  0  0  0  0
  -21.4010   -6.5651   23.8214 C   0  0  0  0  0  0
  -21.3669   -5.6792   24.9174 C   0  0  0  0  0  0
  -21.6038   -4.3055   24.7215 C   0  0  0  0  0  0
  -21.8825   -3.8159   23.4330 C   0  0  0  0  0  0
  -21.9191   -4.6974   22.3388 C   0  0  0  0  0  0
  -22.7804  -13.5192   21.1911 C   0  0  0  0  0  0
  -22.1661   -4.2164   21.0962 F   0  0  0  0  0  0
  -21.5628   -3.4536   25.7727 F   0  0  0  0  0  0
  -29.9745  -13.5456   20.3821 N   0  0  0  0  0  0
  -26.2887  -12.9400   20.3305 N   0  0  0  0  0  0
  -25.9298  -11.6544   20.5792 N   0  0  0  0  0  0
  -22.0471  -12.8144   22.0470 N   0  0  0  0  0  0
  -25.4071  -15.1887   20.4003 N   0  0  0  0  0  0
  -31.7894  -14.8711   20.1989 O   0  0  0  0  0  0
  -21.6643   -6.8885   21.4236 O   0  0  0  0  0  0
  -22.3486  -14.5507   20.6780 O   0  0  0  0  0  0
  -24.6317  -31.8509   23.1971 C   0  0  0  0  0  0
  -25.9138  -32.4720   23.8318 C   0  0  1  0  0  0
  -27.1988  -27.2522   20.1355 C   0  0  0  0  0  0
  -25.5939  -33.8520   24.2229 N   0  0  0  0  0  0
  -23.4267  -30.4752   21.5431 C   0  0  2  0  0  0
  -24.8747  -28.9228   20.1120 C   0  0  0  0  0  0
  -22.7499  -29.4563   22.4922 C   0  0  0  0  0  0
  -18.0281  -28.1390   22.8502 C   0  0  0  0  0  0
  -24.1497  -36.7288   23.2630 C   0  0  0  0  0  0
  -25.9758  -30.7641   21.3804 C   0  0  0  0  0  0
  -26.0483  -29.3849   20.7259 C   0  0  0  0  0  0
  -27.2217  -28.5601   20.7247 C   0  0  0  0  0  0
  -26.0137  -26.8677   19.4803 C   0  0  0  0  0  0
  -24.8612  -27.6742   19.4750 C   0  0  0  0  0  0
  -23.6443  -29.8103   20.1602 C   0  0  0  0  0  0
  -25.4127  -36.3052   24.0283 C   0  0  1  0  0  0
  -20.5884  -28.3684   23.1260 C   0  0  2  0  0  0
  -20.6786  -26.9403   22.5397 C   0  0  0  0  0  0
  -19.5759  -26.6372   21.5203 C   0  0  0  0  0  0
  -18.1929  -26.7953   22.1602 C   0  0  0  0  0  0
  -19.1540  -28.8869   23.2875 C   0  0  0  0  0  0
  -18.9471  -30.1472   23.8897 C   0  0  0  0  0  0
  -17.6459  -30.6617   24.0549 C   0  0  0  0  0  0
  -25.9035  -34.9409   23.5054 C   0  0  0  0  0  0
  -16.5344  -29.9105   23.6334 C   0  0  0  0  0  0
  -16.7258  -28.6511   23.0377 C   0  0  0  0  0  0
  -26.4531  -31.6579   25.0719 C   0  0  0  0  0  0
  -25.3748  -31.3685   26.1434 C   0  0  0  0  0  0
  -27.0419  -30.3005   24.6229 C   0  0  0  0  0  0
  -27.6093  -32.4326   25.7497 C   0  0  0  0  0  0
  -27.5598  -37.1793   24.8460 C   0  0  0  0  0  0
  -21.4206  -29.3029   22.3680 N   0  0  0  0  0  0
  -26.4321  -37.3736   23.9385 N   0  0  0  0  0  0
  -24.6976  -31.0468   22.0966 N   0  0  0  0  0  0
  -23.4221  -28.8058   23.2973 O   0  0  0  0  0  0
  -28.2734  -26.3418   20.1253 O   0  0  0  0  0  0
  -26.5633  -34.8889   22.4640 O   0  0  0  0  0  0
  -23.5459  -32.1367   23.7245 O   0  0  0  0  0  0
  -31.5167  -19.1121   21.6287 C   0  0  0  0  0  0
  -30.6390  -20.1443   21.2391 C   0  0  0  0  0  0
  -31.2388  -17.7548   21.3609 C   0  0  0  0  0  0
  -29.4334  -19.8696   20.5634 C   0  0  0  0  0  0
  -29.1483  -18.4481   20.3172 C   0  0  0  0  0  0
  -30.0509  -17.3614   20.7074 C   0  0  0  0  0  0
  -26.9335  -23.4261   19.2956 C   0  0  0  0  0  0
  -25.6522  -23.4536   19.7106 C   0  0  0  0  0  0
  -28.0621  -23.5856   20.2366 C   0  0  0  0  0  0
  -27.8649  -18.0564   19.6032 C   0  0  0  0  0  0
  -24.4358  -23.3238   18.8134 C   0  0  0  0  0  0
  -28.5222  -21.1090   20.0984 C   0  0  0  0  0  0
  -28.1565  -25.0588   20.9044 C   0  0  0  0  0  0
  -28.8043  -22.5389   20.5758 N   0  0  0  0  0  0
  -29.7660  -15.9045   20.5312 N   0  0  0  0  0  0
  -31.4671  -12.6254   19.1493 H   0  0  0  0  0  0
  -30.4010  -11.5097   19.9643 H   0  0  0  0  0  0
  -29.7759  -11.7070   17.5335 H   0  0  0  0  0  0
  -29.6153  -13.4395   17.6933 H   0  0  0  0  0  0
  -27.8969  -11.2752   18.9391 H   0  0  0  0  0  0
  -27.3641  -12.4880   17.8094 H   0  0  0  0  0  0
  -27.6174  -14.2475   19.4481 H   0  0  0  0  0  0
  -28.7325  -12.1915   21.4255 H   0  0  0  0  0  0
  -28.4235  -13.8750   21.7811 H   0  0  0  0  0  0
  -25.2756   -9.5675   22.4790 H   0  0  0  0  0  0
  -24.0011   -7.4614   22.7463 H   0  0  0  0  0  0
  -21.0867   -8.8779   19.8930 H   0  0  0  0  0  0
  -22.3714  -10.9682   19.6194 H   0  0  0  0  0  0
  -21.2007   -7.6167   23.9722 H   0  0  0  0  0  0
  -21.1485   -6.0524   25.9074 H   0  0  0  0  0  0
  -22.0596   -2.7626   23.2821 H   0  0  0  0  0  0
  -22.4129  -11.9788   22.4788 H   0  0  0  0  0  0
  -21.1097  -13.1150   22.2747 H   0  0  0  0  0  0
  -24.6189  -15.8221   20.4731 H   0  0  0  0  0  0
  -26.2044  -15.6062   19.9421 H   0  0  0  0  0  0
  -26.7185  -32.5384   23.1044 H   0  0  0  0  0  0
  -25.0137  -33.9630   25.0416 H   0  0  0  0  0  0
  -22.7201  -31.2969   21.3965 H   0  0  0  0  0  0
  -23.3745  -35.9638   23.3293 H   0  0  0  0  0  0
  -24.3619  -36.8944   22.2060 H   0  0  0  0  0  0
  -23.7280  -37.6468   23.6709 H   0  0  0  0  0  0
  -26.1088  -31.5285   20.6124 H   0  0  0  0  0  0
  -26.8517  -30.8159   22.0175 H   0  0  0  0  0  0
  -28.1286  -28.9033   21.2051 H   0  0  0  0  0  0
  -25.9709  -25.9247   18.9646 H   0  0  0  0  0  0
  -23.9683  -27.3236   18.9734 H   0  0  0  0  0  0
  -23.7506  -30.5845   19.3984 H   0  0  0  0  0  0
  -22.7675  -29.2304   19.8646 H   0  0  0  0  0  0
  -25.1319  -36.1916   25.0768 H   0  0  0  0  0  0
  -20.9939  -28.3312   24.1394 H   0  0  0  0  0  0
  -20.5718  -26.2281   23.3604 H   0  0  0  0  0  0
  -21.6660  -26.7480   22.1166 H   0  0  0  0  0  0
  -19.6903  -25.6258   21.1296 H   0  0  0  0  0  0
  -19.6726  -27.3144   20.6713 H   0  0  0  0  0  0
  -17.4187  -26.6705   21.4000 H   0  0  0  0  0  0
  -18.0310  -26.0103   22.8998 H   0  0  0  0  0  0
  -19.7945  -30.7291   24.2288 H   0  0  0  0  0  0
  -17.5020  -31.6317   24.5141 H   0  0  0  0  0  0
  -15.5341  -30.3012   23.7692 H   0  0  0  0  0  0
  -15.8651  -28.0826   22.7111 H   0  0  0  0  0  0
  -24.5972  -30.6976   25.7761 H   0  0  0  0  0  0
  -24.8859  -32.2802   26.4850 H   0  0  0  0  0  0
  -25.8066  -30.8891   27.0228 H   0  0  0  0  0  0
  -26.3020  -29.6671   24.1314 H   0  0  0  0  0  0
  -27.4164  -29.7342   25.4763 H   0  0  0  0  0  0
  -27.8863  -30.4251   23.9455 H   0  0  0  0  0  0
  -27.2731  -33.3673   26.1995 H   0  0  0  0  0  0
  -28.3957  -32.6793   25.0351 H   0  0  0  0  0  0
  -28.0706  -31.8480   26.5468 H   0  0  0  0  0  0
  -28.2573  -38.0140   24.7524 H   0  0  0  0  0  0
  -28.1113  -36.2626   24.6259 H   0  0  0  0  0  0
  -27.2269  -37.1436   25.8855 H   0  0  0  0  0  0
  -20.9392  -29.8788   21.6914 H   0  0  0  0  0  0
  -26.0183  -38.2788   24.1421 H   0  0  0  0  0  0
  -32.4262  -19.3699   22.1519 H   0  0  0  0  0  0
  -30.9100  -21.1663   21.4627 H   0  0  0  0  0  0
  -31.9543  -17.0182   21.6964 H   0  0  0  0  0  0
  -27.1917  -23.2897   18.2559 H   0  0  0  0  0  0
  -25.4428  -23.5880   20.7624 H   0  0  0  0  0  0
  -27.1753  -18.8841   19.4503 H   0  0  0  0  0  0
  -27.3353  -17.3030   20.1845 H   0  0  0  0  0  0
  -28.0933  -17.6372   18.6233 H   0  0  0  0  0  0
  -24.7111  -23.1786   17.7685 H   0  0  0  0  0  0
  -23.8210  -24.2234   18.8713 H   0  0  0  0  0  0
  -23.8226  -22.4806   19.1329 H   0  0  0  0  0  0
  -27.4970  -20.8603   20.3765 H   0  0  0  0  0  0
  -28.5393  -21.0920   19.0079 H   0  0  0  0  0  0
  -29.0173  -25.0473   21.5697 H   0  0  0  0  0  0
  -27.3068  -25.1520   21.5850 H   0  0  0  0  0  0
  -28.7878  -15.6780   20.4704 H   0  0  0  0  0  0
  1 25  1  0  0  0
  1 30  2  0  0  0
  1 85  1  0  0  0
  2  3  1  0  0  0
  2 25  1  0  0  0
  2 86  1  0  0  0
  2 87  1  0  0  0
  3  4  1  0  0  0
  3 88  1  0  0  0
  3 89  1  0  0  0
  4  5  1  0  0  0
  4 90  1  0  0  0
  4 91  1  0  0  0
  5  6  1  0  0  0
  5 26  1  0  0  0
  5 92  1  0  0  0
  6 25  1  0  0  0
  6 93  1  0  0  0
  6 94  1  0  0  0
  7  8  2  0  0  0
  7 26  1  0  0  0
  7 29  1  0  0  0
  8  9  1  0  0  0
  8 22  1  0  0  0
  9 10  1  0  0  0
  9 27  2  0  0  0
 10 11  2  0  0  0
 10 15  1  0  0  0
 11 12  1  0  0  0
 11 95  1  0  0  0
 12 13  2  0  0  0
 12 96  1  0  0  0
 13 14  1  0  0  0
 13 31  1  0  0  0
 14 15  2  0  0  0
 14 97  1  0  0  0
 15 98  1  0  0  0
 16 17  2  0  0  0
 16 21  1  0  0  0
 16 31  1  0  0  0
 17 18  1  0  0  0
 17 99  1  0  0  0
 18 19  2  0  0  0
 18100  1  0  0  0
 19 20  1  0  0  0
 19 24  1  0  0  0
 20 21  2  0  0  0
 20101  1  0  0  0
 21 23  1  0  0  0
 22 28  1  0  0  0
 22 32  2  0  0  0
 26 27  1  0  0  0
 28102  1  0  0  0
 28103  1  0  0  0
 29104  1  0  0  0
 29105  1  0  0  0
 33 34  1  0  0  0
 33 66  1  0  0  0
 33 70  2  0  0  0
 34 36  1  0  0  0
 34 59  1  0  0  0
 34106  1  0  0  0
 35 44  2  0  0  0
 35 45  1  0  0  0
 35 68  1  0  0  0
 36 56  1  0  0  0
 36107  1  0  0  0
 37 39  1  0  0  0
 37 47  1  0  0  0
 37 66  1  0  0  0
 37108  1  0  0  0
 38 43  2  0  0  0
 38 46  1  0  0  0
 38 47  1  0  0  0
 39 64  1  0  0  0
 39 67  2  0  0  0
 40 52  1  0  0  0
 40 53  2  0  0  0
 40 58  1  0  0  0
 41109  1  0  0  0
 41110  1  0  0  0
 41111  1  0  0  0
 41 48  1  0  0  0
 42 43  1  0  0  0
 42 66  1  0  0  0
 42112  1  0  0  0
 42113  1  0  0  0
 43 44  1  0  0  0
 44114  1  0  0  0
 45 46  2  0  0  0
 45115  1  0  0  0
 46116  1  0  0  0
 47117  1  0  0  0
 47118  1  0  0  0
 48 56  1  0  0  0
 48 65  1  0  0  0
 48119  1  0  0  0
 49 50  1  0  0  0
 49 53  1  0  0  0
 49 64  1  0  0  0
 49120  1  0  0  0
 50 51  1  0  0  0
 50121  1  0  0  0
 50122  1  0  0  0
 51 52  1  0  0  0
 51123  1  0  0  0
 51124  1  0  0  0
 52125  1  0  0  0
 52126  1  0  0  0
 53 54  1  0  0  0
 54 55  2  0  0  0
 54127  1  0  0  0
 55 57  1  0  0  0
 55128  1  0  0  0
 56 69  2  0  0  0
 57 58  2  0  0  0
 57129  1  0  0  0
 58130  1  0  0  0
 59 60  1  0  0  0
 59 61  1  0  0  0
 59 62  1  0  0  0
 60131  1  0  0  0
 60132  1  0  0  0
 60133  1  0  0  0
 61134  1  0  0  0
 61135  1  0  0  0
 61136  1  0  0  0
 62137  1  0  0  0
 62138  1  0  0  0
 62139  1  0  0  0
 63 65  1  0  0  0
 63140  1  0  0  0
 63141  1  0  0  0
 63142  1  0  0  0
 64143  1  0  0  0
 65144  1  0  0  0
 68 83  1  0  0  0
 71 72  2  0  0  0
 71 73  1  0  0  0
 71145  1  0  0  0
 72 74  1  0  0  0
 72146  1  0  0  0
 73 76  2  0  0  0
 73147  1  0  0  0
 74 75  2  0  0  0
 74 82  1  0  0  0
 75 76  1  0  0  0
 75 80  1  0  0  0
 76 85  1  0  0  0
 77 78  2  0  0  0
 77 79  1  0  0  0
 77148  1  0  0  0
 78 81  1  0  0  0
 78149  1  0  0  0
 79 83  1  0  0  0
 79 84  2  0  0  0
 80150  1  0  0  0
 80151  1  0  0  0
 80152  1  0  0  0
 81153  1  0  0  0
 81154  1  0  0  0
 81155  1  0  0  0
 82 84  1  0  0  0
 82156  1  0  0  0
 82157  1  0  0  0
 83158  1  0  0  0
 83159  1  0  0  0
 85160  1  0  0  0
M  ISO  4   1 100  68 101  83 101  85 100
M  END
> <chiral flag>
0

> <version>
0

> <s_m_source_file>
/data/baiqing/PycharmProjects/Reinvent-master-3.2/result/LINK_invent/BTK/process_docking_weight1_custom_product_contain_oxygen_bond_distance_aromatic_linkinvent_7_9_3/rearranged_h_0049.sdf

> <i_m_source_file_index>
26

> <r_mmod_Potential_Energy-OPLS-2005>
239.189117431641

> <r_mmod_Stretch_Energy-OPLS-2005>
141.714736938477

> <r_mmod_Bend_Energy-OPLS-2005>
166.264938354492

> <r_mmod_Torsional_Energy-OPLS-2005>
267.515869140625

> <r_mmod_Improper_Torsional_Energy-OPLS-2005>
8.87108516693115

> <r_mmod_Van_der_Waal_Energy-OPLS-2005>
131.988372802734

> <r_mmod_Electrostatic_Energy-OPLS-2005>
-363.090789794922

> <r_mmod_Solvation_Energy-OPLS-2005>
-212.637268066406

> <b_mmod_Minimization_Converged-OPLS-2005>
0

> <r_mmod_RMS_Derivative-OPLS-2005>
4.17291212081909

$$$$
26
                    3D
 Structure written by MMmdl.
158167  0  0  1  0            999 V2000
  -30.5371  -14.9272   20.4432 C   0  0  0  0  0  0
  -30.4628  -12.5899   19.4690 C   0  0  0  0  0  0
  -29.5284  -12.5311   18.2403 C   0  0  0  0  0  0
  -28.0611  -12.3125   18.6635 C   0  0  0  0  0  0
  -27.6374  -13.2407   19.8314 C   0  0  2  0  0  0
  -28.6869  -13.2484   20.9618 C   0  0  0  0  0  0
  -25.2535  -13.8190   20.5687 C   0  0  0  0  0  0
  -24.1835  -13.0439   20.9197 C   0  0  0  0  0  0
  -24.6441  -11.6917   20.8745 C   0  0  0  0  0  0
  -23.9092  -10.4300   21.0400 C   0  0  0  0  0  0
  -24.3635   -9.4214   21.9190 C   0  0  0  0  0  0
  -23.6296   -8.2256   22.0768 C   0  0  0  0  0  0
  -22.4283   -8.0276   21.3546 C   0  0  0  0  0  0
  -21.9918   -9.0246   20.4654 C   0  0  0  0  0  0
  -22.7248  -10.2128   20.3062 C   0  0  0  0  0  0
  -21.6853   -6.0733   22.5272 C   0  0  0  0  0  0
  -21.4010   -6.5643   23.8197 C   0  0  0  0  0  0
  -21.3655   -5.6788   24.9160 C   0  0  0  0  0  0
  -21.6038   -4.3047   24.7197 C   0  0  0  0  0  0
  -21.8821   -3.8146   23.4319 C   0  0  0  0  0  0
  -21.9196   -4.6971   22.3386 C   0  0  0  0  0  0
  -22.7845  -13.5225   21.1776 C   0  0  0  0  0  0
  -22.1660   -4.2162   21.0957 F   0  0  0  0  0  0
  -21.5642   -3.4532   25.7712 F   0  0  0  0  0  0
  -29.9599  -13.6668   20.3619 N   0  0  0  0  0  0
  -26.2949  -12.9416   20.3213 N   0  0  0  0  0  0
  -25.9383  -11.6551   20.5742 N   0  0  0  0  0  0
  -22.0451  -12.8295   22.0352 N   0  0  0  0  0  0
  -25.4204  -15.1921   20.4105 N   0  0  0  0  0  0
  -31.7509  -15.0204   20.2377 O   0  0  0  0  0  0
  -21.6640   -6.8880   21.4229 O   0  0  0  0  0  0
  -22.3540  -14.5485   20.6517 O   0  0  0  0  0  0
  -24.6429  -31.8466   23.1907 C   0  0  0  0  0  0
  -25.9218  -32.4704   23.8278 C   0  0  1  0  0  0
  -27.2098  -27.1454   20.1340 C   0  0  0  0  0  0
  -25.5996  -33.8518   24.2206 N   0  0  0  0  0  0
  -23.4448  -30.4684   21.5378 C   0  0  2  0  0  0
  -24.8879  -28.8958   20.1064 C   0  0  0  0  0  0
  -22.7560  -29.4571   22.4877 C   0  0  0  0  0  0
  -18.0316  -28.1386   22.8515 C   0  0  0  0  0  0
  -24.1484  -36.7240   23.2651 C   0  0  0  0  0  0
  -26.0012  -30.7150   21.3936 C   0  0  0  0  0  0
  -26.0659  -29.3297   20.7295 C   0  0  0  0  0  0
  -27.2234  -28.4700   20.7276 C   0  0  0  0  0  0
  -26.0093  -26.8148   19.4645 C   0  0  0  0  0  0
  -24.8726  -27.6520   19.4608 C   0  0  0  0  0  0
  -23.6680  -29.8002   20.1549 C   0  0  0  0  0  0
  -25.4116  -36.3045   24.0333 C   0  0  1  0  0  0
  -20.5934  -28.3714   23.1257 C   0  0  2  0  0  0
  -20.6800  -26.9411   22.5424 C   0  0  0  0  0  0
  -19.5760  -26.6372   21.5247 C   0  0  0  0  0  0
  -18.1941  -26.7938   22.1645 C   0  0  0  0  0  0
  -19.1575  -28.8863   23.2882 C   0  0  0  0  0  0
  -18.9487  -30.1472   23.8880 C   0  0  0  0  0  0
  -17.6483  -30.6590   24.0561 C   0  0  0  0  0  0
  -25.9066  -34.9422   23.5058 C   0  0  0  0  0  0
  -16.5375  -29.9078   23.6344 C   0  0  0  0  0  0
  -16.7304  -28.6498   23.0371 C   0  0  0  0  0  0
  -26.4525  -31.6590   25.0733 C   0  0  0  0  0  0
  -25.3685  -31.3824   26.1411 C   0  0  0  0  0  0
  -27.0427  -30.2999   24.6351 C   0  0  0  0  0  0
  -27.6048  -32.4380   25.7512 C   0  0  0  0  0  0
  -27.5570  -37.1782   24.8467 C   0  0  0  0  0  0
  -21.4253  -29.3053   22.3615 N   0  0  0  0  0  0
  -26.4276  -37.3765   23.9413 N   0  0  0  0  0  0
  -24.7166  -31.0308   22.0962 N   0  0  0  0  0  0
  -23.4206  -28.8104   23.3016 O   0  0  0  0  0  0
  -28.2913  -26.1968   20.1892 O   0  0  0  0  0  0
  -26.5624  -34.8929   22.4624 O   0  0  0  0  0  0
  -23.5551  -32.1382   23.7119 O   0  0  0  0  0  0
  -31.8509  -18.8939   18.3546 C   0  0  0  0  0  0
  -30.6274  -18.3211   18.7350 C   0  0  0  0  0  0
  -32.3193  -20.0290   19.0294 C   0  0  0  0  0  0
  -29.9179  -18.8370   19.8388 C   0  0  0  0  0  0
  -30.1436  -20.2933   20.1555 C   0  0  0  0  0  0
  -31.4704  -20.7417   19.8917 C   0  0  0  0  0  0
  -28.8276  -22.1876   21.3221 C   0  0  0  0  0  0
  -28.3733  -23.7382   21.3649 C   0  0  0  0  0  0
  -29.0895  -23.9360   19.0311 C   0  0  0  0  0  0
  -28.9947  -22.3356   18.9413 C   0  0  0  0  0  0
  -28.1549  -24.6455   20.0662 C   0  0  2  0  0  0
  -29.8113  -17.6029   20.8909 C   0  0  0  0  0  0
  -29.2052  -21.5080   20.1825 N   0  0  0  0  0  0
  -29.6984  -16.0609   20.5518 N   0  0  0  0  0  0
  -28.8396  -21.5991   22.4072 O   0  0  0  0  0  0
  -32.0612  -22.2568   20.4887 Cl  0  0  0  0  0  0
  -31.4846  -12.7911   19.1384 H   0  0  0  0  0  0
  -30.4915  -11.6357   19.9956 H   0  0  0  0  0  0
  -29.8472  -11.7382   17.5619 H   0  0  0  0  0  0
  -29.6083  -13.4667   17.6833 H   0  0  0  0  0  0
  -27.9618  -11.2697   18.9636 H   0  0  0  0  0  0
  -27.3964  -12.4509   17.8095 H   0  0  0  0  0  0
  -27.5995  -14.2438   19.4047 H   0  0  0  0  0  0
  -28.7837  -12.2656   21.4265 H   0  0  0  0  0  0
  -28.3892  -13.9367   21.7540 H   0  0  0  0  0  0
  -25.2783   -9.5683   22.4762 H   0  0  0  0  0  0
  -23.9982   -7.4670   22.7536 H   0  0  0  0  0  0
  -21.0824   -8.8743   19.8996 H   0  0  0  0  0  0
  -22.3681  -10.9647   19.6165 H   0  0  0  0  0  0
  -21.1992   -7.6153   23.9676 H   0  0  0  0  0  0
  -21.1484   -6.0539   25.9053 H   0  0  0  0  0  0
  -22.0611   -2.7611   23.2803 H   0  0  0  0  0  0
  -22.4019  -12.0016   22.4891 H   0  0  0  0  0  0
  -21.1056  -13.1361   22.2427 H   0  0  0  0  0  0
  -24.6478  -15.8400   20.5173 H   0  0  0  0  0  0
  -26.2520  -15.6315   20.0382 H   0  0  0  0  0  0
  -26.7269  -32.5255   23.0983 H   0  0  0  0  0  0
  -25.0183  -33.9636   25.0384 H   0  0  0  0  0  0
  -22.7521  -31.2976   21.3854 H   0  0  0  0  0  0
  -23.3781  -35.9537   23.3299 H   0  0  0  0  0  0
  -24.3569  -36.8870   22.2068 H   0  0  0  0  0  0
  -23.7203  -37.6423   23.6676 H   0  0  0  0  0  0
  -26.1702  -31.4736   20.6293 H   0  0  0  0  0  0
  -26.8685  -30.7504   22.0422 H   0  0  0  0  0  0
  -28.1202  -28.7950   21.2374 H   0  0  0  0  0  0
  -25.9126  -25.8817   18.9327 H   0  0  0  0  0  0
  -23.9738  -27.3253   18.9529 H   0  0  0  0  0  0
  -23.8031  -30.5773   19.4019 H   0  0  0  0  0  0
  -22.7815  -29.2451   19.8424 H   0  0  0  0  0  0
  -25.1308  -36.1877   25.0831 H   0  0  0  0  0  0
  -21.0043  -28.3285   24.1375 H   0  0  0  0  0  0
  -20.5732  -26.2309   23.3638 H   0  0  0  0  0  0
  -21.6650  -26.7433   22.1177 H   0  0  0  0  0  0
  -19.6897  -25.6282   21.1275 H   0  0  0  0  0  0
  -19.6676  -27.3190   20.6788 H   0  0  0  0  0  0
  -17.4218  -26.6756   21.4029 H   0  0  0  0  0  0
  -18.0275  -26.0068   22.9023 H   0  0  0  0  0  0
  -19.7953  -30.7320   24.2216 H   0  0  0  0  0  0
  -17.5025  -31.6269   24.5165 H   0  0  0  0  0  0
  -15.5373  -30.2963   23.7682 H   0  0  0  0  0  0
  -15.8714  -28.0810   22.7085 H   0  0  0  0  0  0
  -24.5844  -30.7201   25.7726 H   0  0  0  0  0  0
  -24.8886  -32.3030   26.4749 H   0  0  0  0  0  0
  -25.7922  -30.9041   27.0246 H   0  0  0  0  0  0
  -26.3088  -29.6703   24.1309 H   0  0  0  0  0  0
  -27.4009  -29.7326   25.4948 H   0  0  0  0  0  0
  -27.8988  -30.4277   23.9723 H   0  0  0  0  0  0
  -27.2635  -33.3707   26.2016 H   0  0  0  0  0  0
  -28.3878  -32.6908   25.0350 H   0  0  0  0  0  0
  -28.0684  -31.8557   26.5482 H   0  0  0  0  0  0
  -28.2592  -38.0082   24.7522 H   0  0  0  0  0  0
  -28.1067  -36.2615   24.6276 H   0  0  0  0  0  0
  -27.2279  -37.1387   25.8870 H   0  0  0  0  0  0
  -20.9454  -29.8761   21.6796 H   0  0  0  0  0  0
  -26.0148  -38.2835   24.1436 H   0  0  0  0  0  0
  -32.4836  -18.3988   17.6304 H   0  0  0  0  0  0
  -30.4354  -17.3187   18.3781 H   0  0  0  0  0  0
  -33.3093  -20.4043   18.8172 H   0  0  0  0  0  0
  -29.1402  -24.2200   21.9691 H   0  0  0  0  0  0
  -27.4679  -23.7980   21.9711 H   0  0  0  0  0  0
  -28.8868  -24.3460   18.0407 H   0  0  0  0  0  0
  -30.1210  -24.2132   19.2493 H   0  0  0  0  0  0
  -29.6882  -21.9956   18.1701 H   0  0  0  0  0  0
  -28.0072  -22.0783   18.5589 H   0  0  0  0  0  0
  -27.1454  -24.4174   19.7342 H   0  0  0  0  0  0
  -30.6618  -17.6992   21.5686 H   0  0  0  0  0  0
  -28.9425  -17.8459   21.5034 H   0  0  0  0  0  0
  -28.7344  -15.7707   20.5641 H   0  0  0  0  0  0
  1 25  1  0  0  0
  1 30  2  0  0  0
  1 84  1  0  0  0
  2  3  1  0  0  0
  2 25  1  0  0  0
  2 87  1  0  0  0
  2 88  1  0  0  0
  3  4  1  0  0  0
  3 89  1  0  0  0
  3 90  1  0  0  0
  4  5  1  0  0  0
  4 91  1  0  0  0
  4 92  1  0  0  0
  5  6  1  0  0  0
  5 26  1  0  0  0
  5 93  1  0  0  0
  6 25  1  0  0  0
  6 94  1  0  0  0
  6 95  1  0  0  0
  7  8  2  0  0  0
  7 26  1  0  0  0
  7 29  1  0  0  0
  8  9  1  0  0  0
  8 22  1  0  0  0
  9 10  1  0  0  0
  9 27  2  0  0  0
 10 11  2  0  0  0
 10 15  1  0  0  0
 11 12  1  0  0  0
 11 96  1  0  0  0
 12 13  2  0  0  0
 12 97  1  0  0  0
 13 14  1  0  0  0
 13 31  1  0  0  0
 14 15  2  0  0  0
 14 98  1  0  0  0
 15 99  1  0  0  0
 16 17  2  0  0  0
 16 21  1  0  0  0
 16 31  1  0  0  0
 17 18  1  0  0  0
 17100  1  0  0  0
 18 19  2  0  0  0
 18101  1  0  0  0
 19 20  1  0  0  0
 19 24  1  0  0  0
 20 21  2  0  0  0
 20102  1  0  0  0
 21 23  1  0  0  0
 22 28  1  0  0  0
 22 32  2  0  0  0
 26 27  1  0  0  0
 28103  1  0  0  0
 28104  1  0  0  0
 29105  1  0  0  0
 29106  1  0  0  0
 33 34  1  0  0  0
 33 66  1  0  0  0
 33 70  2  0  0  0
 34 36  1  0  0  0
 34 59  1  0  0  0
 34107  1  0  0  0
 35 44  2  0  0  0
 35 45  1  0  0  0
 35 68  1  0  0  0
 36 56  1  0  0  0
 36108  1  0  0  0
 37 39  1  0  0  0
 37 47  1  0  0  0
 37 66  1  0  0  0
 37109  1  0  0  0
 38 43  2  0  0  0
 38 46  1  0  0  0
 38 47  1  0  0  0
 39 64  1  0  0  0
 39 67  2  0  0  0
 40 52  1  0  0  0
 40 53  2  0  0  0
 40 58  1  0  0  0
 41110  1  0  0  0
 41111  1  0  0  0
 41112  1  0  0  0
 41 48  1  0  0  0
 42 43  1  0  0  0
 42 66  1  0  0  0
 42113  1  0  0  0
 42114  1  0  0  0
 43 44  1  0  0  0
 44115  1  0  0  0
 45 46  2  0  0  0
 45116  1  0  0  0
 46117  1  0  0  0
 47118  1  0  0  0
 47119  1  0  0  0
 48 56  1  0  0  0
 48 65  1  0  0  0
 48120  1  0  0  0
 49 50  1  0  0  0
 49 53  1  0  0  0
 49 64  1  0  0  0
 49121  1  0  0  0
 50 51  1  0  0  0
 50122  1  0  0  0
 50123  1  0  0  0
 51 52  1  0  0  0
 51124  1  0  0  0
 51125  1  0  0  0
 52126  1  0  0  0
 52127  1  0  0  0
 53 54  1  0  0  0
 54 55  2  0  0  0
 54128  1  0  0  0
 55 57  1  0  0  0
 55129  1  0  0  0
 56 69  2  0  0  0
 57 58  2  0  0  0
 57130  1  0  0  0
 58131  1  0  0  0
 59 60  1  0  0  0
 59 61  1  0  0  0
 59 62  1  0  0  0
 60132  1  0  0  0
 60133  1  0  0  0
 60134  1  0  0  0
 61135  1  0  0  0
 61136  1  0  0  0
 61137  1  0  0  0
 62138  1  0  0  0
 62139  1  0  0  0
 62140  1  0  0  0
 63 65  1  0  0  0
 63141  1  0  0  0
 63142  1  0  0  0
 63143  1  0  0  0
 64144  1  0  0  0
 65145  1  0  0  0
 68 81  1  0  0  0
 71 72  2  0  0  0
 71 73  1  0  0  0
 71146  1  0  0  0
 72 74  1  0  0  0
 72147  1  0  0  0
 73 76  2  0  0  0
 73148  1  0  0  0
 74 75  2  0  0  0
 74 82  1  0  0  0
 75 76  1  0  0  0
 75 83  1  0  0  0
 76 86  1  0  0  0
 77 78  1  0  0  0
 77 83  1  0  0  0
 77 85  2  0  0  0
 78 81  1  0  0  0
 78149  1  0  0  0
 78150  1  0  0  0
 79 80  1  0  0  0
 79 81  1  0  0  0
 79151  1  0  0  0
 79152  1  0  0  0
 80 83  1  0  0  0
 80153  1  0  0  0
 80154  1  0  0  0
 81155  1  0  0  0
 82 84  1  0  0  0
 82156  1  0  0  0
 82157  1  0  0  0
 84158  1  0  0  0
M  ISO  4   1 100  68 101  81 101  84 100
M  END
> <chiral flag>
0

> <version>
0

> <s_m_source_file>
/data/baiqing/PycharmProjects/Reinvent-master-3.2/result/LINK_invent/BTK/process_docking_weight1_custom_product_contain_oxygen_bond_distance_aromatic_linkinvent_7_9_3/rearranged_h_0049.sdf

> <i_m_source_file_index>
27

> <r_mmod_Potential_Energy-OPLS-2005>
681.807983398438

> <r_mmod_Stretch_Energy-OPLS-2005>
228.661148071289

> <r_mmod_Bend_Energy-OPLS-2005>
289.860534667969

> <r_mmod_Torsional_Energy-OPLS-2005>
455.316650390625

> <r_mmod_Improper_Torsional_Energy-OPLS-2005>
26.8016510009766

> <r_mmod_Van_der_Waal_Energy-OPLS-2005>
138.371673583984

> <r_mmod_Electrostatic_Energy-OPLS-2005>
-410.890289306641

> <r_mmod_Solvation_Energy-OPLS-2005>
-226.316177368164

> <b_mmod_Minimization_Converged-OPLS-2005>
0

> <r_mmod_RMS_Derivative-OPLS-2005>
3.54463815689087

$$$$
27
                    3D
 Structure written by MMmdl.
153161  0  0  1  0            999 V2000
  -30.6920  -14.7080   20.4142 C   0  0  0  0  0  0
  -30.4116  -12.4373   19.4584 C   0  0  0  0  0  0
  -29.4938  -12.4862   18.2214 C   0  0  0  0  0  0
  -28.0242  -12.3133   18.6483 C   0  0  0  0  0  0
  -27.6312  -13.2388   19.8323 C   0  0  2  0  0  0
  -28.6832  -13.2282   20.9610 C   0  0  0  0  0  0
  -25.2479  -13.8226   20.5698 C   0  0  0  0  0  0
  -24.1785  -13.0454   20.9209 C   0  0  0  0  0  0
  -24.6387  -11.6935   20.8760 C   0  0  0  0  0  0
  -23.9077  -10.4302   21.0418 C   0  0  0  0  0  0
  -24.3634   -9.4210   21.9182 C   0  0  0  0  0  0
  -23.6307   -8.2243   22.0751 C   0  0  0  0  0  0
  -22.4285   -8.0281   21.3547 C   0  0  0  0  0  0
  -21.9925   -9.0256   20.4645 C   0  0  0  0  0  0
  -22.7258  -10.2135   20.3058 C   0  0  0  0  0  0
  -21.6854   -6.0733   22.5279 C   0  0  0  0  0  0
  -21.4010   -6.5641   23.8207 C   0  0  0  0  0  0
  -21.3660   -5.6798   24.9175 C   0  0  0  0  0  0
  -21.6041   -4.3057   24.7232 C   0  0  0  0  0  0
  -21.8824   -3.8148   23.4353 C   0  0  0  0  0  0
  -21.9191   -4.6962   22.3406 C   0  0  0  0  0  0
  -22.7811  -13.5224   21.1877 C   0  0  0  0  0  0
  -22.1663   -4.2147   21.0987 F   0  0  0  0  0  0
  -21.5630   -3.4543   25.7744 F   0  0  0  0  0  0
  -29.9777  -13.5371   20.3472 N   0  0  0  0  0  0
  -26.2900  -12.9445   20.3255 N   0  0  0  0  0  0
  -25.9319  -11.6582   20.5767 N   0  0  0  0  0  0
  -22.0469  -12.8188   22.0425 N   0  0  0  0  0  0
  -25.4166  -15.1949   20.4124 N   0  0  0  0  0  0
  -31.9198  -14.6440   20.3631 O   0  0  0  0  0  0
  -21.6649   -6.8878   21.4242 O   0  0  0  0  0  0
  -22.3487  -14.5530   20.6727 O   0  0  0  0  0  0
  -24.6292  -31.8572   23.2000 C   0  0  0  0  0  0
  -25.9123  -32.4768   23.8342 C   0  0  1  0  0  0
  -27.2153  -27.2834   20.1359 C   0  0  0  0  0  0
  -25.5911  -33.8567   24.2261 N   0  0  0  0  0  0
  -23.4252  -30.4799   21.5441 C   0  0  2  0  0  0
  -24.8727  -28.9240   20.1194 C   0  0  0  0  0  0
  -22.7495  -29.4610   22.4922 C   0  0  0  0  0  0
  -18.0292  -28.1383   22.8487 C   0  0  0  0  0  0
  -24.1490  -36.7291   23.2642 C   0  0  0  0  0  0
  -25.9696  -30.7750   21.3785 C   0  0  0  0  0  0
  -26.0442  -29.3966   20.7283 C   0  0  0  0  0  0
  -27.2239  -28.5868   20.7297 C   0  0  0  0  0  0
  -26.0254  -26.8650   19.5105 C   0  0  0  0  0  0
  -24.8650  -27.6625   19.5032 C   0  0  0  0  0  0
  -23.6442  -29.8121   20.1616 C   0  0  0  0  0  0
  -25.4117  -36.3081   24.0325 C   0  0  1  0  0  0
  -20.5896  -28.3695   23.1271 C   0  0  2  0  0  0
  -20.6787  -26.9412   22.5413 C   0  0  0  0  0  0
  -19.5760  -26.6382   21.5218 C   0  0  0  0  0  0
  -18.1937  -26.7929   22.1623 C   0  0  0  0  0  0
  -19.1544  -28.8856   23.2875 C   0  0  0  0  0  0
  -18.9463  -30.1459   23.8896 C   0  0  0  0  0  0
  -17.6461  -30.6590   24.0566 C   0  0  0  0  0  0
  -25.9051  -34.9448   23.5098 C   0  0  0  0  0  0
  -16.5353  -29.9085   23.6340 C   0  0  0  0  0  0
  -16.7278  -28.6500   23.0363 C   0  0  0  0  0  0
  -26.4493  -31.6585   25.0726 C   0  0  0  0  0  0
  -25.3711  -31.3727   26.1440 C   0  0  0  0  0  0
  -27.0346  -30.3011   24.6202 C   0  0  0  0  0  0
  -27.6050  -32.4323   25.7497 C   0  0  0  0  0  0
  -27.5576  -37.1808   24.8469 C   0  0  0  0  0  0
  -21.4205  -29.3035   22.3652 N   0  0  0  0  0  0
  -26.4302  -37.3771   23.9394 N   0  0  0  0  0  0
  -24.6935  -31.0552   22.0973 N   0  0  0  0  0  0
  -23.4202  -28.8162   23.3023 O   0  0  0  0  0  0
  -28.2906  -26.3840   20.0840 O   0  0  0  0  0  0
  -26.5633  -34.8917   22.4675 O   0  0  0  0  0  0
  -23.5447  -32.1378   23.7303 O   0  0  0  0  0  0
  -32.9946  -18.9372   19.5819 C   0  0  0  0  0  0
  -31.8621  -19.3152   20.3147 C   0  0  0  0  0  0
  -32.9115  -17.8295   18.7339 C   0  0  0  0  0  0
  -30.6618  -18.5479   20.2948 C   0  0  0  0  0  0
  -30.7739  -17.1726   19.7819 C   0  0  0  0  0  0
  -31.7949  -16.9821   18.7942 C   0  0  0  0  0  0
  -28.5247  -23.0070   19.9094 C   0  0  0  0  0  0
  -28.7972  -21.6427   19.8454 C   0  0  0  0  0  0
  -28.5564  -24.0034   21.0179 C   0  0  0  0  0  0
  -28.4055  -25.3838   21.0689 C   0  0  0  0  0  0
  -29.3513  -20.6813   20.8459 C   0  0  0  0  0  0
  -29.4347  -19.3505   20.4503 N   0  0  0  0  0  0
  -30.0681  -15.9434   20.2390 N   0  0  0  0  0  0
  -29.7555  -21.0276   21.9582 O   0  0  0  0  0  0
  -31.7118  -15.7279   17.5945 Cl  0  0  0  0  0  0
  -31.4539  -12.5312   19.1472 H   0  0  0  0  0  0
  -30.3350  -11.4760   19.9687 H   0  0  0  0  0  0
  -29.7764  -11.7127   17.5058 H   0  0  0  0  0  0
  -29.6173  -13.4392   17.7046 H   0  0  0  0  0  0
  -27.8884  -11.2700   18.9359 H   0  0  0  0  0  0
  -27.3604  -12.4806   17.7995 H   0  0  0  0  0  0
  -27.6104  -14.2486   19.4224 H   0  0  0  0  0  0
  -28.7121  -12.2589   21.4618 H   0  0  0  0  0  0
  -28.4380  -13.9695   21.7234 H   0  0  0  0  0  0
  -25.2772   -9.5686   22.4768 H   0  0  0  0  0  0
  -24.0006   -7.4641   22.7478 H   0  0  0  0  0  0
  -21.0848   -8.8779   19.8961 H   0  0  0  0  0  0
  -22.3708  -10.9672   19.6176 H   0  0  0  0  0  0
  -21.1996   -7.6150   23.9710 H   0  0  0  0  0  0
  -21.1478   -6.0530   25.9076 H   0  0  0  0  0  0
  -22.0602   -2.7608   23.2857 H   0  0  0  0  0  0
  -22.4099  -11.9845   22.4797 H   0  0  0  0  0  0
  -21.1092  -13.1202   22.2670 H   0  0  0  0  0  0
  -24.6498  -15.8498   20.5228 H   0  0  0  0  0  0
  -26.2659  -15.6323   20.0810 H   0  0  0  0  0  0
  -26.7187  -32.5443   23.1086 H   0  0  0  0  0  0
  -25.0039  -33.9705   25.0392 H   0  0  0  0  0  0
  -22.7215  -31.3022   21.3993 H   0  0  0  0  0  0
  -23.3753  -35.9627   23.3326 H   0  0  0  0  0  0
  -24.3574  -36.8896   22.2055 H   0  0  0  0  0  0
  -23.7255  -37.6500   23.6655 H   0  0  0  0  0  0
  -26.1048  -31.5317   20.6046 H   0  0  0  0  0  0
  -26.8492  -30.8270   22.0088 H   0  0  0  0  0  0
  -28.1275  -28.9449   21.2024 H   0  0  0  0  0  0
  -25.9955  -25.8931   19.0388 H   0  0  0  0  0  0
  -23.9662  -27.2917   19.0296 H   0  0  0  0  0  0
  -23.7702  -30.5887   19.4056 H   0  0  0  0  0  0
  -22.7623  -29.2446   19.8577 H   0  0  0  0  0  0
  -25.1307  -36.1938   25.0821 H   0  0  0  0  0  0
  -20.9986  -28.3280   24.1390 H   0  0  0  0  0  0
  -20.5705  -26.2294   23.3613 H   0  0  0  0  0  0
  -21.6651  -26.7454   22.1188 H   0  0  0  0  0  0
  -19.6921  -25.6294   21.1241 H   0  0  0  0  0  0
  -19.6704  -27.3200   20.6756 H   0  0  0  0  0  0
  -17.4209  -26.6682   21.4025 H   0  0  0  0  0  0
  -18.0340  -26.0076   22.9023 H   0  0  0  0  0  0
  -19.7937  -30.7280   24.2262 H   0  0  0  0  0  0
  -17.5014  -31.6276   24.5153 H   0  0  0  0  0  0
  -15.5351  -30.2983   23.7664 H   0  0  0  0  0  0
  -15.8680  -28.0817   22.7080 H   0  0  0  0  0  0
  -24.5885  -30.7085   25.7750 H   0  0  0  0  0  0
  -24.8904  -32.2897   26.4865 H   0  0  0  0  0  0
  -25.8011  -30.8893   27.0223 H   0  0  0  0  0  0
  -26.2935  -29.6758   24.1214 H   0  0  0  0  0  0
  -27.4025  -29.7270   25.4716 H   0  0  0  0  0  0
  -27.8808  -30.4302   23.9452 H   0  0  0  0  0  0
  -27.2662  -33.3624   26.2075 H   0  0  0  0  0  0
  -28.3854  -32.6883   25.0317 H   0  0  0  0  0  0
  -28.0728  -31.8455   26.5413 H   0  0  0  0  0  0
  -28.2613  -38.0084   24.7485 H   0  0  0  0  0  0
  -28.1048  -36.2613   24.6337 H   0  0  0  0  0  0
  -27.2283  -37.1512   25.8870 H   0  0  0  0  0  0
  -20.9385  -29.8730   21.6839 H   0  0  0  0  0  0
  -26.0186  -38.2850   24.1378 H   0  0  0  0  0  0
  -33.8709  -19.5714   19.5638 H   0  0  0  0  0  0
  -31.9128  -20.2870   20.7835 H   0  0  0  0  0  0
  -33.7152  -17.6164   18.0447 H   0  0  0  0  0  0
  -28.1842  -23.4173   18.9693 H   0  0  0  0  0  0
  -28.6117  -21.2037   18.8752 H   0  0  0  0  0  0
  -28.6816  -23.5556   21.9945 H   0  0  0  0  0  0
  -28.4053  -25.8581   22.0414 H   0  0  0  0  0  0
  -28.7045  -19.0706   19.8096 H   0  0  0  0  0  0
  -29.0707  -15.9976   20.3714 H   0  0  0  0  0  0
  1 25  1  0  0  0
  1 30  2  0  0  0
  1 83  1  0  0  0
  2  3  1  0  0  0
  2 25  1  0  0  0
  2 86  1  0  0  0
  2 87  1  0  0  0
  3  4  1  0  0  0
  3 88  1  0  0  0
  3 89  1  0  0  0
  4  5  1  0  0  0
  4 90  1  0  0  0
  4 91  1  0  0  0
  5  6  1  0  0  0
  5 26  1  0  0  0
  5 92  1  0  0  0
  6 25  1  0  0  0
  6 93  1  0  0  0
  6 94  1  0  0  0
  7  8  2  0  0  0
  7 26  1  0  0  0
  7 29  1  0  0  0
  8  9  1  0  0  0
  8 22  1  0  0  0
  9 10  1  0  0  0
  9 27  2  0  0  0
 10 11  2  0  0  0
 10 15  1  0  0  0
 11 12  1  0  0  0
 11 95  1  0  0  0
 12 13  2  0  0  0
 12 96  1  0  0  0
 13 14  1  0  0  0
 13 31  1  0  0  0
 14 15  2  0  0  0
 14 97  1  0  0  0
 15 98  1  0  0  0
 16 17  2  0  0  0
 16 21  1  0  0  0
 16 31  1  0  0  0
 17 18  1  0  0  0
 17 99  1  0  0  0
 18 19  2  0  0  0
 18100  1  0  0  0
 19 20  1  0  0  0
 19 24  1  0  0  0
 20 21  2  0  0  0
 20101  1  0  0  0
 21 23  1  0  0  0
 22 28  1  0  0  0
 22 32  2  0  0  0
 26 27  1  0  0  0
 28102  1  0  0  0
 28103  1  0  0  0
 29104  1  0  0  0
 29105  1  0  0  0
 33 34  1  0  0  0
 33 66  1  0  0  0
 33 70  2  0  0  0
 34 36  1  0  0  0
 34 59  1  0  0  0
 34106  1  0  0  0
 35 44  2  0  0  0
 35 45  1  0  0  0
 35 68  1  0  0  0
 36 56  1  0  0  0
 36107  1  0  0  0
 37 39  1  0  0  0
 37 47  1  0  0  0
 37 66  1  0  0  0
 37108  1  0  0  0
 38 43  2  0  0  0
 38 46  1  0  0  0
 38 47  1  0  0  0
 39 64  1  0  0  0
 39 67  2  0  0  0
 40 52  1  0  0  0
 40 53  2  0  0  0
 40 58  1  0  0  0
 41109  1  0  0  0
 41110  1  0  0  0
 41111  1  0  0  0
 41 48  1  0  0  0
 42 43  1  0  0  0
 42 66  1  0  0  0
 42112  1  0  0  0
 42113  1  0  0  0
 43 44  1  0  0  0
 44114  1  0  0  0
 45 46  2  0  0  0
 45115  1  0  0  0
 46116  1  0  0  0
 47117  1  0  0  0
 47118  1  0  0  0
 48 56  1  0  0  0
 48 65  1  0  0  0
 48119  1  0  0  0
 49 50  1  0  0  0
 49 53  1  0  0  0
 49 64  1  0  0  0
 49120  1  0  0  0
 50 51  1  0  0  0
 50121  1  0  0  0
 50122  1  0  0  0
 51 52  1  0  0  0
 51123  1  0  0  0
 51124  1  0  0  0
 52125  1  0  0  0
 52126  1  0  0  0
 53 54  1  0  0  0
 54 55  2  0  0  0
 54127  1  0  0  0
 55 57  1  0  0  0
 55128  1  0  0  0
 56 69  2  0  0  0
 57 58  2  0  0  0
 57129  1  0  0  0
 58130  1  0  0  0
 59 60  1  0  0  0
 59 61  1  0  0  0
 59 62  1  0  0  0
 60131  1  0  0  0
 60132  1  0  0  0
 60133  1  0  0  0
 61134  1  0  0  0
 61135  1  0  0  0
 61136  1  0  0  0
 62137  1  0  0  0
 62138  1  0  0  0
 62139  1  0  0  0
 63 65  1  0  0  0
 63140  1  0  0  0
 63141  1  0  0  0
 63142  1  0  0  0
 64143  1  0  0  0
 65144  1  0  0  0
 68 80  1  0  0  0
 71 72  2  0  0  0
 71 73  1  0  0  0
 71145  1  0  0  0
 72 74  1  0  0  0
 72146  1  0  0  0
 73 76  2  0  0  0
 73147  1  0  0  0
 74 75  2  0  0  0
 74 82  1  0  0  0
 75 76  1  0  0  0
 75 83  1  0  0  0
 76 85  1  0  0  0
 77 78  2  0  0  0
 77 79  1  0  0  0
 77148  1  0  0  0
 78 81  1  0  0  0
 78149  1  0  0  0
 79 80  2  0  0  0
 79150  1  0  0  0
 80151  1  0  0  0
 81 82  1  0  0  0
 81 84  2  0  0  0
 82152  1  0  0  0
 83153  1  0  0  0
M  ISO  4   1 100  68 101  80 101  83 100
M  END
> <chiral flag>
0

> <version>
0

> <s_m_source_file>
/data/baiqing/PycharmProjects/Reinvent-master-3.2/result/LINK_invent/BTK/process_docking_weight1_custom_product_contain_oxygen_bond_distance_aromatic_linkinvent_7_9_3/rearranged_h_0049.sdf

> <i_m_source_file_index>
28

> <r_mmod_Potential_Energy-OPLS-2005>
287.468597412109

> <r_mmod_Stretch_Energy-OPLS-2005>
108.296630859375

> <r_mmod_Bend_Energy-OPLS-2005>
200.468765258789

> <r_mmod_Torsional_Energy-OPLS-2005>
411.811706542969

> <r_mmod_Improper_Torsional_Energy-OPLS-2005>
13.9671220779419

> <r_mmod_Van_der_Waal_Energy-OPLS-2005>
156.716857910156

> <r_mmod_Electrostatic_Energy-OPLS-2005>
-460.509826660156

> <r_mmod_Solvation_Energy-OPLS-2005>
-233.424560546875

> <b_mmod_Minimization_Converged-OPLS-2005>
0

> <r_mmod_RMS_Derivative-OPLS-2005>
1.88686656951904

$$$$
28
                    3D
 Structure written by MMmdl.
161170  0  0  1  0            999 V2000
  -30.6508  -14.6674   20.5092 C   0  0  0  0  0  0
  -30.4362  -12.4240   19.4587 C   0  0  0  0  0  0
  -29.5080  -12.5181   18.2272 C   0  0  0  0  0  0
  -28.0368  -12.3362   18.6453 C   0  0  0  0  0  0
  -27.6506  -13.2246   19.8580 C   0  0  2  0  0  0
  -28.6939  -13.1221   20.9924 C   0  0  0  0  0  0
  -25.2592  -13.8211   20.5692 C   0  0  0  0  0  0
  -24.1871  -13.0480   20.9180 C   0  0  0  0  0  0
  -24.6431  -11.6943   20.8729 C   0  0  0  0  0  0
  -23.9087  -10.4329   21.0407 C   0  0  0  0  0  0
  -24.3651   -9.4252   21.9180 C   0  0  0  0  0  0
  -23.6329   -8.2293   22.0739 C   0  0  0  0  0  0
  -22.4292   -8.0322   21.3541 C   0  0  0  0  0  0
  -21.9921   -9.0302   20.4653 C   0  0  0  0  0  0
  -22.7251  -10.2185   20.3067 C   0  0  0  0  0  0
  -21.6888   -6.0759   22.5258 C   0  0  0  0  0  0
  -21.4027   -6.5652   23.8196 C   0  0  0  0  0  0
  -21.3671   -5.6788   24.9162 C   0  0  0  0  0  0
  -21.6054   -4.3052   24.7199 C   0  0  0  0  0  0
  -21.8832   -3.8148   23.4313 C   0  0  0  0  0  0
  -21.9234   -4.6979   22.3380 C   0  0  0  0  0  0
  -22.7883  -13.5271   21.1813 C   0  0  0  0  0  0
  -22.1691   -4.2178   21.0945 F   0  0  0  0  0  0
  -21.5641   -3.4532   25.7707 F   0  0  0  0  0  0
  -30.0048  -13.4596   20.4249 N   0  0  0  0  0  0
  -26.3011  -12.9392   20.3295 N   0  0  0  0  0  0
  -25.9362  -11.6552   20.5764 N   0  0  0  0  0  0
  -22.0549  -12.8287   22.0407 N   0  0  0  0  0  0
  -25.4347  -15.1929   20.4086 N   0  0  0  0  0  0
  -31.8449  -14.7470   20.2110 O   0  0  0  0  0  0
  -21.6675   -6.8901   21.4214 O   0  0  0  0  0  0
  -22.3587  -14.5600   20.6666 O   0  0  0  0  0  0
  -24.6218  -31.8603   23.2030 C   0  0  0  0  0  0
  -25.9064  -32.4781   23.8364 C   0  0  1  0  0  0
  -27.2512  -27.3406   20.1656 C   0  0  0  0  0  0
  -25.5897  -33.8590   24.2306 N   0  0  0  0  0  0
  -23.4171  -30.4765   21.5451 C   0  0  2  0  0  0
  -24.8740  -28.9252   20.1222 C   0  0  0  0  0  0
  -22.7457  -29.4611   22.4982 C   0  0  0  0  0  0
  -18.0268  -28.1377   22.8480 C   0  0  0  0  0  0
  -24.1494  -36.7301   23.2638 C   0  0  0  0  0  0
  -25.9536  -30.8023   21.3699 C   0  0  0  0  0  0
  -26.0364  -29.4288   20.7197 C   0  0  0  0  0  0
  -27.2283  -28.6535   20.7183 C   0  0  0  0  0  0
  -26.0686  -26.8752   19.5485 C   0  0  0  0  0  0
  -24.8903  -27.6536   19.5231 C   0  0  0  0  0  0
  -23.6365  -29.7986   20.1644 C   0  0  0  0  0  0
  -25.4119  -36.3109   24.0336 C   0  0  1  0  0  0
  -20.5858  -28.3685   23.1296 C   0  0  2  0  0  0
  -20.6769  -26.9410   22.5425 C   0  0  0  0  0  0
  -19.5762  -26.6381   21.5213 C   0  0  0  0  0  0
  -18.1929  -26.7921   22.1605 C   0  0  0  0  0  0
  -19.1514  -28.8851   23.2882 C   0  0  0  0  0  0
  -18.9441  -30.1449   23.8902 C   0  0  0  0  0  0
  -17.6437  -30.6584   24.0545 C   0  0  0  0  0  0
  -25.9044  -34.9461   23.5126 C   0  0  0  0  0  0
  -16.5332  -29.9077   23.6322 C   0  0  0  0  0  0
  -16.7254  -28.6486   23.0356 C   0  0  0  0  0  0
  -26.4490  -31.6577   25.0712 C   0  0  0  0  0  0
  -25.3747  -31.3664   26.1439 C   0  0  0  0  0  0
  -27.0332  -30.3009   24.6141 C   0  0  0  0  0  0
  -27.6069  -32.4309   25.7458 C   0  0  0  0  0  0
  -27.5611  -37.1794   24.8457 C   0  0  0  0  0  0
  -21.4181  -29.3028   22.3704 N   0  0  0  0  0  0
  -26.4307  -37.3787   23.9415 N   0  0  0  0  0  0
  -24.6815  -31.0641   22.0963 N   0  0  0  0  0  0
  -23.4179  -28.8172   23.3076 O   0  0  0  0  0  0
  -28.4009  -26.5429   20.2254 O   0  0  0  0  0  0
  -26.5630  -34.8909   22.4704 O   0  0  0  0  0  0
  -23.5389  -32.1410   23.7364 O   0  0  0  0  0  0
  -29.5598  -18.2908   21.1965 C   0  0  0  0  0  0
  -31.1095  -18.9944   19.0140 C   0  0  0  0  0  0
  -29.7513  -19.6993   20.9118 C   0  0  0  0  0  0
  -30.8220  -17.6326   19.2363 C   0  0  0  0  0  0
  -30.1244  -17.2173   20.4087 C   0  0  0  0  0  0
  -30.6256  -20.0135   19.8393 C   0  0  0  0  0  0
  -29.5616  -23.2621   22.1080 C   0  0  0  0  0  0
  -29.5152  -24.7521   21.6318 C   0  0  0  0  0  0
  -28.2398  -24.0662   19.6544 C   0  0  0  0  0  0
  -28.0693  -22.6348   20.2585 C   0  0  0  0  0  0
  -28.2998  -25.1606   20.7427 C   0  0  2  0  0  0
  -31.2459  -16.6986   18.1196 C   0  0  0  0  0  0
  -29.0216  -20.8067   21.7600 C   0  0  0  0  0  0
  -28.9889  -22.2705   21.3619 N   0  0  0  0  0  0
  -29.8891  -15.7955   20.7482 N   0  0  0  0  0  0
  -30.1614  -23.0174   23.1596 O   0  0  0  0  0  0
  -31.1504  -21.6135   19.4466 Cl  0  0  0  0  0  0
  -31.4729  -12.5565   19.1447 H   0  0  0  0  0  0
  -30.3867  -11.4351   19.9132 H   0  0  0  0  0  0
  -29.7791  -11.7643   17.4896 H   0  0  0  0  0  0
  -29.6392  -13.4857   17.7400 H   0  0  0  0  0  0
  -27.8984  -11.2851   18.9017 H   0  0  0  0  0  0
  -27.3745  -12.5293   17.7967 H   0  0  0  0  0  0
  -27.6565  -14.2518   19.4955 H   0  0  0  0  0  0
  -28.7196  -12.1141   21.4102 H   0  0  0  0  0  0
  -28.4367  -13.7859   21.8199 H   0  0  0  0  0  0
  -25.2795   -9.5777   22.4724 H   0  0  0  0  0  0
  -24.0088   -7.4692   22.7431 H   0  0  0  0  0  0
  -21.0855   -8.8800   19.8931 H   0  0  0  0  0  0
  -22.3680  -10.9733   19.6179 H   0  0  0  0  0  0
  -21.1993   -7.6154   23.9692 H   0  0  0  0  0  0
  -21.1469   -6.0515   25.9055 H   0  0  0  0  0  0
  -22.0601   -2.7614   23.2784 H   0  0  0  0  0  0
  -22.4142  -11.9923   22.4792 H   0  0  0  0  0  0
  -21.1154  -13.1277   22.2554 H   0  0  0  0  0  0
  -24.6724  -15.8542   20.5075 H   0  0  0  0  0  0
  -26.2900  -15.6223   20.0763 H   0  0  0  0  0  0
  -26.7124  -32.5476   23.1123 H   0  0  0  0  0  0
  -25.0006  -33.9742   25.0420 H   0  0  0  0  0  0
  -22.7070  -31.2935   21.3934 H   0  0  0  0  0  0
  -23.3784  -35.9612   23.3269 H   0  0  0  0  0  0
  -24.3596  -36.8962   22.2059 H   0  0  0  0  0  0
  -23.7208  -37.6471   23.6688 H   0  0  0  0  0  0
  -26.0789  -31.5601   20.5950 H   0  0  0  0  0  0
  -26.8353  -30.8562   21.9961 H   0  0  0  0  0  0
  -28.1244  -29.0415   21.1822 H   0  0  0  0  0  0
  -26.0423  -25.9003   19.0880 H   0  0  0  0  0  0
  -23.9979  -27.2562   19.0579 H   0  0  0  0  0  0
  -23.7525  -30.5690   19.4009 H   0  0  0  0  0  0
  -22.7619  -29.2191   19.8646 H   0  0  0  0  0  0
  -25.1299  -36.1970   25.0835 H   0  0  0  0  0  0
  -20.9924  -28.3257   24.1424 H   0  0  0  0  0  0
  -20.5655  -26.2296   23.3621 H   0  0  0  0  0  0
  -21.6640  -26.7450   22.1214 H   0  0  0  0  0  0
  -19.6912  -25.6289   21.1254 H   0  0  0  0  0  0
  -19.6702  -27.3184   20.6732 H   0  0  0  0  0  0
  -17.4203  -26.6676   21.3993 H   0  0  0  0  0  0
  -18.0314  -26.0059   22.8993 H   0  0  0  0  0  0
  -19.7913  -30.7257   24.2297 H   0  0  0  0  0  0
  -17.4986  -31.6263   24.5146 H   0  0  0  0  0  0
  -15.5331  -30.2976   23.7642 H   0  0  0  0  0  0
  -15.8652  -28.0789   22.7109 H   0  0  0  0  0  0
  -24.5866  -30.7110   25.7715 H   0  0  0  0  0  0
  -24.9006  -32.2810   26.5012 H   0  0  0  0  0  0
  -25.8057  -30.8678   27.0132 H   0  0  0  0  0  0
  -26.2879  -29.6732   24.1230 H   0  0  0  0  0  0
  -27.4103  -29.7281   25.4629 H   0  0  0  0  0  0
  -27.8733  -30.4296   23.9307 H   0  0  0  0  0  0
  -27.2682  -33.3558   26.2138 H   0  0  0  0  0  0
  -28.3806  -32.6959   25.0238 H   0  0  0  0  0  0
  -28.0843  -31.8385   26.5278 H   0  0  0  0  0  0
  -28.2592  -38.0126   24.7569 H   0  0  0  0  0  0
  -28.1149  -36.2664   24.6208 H   0  0  0  0  0  0
  -27.2336  -37.1334   25.8856 H   0  0  0  0  0  0
  -20.9378  -29.8705   21.6865 H   0  0  0  0  0  0
  -26.0206  -38.2878   24.1425 H   0  0  0  0  0  0
  -28.9587  -18.0334   22.0566 H   0  0  0  0  0  0
  -31.6965  -19.2794   18.1515 H   0  0  0  0  0  0
  -30.4386  -24.9198   21.0758 H   0  0  0  0  0  0
  -29.5775  -25.4003   22.5079 H   0  0  0  0  0  0
  -27.4314  -24.2603   18.9545 H   0  0  0  0  0  0
  -29.1557  -24.0987   19.0619 H   0  0  0  0  0  0
  -28.1629  -21.8944   19.4658 H   0  0  0  0  0  0
  -27.0559  -22.5451   20.6473 H   0  0  0  0  0  0
  -27.4033  -25.0938   21.3624 H   0  0  0  0  0  0
  -31.2526  -17.2264   17.1656 H   0  0  0  0  0  0
  -30.5593  -15.8600   18.0057 H   0  0  0  0  0  0
  -32.2564  -16.3340   18.2998 H   0  0  0  0  0  0
  -29.3580  -20.6982   22.7934 H   0  0  0  0  0  0
  -27.9783  -20.4970   21.8005 H   0  0  0  0  0  0
  -28.9923  -15.5990   21.1678 H   0  0  0  0  0  0
  1 25  1  0  0  0
  1 30  2  0  0  0
  1 85  1  0  0  0
  2  3  1  0  0  0
  2 25  1  0  0  0
  2 88  1  0  0  0
  2 89  1  0  0  0
  3  4  1  0  0  0
  3 90  1  0  0  0
  3 91  1  0  0  0
  4  5  1  0  0  0
  4 92  1  0  0  0
  4 93  1  0  0  0
  5  6  1  0  0  0
  5 26  1  0  0  0
  5 94  1  0  0  0
  6 25  1  0  0  0
  6 95  1  0  0  0
  6 96  1  0  0  0
  7  8  2  0  0  0
  7 26  1  0  0  0
  7 29  1  0  0  0
  8  9  1  0  0  0
  8 22  1  0  0  0
  9 10  1  0  0  0
  9 27  2  0  0  0
 10 11  2  0  0  0
 10 15  1  0  0  0
 11 12  1  0  0  0
 11 97  1  0  0  0
 12 13  2  0  0  0
 12 98  1  0  0  0
 13 14  1  0  0  0
 13 31  1  0  0  0
 14 15  2  0  0  0
 14 99  1  0  0  0
 15100  1  0  0  0
 16 17  2  0  0  0
 16 21  1  0  0  0
 16 31  1  0  0  0
 17 18  1  0  0  0
 17101  1  0  0  0
 18 19  2  0  0  0
 18102  1  0  0  0
 19 20  1  0  0  0
 19 24  1  0  0  0
 20 21  2  0  0  0
 20103  1  0  0  0
 21 23  1  0  0  0
 22 28  1  0  0  0
 22 32  2  0  0  0
 26 27  1  0  0  0
 28104  1  0  0  0
 28105  1  0  0  0
 29106  1  0  0  0
 29107  1  0  0  0
 33 34  1  0  0  0
 33 66  1  0  0  0
 33 70  2  0  0  0
 34 36  1  0  0  0
 34 59  1  0  0  0
 34108  1  0  0  0
 35 44  2  0  0  0
 35 45  1  0  0  0
 35 68  1  0  0  0
 36 56  1  0  0  0
 36109  1  0  0  0
 37 39  1  0  0  0
 37 47  1  0  0  0
 37 66  1  0  0  0
 37110  1  0  0  0
 38 43  2  0  0  0
 38 46  1  0  0  0
 38 47  1  0  0  0
 39 64  1  0  0  0
 39 67  2  0  0  0
 40 52  1  0  0  0
 40 53  2  0  0  0
 40 58  1  0  0  0
 41111  1  0  0  0
 41112  1  0  0  0
 41113  1  0  0  0
 41 48  1  0  0  0
 42 43  1  0  0  0
 42 66  1  0  0  0
 42114  1  0  0  0
 42115  1  0  0  0
 43 44  1  0  0  0
 44116  1  0  0  0
 45 46  2  0  0  0
 45117  1  0  0  0
 46118  1  0  0  0
 47119  1  0  0  0
 47120  1  0  0  0
 48 56  1  0  0  0
 48 65  1  0  0  0
 48121  1  0  0  0
 49 50  1  0  0  0
 49 53  1  0  0  0
 49 64  1  0  0  0
 49122  1  0  0  0
 50 51  1  0  0  0
 50123  1  0  0  0
 50124  1  0  0  0
 51 52  1  0  0  0
 51125  1  0  0  0
 51126  1  0  0  0
 52127  1  0  0  0
 52128  1  0  0  0
 53 54  1  0  0  0
 54 55  2  0  0  0
 54129  1  0  0  0
 55 57  1  0  0  0
 55130  1  0  0  0
 56 69  2  0  0  0
 57 58  2  0  0  0
 57131  1  0  0  0
 58132  1  0  0  0
 59 60  1  0  0  0
 59 61  1  0  0  0
 59 62  1  0  0  0
 60133  1  0  0  0
 60134  1  0  0  0
 60135  1  0  0  0
 61136  1  0  0  0
 61137  1  0  0  0
 61138  1  0  0  0
 62139  1  0  0  0
 62140  1  0  0  0
 62141  1  0  0  0
 63 65  1  0  0  0
 63142  1  0  0  0
 63143  1  0  0  0
 63144  1  0  0  0
 64145  1  0  0  0
 65146  1  0  0  0
 68 81  1  0  0  0
 71 73  2  0  0  0
 71 75  1  0  0  0
 71147  1  0  0  0
 72 74  1  0  0  0
 72 76  2  0  0  0
 72148  1  0  0  0
 73 76  1  0  0  0
 73 83  1  0  0  0
 74 75  2  0  0  0
 74 82  1  0  0  0
 75 85  1  0  0  0
 76 87  1  0  0  0
 77 78  1  0  0  0
 77 84  1  0  0  0
 77 86  2  0  0  0
 78 81  1  0  0  0
 78149  1  0  0  0
 78150  1  0  0  0
 79 80  1  0  0  0
 79 81  1  0  0  0
 79151  1  0  0  0
 79152  1  0  0  0
 80 84  1  0  0  0
 80153  1  0  0  0
 80154  1  0  0  0
 81155  1  0  0  0
 82156  1  0  0  0
 82157  1  0  0  0
 82158  1  0  0  0
 83 84  1  0  0  0
 83159  1  0  0  0
 83160  1  0  0  0
 85161  1  0  0  0
M  ISO  4   1 100  68 101  81 101  85 100
M  END
> <chiral flag>
0

> <version>
0

> <s_m_source_file>
/data/baiqing/PycharmProjects/Reinvent-master-3.2/result/LINK_invent/BTK/process_docking_weight1_custom_product_contain_oxygen_bond_distance_aromatic_linkinvent_7_9_3/rearranged_h_0049.sdf

> <i_m_source_file_index>
29

> <r_mmod_Potential_Energy-OPLS-2005>
79.8833465576172

> <r_mmod_Stretch_Energy-OPLS-2005>
88.531379699707

> <r_mmod_Bend_Energy-OPLS-2005>
148.307464599609

> <r_mmod_Torsional_Energy-OPLS-2005>
264.490631103516

> <r_mmod_Improper_Torsional_Energy-OPLS-2005>
5.04594993591309

> <r_mmod_Van_der_Waal_Energy-OPLS-2005>
156.353576660156

> <r_mmod_Electrostatic_Energy-OPLS-2005>
-407.601013183594

> <r_mmod_Solvation_Energy-OPLS-2005>
-227.198303222656

> <b_mmod_Minimization_Converged-OPLS-2005>
0

> <r_mmod_RMS_Derivative-OPLS-2005>
4.93503093719482

$$$$
29
                    3D
 Structure written by MMmdl.
159167  0  0  1  0            999 V2000
  -30.7172  -14.4803   20.5099 C   0  0  0  0  0  0
  -30.4091  -12.2939   19.4367 C   0  0  0  0  0  0
  -29.4916  -12.4828   18.2118 C   0  0  0  0  0  0
  -28.0137  -12.3498   18.6254 C   0  0  0  0  0  0
  -27.6550  -13.2128   19.8656 C   0  0  2  0  0  0
  -28.6977  -13.0407   20.9939 C   0  0  0  0  0  0
  -25.2567  -13.8176   20.5677 C   0  0  0  0  0  0
  -24.1830  -13.0446   20.9193 C   0  0  0  0  0  0
  -24.6390  -11.6912   20.8751 C   0  0  0  0  0  0
  -23.9062  -10.4297   21.0414 C   0  0  0  0  0  0
  -24.3615   -9.4208   21.9186 C   0  0  0  0  0  0
  -23.6290   -8.2246   22.0758 C   0  0  0  0  0  0
  -22.4277   -8.0282   21.3545 C   0  0  0  0  0  0
  -21.9911   -9.0254   20.4648 C   0  0  0  0  0  0
  -22.7240  -10.2134   20.3056 C   0  0  0  0  0  0
  -21.6852   -6.0735   22.5278 C   0  0  0  0  0  0
  -21.4013   -6.5640   23.8209 C   0  0  0  0  0  0
  -21.3658   -5.6791   24.9172 C   0  0  0  0  0  0
  -21.6047   -4.3055   24.7222 C   0  0  0  0  0  0
  -21.8819   -3.8146   23.4344 C   0  0  0  0  0  0
  -21.9193   -4.6963   22.3401 C   0  0  0  0  0  0
  -22.7849  -13.5239   21.1849 C   0  0  0  0  0  0
  -22.1662   -4.2149   21.0977 F   0  0  0  0  0  0
  -21.5628   -3.4538   25.7735 F   0  0  0  0  0  0
  -30.0274  -13.3114   20.4296 N   0  0  0  0  0  0
  -26.2995  -12.9355   20.3334 N   0  0  0  0  0  0
  -25.9318  -11.6514   20.5776 N   0  0  0  0  0  0
  -22.0491  -12.8225   22.0400 N   0  0  0  0  0  0
  -25.4279  -15.1891   20.4051 N   0  0  0  0  0  0
  -31.8939  -14.5594   20.1569 O   0  0  0  0  0  0
  -21.6643   -6.8880   21.4241 O   0  0  0  0  0  0
  -22.3542  -14.5552   20.6706 O   0  0  0  0  0  0
  -24.6148  -31.8667   23.2091 C   0  0  0  0  0  0
  -25.9043  -32.4822   23.8385 C   0  0  1  0  0  0
  -27.2276  -27.4375   20.0925 C   0  0  0  0  0  0
  -25.5906  -33.8617   24.2325 N   0  0  0  0  0  0
  -23.4024  -30.4907   21.5502 C   0  0  2  0  0  0
  -24.8484  -28.9571   20.1112 C   0  0  0  0  0  0
  -22.7410  -29.4658   22.4991 C   0  0  0  0  0  0
  -18.0277  -28.1374   22.8484 C   0  0  0  0  0  0
  -24.1491  -36.7305   23.2641 C   0  0  0  0  0  0
  -25.9312  -30.8338   21.3603 C   0  0  0  0  0  0
  -26.0092  -29.4696   20.7053 C   0  0  0  0  0  0
  -27.2068  -28.7175   20.6899 C   0  0  0  0  0  0
  -26.0545  -26.9376   19.4920 C   0  0  0  0  0  0
  -24.8650  -27.6910   19.5005 C   0  0  0  0  0  0
  -23.6089  -29.8228   20.1645 C   0  0  0  0  0  0
  -25.4109  -36.3107   24.0341 C   0  0  1  0  0  0
  -20.5864  -28.3654   23.1319 C   0  0  2  0  0  0
  -20.6773  -26.9395   22.5413 C   0  0  0  0  0  0
  -19.5756  -26.6386   21.5211 C   0  0  0  0  0  0
  -18.1930  -26.7929   22.1612 C   0  0  0  0  0  0
  -19.1524  -28.8832   23.2905 C   0  0  0  0  0  0
  -18.9450  -30.1440   23.8913 C   0  0  0  0  0  0
  -17.6453  -30.6583   24.0563 C   0  0  0  0  0  0
  -25.9030  -34.9475   23.5129 C   0  0  0  0  0  0
  -16.5343  -29.9082   23.6327 C   0  0  0  0  0  0
  -16.7262  -28.6502   23.0336 C   0  0  0  0  0  0
  -26.4471  -31.6589   25.0702 C   0  0  0  0  0  0
  -25.3751  -31.3672   26.1456 C   0  0  0  0  0  0
  -27.0296  -30.3046   24.6041 C   0  0  0  0  0  0
  -27.6041  -32.4302   25.7474 C   0  0  0  0  0  0
  -27.5582  -37.1806   24.8467 C   0  0  0  0  0  0
  -21.4139  -29.3028   22.3730 N   0  0  0  0  0  0
  -26.4295  -37.3788   23.9411 N   0  0  0  0  0  0
  -24.6681  -31.0767   22.0989 N   0  0  0  0  0  0
  -23.4191  -28.8199   23.3024 O   0  0  0  0  0  0
  -28.3654  -26.6643   20.1065 O   0  0  0  0  0  0
  -26.5585  -34.8926   22.4688 O   0  0  0  0  0  0
  -23.5348  -32.1405   23.7494 O   0  0  0  0  0  0
  -30.9053  -19.6967   20.0003 C   0  0  0  0  0  0
  -31.3497  -17.3384   19.6529 C   0  0  0  0  0  0
  -29.8176  -19.3879   20.8429 C   0  0  0  0  0  0
  -29.4876  -18.0098   21.0926 C   0  0  0  0  0  0
  -30.2911  -16.9693   20.5270 C   0  0  0  0  0  0
  -31.6556  -18.6821   19.3971 C   0  0  0  0  0  0
  -29.1413  -20.5558   21.4489 C   0  0  0  0  0  0
  -28.2824  -17.6168   21.9489 C   0  0  0  0  0  0
  -28.5676  -24.1624   20.2622 C   0  0  0  0  0  0
  -28.3416  -22.9620   21.2185 C   0  0  0  0  0  0
  -28.2669  -25.5117   20.9612 C   0  0  0  0  0  0
  -28.8501  -20.5548   22.7480 N   0  0  0  0  0  0
  -29.9929  -15.5815   20.8189 N   0  0  0  0  0  0
  -28.8750  -21.6663   20.7252 N   0  3  0  0  0  0
  -32.9675  -19.0869   18.3500 Cl  0  0  0  0  0  0
  -31.4566  -12.3613   19.1381 H   0  0  0  0  0  0
  -30.2853  -11.2946   19.8573 H   0  0  0  0  0  0
  -29.7310  -11.7453   17.4446 H   0  0  0  0  0  0
  -29.6644  -13.4616   17.7608 H   0  0  0  0  0  0
  -27.8306  -11.2966   18.8429 H   0  0  0  0  0  0
  -27.3614  -12.6023   17.7886 H   0  0  0  0  0  0
  -27.6857  -14.2529   19.5391 H   0  0  0  0  0  0
  -28.6679  -12.0249   21.3908 H   0  0  0  0  0  0
  -28.4722  -13.6964   21.8363 H   0  0  0  0  0  0
  -25.2760   -9.5683   22.4758 H   0  0  0  0  0  0
  -24.0000   -7.4639   22.7475 H   0  0  0  0  0  0
  -21.0844   -8.8771   19.8948 H   0  0  0  0  0  0
  -22.3703  -10.9669   19.6163 H   0  0  0  0  0  0
  -21.2006   -7.6148   23.9712 H   0  0  0  0  0  0
  -21.1479   -6.0522   25.9073 H   0  0  0  0  0  0
  -22.0601   -2.7608   23.2842 H   0  0  0  0  0  0
  -22.4095  -11.9869   22.4766 H   0  0  0  0  0  0
  -21.1108  -13.1243   22.2608 H   0  0  0  0  0  0
  -24.6535  -15.8379   20.4959 H   0  0  0  0  0  0
  -26.2607  -15.6190   20.0250 H   0  0  0  0  0  0
  -26.7107  -32.5521   23.1142 H   0  0  0  0  0  0
  -25.0088  -33.9788   25.0499 H   0  0  0  0  0  0
  -22.6918  -31.3080   21.4118 H   0  0  0  0  0  0
  -23.3761  -35.9630   23.3303 H   0  0  0  0  0  0
  -24.3588  -36.8910   22.2055 H   0  0  0  0  0  0
  -23.7235  -37.6513   23.6639 H   0  0  0  0  0  0
  -26.0402  -31.6002   20.5918 H   0  0  0  0  0  0
  -26.8216  -30.8869   21.9751 H   0  0  0  0  0  0
  -28.1039  -29.1061   21.1491 H   0  0  0  0  0  0
  -26.0582  -25.9616   19.0276 H   0  0  0  0  0  0
  -23.9714  -27.2915   19.0416 H   0  0  0  0  0  0
  -23.7143  -30.5980   19.4047 H   0  0  0  0  0  0
  -22.7338  -29.2414   19.8697 H   0  0  0  0  0  0
  -25.1286  -36.1974   25.0833 H   0  0  0  0  0  0
  -20.9942  -28.3208   24.1441 H   0  0  0  0  0  0
  -20.5694  -26.2248   23.3583 H   0  0  0  0  0  0
  -21.6639  -26.7452   22.1184 H   0  0  0  0  0  0
  -19.6923  -25.6306   21.1216 H   0  0  0  0  0  0
  -19.6713  -27.3217   20.6764 H   0  0  0  0  0  0
  -17.4202  -26.6670   21.4015 H   0  0  0  0  0  0
  -18.0329  -26.0071   22.9007 H   0  0  0  0  0  0
  -19.7933  -30.7252   24.2283 H   0  0  0  0  0  0
  -17.5012  -31.6271   24.5151 H   0  0  0  0  0  0
  -15.5343  -30.2985   23.7667 H   0  0  0  0  0  0
  -15.8656  -28.0842   22.7028 H   0  0  0  0  0  0
  -24.5936  -30.7005   25.7789 H   0  0  0  0  0  0
  -24.8936  -32.2818   26.4920 H   0  0  0  0  0  0
  -25.8123  -30.8833   27.0200 H   0  0  0  0  0  0
  -26.2822  -29.6816   24.1114 H   0  0  0  0  0  0
  -27.4131  -29.7258   25.4451 H   0  0  0  0  0  0
  -27.8624  -30.4397   23.9135 H   0  0  0  0  0  0
  -27.2661  -33.3599   26.2067 H   0  0  0  0  0  0
  -28.3853  -32.6863   25.0301 H   0  0  0  0  0  0
  -28.0706  -31.8419   26.5388 H   0  0  0  0  0  0
  -28.2584  -38.0115   24.7515 H   0  0  0  0  0  0
  -28.1090  -36.2646   24.6285 H   0  0  0  0  0  0
  -27.2294  -37.1433   25.8868 H   0  0  0  0  0  0
  -20.9291  -29.8738   21.6947 H   0  0  0  0  0  0
  -26.0187  -38.2870   24.1418 H   0  0  0  0  0  0
  -31.1889  -20.7233   19.8153 H   0  0  0  0  0  0
  -31.9638  -16.6178   19.1410 H   0  0  0  0  0  0
  -28.5885  -17.4269   22.9782 H   0  0  0  0  0  0
  -27.7986  -16.7162   21.5725 H   0  0  0  0  0  0
  -27.5060  -18.3807   21.9520 H   0  0  0  0  0  0
  -27.9166  -24.0574   19.3936 H   0  0  0  0  0  0
  -29.5917  -24.1657   19.8875 H   0  0  0  0  0  0
  -27.2775  -22.8575   21.4376 H   0  0  0  0  0  0
  -28.8312  -23.1916   22.1665 H   0  0  0  0  0  0
  -28.9789  -25.6553   21.7745 H   0  0  0  0  0  0
  -27.2868  -25.4496   21.4403 H   0  0  0  0  0  0
  -29.1454  -19.7759   23.3158 H   0  0  0  0  0  0
  -28.3605  -21.3109   23.1949 H   0  0  0  0  0  0
  -29.0815  -15.3943   21.2055 H   0  0  0  0  0  0
  -28.9794  -21.5738   19.7215 H   0  0  0  0  0  0
  1 25  1  0  0  0
  1 30  2  0  0  0
  1 83  1  0  0  0
  2  3  1  0  0  0
  2 25  1  0  0  0
  2 86  1  0  0  0
  2 87  1  0  0  0
  3  4  1  0  0  0
  3 88  1  0  0  0
  3 89  1  0  0  0
  4  5  1  0  0  0
  4 90  1  0  0  0
  4 91  1  0  0  0
  5  6  1  0  0  0
  5 26  1  0  0  0
  5 92  1  0  0  0
  6 25  1  0  0  0
  6 93  1  0  0  0
  6 94  1  0  0  0
  7  8  2  0  0  0
  7 26  1  0  0  0
  7 29  1  0  0  0
  8  9  1  0  0  0
  8 22  1  0  0  0
  9 10  1  0  0  0
  9 27  2  0  0  0
 10 11  2  0  0  0
 10 15  1  0  0  0
 11 12  1  0  0  0
 11 95  1  0  0  0
 12 13  2  0  0  0
 12 96  1  0  0  0
 13 14  1  0  0  0
 13 31  1  0  0  0
 14 15  2  0  0  0
 14 97  1  0  0  0
 15 98  1  0  0  0
 16 17  2  0  0  0
 16 21  1  0  0  0
 16 31  1  0  0  0
 17 18  1  0  0  0
 17 99  1  0  0  0
 18 19  2  0  0  0
 18100  1  0  0  0
 19 20  1  0  0  0
 19 24  1  0  0  0
 20 21  2  0  0  0
 20101  1  0  0  0
 21 23  1  0  0  0
 22 28  1  0  0  0
 22 32  2  0  0  0
 26 27  1  0  0  0
 28102  1  0  0  0
 28103  1  0  0  0
 29104  1  0  0  0
 29105  1  0  0  0
 33 34  1  0  0  0
 33 66  1  0  0  0
 33 70  2  0  0  0
 34 36  1  0  0  0
 34 59  1  0  0  0
 34106  1  0  0  0
 35 44  2  0  0  0
 35 45  1  0  0  0
 35 68  1  0  0  0
 36 56  1  0  0  0
 36107  1  0  0  0
 37 39  1  0  0  0
 37 47  1  0  0  0
 37 66  1  0  0  0
 37108  1  0  0  0
 38 43  2  0  0  0
 38 46  1  0  0  0
 38 47  1  0  0  0
 39 64  1  0  0  0
 39 67  2  0  0  0
 40 52  1  0  0  0
 40 53  2  0  0  0
 40 58  1  0  0  0
 41109  1  0  0  0
 41110  1  0  0  0
 41111  1  0  0  0
 41 48  1  0  0  0
 42 43  1  0  0  0
 42 66  1  0  0  0
 42112  1  0  0  0
 42113  1  0  0  0
 43 44  1  0  0  0
 44114  1  0  0  0
 45 46  2  0  0  0
 45115  1  0  0  0
 46116  1  0  0  0
 47117  1  0  0  0
 47118  1  0  0  0
 48 56  1  0  0  0
 48 65  1  0  0  0
 48119  1  0  0  0
 49 50  1  0  0  0
 49 53  1  0  0  0
 49 64  1  0  0  0
 49120  1  0  0  0
 50 51  1  0  0  0
 50121  1  0  0  0
 50122  1  0  0  0
 51 52  1  0  0  0
 51123  1  0  0  0
 51124  1  0  0  0
 52125  1  0  0  0
 52126  1  0  0  0
 53 54  1  0  0  0
 54 55  2  0  0  0
 54127  1  0  0  0
 55 57  1  0  0  0
 55128  1  0  0  0
 56 69  2  0  0  0
 57 58  2  0  0  0
 57129  1  0  0  0
 58130  1  0  0  0
 59 60  1  0  0  0
 59 61  1  0  0  0
 59 62  1  0  0  0
 60131  1  0  0  0
 60132  1  0  0  0
 60133  1  0  0  0
 61134  1  0  0  0
 61135  1  0  0  0
 61136  1  0  0  0
 62137  1  0  0  0
 62138  1  0  0  0
 62139  1  0  0  0
 63 65  1  0  0  0
 63140  1  0  0  0
 63141  1  0  0  0
 63142  1  0  0  0
 64143  1  0  0  0
 65144  1  0  0  0
 68 81  1  0  0  0
 71 73  2  0  0  0
 71 76  1  0  0  0
 71145  1  0  0  0
 72 75  1  0  0  0
 72 76  2  0  0  0
 72146  1  0  0  0
 73 74  1  0  0  0
 73 77  1  0  0  0
 74 75  2  0  0  0
 74 78  1  0  0  0
 75 83  1  0  0  0
 76 85  1  0  0  0
 77 82  1  0  0  0
 77 84  2  0  0  0
 78147  1  0  0  0
 78148  1  0  0  0
 78149  1  0  0  0
 79 80  1  0  0  0
 79 81  1  0  0  0
 79150  1  0  0  0
 79151  1  0  0  0
 80 84  1  0  0  0
 80152  1  0  0  0
 80153  1  0  0  0
 81154  1  0  0  0
 81155  1  0  0  0
 82156  1  0  0  0
 82157  1  0  0  0
 83158  1  0  0  0
 84159  1  0  0  0
M  CHG  1  84   1
M  ISO  4   1 100  68 101  81 101  83 100
M  END
> <chiral flag>
0

> <version>
0

> <s_m_source_file>
/data/baiqing/PycharmProjects/Reinvent-master-3.2/result/LINK_invent/BTK/process_docking_weight1_custom_product_contain_oxygen_bond_distance_aromatic_linkinvent_7_9_3/rearranged_h_0049.sdf

> <i_m_source_file_index>
30

> <r_mmod_Potential_Energy-OPLS-2005>
-265.904846191406

> <r_mmod_Stretch_Energy-OPLS-2005>
43.4760932922363

> <r_mmod_Bend_Energy-OPLS-2005>
99.2160491943359

> <r_mmod_Torsional_Energy-OPLS-2005>
240.581649780273

> <r_mmod_Improper_Torsional_Energy-OPLS-2005>
4.99405193328857

> <r_mmod_Van_der_Waal_Energy-OPLS-2005>
165.655395507812

> <r_mmod_Electrostatic_Energy-OPLS-2005>
-412.960845947266

> <r_mmod_Solvation_Energy-OPLS-2005>
-425.919250488281

> <b_mmod_Minimization_Converged-OPLS-2005>
0

> <r_mmod_RMS_Derivative-OPLS-2005>
1.41483581066132

$$$$
30
                    3D
 Structure written by MMmdl.
163172  0  0  1  0            999 V2000
  -30.6739  -14.5002   20.5519 C   0  0  0  0  0  0
  -30.4305  -12.3158   19.4277 C   0  0  0  0  0  0
  -29.4981  -12.5030   18.2115 C   0  0  0  0  0  0
  -28.0199  -12.3590   18.6247 C   0  0  0  0  0  0
  -27.6637  -13.2039   19.8769 C   0  0  2  0  0  0
  -28.7051  -12.9839   20.9976 C   0  0  0  0  0  0
  -25.2604  -13.8157   20.5684 C   0  0  0  0  0  0
  -24.1845  -13.0444   20.9176 C   0  0  0  0  0  0
  -24.6390  -11.6906   20.8732 C   0  0  0  0  0  0
  -23.9054  -10.4292   21.0405 C   0  0  0  0  0  0
  -24.3608   -9.4208   21.9184 C   0  0  0  0  0  0
  -23.6285   -8.2244   22.0754 C   0  0  0  0  0  0
  -22.4268   -8.0280   21.3545 C   0  0  0  0  0  0
  -21.9902   -9.0253   20.4647 C   0  0  0  0  0  0
  -22.7227  -10.2134   20.3055 C   0  0  0  0  0  0
  -21.6851   -6.0735   22.5278 C   0  0  0  0  0  0
  -21.4012   -6.5637   23.8211 C   0  0  0  0  0  0
  -21.3659   -5.6791   24.9174 C   0  0  0  0  0  0
  -21.6044   -4.3053   24.7226 C   0  0  0  0  0  0
  -21.8820   -3.8145   23.4348 C   0  0  0  0  0  0
  -21.9191   -4.6962   22.3403 C   0  0  0  0  0  0
  -22.7867  -13.5242   21.1840 C   0  0  0  0  0  0
  -22.1661   -4.2144   21.0981 F   0  0  0  0  0  0
  -21.5631   -3.4537   25.7740 F   0  0  0  0  0  0
  -30.0369  -13.2998   20.4495 N   0  0  0  0  0  0
  -26.3035  -12.9317   20.3375 N   0  0  0  0  0  0
  -25.9317  -11.6482   20.5771 N   0  0  0  0  0  0
  -22.0508  -12.8236   22.0399 N   0  0  0  0  0  0
  -25.4344  -15.1874   20.4102 N   0  0  0  0  0  0
  -31.8019  -14.6936   20.0877 O   0  0  0  0  0  0
  -21.6637   -6.8877   21.4240 O   0  0  0  0  0  0
  -22.3554  -14.5550   20.6695 O   0  0  0  0  0  0
  -24.6157  -31.8667   23.2097 C   0  0  0  0  0  0
  -25.9048  -32.4817   23.8392 C   0  0  1  0  0  0
  -27.2343  -27.4280   20.0982 C   0  0  0  0  0  0
  -25.5901  -33.8614   24.2321 N   0  0  0  0  0  0
  -23.4051  -30.4890   21.5506 C   0  0  2  0  0  0
  -24.8546  -28.9570   20.1106 C   0  0  0  0  0  0
  -22.7417  -29.4642   22.4988 C   0  0  0  0  0  0
  -18.0269  -28.1362   22.8490 C   0  0  0  0  0  0
  -24.1485  -36.7312   23.2640 C   0  0  0  0  0  0
  -25.9350  -30.8291   21.3663 C   0  0  0  0  0  0
  -26.0149  -29.4641   20.7114 C   0  0  0  0  0  0
  -27.2106  -28.7058   20.7048 C   0  0  0  0  0  0
  -26.0652  -26.9443   19.4773 C   0  0  0  0  0  0
  -24.8749  -27.6962   19.4887 C   0  0  0  0  0  0
  -23.6147  -29.8222   20.1644 C   0  0  0  0  0  0
  -25.4104  -36.3107   24.0338 C   0  0  1  0  0  0
  -20.5861  -28.3648   23.1314 C   0  0  2  0  0  0
  -20.6758  -26.9385   22.5417 C   0  0  0  0  0  0
  -19.5743  -26.6372   21.5208 C   0  0  0  0  0  0
  -18.1919  -26.7908   22.1615 C   0  0  0  0  0  0
  -19.1518  -28.8822   23.2898 C   0  0  0  0  0  0
  -18.9449  -30.1429   23.8906 C   0  0  0  0  0  0
  -17.6455  -30.6575   24.0555 C   0  0  0  0  0  0
  -25.9030  -34.9474   23.5129 C   0  0  0  0  0  0
  -16.5344  -29.9077   23.6323 C   0  0  0  0  0  0
  -16.7260  -28.6492   23.0347 C   0  0  0  0  0  0
  -26.4472  -31.6600   25.0723 C   0  0  0  0  0  0
  -25.3738  -31.3716   26.1473 C   0  0  0  0  0  0
  -27.0299  -30.3038   24.6107 C   0  0  0  0  0  0
  -27.6040  -32.4323   25.7490 C   0  0  0  0  0  0
  -27.5578  -37.1812   24.8464 C   0  0  0  0  0  0
  -21.4140  -29.3020   22.3723 N   0  0  0  0  0  0
  -26.4292  -37.3790   23.9405 N   0  0  0  0  0  0
  -24.6699  -31.0756   22.1006 N   0  0  0  0  0  0
  -23.4184  -28.8185   23.3035 O   0  0  0  0  0  0
  -28.3555  -26.6246   20.1287 O   0  0  0  0  0  0
  -26.5591  -34.8928   22.4688 O   0  0  0  0  0  0
  -23.5346  -32.1422   23.7486 O   0  0  0  0  0  0
  -30.5906  -18.9236   19.6631 C   0  0  0  0  0  0
  -30.6753  -17.5315   19.8731 C   0  0  0  0  0  0
  -29.8233  -19.7551   20.5094 C   0  0  0  0  0  0
  -29.1592  -19.1553   21.6185 C   0  0  0  0  0  0
  -29.2154  -17.7386   21.8107 C   0  0  0  0  0  0
  -29.9773  -16.9130   20.9367 C   0  0  0  0  0  0
  -26.5914  -23.2261   19.9751 C   0  0  0  0  0  0
  -26.2026  -22.0621   19.4543 C   0  0  0  0  0  0
  -28.0015  -23.1588   20.2223 C   0  0  0  0  0  0
  -27.3470  -21.1786   19.3588 C   0  0  0  0  0  0
  -28.7691  -24.1922   20.6535 C   0  0  0  0  0  0
  -28.3738  -20.0183   22.6044 C   0  0  0  0  0  0
  -28.4245  -17.0735   22.9384 C   0  0  0  0  0  0
  -29.7400  -21.2696   20.1743 C   0  0  0  0  0  0
  -28.2509  -25.5672   21.1046 C   0  0  0  0  0  0
  -28.3965  -21.8403   19.9085 N   0  0  0  0  0  0
  -29.9402  -15.4842   21.1178 N   0  0  0  0  0  0
  -27.3521  -20.0453   18.8690 O   0  0  0  0  0  0
  -31.4736  -12.4239   19.1249 H   0  0  0  0  0  0
  -30.3417  -11.3045   19.8272 H   0  0  0  0  0  0
  -29.7400  -11.7740   17.4370 H   0  0  0  0  0  0
  -29.6610  -13.4864   17.7671 H   0  0  0  0  0  0
  -27.8373  -11.3031   18.8290 H   0  0  0  0  0  0
  -27.3661  -12.6234   17.7928 H   0  0  0  0  0  0
  -27.7083  -14.2512   19.5774 H   0  0  0  0  0  0
  -28.6854  -11.9454   21.3321 H   0  0  0  0  0  0
  -28.4598  -13.5739   21.8814 H   0  0  0  0  0  0
  -25.2754   -9.5684   22.4757 H   0  0  0  0  0  0
  -23.9994   -7.4636   22.7469 H   0  0  0  0  0  0
  -21.0835   -8.8770   19.8952 H   0  0  0  0  0  0
  -22.3686  -10.9673   19.6162 H   0  0  0  0  0  0
  -21.2004   -7.6143   23.9713 H   0  0  0  0  0  0
  -21.1480   -6.0522   25.9078 H   0  0  0  0  0  0
  -22.0601   -2.7605   23.2850 H   0  0  0  0  0  0
  -22.4116  -11.9890   22.4778 H   0  0  0  0  0  0
  -21.1128  -13.1268   22.2614 H   0  0  0  0  0  0
  -24.6685  -15.8439   20.5136 H   0  0  0  0  0  0
  -26.2895  -15.6246   20.0898 H   0  0  0  0  0  0
  -26.7121  -32.5526   23.1158 H   0  0  0  0  0  0
  -25.0068  -33.9772   25.0479 H   0  0  0  0  0  0
  -22.6951  -31.3067   21.4117 H   0  0  0  0  0  0
  -23.3742  -35.9652   23.3319 H   0  0  0  0  0  0
  -24.3583  -36.8910   22.2051 H   0  0  0  0  0  0
  -23.7246  -37.6526   23.6639 H   0  0  0  0  0  0
  -26.0505  -31.5968   20.6003 H   0  0  0  0  0  0
  -26.8208  -30.8806   21.9870 H   0  0  0  0  0  0
  -28.1031  -29.0859   21.1827 H   0  0  0  0  0  0
  -26.0750  -25.9796   18.9918 H   0  0  0  0  0  0
  -23.9858  -27.3014   19.0159 H   0  0  0  0  0  0
  -23.7197  -30.5978   19.4048 H   0  0  0  0  0  0
  -22.7391  -29.2406   19.8698 H   0  0  0  0  0  0
  -25.1288  -36.1976   25.0831 H   0  0  0  0  0  0
  -20.9943  -28.3212   24.1436 H   0  0  0  0  0  0
  -20.5654  -26.2258   23.3603 H   0  0  0  0  0  0
  -21.6633  -26.7427   22.1216 H   0  0  0  0  0  0
  -19.6909  -25.6287   21.1227 H   0  0  0  0  0  0
  -19.6683  -27.3187   20.6743 H   0  0  0  0  0  0
  -17.4190  -26.6647   21.4017 H   0  0  0  0  0  0
  -18.0321  -26.0043   22.9005 H   0  0  0  0  0  0
  -19.7930  -30.7229   24.2282 H   0  0  0  0  0  0
  -17.5019  -31.6258   24.5151 H   0  0  0  0  0  0
  -15.5348  -30.2986   23.7642 H   0  0  0  0  0  0
  -15.8656  -28.0818   22.7062 H   0  0  0  0  0  0
  -24.5888  -30.7094   25.7814 H   0  0  0  0  0  0
  -24.8959  -32.2881   26.4941 H   0  0  0  0  0  0
  -25.8086  -30.8862   27.0219 H   0  0  0  0  0  0
  -26.2848  -29.6810   24.1141 H   0  0  0  0  0  0
  -27.4049  -29.7264   25.4569 H   0  0  0  0  0  0
  -27.8694  -30.4358   23.9274 H   0  0  0  0  0  0
  -27.2645  -33.3607   26.2092 H   0  0  0  0  0  0
  -28.3831  -32.6911   25.0312 H   0  0  0  0  0  0
  -28.0722  -31.8434   26.5386 H   0  0  0  0  0  0
  -28.2605  -38.0099   24.7501 H   0  0  0  0  0  0
  -28.1061  -36.2633   24.6300 H   0  0  0  0  0  0
  -27.2296  -37.1482   25.8867 H   0  0  0  0  0  0
  -20.9295  -29.8769   21.6971 H   0  0  0  0  0  0
  -26.0185  -38.2870   24.1398 H   0  0  0  0  0  0
  -31.1117  -19.3510   18.8176 H   0  0  0  0  0  0
  -31.2558  -16.9487   19.1729 H   0  0  0  0  0  0
  -25.9388  -24.0634   20.1715 H   0  0  0  0  0  0
  -25.1962  -21.8058   19.1609 H   0  0  0  0  0  0
  -29.8359  -24.0589   20.7598 H   0  0  0  0  0  0
  -28.4540  -21.0872   22.4225 H   0  0  0  0  0  0
  -28.7429  -19.8673   23.6189 H   0  0  0  0  0  0
  -27.3147  -19.7601   22.5780 H   0  0  0  0  0  0
  -28.1788  -17.7430   23.7588 H   0  0  0  0  0  0
  -28.9819  -16.2520   23.3877 H   0  0  0  0  0  0
  -27.4880  -16.6745   22.5474 H   0  0  0  0  0  0
  -30.3581  -21.4842   19.3023 H   0  0  0  0  0  0
  -30.2051  -21.8057   21.0010 H   0  0  0  0  0  0
  -28.8282  -25.8649   21.9804 H   0  0  0  0  0  0
  -27.2295  -25.4495   21.4711 H   0  0  0  0  0  0
  -29.1299  -15.1448   21.6113 H   0  0  0  0  0  0
  1 25  1  0  0  0
  1 30  2  0  0  0
  1 87  1  0  0  0
  2  3  1  0  0  0
  2 25  1  0  0  0
  2 89  1  0  0  0
  2 90  1  0  0  0
  3  4  1  0  0  0
  3 91  1  0  0  0
  3 92  1  0  0  0
  4  5  1  0  0  0
  4 93  1  0  0  0
  4 94  1  0  0  0
  5  6  1  0  0  0
  5 26  1  0  0  0
  5 95  1  0  0  0
  6 25  1  0  0  0
  6 96  1  0  0  0
  6 97  1  0  0  0
  7  8  2  0  0  0
  7 26  1  0  0  0
  7 29  1  0  0  0
  8  9  1  0  0  0
  8 22  1  0  0  0
  9 10  1  0  0  0
  9 27  2  0  0  0
 10 11  2  0  0  0
 10 15  1  0  0  0
 11 12  1  0  0  0
 11 98  1  0  0  0
 12 13  2  0  0  0
 12 99  1  0  0  0
 13 14  1  0  0  0
 13 31  1  0  0  0
 14 15  2  0  0  0
 14100  1  0  0  0
 15101  1  0  0  0
 16 17  2  0  0  0
 16 21  1  0  0  0
 16 31  1  0  0  0
 17 18  1  0  0  0
 17102  1  0  0  0
 18 19  2  0  0  0
 18103  1  0  0  0
 19 20  1  0  0  0
 19 24  1  0  0  0
 20 21  2  0  0  0
 20104  1  0  0  0
 21 23  1  0  0  0
 22 28  1  0  0  0
 22 32  2  0  0  0
 26 27  1  0  0  0
 28105  1  0  0  0
 28106  1  0  0  0
 29107  1  0  0  0
 29108  1  0  0  0
 33 34  1  0  0  0
 33 66  1  0  0  0
 33 70  2  0  0  0
 34 36  1  0  0  0
 34 59  1  0  0  0
 34109  1  0  0  0
 35 44  2  0  0  0
 35 45  1  0  0  0
 35 68  1  0  0  0
 36 56  1  0  0  0
 36110  1  0  0  0
 37 39  1  0  0  0
 37 47  1  0  0  0
 37 66  1  0  0  0
 37111  1  0  0  0
 38 43  2  0  0  0
 38 46  1  0  0  0
 38 47  1  0  0  0
 39 64  1  0  0  0
 39 67  2  0  0  0
 40 52  1  0  0  0
 40 53  2  0  0  0
 40 58  1  0  0  0
 41112  1  0  0  0
 41113  1  0  0  0
 41114  1  0  0  0
 41 48  1  0  0  0
 42 43  1  0  0  0
 42 66  1  0  0  0
 42115  1  0  0  0
 42116  1  0  0  0
 43 44  1  0  0  0
 44117  1  0  0  0
 45 46  2  0  0  0
 45118  1  0  0  0
 46119  1  0  0  0
 47120  1  0  0  0
 47121  1  0  0  0
 48 56  1  0  0  0
 48 65  1  0  0  0
 48122  1  0  0  0
 49 50  1  0  0  0
 49 53  1  0  0  0
 49 64  1  0  0  0
 49123  1  0  0  0
 50 51  1  0  0  0
 50124  1  0  0  0
 50125  1  0  0  0
 51 52  1  0  0  0
 51126  1  0  0  0
 51127  1  0  0  0
 52128  1  0  0  0
 52129  1  0  0  0
 53 54  1  0  0  0
 54 55  2  0  0  0
 54130  1  0  0  0
 55 57  1  0  0  0
 55131  1  0  0  0
 56 69  2  0  0  0
 57 58  2  0  0  0
 57132  1  0  0  0
 58133  1  0  0  0
 59 60  1  0  0  0
 59 61  1  0  0  0
 59 62  1  0  0  0
 60134  1  0  0  0
 60135  1  0  0  0
 60136  1  0  0  0
 61137  1  0  0  0
 61138  1  0  0  0
 61139  1  0  0  0
 62140  1  0  0  0
 62141  1  0  0  0
 62142  1  0  0  0
 63 65  1  0  0  0
 63143  1  0  0  0
 63144  1  0  0  0
 63145  1  0  0  0
 64146  1  0  0  0
 65147  1  0  0  0
 68 85  1  0  0  0
 71 72  2  0  0  0
 71 73  1  0  0  0
 71148  1  0  0  0
 72 76  1  0  0  0
 72149  1  0  0  0
 73 74  2  0  0  0
 73 84  1  0  0  0
 74 75  1  0  0  0
 74 82  1  0  0  0
 75 76  2  0  0  0
 75 83  1  0  0  0
 76 87  1  0  0  0
 77 78  2  0  0  0
 77 79  1  0  0  0
 77150  1  0  0  0
 78 80  1  0  0  0
 78151  1  0  0  0
 79 81  2  0  0  0
 79 86  1  0  0  0
 80 86  1  0  0  0
 80 88  2  0  0  0
 81 85  1  0  0  0
 81152  1  0  0  0
 82153  1  0  0  0
 82154  1  0  0  0
 82155  1  0  0  0
 83156  1  0  0  0
 83157  1  0  0  0
 83158  1  0  0  0
 84 86  1  0  0  0
 84159  1  0  0  0
 84160  1  0  0  0
 85161  1  0  0  0
 85162  1  0  0  0
 87163  1  0  0  0
M  ISO  4   1 100  68 101  85 101  87 100
M  END
> <chiral flag>
0

> <version>
0

> <s_m_source_file>
/data/baiqing/PycharmProjects/Reinvent-master-3.2/result/LINK_invent/BTK/process_docking_weight1_custom_product_contain_oxygen_bond_distance_aromatic_linkinvent_7_9_3/rearranged_h_0049.sdf

> <i_m_source_file_index>
31

> <r_mmod_Potential_Energy-OPLS-2005>
41.2550582885742

> <r_mmod_Stretch_Energy-OPLS-2005>
48.7914733886719

> <r_mmod_Bend_Energy-OPLS-2005>
179.233871459961

> <r_mmod_Torsional_Energy-OPLS-2005>
233.33479309082

> <r_mmod_Improper_Torsional_Energy-OPLS-2005>
3.31305694580078

> <r_mmod_Van_der_Waal_Energy-OPLS-2005>
153.602096557617

> <r_mmod_Electrostatic_Energy-OPLS-2005>
-374.94287109375

> <r_mmod_Solvation_Energy-OPLS-2005>
-218.3974609375

> <b_mmod_Minimization_Converged-OPLS-2005>
0

> <r_mmod_RMS_Derivative-OPLS-2005>
0.779780864715576

$$$$
31
                    3D
 Structure written by MMmdl.
167176  0  0  1  0            999 V2000
  -30.5543  -14.9114   20.3878 C   0  0  0  0  0  0
  -30.4391  -12.5437   19.5174 C   0  0  0  0  0  0
  -29.5295  -12.4639   18.2672 C   0  0  0  0  0  0
  -28.0505  -12.3077   18.6730 C   0  0  0  0  0  0
  -27.6343  -13.2470   19.8381 C   0  0  2  0  0  0
  -28.6738  -13.2608   20.9784 C   0  0  0  0  0  0
  -25.2503  -13.8228   20.5710 C   0  0  0  0  0  0
  -24.1791  -13.0450   20.9230 C   0  0  0  0  0  0
  -24.6418  -11.6946   20.8777 C   0  0  0  0  0  0
  -23.9098  -10.4303   21.0436 C   0  0  0  0  0  0
  -24.3653   -9.4202   21.9189 C   0  0  0  0  0  0
  -23.6314   -8.2247   22.0752 C   0  0  0  0  0  0
  -22.4292   -8.0306   21.3546 C   0  0  0  0  0  0
  -21.9949   -9.0286   20.4643 C   0  0  0  0  0  0
  -22.7294  -10.2155   20.3055 C   0  0  0  0  0  0
  -21.6856   -6.0765   22.5288 C   0  0  0  0  0  0
  -21.4008   -6.5651   23.8225 C   0  0  0  0  0  0
  -21.3657   -5.6792   24.9175 C   0  0  0  0  0  0
  -21.6042   -4.3062   24.7221 C   0  0  0  0  0  0
  -21.8815   -3.8169   23.4339 C   0  0  0  0  0  0
  -21.9191   -4.6989   22.3401 C   0  0  0  0  0  0
  -22.7809  -13.5228   21.1872 C   0  0  0  0  0  0
  -22.1655   -4.2183   21.0978 F   0  0  0  0  0  0
  -21.5628   -3.4533   25.7730 F   0  0  0  0  0  0
  -29.9534  -13.6568   20.3835 N   0  0  0  0  0  0
  -26.2923  -12.9458   20.3252 N   0  0  0  0  0  0
  -25.9350  -11.6590   20.5778 N   0  0  0  0  0  0
  -22.0465  -12.8199   22.0436 N   0  0  0  0  0  0
  -25.4202  -15.1945   20.4141 N   0  0  0  0  0  0
  -31.7555  -14.9576   20.1027 O   0  0  0  0  0  0
  -21.6641   -6.8916   21.4255 O   0  0  0  0  0  0
  -22.3487  -14.5536   20.6753 O   0  0  0  0  0  0
  -24.6398  -31.8470   23.1872 C   0  0  0  0  0  0
  -25.9176  -32.4724   23.8263 C   0  0  1  0  0  0
  -27.2197  -27.1644   20.1541 C   0  0  0  0  0  0
  -25.5931  -33.8513   24.2197 N   0  0  0  0  0  0
  -23.4436  -30.4628   21.5353 C   0  0  2  0  0  0
  -24.8922  -28.8889   20.1166 C   0  0  0  0  0  0
  -22.7572  -29.4544   22.4909 C   0  0  0  0  0  0
  -18.0308  -28.1376   22.8497 C   0  0  0  0  0  0
  -24.1502  -36.7247   23.2643 C   0  0  0  0  0  0
  -25.9974  -30.7309   21.3823 C   0  0  0  0  0  0
  -26.0699  -29.3431   20.7252 C   0  0  0  0  0  0
  -27.2382  -28.4984   20.7194 C   0  0  0  0  0  0
  -26.0140  -26.7943   19.5258 C   0  0  0  0  0  0
  -24.8740  -27.6261   19.5042 C   0  0  0  0  0  0
  -23.6678  -29.7875   20.1573 C   0  0  0  0  0  0
  -25.4136  -36.3048   24.0323 C   0  0  1  0  0  0
  -20.5924  -28.3690   23.1262 C   0  0  2  0  0  0
  -20.6799  -26.9405   22.5415 C   0  0  0  0  0  0
  -19.5759  -26.6369   21.5236 C   0  0  0  0  0  0
  -18.1942  -26.7915   22.1645 C   0  0  0  0  0  0
  -19.1563  -28.8862   23.2865 C   0  0  0  0  0  0
  -18.9464  -30.1458   23.8893 C   0  0  0  0  0  0
  -17.6452  -30.6571   24.0565 C   0  0  0  0  0  0
  -25.9075  -34.9419   23.5072 C   0  0  0  0  0  0
  -16.5350  -29.9060   23.6334 C   0  0  0  0  0  0
  -16.7292  -28.6478   23.0371 C   0  0  0  0  0  0
  -26.4526  -31.6559   25.0672 C   0  0  0  0  0  0
  -25.3722  -31.3693   26.1368 C   0  0  0  0  0  0
  -27.0397  -30.2967   24.6213 C   0  0  0  0  0  0
  -27.6073  -32.4319   25.7439 C   0  0  0  0  0  0
  -27.5589  -37.1778   24.8472 C   0  0  0  0  0  0
  -21.4278  -29.3004   22.3644 N   0  0  0  0  0  0
  -26.4319  -37.3742   23.9399 N   0  0  0  0  0  0
  -24.7136  -31.0337   22.0901 N   0  0  0  0  0  0
  -23.4223  -28.8117   23.3077 O   0  0  0  0  0  0
  -28.3043  -26.2263   20.1631 O   0  0  0  0  0  0
  -26.5665  -34.8921   22.4652 O   0  0  0  0  0  0
  -23.5516  -32.1332   23.7090 O   0  0  0  0  0  0
  -29.4515  -19.2551   18.0208 C   0  0  0  0  0  0
  -29.4102  -18.5081   16.8378 C   0  0  0  0  0  0
  -29.5147  -16.5043   18.1508 C   0  0  0  0  0  0
  -29.4614  -18.7062   19.3402 C   0  0  0  0  0  0
  -29.6228  -17.1862   19.4005 C   0  0  0  0  0  0
  -29.3974  -17.1226   16.9055 C   0  0  0  0  0  0
  -29.1702  -22.4390   21.5293 C   0  0  0  0  0  0
  -29.2978  -22.1302   22.8380 C   0  0  0  0  0  0
  -29.3861  -23.9387   21.0466 C   0  0  0  0  0  0
  -27.6508  -23.6590   19.3558 C   0  0  0  0  0  0
  -28.3929  -22.2162   19.1942 C   0  0  0  0  0  0
  -28.1404  -24.7081   20.4479 C   0  0  1  0  0  0
  -27.6471  -20.8284   24.2212 C   0  0  0  0  0  0
  -29.3247  -19.9281   20.4406 C   0  0  0  0  0  0
  -29.0277  -20.8218   23.5591 C   0  0  0  0  0  0
  -29.7988  -16.1212   20.4751 N   0  0  0  0  0  0
  -28.6918  -21.4130   20.4578 N   0  3  1  0  0  0
  -29.2838  -16.3791   15.7782 F   0  0  0  0  0  0
  -31.4783  -12.6789   19.2127 H   0  0  0  0  0  0
  -30.4154  -11.6016   20.0696 H   0  0  0  0  0  0
  -29.8280  -11.6132   17.6516 H   0  0  0  0  0  0
  -29.6613  -13.3427   17.6400 H   0  0  0  0  0  0
  -27.9115  -11.2694   18.9727 H   0  0  0  0  0  0
  -27.3986  -12.4601   17.8113 H   0  0  0  0  0  0
  -27.6038  -14.2519   19.4149 H   0  0  0  0  0  0
  -28.3826  -13.9616   21.7615 H   0  0  0  0  0  0
  -28.7491  -12.2813   21.4524 H   0  0  0  0  0  0
  -25.2808   -9.5659   22.4752 H   0  0  0  0  0  0
  -24.0030   -7.4620   22.7450 H   0  0  0  0  0  0
  -21.0880   -8.8821   19.8930 H   0  0  0  0  0  0
  -22.3779  -10.9701   19.6154 H   0  0  0  0  0  0
  -21.1991   -7.6157   23.9743 H   0  0  0  0  0  0
  -21.1478   -6.0514   25.9083 H   0  0  0  0  0  0
  -22.0601   -2.7639   23.2824 H   0  0  0  0  0  0
  -22.4117  -11.9856   22.4793 H   0  0  0  0  0  0
  -21.1076  -13.1190   22.2640 H   0  0  0  0  0  0
  -24.6580  -15.8526   20.5333 H   0  0  0  0  0  0
  -26.2704  -15.6326   20.0860 H   0  0  0  0  0  0
  -26.7244  -32.5370   23.0999 H   0  0  0  0  0  0
  -25.0072  -33.9621   25.0349 H   0  0  0  0  0  0
  -22.7422  -31.2849   21.3792 H   0  0  0  0  0  0
  -23.3783  -35.9561   23.3302 H   0  0  0  0  0  0
  -24.3602  -36.8870   22.2062 H   0  0  0  0  0  0
  -23.7241  -37.6436   23.6673 H   0  0  0  0  0  0
  -26.1507  -31.4834   20.6077 H   0  0  0  0  0  0
  -26.8672  -30.7781   22.0266 H   0  0  0  0  0  0
  -28.1455  -28.8454   21.1934 H   0  0  0  0  0  0
  -25.9419  -25.8287   19.0510 H   0  0  0  0  0  0
  -23.9749  -27.2665   19.0241 H   0  0  0  0  0  0
  -23.8006  -30.5542   19.3936 H   0  0  0  0  0  0
  -22.7849  -29.2209   19.8572 H   0  0  0  0  0  0
  -25.1330  -36.1893   25.0819 H   0  0  0  0  0  0
  -21.0005  -28.3274   24.1385 H   0  0  0  0  0  0
  -20.5720  -26.2304   23.3627 H   0  0  0  0  0  0
  -21.6659  -26.7436   22.1186 H   0  0  0  0  0  0
  -19.6906  -25.6281   21.1254 H   0  0  0  0  0  0
  -19.6674  -27.3206   20.6789 H   0  0  0  0  0  0
  -17.4218  -26.6691   21.4037 H   0  0  0  0  0  0
  -18.0305  -26.0061   22.9037 H   0  0  0  0  0  0
  -19.7936  -30.7287   24.2262 H   0  0  0  0  0  0
  -17.4995  -31.6259   24.5148 H   0  0  0  0  0  0
  -15.5344  -30.2947   23.7640 H   0  0  0  0  0  0
  -15.8705  -28.0775   22.7085 H   0  0  0  0  0  0
  -24.5887  -30.7092   25.7622 H   0  0  0  0  0  0
  -24.8946  -32.2864   26.4822 H   0  0  0  0  0  0
  -25.8004  -30.8792   27.0124 H   0  0  0  0  0  0
  -26.2991  -29.6676   24.1264 H   0  0  0  0  0  0
  -27.4087  -29.7262   25.4747 H   0  0  0  0  0  0
  -27.8873  -30.4211   23.9468 H   0  0  0  0  0  0
  -27.2670  -33.3609   26.2023 H   0  0  0  0  0  0
  -28.3863  -32.6906   25.0250 H   0  0  0  0  0  0
  -28.0791  -31.8462   26.5343 H   0  0  0  0  0  0
  -28.2612  -38.0071   24.7527 H   0  0  0  0  0  0
  -28.1084  -36.2600   24.6310 H   0  0  0  0  0  0
  -27.2295  -37.1437   25.8872 H   0  0  0  0  0  0
  -20.9485  -29.8699   21.6816 H   0  0  0  0  0  0
  -26.0192  -38.2819   24.1379 H   0  0  0  0  0  0
  -29.4659  -20.3171   17.8661 H   0  0  0  0  0  0
  -29.3607  -18.9995   15.8771 H   0  0  0  0  0  0
  -29.5055  -15.4301   18.0960 H   0  0  0  0  0  0
  -29.5896  -22.9288   23.5057 H   0  0  0  0  0  0
  -29.7545  -24.5127   21.8971 H   0  0  0  0  0  0
  -30.2088  -23.9510   20.3298 H   0  0  0  0  0  0
  -26.5902  -23.4683   19.5365 H   0  0  0  0  0  0
  -27.6803  -24.1516   18.3851 H   0  0  0  0  0  0
  -29.3420  -22.3908   18.6880 H   0  0  0  0  0  0
  -27.7924  -21.6115   18.5130 H   0  0  0  0  0  0
  -27.3908  -24.6947   21.2444 H   0  0  0  0  0  0
  -27.5274  -21.6751   24.8981 H   0  0  0  0  0  0
  -27.4995  -19.9181   24.8040 H   0  0  0  0  0  0
  -26.8503  -20.8807   23.4762 H   0  0  0  0  0  0
  -28.2960  -19.8068   20.0991 H   0  0  0  0  0  0
  -30.1952  -20.4067   19.9923 H   0  0  0  0  0  0
  -29.8003  -20.6988   24.3222 H   0  0  0  0  0  0
  -29.1182  -19.9558   22.9130 H   0  0  0  0  0  0
  -28.9949  -16.0334   21.0809 H   0  0  0  0  0  0
  -27.7560  -21.1646   20.7462 H   0  0  0  0  0  0
  1 25  1  0  0  0
  1 30  2  0  0  0
  1 86  1  0  0  0
  2  3  1  0  0  0
  2 25  1  0  0  0
  2 89  1  0  0  0
  2 90  1  0  0  0
  3  4  1  0  0  0
  3 91  1  0  0  0
  3 92  1  0  0  0
  4  5  1  0  0  0
  4 93  1  0  0  0
  4 94  1  0  0  0
  5  6  1  0  0  0
  5 26  1  0  0  0
  5 95  1  0  0  0
  6 25  1  0  0  0
  6 96  1  0  0  0
  6 97  1  0  0  0
  7  8  2  0  0  0
  7 26  1  0  0  0
  7 29  1  0  0  0
  8  9  1  0  0  0
  8 22  1  0  0  0
  9 10  1  0  0  0
  9 27  2  0  0  0
 10 11  2  0  0  0
 10 15  1  0  0  0
 11 12  1  0  0  0
 11 98  1  0  0  0
 12 13  2  0  0  0
 12 99  1  0  0  0
 13 14  1  0  0  0
 13 31  1  0  0  0
 14 15  2  0  0  0
 14100  1  0  0  0
 15101  1  0  0  0
 16 17  2  0  0  0
 16 21  1  0  0  0
 16 31  1  0  0  0
 17 18  1  0  0  0
 17102  1  0  0  0
 18 19  2  0  0  0
 18103  1  0  0  0
 19 20  1  0  0  0
 19 24  1  0  0  0
 20 21  2  0  0  0
 20104  1  0  0  0
 21 23  1  0  0  0
 22 28  1  0  0  0
 22 32  2  0  0  0
 26 27  1  0  0  0
 28105  1  0  0  0
 28106  1  0  0  0
 29107  1  0  0  0
 29108  1  0  0  0
 33 34  1  0  0  0
 33 66  1  0  0  0
 33 70  2  0  0  0
 34 36  1  0  0  0
 34 59  1  0  0  0
 34109  1  0  0  0
 35 44  2  0  0  0
 35 45  1  0  0  0
 35 68  1  0  0  0
 36 56  1  0  0  0
 36110  1  0  0  0
 37 39  1  0  0  0
 37 47  1  0  0  0
 37 66  1  0  0  0
 37111  1  0  0  0
 38 43  2  0  0  0
 38 46  1  0  0  0
 38 47  1  0  0  0
 39 64  1  0  0  0
 39 67  2  0  0  0
 40 52  1  0  0  0
 40 53  2  0  0  0
 40 58  1  0  0  0
 41112  1  0  0  0
 41113  1  0  0  0
 41114  1  0  0  0
 41 48  1  0  0  0
 42 43  1  0  0  0
 42 66  1  0  0  0
 42115  1  0  0  0
 42116  1  0  0  0
 43 44  1  0  0  0
 44117  1  0  0  0
 45 46  2  0  0  0
 45118  1  0  0  0
 46119  1  0  0  0
 47120  1  0  0  0
 47121  1  0  0  0
 48 56  1  0  0  0
 48 65  1  0  0  0
 48122  1  0  0  0
 49 50  1  0  0  0
 49 53  1  0  0  0
 49 64  1  0  0  0
 49123  1  0  0  0
 50 51  1  0  0  0
 50124  1  0  0  0
 50125  1  0  0  0
 51 52  1  0  0  0
 51126  1  0  0  0
 51127  1  0  0  0
 52128  1  0  0  0
 52129  1  0  0  0
 53 54  1  0  0  0
 54 55  2  0  0  0
 54130  1  0  0  0
 55 57  1  0  0  0
 55131  1  0  0  0
 56 69  2  0  0  0
 57 58  2  0  0  0
 57132  1  0  0  0
 58133  1  0  0  0
 59 60  1  0  0  0
 59 61  1  0  0  0
 59 62  1  0  0  0
 60134  1  0  0  0
 60135  1  0  0  0
 60136  1  0  0  0
 61137  1  0  0  0
 61138  1  0  0  0
 61139  1  0  0  0
 62140  1  0  0  0
 62141  1  0  0  0
 62142  1  0  0  0
 63 65  1  0  0  0
 63143  1  0  0  0
 63144  1  0  0  0
 63145  1  0  0  0
 64146  1  0  0  0
 65147  1  0  0  0
 68 82  1  0  0  0
 71 72  2  0  0  0
 71 74  1  0  0  0
 71148  1  0  0  0
 72 76  1  0  0  0
 72149  1  0  0  0
 73 75  1  0  0  0
 73 76  2  0  0  0
 73150  1  0  0  0
 74 75  2  0  0  0
 74 84  1  0  0  0
 75 86  1  0  0  0
 76 88  1  0  0  0
 77 78  2  0  0  0
 77 79  1  0  0  0
 77 87  1  0  0  0
 78 85  1  0  0  0
 78151  1  0  0  0
 79 82  1  0  0  0
 79152  1  0  0  0
 79153  1  0  0  0
 80 81  1  0  0  0
 80 82  1  0  0  0
 80154  1  0  0  0
 80155  1  0  0  0
 81 87  1  0  0  0
 81156  1  0  0  0
 81157  1  0  0  0
 82158  1  0  0  0
 83 85  1  0  0  0
 83159  1  0  0  0
 83160  1  0  0  0
 83161  1  0  0  0
 84162  1  0  0  0
 84163  1  0  0  0
 84 87  1  0  0  0
 85164  1  0  0  0
 85165  1  0  0  0
 86166  1  0  0  0
 87167  1  0  0  0
M  CHG  1  87   1
M  ISO  4   1 100  68 101  82 101  86 100
M  END
> <chiral flag>
0

> <version>
0

> <s_m_source_file>
/data/baiqing/PycharmProjects/Reinvent-master-3.2/result/LINK_invent/BTK/process_docking_weight1_custom_product_contain_oxygen_bond_distance_aromatic_linkinvent_7_9_3/rearranged_h_0049.sdf

> <i_m_source_file_index>
32

> <r_mmod_Potential_Energy-OPLS-2005>
721.906982421875

> <r_mmod_Stretch_Energy-OPLS-2005>
258.853729248047

> <r_mmod_Bend_Energy-OPLS-2005>
542.933959960938

> <r_mmod_Torsional_Energy-OPLS-2005>
299.691925048828

> <r_mmod_Improper_Torsional_Energy-OPLS-2005>
7.6156644821167

> <r_mmod_Van_der_Waal_Energy-OPLS-2005>
153.906661987305

> <r_mmod_Electrostatic_Energy-OPLS-2005>
-232.080932617188

> <r_mmod_Solvation_Energy-OPLS-2005>
-472.411560058594

> <b_mmod_Minimization_Converged-OPLS-2005>
0

> <r_mmod_RMS_Derivative-OPLS-2005>
3.73649477958679

$$$$
32
                    3D
 Structure written by MMmdl.
160168  0  0  1  0            999 V2000
  -30.6452  -14.6164   20.5093 C   0  0  0  0  0  0
  -30.4331  -12.3796   19.4546 C   0  0  0  0  0  0
  -29.5036  -12.5079   18.2269 C   0  0  0  0  0  0
  -28.0267  -12.3520   18.6386 C   0  0  0  0  0  0
  -27.6551  -13.2203   19.8700 C   0  0  2  0  0  0
  -28.7008  -13.0727   21.0001 C   0  0  0  0  0  0
  -25.2552  -13.8188   20.5713 C   0  0  0  0  0  0
  -24.1816  -13.0442   20.9209 C   0  0  0  0  0  0
  -24.6393  -11.6919   20.8749 C   0  0  0  0  0  0
  -23.9064  -10.4295   21.0404 C   0  0  0  0  0  0
  -24.3613   -9.4212   21.9183 C   0  0  0  0  0  0
  -23.6287   -8.2246   22.0750 C   0  0  0  0  0  0
  -22.4273   -8.0276   21.3540 C   0  0  0  0  0  0
  -21.9908   -9.0253   20.4648 C   0  0  0  0  0  0
  -22.7236  -10.2135   20.3057 C   0  0  0  0  0  0
  -21.6854   -6.0730   22.5279 C   0  0  0  0  0  0
  -21.4014   -6.5636   23.8210 C   0  0  0  0  0  0
  -21.3660   -5.6790   24.9174 C   0  0  0  0  0  0
  -21.6048   -4.3053   24.7226 C   0  0  0  0  0  0
  -21.8819   -3.8143   23.4347 C   0  0  0  0  0  0
  -21.9194   -4.6958   22.3402 C   0  0  0  0  0  0
  -22.7836  -13.5226   21.1867 C   0  0  0  0  0  0
  -22.1661   -4.2140   21.0981 F   0  0  0  0  0  0
  -21.5632   -3.4540   25.7741 F   0  0  0  0  0  0
  -30.0195  -13.4006   20.4373 N   0  0  0  0  0  0
  -26.2996  -12.9379   20.3373 N   0  0  0  0  0  0
  -25.9327  -11.6530   20.5787 N   0  0  0  0  0  0
  -22.0477  -12.8211   22.0425 N   0  0  0  0  0  0
  -25.4265  -15.1908   20.4131 N   0  0  0  0  0  0
  -31.7963  -14.7758   20.0950 O   0  0  0  0  0  0
  -21.6639   -6.8873   21.4238 O   0  0  0  0  0  0
  -22.3515  -14.5525   20.6714 O   0  0  0  0  0  0
  -24.6253  -31.8626   23.2059 C   0  0  0  0  0  0
  -25.9110  -32.4791   23.8380 C   0  0  1  0  0  0
  -27.2159  -27.3240   20.1115 C   0  0  0  0  0  0
  -25.5935  -33.8591   24.2303 N   0  0  0  0  0  0
  -23.4179  -30.4904   21.5487 C   0  0  2  0  0  0
  -24.8622  -28.9547   20.1065 C   0  0  0  0  0  0
  -22.7460  -29.4654   22.4936 C   0  0  0  0  0  0
  -18.0294  -28.1369   22.8502 C   0  0  0  0  0  0
  -24.1491  -36.7304   23.2640 C   0  0  0  0  0  0
  -25.9609  -30.7928   21.3803 C   0  0  0  0  0  0
  -26.0319  -29.4235   20.7178 C   0  0  0  0  0  0
  -27.2105  -28.6185   20.7156 C   0  0  0  0  0  0
  -26.0270  -26.9252   19.4523 C   0  0  0  0  0  0
  -24.8621  -27.7103   19.4630 C   0  0  0  0  0  0
  -23.6308  -29.8337   20.1612 C   0  0  0  0  0  0
  -25.4113  -36.3092   24.0332 C   0  0  1  0  0  0
  -20.5888  -28.3705   23.1280 C   0  0  2  0  0  0
  -20.6804  -26.9433   22.5402 C   0  0  0  0  0  0
  -19.5770  -26.6385   21.5220 C   0  0  0  0  0  0
  -18.1947  -26.7918   22.1640 C   0  0  0  0  0  0
  -19.1539  -28.8845   23.2888 C   0  0  0  0  0  0
  -18.9466  -30.1450   23.8899 C   0  0  0  0  0  0
  -17.6466  -30.6586   24.0550 C   0  0  0  0  0  0
  -25.9049  -34.9459   23.5115 C   0  0  0  0  0  0
  -16.5359  -29.9082   23.6315 C   0  0  0  0  0  0
  -16.7279  -28.6491   23.0359 C   0  0  0  0  0  0
  -26.4494  -31.6592   25.0742 C   0  0  0  0  0  0
  -25.3731  -31.3724   26.1472 C   0  0  0  0  0  0
  -27.0346  -30.3020   24.6192 C   0  0  0  0  0  0
  -27.6050  -32.4331   25.7517 C   0  0  0  0  0  0
  -27.5581  -37.1805   24.8462 C   0  0  0  0  0  0
  -21.4173  -29.3082   22.3688 N   0  0  0  0  0  0
  -26.4294  -37.3780   23.9407 N   0  0  0  0  0  0
  -24.6870  -31.0644   22.1017 N   0  0  0  0  0  0
  -23.4182  -28.8180   23.3009 O   0  0  0  0  0  0
  -28.3188  -26.4519   20.1897 O   0  0  0  0  0  0
  -26.5606  -34.8920   22.4676 O   0  0  0  0  0  0
  -23.5422  -32.1433   23.7389 O   0  0  0  0  0  0
  -30.8914  -17.5111   22.8775 C   0  0  0  0  0  0
  -31.2401  -18.2529   24.0169 C   0  0  0  0  0  0
  -30.5080  -20.2759   22.9035 C   0  0  0  0  0  0
  -30.3369  -18.1174   21.7224 C   0  0  0  0  0  0
  -30.1370  -19.5621   21.7373 C   0  0  0  0  0  0
  -31.0477  -19.6386   24.0305 C   0  0  0  0  0  0
  -28.2687  -22.6941   21.2435 C   0  0  0  0  0  0
  -27.2889  -20.4795   21.4924 C   0  0  0  0  0  0
  -30.0401  -17.1458   20.5430 C   0  0  0  0  0  0
  -29.5589  -20.4788   20.6104 C   0  0  0  0  0  0
  -29.0160  -23.8352   20.4616 C   0  0  0  0  0  0
  -28.0635  -25.0113   19.9417 C   0  0  0  0  0  0
  -29.8622  -15.6799   20.8516 N   0  0  0  0  0  0
  -28.4036  -21.3299   21.0438 N   0  0  0  0  0  0
  -27.4288  -23.0892   22.0601 O   0  0  0  0  0  0
  -31.4764  -20.5599   25.4240 Cl  0  0  0  0  0  0
  -31.4754  -12.4940   19.1515 H   0  0  0  0  0  0
  -30.3574  -11.3829   19.8921 H   0  0  0  0  0  0
  -29.7616  -11.7607   17.4758 H   0  0  0  0  0  0
  -29.6512  -13.4799   17.7534 H   0  0  0  0  0  0
  -27.8578  -11.2992   18.8665 H   0  0  0  0  0  0
  -27.3715  -12.5899   17.7997 H   0  0  0  0  0  0
  -27.6744  -14.2566   19.5314 H   0  0  0  0  0  0
  -28.7043  -12.0539   21.3899 H   0  0  0  0  0  0
  -28.4528  -13.7143   21.8473 H   0  0  0  0  0  0
  -25.2751   -9.5685   22.4769 H   0  0  0  0  0  0
  -23.9999   -7.4631   22.7463 H   0  0  0  0  0  0
  -21.0844   -8.8769   19.8949 H   0  0  0  0  0  0
  -22.3688  -10.9673   19.6171 H   0  0  0  0  0  0
  -21.2001   -7.6143   23.9710 H   0  0  0  0  0  0
  -21.1486   -6.0522   25.9076 H   0  0  0  0  0  0
  -22.0598   -2.7605   23.2853 H   0  0  0  0  0  0
  -22.4083  -11.9871   22.4817 H   0  0  0  0  0  0
  -21.1092  -13.1236   22.2630 H   0  0  0  0  0  0
  -24.6597  -15.8460   20.5212 H   0  0  0  0  0  0
  -26.2764  -15.6300   20.0836 H   0  0  0  0  0  0
  -26.7184  -32.5454   23.1137 H   0  0  0  0  0  0
  -25.0093  -33.9736   25.0457 H   0  0  0  0  0  0
  -22.7121  -31.3121   21.4109 H   0  0  0  0  0  0
  -23.3746  -35.9643   23.3304 H   0  0  0  0  0  0
  -24.3588  -36.8919   22.2054 H   0  0  0  0  0  0
  -23.7248  -37.6510   23.6659 H   0  0  0  0  0  0
  -26.0967  -31.5581   20.6145 H   0  0  0  0  0  0
  -26.8413  -30.8361   22.0098 H   0  0  0  0  0  0
  -28.1041  -28.9696   21.2123 H   0  0  0  0  0  0
  -25.9587  -25.9856   18.9254 H   0  0  0  0  0  0
  -23.9708  -27.3516   18.9657 H   0  0  0  0  0  0
  -23.7491  -30.6154   19.4102 H   0  0  0  0  0  0
  -22.7508  -29.2647   19.8559 H   0  0  0  0  0  0
  -25.1292  -36.1955   25.0824 H   0  0  0  0  0  0
  -20.9975  -28.3283   24.1400 H   0  0  0  0  0  0
  -20.5758  -26.2320   23.3609 H   0  0  0  0  0  0
  -21.6669  -26.7493   22.1175 H   0  0  0  0  0  0
  -19.6975  -25.6298   21.1264 H   0  0  0  0  0  0
  -19.6701  -27.3197   20.6752 H   0  0  0  0  0  0
  -17.4209  -26.6695   21.4044 H   0  0  0  0  0  0
  -18.0354  -26.0045   22.9024 H   0  0  0  0  0  0
  -19.7944  -30.7257   24.2266 H   0  0  0  0  0  0
  -17.5021  -31.6278   24.5116 H   0  0  0  0  0  0
  -15.5355  -30.2994   23.7609 H   0  0  0  0  0  0
  -15.8667  -28.0823   22.7076 H   0  0  0  0  0  0
  -24.5896  -30.7085   25.7805 H   0  0  0  0  0  0
  -24.8934  -32.2888   26.4916 H   0  0  0  0  0  0
  -25.8055  -30.8889   27.0241 H   0  0  0  0  0  0
  -26.2926  -29.6765   24.1216 H   0  0  0  0  0  0
  -27.4058  -29.7274   25.4691 H   0  0  0  0  0  0
  -27.8794  -30.4319   23.9423 H   0  0  0  0  0  0
  -27.2649  -33.3623   26.2110 H   0  0  0  0  0  0
  -28.3855  -32.6907   25.0343 H   0  0  0  0  0  0
  -28.0737  -31.8454   26.5423 H   0  0  0  0  0  0
  -28.2596  -38.0103   24.7509 H   0  0  0  0  0  0
  -28.1077  -36.2631   24.6293 H   0  0  0  0  0  0
  -27.2300  -37.1470   25.8864 H   0  0  0  0  0  0
  -20.9337  -29.8845   21.6945 H   0  0  0  0  0  0
  -26.0179  -38.2862   24.1389 H   0  0  0  0  0  0
  -31.0750  -16.4472   22.9102 H   0  0  0  0  0  0
  -31.6639  -17.7575   24.8788 H   0  0  0  0  0  0
  -30.3780  -21.3478   22.9470 H   0  0  0  0  0  0
  -27.4028  -19.4378   21.1895 H   0  0  0  0  0  0
  -26.3417  -20.8267   21.0757 H   0  0  0  0  0  0
  -27.2059  -20.4927   22.5800 H   0  0  0  0  0  0
  -29.1254  -17.4832   20.0545 H   0  0  0  0  0  0
  -30.8338  -17.2667   19.8043 H   0  0  0  0  0  0
  -29.2581  -19.8759   19.7529 H   0  0  0  0  0  0
  -30.3622  -21.1245   20.2524 H   0  0  0  0  0  0
  -29.7705  -24.2526   21.1282 H   0  0  0  0  0  0
  -29.5596  -23.3991   19.6237 H   0  0  0  0  0  0
  -27.0690  -24.7883   20.3272 H   0  0  0  0  0  0
  -27.9790  -24.8898   18.8606 H   0  0  0  0  0  0
  -28.9459  -15.4298   21.1904 H   0  0  0  0  0  0
  1 25  1  0  0  0
  1 30  2  0  0  0
  1 83  1  0  0  0
  2  3  1  0  0  0
  2 25  1  0  0  0
  2 87  1  0  0  0
  2 88  1  0  0  0
  3  4  1  0  0  0
  3 89  1  0  0  0
  3 90  1  0  0  0
  4  5  1  0  0  0
  4 91  1  0  0  0
  4 92  1  0  0  0
  5  6  1  0  0  0
  5 26  1  0  0  0
  5 93  1  0  0  0
  6 25  1  0  0  0
  6 94  1  0  0  0
  6 95  1  0  0  0
  7  8  2  0  0  0
  7 26  1  0  0  0
  7 29  1  0  0  0
  8  9  1  0  0  0
  8 22  1  0  0  0
  9 10  1  0  0  0
  9 27  2  0  0  0
 10 11  2  0  0  0
 10 15  1  0  0  0
 11 12  1  0  0  0
 11 96  1  0  0  0
 12 13  2  0  0  0
 12 97  1  0  0  0
 13 14  1  0  0  0
 13 31  1  0  0  0
 14 15  2  0  0  0
 14 98  1  0  0  0
 15 99  1  0  0  0
 16 17  2  0  0  0
 16 21  1  0  0  0
 16 31  1  0  0  0
 17 18  1  0  0  0
 17100  1  0  0  0
 18 19  2  0  0  0
 18101  1  0  0  0
 19 20  1  0  0  0
 19 24  1  0  0  0
 20 21  2  0  0  0
 20102  1  0  0  0
 21 23  1  0  0  0
 22 28  1  0  0  0
 22 32  2  0  0  0
 26 27  1  0  0  0
 28103  1  0  0  0
 28104  1  0  0  0
 29105  1  0  0  0
 29106  1  0  0  0
 33 34  1  0  0  0
 33 66  1  0  0  0
 33 70  2  0  0  0
 34 36  1  0  0  0
 34 59  1  0  0  0
 34107  1  0  0  0
 35 44  2  0  0  0
 35 45  1  0  0  0
 35 68  1  0  0  0
 36 56  1  0  0  0
 36108  1  0  0  0
 37 39  1  0  0  0
 37 47  1  0  0  0
 37 66  1  0  0  0
 37109  1  0  0  0
 38 43  2  0  0  0
 38 46  1  0  0  0
 38 47  1  0  0  0
 39 64  1  0  0  0
 39 67  2  0  0  0
 40 52  1  0  0  0
 40 53  2  0  0  0
 40 58  1  0  0  0
 41110  1  0  0  0
 41111  1  0  0  0
 41112  1  0  0  0
 41 48  1  0  0  0
 42 43  1  0  0  0
 42 66  1  0  0  0
 42113  1  0  0  0
 42114  1  0  0  0
 43 44  1  0  0  0
 44115  1  0  0  0
 45 46  2  0  0  0
 45116  1  0  0  0
 46117  1  0  0  0
 47118  1  0  0  0
 47119  1  0  0  0
 48 56  1  0  0  0
 48 65  1  0  0  0
 48120  1  0  0  0
 49 50  1  0  0  0
 49 53  1  0  0  0
 49 64  1  0  0  0
 49121  1  0  0  0
 50 51  1  0  0  0
 50122  1  0  0  0
 50123  1  0  0  0
 51 52  1  0  0  0
 51124  1  0  0  0
 51125  1  0  0  0
 52126  1  0  0  0
 52127  1  0  0  0
 53 54  1  0  0  0
 54 55  2  0  0  0
 54128  1  0  0  0
 55 57  1  0  0  0
 55129  1  0  0  0
 56 69  2  0  0  0
 57 58  2  0  0  0
 57130  1  0  0  0
 58131  1  0  0  0
 59 60  1  0  0  0
 59 61  1  0  0  0
 59 62  1  0  0  0
 60132  1  0  0  0
 60133  1  0  0  0
 60134  1  0  0  0
 61135  1  0  0  0
 61136  1  0  0  0
 61137  1  0  0  0
 62138  1  0  0  0
 62139  1  0  0  0
 62140  1  0  0  0
 63 65  1  0  0  0
 63141  1  0  0  0
 63142  1  0  0  0
 63143  1  0  0  0
 64144  1  0  0  0
 65145  1  0  0  0
 68 82  1  0  0  0
 71 72  2  0  0  0
 71 74  1  0  0  0
 71146  1  0  0  0
 72 76  1  0  0  0
 72147  1  0  0  0
 73 75  1  0  0  0
 73 76  2  0  0  0
 73148  1  0  0  0
 74 75  2  0  0  0
 74 79  1  0  0  0
 75 80  1  0  0  0
 76 86  1  0  0  0
 77 81  1  0  0  0
 77 84  1  0  0  0
 77 85  2  0  0  0
 78 84  1  0  0  0
 78149  1  0  0  0
 78150  1  0  0  0
 78151  1  0  0  0
 79 83  1  0  0  0
 79152  1  0  0  0
 79153  1  0  0  0
 80 84  1  0  0  0
 80154  1  0  0  0
 80155  1  0  0  0
 81 82  1  0  0  0
 81156  1  0  0  0
 81157  1  0  0  0
 82158  1  0  0  0
 82159  1  0  0  0
 83160  1  0  0  0
M  ISO  4   1 100  68 101  82 101  83 100
M  END
> <chiral flag>
0

> <version>
0

> <s_m_source_file>
/data/baiqing/PycharmProjects/Reinvent-master-3.2/result/LINK_invent/BTK/process_docking_weight1_custom_product_contain_oxygen_bond_distance_aromatic_linkinvent_7_9_3/rearranged_h_0049.sdf

> <i_m_source_file_index>
33

> <r_mmod_Potential_Energy-OPLS-2005>
22.095724105835

> <r_mmod_Stretch_Energy-OPLS-2005>
84.7038650512695

> <r_mmod_Bend_Energy-OPLS-2005>
158.784149169922

> <r_mmod_Torsional_Energy-OPLS-2005>
228.010986328125

> <r_mmod_Improper_Torsional_Energy-OPLS-2005>
6.22251605987549

> <r_mmod_Van_der_Waal_Energy-OPLS-2005>
160.880477905273

> <r_mmod_Electrostatic_Energy-OPLS-2005>
-421.130340576172

> <r_mmod_Solvation_Energy-OPLS-2005>
-242.034225463867

> <b_mmod_Minimization_Converged-OPLS-2005>
0

> <r_mmod_RMS_Derivative-OPLS-2005>
1.47607958316803

$$$$
33
                    3D
 Structure written by MMmdl.
175183  0  0  1  0            999 V2000
  -30.7360  -14.4303   20.5041 C   0  0  0  0  0  0
  -30.4089  -12.2624   19.4208 C   0  0  0  0  0  0
  -29.4845  -12.4666   18.2062 C   0  0  0  0  0  0
  -28.0041  -12.3425   18.6165 C   0  0  0  0  0  0
  -27.6535  -13.2060   19.8587 C   0  0  2  0  0  0
  -28.7009  -13.0167   20.9840 C   0  0  0  0  0  0
  -25.2524  -13.8180   20.5576 C   0  0  0  0  0  0
  -24.1814  -13.0479   20.9155 C   0  0  0  0  0  0
  -24.6362  -11.6933   20.8717 C   0  0  0  0  0  0
  -23.9016  -10.4325   21.0368 C   0  0  0  0  0  0
  -24.3605   -9.4251   21.9152 C   0  0  0  0  0  0
  -23.6324   -8.2263   22.0733 C   0  0  0  0  0  0
  -22.4294   -8.0285   21.3533 C   0  0  0  0  0  0
  -21.9894   -9.0235   20.4619 C   0  0  0  0  0  0
  -22.7177  -10.2140   20.3018 C   0  0  0  0  0  0
  -21.6859   -6.0741   22.5273 C   0  0  0  0  0  0
  -21.4006   -6.5640   23.8204 C   0  0  0  0  0  0
  -21.3641   -5.6789   24.9165 C   0  0  0  0  0  0
  -21.6037   -4.3055   24.7218 C   0  0  0  0  0  0
  -21.8831   -3.8162   23.4335 C   0  0  0  0  0  0
  -21.9215   -4.6978   22.3396 C   0  0  0  0  0  0
  -22.7820  -13.5241   21.1862 C   0  0  0  0  0  0
  -22.1669   -4.2154   21.0972 F   0  0  0  0  0  0
  -21.5638   -3.4540   25.7733 F   0  0  0  0  0  0
  -30.0369  -13.2709   20.4192 N   0  0  0  0  0  0
  -26.2969  -12.9356   20.3294 N   0  0  0  0  0  0
  -25.9295  -11.6520   20.5771 N   0  0  0  0  0  0
  -22.0473  -12.8215   22.0415 N   0  0  0  0  0  0
  -25.4211  -15.1895   20.3798 N   0  0  0  0  0  0
  -31.8994  -14.5495   20.1255 O   0  0  0  0  0  0
  -21.6656   -6.8882   21.4238 O   0  0  0  0  0  0
  -22.3457  -14.5549   20.6730 O   0  0  0  0  0  0
  -24.6104  -31.8697   23.2184 C   0  0  0  0  0  0
  -25.9044  -32.4808   23.8425 C   0  0  1  0  0  0
  -27.2211  -27.4457   20.0773 C   0  0  0  0  0  0
  -25.5943  -33.8605   24.2357 N   0  0  0  0  0  0
  -23.3998  -30.4939   21.5575 C   0  0  2  0  0  0
  -24.8416  -28.9643   20.1203 C   0  0  0  0  0  0
  -22.7399  -29.4662   22.5031 C   0  0  0  0  0  0
  -18.0262  -28.1388   22.8455 C   0  0  0  0  0  0
  -24.1496  -36.7292   23.2641 C   0  0  0  0  0  0
  -25.9282  -30.8303   21.3753 C   0  0  0  0  0  0
  -26.0003  -29.4658   20.7251 C   0  0  0  0  0  0
  -27.1930  -28.7086   20.7097 C   0  0  0  0  0  0
  -26.0544  -26.9770   19.4387 C   0  0  0  0  0  0
  -24.8621  -27.7172   19.4798 C   0  0  0  0  0  0
  -23.6022  -29.8261   20.1723 C   0  0  0  0  0  0
  -25.4126  -36.3090   24.0336 C   0  0  1  0  0  0
  -20.5828  -28.3673   23.1275 C   0  0  2  0  0  0
  -20.6770  -26.9412   22.5356 C   0  0  0  0  0  0
  -19.5704  -26.6318   21.5215 C   0  0  0  0  0  0
  -18.1902  -26.7912   22.1626 C   0  0  0  0  0  0
  -19.1507  -28.8838   23.2856 C   0  0  0  0  0  0
  -18.9463  -30.1384   23.8996 C   0  0  0  0  0  0
  -17.6461  -30.6485   24.0785 C   0  0  0  0  0  0
  -25.9036  -34.9441   23.5125 C   0  0  0  0  0  0
  -16.5351  -29.9054   23.6453 C   0  0  0  0  0  0
  -16.7244  -28.6534   23.0313 C   0  0  0  0  0  0
  -26.4487  -31.6596   25.0737 C   0  0  0  0  0  0
  -25.3763  -31.3690   26.1490 C   0  0  0  0  0  0
  -27.0346  -30.3072   24.6079 C   0  0  0  0  0  0
  -27.6101  -32.4287   25.7441 C   0  0  0  0  0  0
  -27.5577  -37.1791   24.8467 C   0  0  0  0  0  0
  -21.4117  -29.3107   22.3772 N   0  0  0  0  0  0
  -26.4314  -37.3775   23.9389 N   0  0  0  0  0  0
  -24.6637  -31.0783   22.1083 N   0  0  0  0  0  0
  -23.4167  -28.8095   23.2977 O   0  0  0  0  0  0
  -28.3975  -26.7359   20.0049 O   0  0  0  0  0  0
  -26.5558  -34.8890   22.4658 O   0  0  0  0  0  0
  -23.5297  -32.1452   23.7577 O   0  0  0  0  0  0
  -29.7684  -18.6635   16.7559 C   0  0  0  0  0  0
  -28.7476  -18.6554   17.7223 C   0  0  0  0  0  0
  -28.9617  -18.0399   18.9898 C   0  0  0  0  0  0
  -30.2535  -17.5281   19.3133 C   0  0  0  0  0  0
  -31.3090  -17.6447   18.3530 C   0  0  0  0  0  0
  -31.0410  -18.1721   17.0695 C   0  0  0  0  0  0
  -27.5346  -19.4054   17.4026 C   0  0  0  0  0  0
  -27.7599  -22.9368   20.6674 C   0  0  0  0  0  0
  -27.8133  -17.9571   20.0036 C   0  0  0  0  0  0
  -32.7557  -17.2601   18.6448 C   0  0  0  0  0  0
  -24.7023  -22.9901   19.5606 C   0  0  0  0  0  0
  -30.4908  -16.8962   20.6984 C   0  0  0  0  0  0
  -27.5085  -24.3525   20.1279 C   0  0  0  0  0  0
  -26.0922  -21.3703   18.1422 C   0  0  0  0  0  0
  -28.4614  -25.4579   20.6580 C   0  0  0  0  0  0
  -25.7024  -21.8215   19.5625 C   0  0  1  0  0  0
  -26.7784  -19.0937   16.3524 N   0  0  0  0  0  0
  -26.8706  -21.9487   20.4609 N   0  0  0  0  0  0
  -30.0144  -15.5121   20.8134 N   0  0  0  0  0  0
  -27.2165  -20.4267   18.2007 N   0  3  0  0  0  0
  -28.7641  -22.7013   21.3362 O   0  0  0  0  0  0
  -32.0240  -18.2607   16.1376 F   0  0  0  0  0  0
  -31.4516  -12.3339   19.1106 H   0  0  0  0  0  0
  -30.2973  -11.2610   19.8402 H   0  0  0  0  0  0
  -29.7181  -11.7412   17.4250 H   0  0  0  0  0  0
  -29.6596  -13.4541   17.7760 H   0  0  0  0  0  0
  -27.8051  -11.2893   18.8271 H   0  0  0  0  0  0
  -27.3574  -12.6033   17.7762 H   0  0  0  0  0  0
  -27.6878  -14.2459   19.5334 H   0  0  0  0  0  0
  -28.6580  -11.9993   21.3744 H   0  0  0  0  0  0
  -28.4840  -13.6700   21.8321 H   0  0  0  0  0  0
  -25.2732   -9.5778   22.4735 H   0  0  0  0  0  0
  -24.0042   -7.4661   22.7457 H   0  0  0  0  0  0
  -21.0821   -8.8714   19.8950 H   0  0  0  0  0  0
  -22.3565  -10.9678   19.6156 H   0  0  0  0  0  0
  -21.1953   -7.6142   23.9701 H   0  0  0  0  0  0
  -21.1448   -6.0511   25.9060 H   0  0  0  0  0  0
  -22.0635   -2.7622   23.2821 H   0  0  0  0  0  0
  -22.4075  -11.9850   22.4778 H   0  0  0  0  0  0
  -21.1083  -13.1228   22.2661 H   0  0  0  0  0  0
  -24.6448  -15.8369   20.4464 H   0  0  0  0  0  0
  -26.2461  -15.6052   19.9735 H   0  0  0  0  0  0
  -26.7076  -32.5515   23.1136 H   0  0  0  0  0  0
  -25.0216  -33.9785   25.0573 H   0  0  0  0  0  0
  -22.6897  -31.3106   21.4198 H   0  0  0  0  0  0
  -23.3773  -35.9616   23.3326 H   0  0  0  0  0  0
  -24.3605  -36.8855   22.2051 H   0  0  0  0  0  0
  -23.7216  -37.6497   23.6613 H   0  0  0  0  0  0
  -26.0372  -31.5954   20.6064 H   0  0  0  0  0  0
  -26.8209  -30.8829   21.9864 H   0  0  0  0  0  0
  -28.0896  -29.0881   21.1808 H   0  0  0  0  0  0
  -26.0506  -26.0620   18.8672 H   0  0  0  0  0  0
  -23.9771  -27.3433   18.9860 H   0  0  0  0  0  0
  -23.6924  -30.5976   19.4074 H   0  0  0  0  0  0
  -22.7261  -29.2375   19.8869 H   0  0  0  0  0  0
  -25.1285  -36.1976   25.0836 H   0  0  0  0  0  0
  -20.9813  -28.3231   24.1440 H   0  0  0  0  0  0
  -20.5822  -26.2294   23.3553 H   0  0  0  0  0  0
  -21.6623  -26.7521   22.1034 H   0  0  0  0  0  0
  -19.6839  -25.6183   21.1335 H   0  0  0  0  0  0
  -19.6662  -27.3016   20.6669 H   0  0  0  0  0  0
  -17.4133  -26.6658   21.4055 H   0  0  0  0  0  0
  -18.0337  -26.0078   22.9059 H   0  0  0  0  0  0
  -19.7942  -30.7140   24.2476 H   0  0  0  0  0  0
  -17.5061  -31.6058   24.5616 H   0  0  0  0  0  0
  -15.5359  -30.2980   23.7840 H   0  0  0  0  0  0
  -15.8639  -28.0895   22.6960 H   0  0  0  0  0  0
  -24.5951  -30.7010   25.7826 H   0  0  0  0  0  0
  -24.8952  -32.2836   26.4963 H   0  0  0  0  0  0
  -25.8135  -30.8829   27.0218 H   0  0  0  0  0  0
  -26.2933  -29.6820   24.1086 H   0  0  0  0  0  0
  -27.4125  -29.7312   25.4542 H   0  0  0  0  0  0
  -27.8749  -30.4501   23.9284 H   0  0  0  0  0  0
  -27.2798  -33.3602   26.2059 H   0  0  0  0  0  0
  -28.3861  -32.6776   25.0186 H   0  0  0  0  0  0
  -28.0827  -31.8349   26.5266 H   0  0  0  0  0  0
  -28.2590  -38.0090   24.7517 H   0  0  0  0  0  0
  -28.1042  -36.2589   24.6294 H   0  0  0  0  0  0
  -27.2264  -37.1493   25.8866 H   0  0  0  0  0  0
  -20.9244  -29.9020   21.7173 H   0  0  0  0  0  0
  -26.0185  -38.2841   24.1424 H   0  0  0  0  0  0
  -29.6068  -19.1267   15.7931 H   0  0  0  0  0  0
  -27.8298  -18.8235   20.6659 H   0  0  0  0  0  0
  -27.8513  -17.0640   20.6251 H   0  0  0  0  0  0
  -26.8379  -17.9176   19.5202 H   0  0  0  0  0  0
  -33.0500  -17.4258   19.6782 H   0  0  0  0  0  0
  -33.4316  -17.8785   18.0526 H   0  0  0  0  0  0
  -32.9458  -16.2184   18.3810 H   0  0  0  0  0  0
  -23.7592  -22.6848   19.1042 H   0  0  0  0  0  0
  -25.0608  -23.8347   18.9756 H   0  0  0  0  0  0
  -24.4738  -23.3327   20.5711 H   0  0  0  0  0  0
  -29.9704  -17.4921   21.4472 H   0  0  0  0  0  0
  -31.5293  -16.9589   21.0136 H   0  0  0  0  0  0
  -27.5354  -24.3165   19.0393 H   0  0  0  0  0  0
  -26.5085  -24.6190   20.4529 H   0  0  0  0  0  0
  -26.3878  -22.2280   17.5360 H   0  0  0  0  0  0
  -25.2276  -20.9337   17.6429 H   0  0  0  0  0  0
  -29.4937  -25.1249   20.5484 H   0  0  0  0  0  0
  -28.3009  -25.6071   21.7251 H   0  0  0  0  0  0
  -25.1476  -20.9877   19.9927 H   0  0  0  0  0  0
  -27.0220  -18.2971   15.7838 H   0  0  0  0  0  0
  -25.9262  -19.5852   16.1406 H   0  0  0  0  0  0
  -27.0608  -21.1118   20.9934 H   0  0  0  0  0  0
  -29.0498  -15.3630   21.0617 H   0  0  0  0  0  0
  -27.9021  -20.6403   18.9134 H   0  0  0  0  0  0
  1 25  1  0  0  0
  1 30  2  0  0  0
  1 89  1  0  0  0
  2  3  1  0  0  0
  2 25  1  0  0  0
  2 93  1  0  0  0
  2 94  1  0  0  0
  3  4  1  0  0  0
  3 95  1  0  0  0
  3 96  1  0  0  0
  4  5  1  0  0  0
  4 97  1  0  0  0
  4 98  1  0  0  0
  5  6  1  0  0  0
  5 26  1  0  0  0
  5 99  1  0  0  0
  6 25  1  0  0  0
  6100  1  0  0  0
  6101  1  0  0  0
  7  8  2  0  0  0
  7 26  1  0  0  0
  7 29  1  0  0  0
  8  9  1  0  0  0
  8 22  1  0  0  0
  9 10  1  0  0  0
  9 27  2  0  0  0
 10 11  2  0  0  0
 10 15  1  0  0  0
 11 12  1  0  0  0
 11102  1  0  0  0
 12 13  2  0  0  0
 12103  1  0  0  0
 13 14  1  0  0  0
 13 31  1  0  0  0
 14 15  2  0  0  0
 14104  1  0  0  0
 15105  1  0  0  0
 16 17  2  0  0  0
 16 21  1  0  0  0
 16 31  1  0  0  0
 17 18  1  0  0  0
 17106  1  0  0  0
 18 19  2  0  0  0
 18107  1  0  0  0
 19 20  1  0  0  0
 19 24  1  0  0  0
 20 21  2  0  0  0
 20108  1  0  0  0
 21 23  1  0  0  0
 22 28  1  0  0  0
 22 32  2  0  0  0
 26 27  1  0  0  0
 28109  1  0  0  0
 28110  1  0  0  0
 29111  1  0  0  0
 29112  1  0  0  0
 33 34  1  0  0  0
 33 66  1  0  0  0
 33 70  2  0  0  0
 34 36  1  0  0  0
 34 59  1  0  0  0
 34113  1  0  0  0
 35 44  2  0  0  0
 35 45  1  0  0  0
 35 68  1  0  0  0
 36 56  1  0  0  0
 36114  1  0  0  0
 37 39  1  0  0  0
 37 47  1  0  0  0
 37 66  1  0  0  0
 37115  1  0  0  0
 38 43  2  0  0  0
 38 46  1  0  0  0
 38 47  1  0  0  0
 39 64  1  0  0  0
 39 67  2  0  0  0
 40 52  1  0  0  0
 40 53  2  0  0  0
 40 58  1  0  0  0
 41116  1  0  0  0
 41117  1  0  0  0
 41118  1  0  0  0
 41 48  1  0  0  0
 42 43  1  0  0  0
 42 66  1  0  0  0
 42119  1  0  0  0
 42120  1  0  0  0
 43 44  1  0  0  0
 44121  1  0  0  0
 45 46  2  0  0  0
 45122  1  0  0  0
 46123  1  0  0  0
 47124  1  0  0  0
 47125  1  0  0  0
 48 56  1  0  0  0
 48 65  1  0  0  0
 48126  1  0  0  0
 49 50  1  0  0  0
 49 53  1  0  0  0
 49 64  1  0  0  0
 49127  1  0  0  0
 50 51  1  0  0  0
 50128  1  0  0  0
 50129  1  0  0  0
 51 52  1  0  0  0
 51130  1  0  0  0
 51131  1  0  0  0
 52132  1  0  0  0
 52133  1  0  0  0
 53 54  1  0  0  0
 54 55  2  0  0  0
 54134  1  0  0  0
 55 57  1  0  0  0
 55135  1  0  0  0
 56 69  2  0  0  0
 57 58  2  0  0  0
 57136  1  0  0  0
 58137  1  0  0  0
 59 60  1  0  0  0
 59 61  1  0  0  0
 59 62  1  0  0  0
 60138  1  0  0  0
 60139  1  0  0  0
 60140  1  0  0  0
 61141  1  0  0  0
 61142  1  0  0  0
 61143  1  0  0  0
 62144  1  0  0  0
 62145  1  0  0  0
 62146  1  0  0  0
 63 65  1  0  0  0
 63147  1  0  0  0
 63148  1  0  0  0
 63149  1  0  0  0
 64150  1  0  0  0
 65151  1  0  0  0
 68 85  1  0  0  0
 71 72  2  0  0  0
 71 76  1  0  0  0
 71152  1  0  0  0
 72 73  1  0  0  0
 72 77  1  0  0  0
 73 74  2  0  0  0
 73 79  1  0  0  0
 74 75  1  0  0  0
 74 82  1  0  0  0
 75 76  2  0  0  0
 75 80  1  0  0  0
 76 92  1  0  0  0
 77 87  1  0  0  0
 77 90  2  0  0  0
 78 83  1  0  0  0
 78 88  1  0  0  0
 78 91  2  0  0  0
 79153  1  0  0  0
 79154  1  0  0  0
 79155  1  0  0  0
 80156  1  0  0  0
 80157  1  0  0  0
 80158  1  0  0  0
 81159  1  0  0  0
 81160  1  0  0  0
 81161  1  0  0  0
 81 86  1  0  0  0
 82 89  1  0  0  0
 82162  1  0  0  0
 82163  1  0  0  0
 83 85  1  0  0  0
 83164  1  0  0  0
 83165  1  0  0  0
 84 86  1  0  0  0
 84 90  1  0  0  0
 84166  1  0  0  0
 84167  1  0  0  0
 85168  1  0  0  0
 85169  1  0  0  0
 86 88  1  0  0  0
 86170  1  0  0  0
 87171  1  0  0  0
 87172  1  0  0  0
 88173  1  0  0  0
 89174  1  0  0  0
 90175  1  0  0  0
M  CHG  1  90   1
M  ISO  4   1 100  68 101  85 101  89 100
M  END
> <chiral flag>
0

> <version>
0

> <s_m_source_file>
/data/baiqing/PycharmProjects/Reinvent-master-3.2/result/LINK_invent/BTK/process_docking_weight1_custom_product_contain_oxygen_bond_distance_aromatic_linkinvent_7_9_3/rearranged_h_0049.sdf

> <i_m_source_file_index>
34

> <r_mmod_Potential_Energy-OPLS-2005>
-401.258148193359

> <r_mmod_Stretch_Energy-OPLS-2005>
40.096549987793

> <r_mmod_Bend_Energy-OPLS-2005>
129.007965087891

> <r_mmod_Torsional_Energy-OPLS-2005>
258.257843017578

> <r_mmod_Improper_Torsional_Energy-OPLS-2005>
6.68583297729492

> <r_mmod_Van_der_Waal_Energy-OPLS-2005>
163.892913818359

> <r_mmod_Electrostatic_Energy-OPLS-2005>
-568.900756835938

> <r_mmod_Solvation_Energy-OPLS-2005>
-446.65185546875

> <b_mmod_Minimization_Converged-OPLS-2005>
0

> <r_mmod_RMS_Derivative-OPLS-2005>
5.77923917770386

$$$$
34
                    3D
 Structure written by MMmdl.
156164  0  0  1  0            999 V2000
  -30.6572  -14.5649   20.5432 C   0  0  0  0  0  0
  -30.4212  -12.3520   19.4470 C   0  0  0  0  0  0
  -29.5043  -12.5163   18.2134 C   0  0  0  0  0  0
  -28.0230  -12.3712   18.6146 C   0  0  0  0  0  0
  -27.6554  -13.2142   19.8684 C   0  0  2  0  0  0
  -28.6937  -13.0490   21.0009 C   0  0  0  0  0  0
  -25.2585  -13.8152   20.5626 C   0  0  0  0  0  0
  -24.1845  -13.0423   20.9114 C   0  0  0  0  0  0
  -24.6450  -11.6911   20.8745 C   0  0  0  0  0  0
  -23.9122  -10.4292   21.0417 C   0  0  0  0  0  0
  -24.3647   -9.4207   21.9188 C   0  0  0  0  0  0
  -23.6318   -8.2255   22.0774 C   0  0  0  0  0  0
  -22.4289   -8.0312   21.3566 C   0  0  0  0  0  0
  -21.9938   -9.0298   20.4662 C   0  0  0  0  0  0
  -22.7293  -10.2158   20.3077 C   0  0  0  0  0  0
  -21.6853   -6.0780   22.5288 C   0  0  0  0  0  0
  -21.4009   -6.5663   23.8222 C   0  0  0  0  0  0
  -21.3669   -5.6814   24.9175 C   0  0  0  0  0  0
  -21.6043   -4.3082   24.7202 C   0  0  0  0  0  0
  -21.8816   -3.8172   23.4321 C   0  0  0  0  0  0
  -21.9209   -4.7014   22.3388 C   0  0  0  0  0  0
  -22.7888  -13.5240   21.1778 C   0  0  0  0  0  0
  -22.1681   -4.2196   21.0967 F   0  0  0  0  0  0
  -21.5636   -3.4557   25.7715 F   0  0  0  0  0  0
  -30.0123  -13.3680   20.4398 N   0  0  0  0  0  0
  -26.3004  -12.9319   20.3297 N   0  0  0  0  0  0
  -25.9355  -11.6481   20.5737 N   0  0  0  0  0  0
  -22.0568  -12.8241   22.0363 N   0  0  0  0  0  0
  -25.4266  -15.1845   20.3972 N   0  0  0  0  0  0
  -31.8093  -14.7202   20.1316 O   0  0  0  0  0  0
  -21.6667   -6.8899   21.4242 O   0  0  0  0  0  0
  -22.3603  -14.5588   20.6708 O   0  0  0  0  0  0
  -24.6180  -31.8652   23.2075 C   0  0  0  0  0  0
  -25.9067  -32.4794   23.8389 C   0  0  1  0  0  0
  -27.2285  -27.3743   20.1231 C   0  0  0  0  0  0
  -25.5910  -33.8607   24.2350 N   0  0  0  0  0  0
  -23.4134  -30.4836   21.5496 C   0  0  2  0  0  0
  -24.8627  -28.9425   20.1190 C   0  0  0  0  0  0
  -22.7511  -29.4578   22.4992 C   0  0  0  0  0  0
  -18.0336  -28.1405   22.8606 C   0  0  0  0  0  0
  -24.1480  -36.7332   23.2627 C   0  0  0  0  0  0
  -25.9475  -30.8125   21.3720 C   0  0  0  0  0  0
  -26.0257  -29.4382   20.7264 C   0  0  0  0  0  0
  -27.2145  -28.6590   20.7305 C   0  0  0  0  0  0
  -26.0549  -26.9125   19.4987 C   0  0  0  0  0  0
  -24.8729  -27.6776   19.5045 C   0  0  0  0  0  0
  -23.6315  -29.8198   20.1643 C   0  0  0  0  0  0
  -25.4104  -36.3125   24.0329 C   0  0  1  0  0  0
  -20.5926  -28.3659   23.1421 C   0  0  2  0  0  0
  -20.6823  -26.9425   22.5460 C   0  0  0  0  0  0
  -19.5778  -26.6372   21.5336 C   0  0  0  0  0  0
  -18.1976  -26.7926   22.1745 C   0  0  0  0  0  0
  -19.1615  -28.8863   23.2965 C   0  0  0  0  0  0
  -18.9626  -30.1532   23.8860 C   0  0  0  0  0  0
  -17.6641  -30.6685   24.0504 C   0  0  0  0  0  0
  -25.9037  -34.9471   23.5134 C   0  0  0  0  0  0
  -16.5473  -29.9150   23.6466 C   0  0  0  0  0  0
  -16.7319  -28.6524   23.0540 C   0  0  0  0  0  0
  -26.4492  -31.6589   25.0732 C   0  0  0  0  0  0
  -25.3778  -31.3690   26.1492 C   0  0  0  0  0  0
  -27.0320  -30.3011   24.6159 C   0  0  0  0  0  0
  -27.6078  -32.4302   25.7515 C   0  0  0  0  0  0
  -27.5586  -37.1813   24.8459 C   0  0  0  0  0  0
  -21.4218  -29.3071   22.3894 N   0  0  0  0  0  0
  -26.4300  -37.3799   23.9377 N   0  0  0  0  0  0
  -24.6780  -31.0714   22.1012 N   0  0  0  0  0  0
  -23.4280  -28.8052   23.3003 O   0  0  0  0  0  0
  -28.3654  -26.5912   19.9956 O   0  0  0  0  0  0
  -26.5621  -34.8942   22.4701 O   0  0  0  0  0  0
  -23.5349  -32.1413   23.7428 O   0  0  0  0  0  0
  -29.3710  -19.4861   21.1756 C   0  0  0  0  0  0
  -27.6720  -20.2291   19.5972 C   0  0  0  0  0  0
  -28.4907  -17.9194   19.5234 C   0  0  0  0  0  0
  -28.5108  -20.5297   20.6922 C   0  0  0  0  0  0
  -29.3748  -18.1723   20.5965 C   0  0  0  0  0  0
  -27.6499  -18.9373   19.0280 C   0  0  0  0  0  0
  -28.1057  -24.2705   21.1475 C   0  0  0  0  0  0
  -26.6845  -24.3270   21.6979 C   0  0  0  0  0  0
  -28.2719  -21.8602   21.4637 C   0  0  0  0  0  0
  -30.3454  -17.0557   21.0845 C   0  0  0  0  0  0
  -28.7561  -25.6948   21.0643 C   0  0  0  0  0  0
  -28.7462  -23.1600   20.9011 N   0  0  0  0  0  0
  -29.9156  -15.6268   20.9658 N   0  0  0  0  0  0
  -26.5554  -18.5980   17.7360 Cl  0  0  0  0  0  0
  -31.4694  -12.4513   19.1509 H   0  0  0  0  0  0
  -30.3167  -11.3472   19.8652 H   0  0  0  0  0  0
  -29.7599  -11.7771   17.4533 H   0  0  0  0  0  0
  -29.6666  -13.4919   17.7493 H   0  0  0  0  0  0
  -27.8322  -11.3117   18.8018 H   0  0  0  0  0  0
  -27.3801  -12.6493   17.7763 H   0  0  0  0  0  0
  -27.6821  -14.2582   19.5592 H   0  0  0  0  0  0
  -28.6834  -12.0346   21.3973 H   0  0  0  0  0  0
  -28.4387  -13.6893   21.8445 H   0  0  0  0  0  0
  -25.2792   -9.5709   22.4746 H   0  0  0  0  0  0
  -24.0085   -7.4641   22.7460 H   0  0  0  0  0  0
  -21.0895   -8.8787   19.8937 H   0  0  0  0  0  0
  -22.3740  -10.9706   19.6195 H   0  0  0  0  0  0
  -21.1977   -7.6165   23.9719 H   0  0  0  0  0  0
  -21.1505   -6.0545   25.9077 H   0  0  0  0  0  0
  -22.0582   -2.7643   23.2789 H   0  0  0  0  0  0
  -22.4267  -11.9924   22.4717 H   0  0  0  0  0  0
  -21.1211  -13.1243   22.2613 H   0  0  0  0  0  0
  -24.6437  -15.8218   20.4847 H   0  0  0  0  0  0
  -26.2654  -15.6276   20.0462 H   0  0  0  0  0  0
  -26.7181  -32.5524   23.1193 H   0  0  0  0  0  0
  -25.0021  -33.9771   25.0472 H   0  0  0  0  0  0
  -22.6958  -31.2921   21.4066 H   0  0  0  0  0  0
  -23.3747  -35.9659   23.3292 H   0  0  0  0  0  0
  -24.3555  -36.8952   22.2044 H   0  0  0  0  0  0
  -23.7261  -37.6536   23.6656 H   0  0  0  0  0  0
  -26.0655  -31.5716   20.5970 H   0  0  0  0  0  0
  -26.8300  -30.8718   21.9937 H   0  0  0  0  0  0
  -28.1186  -29.0478   21.1836 H   0  0  0  0  0  0
  -26.0582  -25.9534   19.0040 H   0  0  0  0  0  0
  -23.9840  -27.2951   19.0195 H   0  0  0  0  0  0
  -23.7555  -30.5937   19.4098 H   0  0  0  0  0  0
  -22.7584  -29.2470   19.8560 H   0  0  0  0  0  0
  -25.1282  -36.1985   25.0827 H   0  0  0  0  0  0
  -20.9986  -28.3130   24.1573 H   0  0  0  0  0  0
  -20.5875  -26.2233   23.3620 H   0  0  0  0  0  0
  -21.6720  -26.7561   22.1205 H   0  0  0  0  0  0
  -19.6685  -27.3145   20.6834 H   0  0  0  0  0  0
  -19.6940  -25.6286   21.1361 H   0  0  0  0  0  0
  -17.4240  -26.6604   21.4190 H   0  0  0  0  0  0
  -18.0416  -26.0062   22.9123 H   0  0  0  0  0  0
  -19.8158  -30.7372   24.2061 H   0  0  0  0  0  0
  -17.5243  -31.6463   24.4907 H   0  0  0  0  0  0
  -15.5455  -30.3084   23.7827 H   0  0  0  0  0  0
  -15.8683  -28.0856   22.7341 H   0  0  0  0  0  0
  -24.5973  -30.7005   25.7839 H   0  0  0  0  0  0
  -24.8957  -32.2846   26.4942 H   0  0  0  0  0  0
  -25.8141  -30.8877   27.0261 H   0  0  0  0  0  0
  -26.2859  -29.6771   24.1228 H   0  0  0  0  0  0
  -27.4071  -29.7239   25.4628 H   0  0  0  0  0  0
  -27.8716  -30.4279   23.9313 H   0  0  0  0  0  0
  -27.2698  -33.3590   26.2120 H   0  0  0  0  0  0
  -28.3885  -32.6871   25.0350 H   0  0  0  0  0  0
  -28.0770  -31.8421   26.5421 H   0  0  0  0  0  0
  -28.2606  -38.0110   24.7504 H   0  0  0  0  0  0
  -28.1076  -36.2644   24.6285 H   0  0  0  0  0  0
  -27.2280  -37.1460   25.8854 H   0  0  0  0  0  0
  -20.9290  -29.9042   21.7410 H   0  0  0  0  0  0
  -26.0195  -38.2853   24.1417 H   0  0  0  0  0  0
  -29.9985  -19.6782   22.0314 H   0  0  0  0  0  0
  -26.9839  -20.9801   19.2282 H   0  0  0  0  0  0
  -28.4512  -16.9392   19.0728 H   0  0  0  0  0  0
  -26.6134  -23.8208   22.6621 H   0  0  0  0  0  0
  -25.9825  -23.8696   20.9958 H   0  0  0  0  0  0
  -26.3537  -25.3514   21.8724 H   0  0  0  0  0  0
  -28.7170  -21.7344   22.4515 H   0  0  0  0  0  0
  -27.1980  -21.8626   21.6355 H   0  0  0  0  0  0
  -31.2798  -17.1991   20.5359 H   0  0  0  0  0  0
  -30.5993  -17.2436   22.1300 H   0  0  0  0  0  0
  -29.8350  -25.5625   20.9767 H   0  0  0  0  0  0
  -28.6063  -26.1942   22.0243 H   0  0  0  0  0  0
  -28.9728  -15.4164   21.2484 H   0  0  0  0  0  0
  1 25  1  0  0  0
  1 30  2  0  0  0
  1 83  1  0  0  0
  2  3  1  0  0  0
  2 25  1  0  0  0
  2 85  1  0  0  0
  2 86  1  0  0  0
  3  4  1  0  0  0
  3 87  1  0  0  0
  3 88  1  0  0  0
  4  5  1  0  0  0
  4 89  1  0  0  0
  4 90  1  0  0  0
  5  6  1  0  0  0
  5 26  1  0  0  0
  5 91  1  0  0  0
  6 25  1  0  0  0
  6 92  1  0  0  0
  6 93  1  0  0  0
  7  8  2  0  0  0
  7 26  1  0  0  0
  7 29  1  0  0  0
  8  9  1  0  0  0
  8 22  1  0  0  0
  9 10  1  0  0  0
  9 27  2  0  0  0
 10 11  2  0  0  0
 10 15  1  0  0  0
 11 12  1  0  0  0
 11 94  1  0  0  0
 12 13  2  0  0  0
 12 95  1  0  0  0
 13 14  1  0  0  0
 13 31  1  0  0  0
 14 15  2  0  0  0
 14 96  1  0  0  0
 15 97  1  0  0  0
 16 17  2  0  0  0
 16 21  1  0  0  0
 16 31  1  0  0  0
 17 18  1  0  0  0
 17 98  1  0  0  0
 18 19  2  0  0  0
 18 99  1  0  0  0
 19 20  1  0  0  0
 19 24  1  0  0  0
 20 21  2  0  0  0
 20100  1  0  0  0
 21 23  1  0  0  0
 22 28  1  0  0  0
 22 32  2  0  0  0
 26 27  1  0  0  0
 28101  1  0  0  0
 28102  1  0  0  0
 29103  1  0  0  0
 29104  1  0  0  0
 33 34  1  0  0  0
 33 66  1  0  0  0
 33 70  2  0  0  0
 34 36  1  0  0  0
 34 59  1  0  0  0
 34105  1  0  0  0
 35 44  2  0  0  0
 35 45  1  0  0  0
 35 68  1  0  0  0
 36 56  1  0  0  0
 36106  1  0  0  0
 37 39  1  0  0  0
 37 47  1  0  0  0
 37 66  1  0  0  0
 37107  1  0  0  0
 38 43  2  0  0  0
 38 46  1  0  0  0
 38 47  1  0  0  0
 39 64  1  0  0  0
 39 67  2  0  0  0
 40 52  1  0  0  0
 40 53  2  0  0  0
 40 58  1  0  0  0
 41108  1  0  0  0
 41109  1  0  0  0
 41110  1  0  0  0
 41 48  1  0  0  0
 42 43  1  0  0  0
 42 66  1  0  0  0
 42111  1  0  0  0
 42112  1  0  0  0
 43 44  1  0  0  0
 44113  1  0  0  0
 45 46  2  0  0  0
 45114  1  0  0  0
 46115  1  0  0  0
 47116  1  0  0  0
 47117  1  0  0  0
 48 56  1  0  0  0
 48 65  1  0  0  0
 48118  1  0  0  0
 49 50  1  0  0  0
 49 53  1  0  0  0
 49 64  1  0  0  0
 49119  1  0  0  0
 50 51  1  0  0  0
 50120  1  0  0  0
 50121  1  0  0  0
 51 52  1  0  0  0
 51122  1  0  0  0
 51123  1  0  0  0
 52124  1  0  0  0
 52125  1  0  0  0
 53 54  1  0  0  0
 54 55  2  0  0  0
 54126  1  0  0  0
 55 57  1  0  0  0
 55127  1  0  0  0
 56 69  2  0  0  0
 57 58  2  0  0  0
 57128  1  0  0  0
 58129  1  0  0  0
 59 60  1  0  0  0
 59 61  1  0  0  0
 59 62  1  0  0  0
 60130  1  0  0  0
 60131  1  0  0  0
 60132  1  0  0  0
 61133  1  0  0  0
 61134  1  0  0  0
 61135  1  0  0  0
 62136  1  0  0  0
 62137  1  0  0  0
 62138  1  0  0  0
 63 65  1  0  0  0
 63139  1  0  0  0
 63140  1  0  0  0
 63141  1  0  0  0
 64142  1  0  0  0
 65143  1  0  0  0
 68 81  1  0  0  0
 71 74  2  0  0  0
 71 75  1  0  0  0
 71144  1  0  0  0
 72 74  1  0  0  0
 72 76  2  0  0  0
 72145  1  0  0  0
 73 75  2  0  0  0
 73 76  1  0  0  0
 73146  1  0  0  0
 74 79  1  0  0  0
 75 80  1  0  0  0
 76 84  1  0  0  0
 77 78  1  0  0  0
 77 81  1  0  0  0
 77 82  2  0  0  0
 78147  1  0  0  0
 78148  1  0  0  0
 78149  1  0  0  0
 79 82  1  0  0  0
 79150  1  0  0  0
 79151  1  0  0  0
 80 83  1  0  0  0
 80152  1  0  0  0
 80153  1  0  0  0
 81154  1  0  0  0
 81155  1  0  0  0
 83156  1  0  0  0
M  ISO  4   1 100  68 101  81 101  83 100
M  END
> <chiral flag>
0

> <version>
0

> <s_m_source_file>
/data/baiqing/PycharmProjects/Reinvent-master-3.2/result/LINK_invent/BTK/process_docking_weight1_custom_product_contain_oxygen_bond_distance_aromatic_linkinvent_7_9_3/rearranged_h_0049.sdf

> <i_m_source_file_index>
35

> <r_mmod_Potential_Energy-OPLS-2005>
-42.7829551696777

> <r_mmod_Stretch_Energy-OPLS-2005>
64.5076675415039

> <r_mmod_Bend_Energy-OPLS-2005>
128.353164672852

> <r_mmod_Torsional_Energy-OPLS-2005>
233.178085327148

> <r_mmod_Improper_Torsional_Energy-OPLS-2005>
6.71278476715088

> <r_mmod_Van_der_Waal_Energy-OPLS-2005>
136.568923950195

> <r_mmod_Electrostatic_Energy-OPLS-2005>
-422.565643310547

> <r_mmod_Solvation_Energy-OPLS-2005>
-215.397247314453

> <b_mmod_Minimization_Converged-OPLS-2005>
0

> <r_mmod_RMS_Derivative-OPLS-2005>
7.49651098251343

$$$$
35
                    3D
 Structure written by MMmdl.
183192  0  0  1  0            999 V2000
  -30.7896  -14.4207   20.5765 C   0  0  0  0  0  0
  -30.3934  -12.2833   19.4417 C   0  0  0  0  0  0
  -29.4869  -12.5070   18.2185 C   0  0  0  0  0  0
  -28.0121  -12.3743   18.6306 C   0  0  0  0  0  0
  -27.6624  -13.2216   19.8852 C   0  0  2  0  0  0
  -28.7038  -13.0408   21.0170 C   0  0  0  0  0  0
  -25.2588  -13.8217   20.5741 C   0  0  0  0  0  0
  -24.1838  -13.0457   20.9211 C   0  0  0  0  0  0
  -24.6418  -11.6936   20.8760 C   0  0  0  0  0  0
  -23.9078  -10.4306   21.0417 C   0  0  0  0  0  0
  -24.3631   -9.4224   21.9197 C   0  0  0  0  0  0
  -23.6310   -8.2252   22.0772 C   0  0  0  0  0  0
  -22.4299   -8.0298   21.3549 C   0  0  0  0  0  0
  -21.9934   -9.0274   20.4645 C   0  0  0  0  0  0
  -22.7254  -10.2148   20.3058 C   0  0  0  0  0  0
  -21.6846   -6.0761   22.5290 C   0  0  0  0  0  0
  -21.4012   -6.5660   23.8231 C   0  0  0  0  0  0
  -21.3652   -5.6806   24.9185 C   0  0  0  0  0  0
  -21.6045   -4.3074   24.7222 C   0  0  0  0  0  0
  -21.8809   -3.8169   23.4339 C   0  0  0  0  0  0
  -21.9205   -4.6992   22.3401 C   0  0  0  0  0  0
  -22.7854  -13.5258   21.1856 C   0  0  0  0  0  0
  -22.1656   -4.2180   21.0970 F   0  0  0  0  0  0
  -21.5632   -3.4550   25.7723 F   0  0  0  0  0  0
  -30.0414  -13.2919   20.4572 N   0  0  0  0  0  0
  -26.3047  -12.9406   20.3475 N   0  0  0  0  0  0
  -25.9364  -11.6548   20.5833 N   0  0  0  0  0  0
  -22.0488  -12.8226   22.0379 N   0  0  0  0  0  0
  -25.4288  -15.1914   20.4117 N   0  0  0  0  0  0
  -31.8507  -14.5451   19.9644 O   0  0  0  0  0  0
  -21.6645   -6.8901   21.4251 O   0  0  0  0  0  0
  -22.3550  -14.5584   20.6740 O   0  0  0  0  0  0
  -24.6128  -31.8742   23.2150 C   0  0  0  0  0  0
  -25.9030  -32.4835   23.8447 C   0  0  1  0  0  0
  -27.2297  -27.4709   20.0835 C   0  0  0  0  0  0
  -25.5919  -33.8649   24.2360 N   0  0  0  0  0  0
  -23.3991  -30.4999   21.5548 C   0  0  2  0  0  0
  -24.8403  -28.9660   20.1239 C   0  0  0  0  0  0
  -22.7382  -29.4709   22.4993 C   0  0  0  0  0  0
  -18.0280  -28.1458   22.8467 C   0  0  0  0  0  0
  -24.1488  -36.7341   23.2651 C   0  0  0  0  0  0
  -25.9252  -30.8396   21.3694 C   0  0  0  0  0  0
  -25.9971  -29.4749   20.7262 C   0  0  0  0  0  0
  -27.1957  -28.7339   20.7126 C   0  0  0  0  0  0
  -26.0625  -26.9678   19.4809 C   0  0  0  0  0  0
  -24.8637  -27.7036   19.5064 C   0  0  0  0  0  0
  -23.6060  -29.8375   20.1685 C   0  0  0  0  0  0
  -25.4111  -36.3123   24.0337 C   0  0  1  0  0  0
  -20.5862  -28.3705   23.1297 C   0  0  2  0  0  0
  -20.6796  -26.9445   22.5397 C   0  0  0  0  0  0
  -19.5764  -26.6455   21.5206 C   0  0  0  0  0  0
  -18.1932  -26.8030   22.1601 C   0  0  0  0  0  0
  -19.1530  -28.8898   23.2889 C   0  0  0  0  0  0
  -18.9473  -30.1520   23.8883 C   0  0  0  0  0  0
  -17.6477  -30.6638   24.0589 C   0  0  0  0  0  0
  -25.9041  -34.9485   23.5128 C   0  0  0  0  0  0
  -16.5352  -29.9127   23.6373 C   0  0  0  0  0  0
  -16.7273  -28.6583   23.0315 C   0  0  0  0  0  0
  -26.4504  -31.6607   25.0748 C   0  0  0  0  0  0
  -25.3772  -31.3646   26.1487 C   0  0  0  0  0  0
  -27.0375  -30.3061   24.6104 C   0  0  0  0  0  0
  -27.6096  -32.4352   25.7500 C   0  0  0  0  0  0
  -27.5583  -37.1812   24.8459 C   0  0  0  0  0  0
  -21.4123  -29.3073   22.3686 N   0  0  0  0  0  0
  -26.4296  -37.3787   23.9398 N   0  0  0  0  0  0
  -24.6638  -31.0856   22.1047 N   0  0  0  0  0  0
  -23.4141  -28.8269   23.3053 O   0  0  0  0  0  0
  -28.3766  -26.7341   19.9289 O   0  0  0  0  0  0
  -26.5546  -34.8910   22.4648 O   0  0  0  0  0  0
  -23.5313  -32.1489   23.7545 O   0  0  0  0  0  0
  -30.1430  -17.8940   21.4790 C   0  0  0  0  0  0
  -32.3390  -16.8786   21.4638 C   0  0  0  0  0  0
  -30.7359  -19.1836   21.4814 C   0  0  0  0  0  0
  -32.9606  -18.1400   21.4007 C   0  0  0  0  0  0
  -32.1521  -19.3107   21.3773 C   0  0  0  0  0  0
  -30.9340  -16.7283   21.4284 C   0  0  0  0  0  0
  -28.6047  -20.5571   23.8112 C   0  0  0  0  0  0
  -29.2627  -23.3291   22.9754 C   0  0  0  0  0  0
  -29.5157  -17.5093   25.7086 C   0  0  0  0  0  0
  -28.5333  -19.4911   24.6327 C   0  0  0  0  0  0
  -29.5971  -18.5200   24.8302 C   0  0  0  0  0  0
  -27.5014  -21.5756   23.5418 C   0  0  0  0  0  0
  -30.3229  -22.2765   23.2490 C   0  0  0  0  0  0
  -27.9286  -23.0541   23.6786 C   0  0  1  0  0  0
  -32.8145  -20.6835   21.2460 C   0  0  0  0  0  0
  -27.9636  -23.5213   25.1447 C   0  0  0  0  0  0
  -30.5642  -26.1551   20.4070 C   0  0  0  0  0  0
  -29.8224  -20.4067   21.6298 C   0  0  0  0  0  0
  -28.5776  -25.3542   21.9052 C   0  0  0  0  0  0
  -29.2086  -26.4963   21.0526 C   0  0  1  0  0  0
  -34.4901  -18.1996   21.3409 C   0  0  0  0  0  0
  -29.5521  -24.3272   22.2373 N   0  0  0  0  0  0
  -30.3135  -15.4356   21.3309 N   0  0  0  0  0  0
  -29.8314  -20.8877   23.0384 N   0  3  2  0  0  0
  -35.0519  -17.0097   21.5569 F   0  0  0  0  0  0
  -34.8816  -18.6155   20.1363 F   0  0  0  0  0  0
  -34.9572  -19.0335   22.2689 F   0  0  0  0  0  0
  -31.4444  -12.3177   19.1490 H   0  0  0  0  0  0
  -30.2498  -11.2806   19.8474 H   0  0  0  0  0  0
  -29.7223  -11.7850   17.4359 H   0  0  0  0  0  0
  -29.6716  -13.4953   17.7941 H   0  0  0  0  0  0
  -27.8221  -11.3187   18.8268 H   0  0  0  0  0  0
  -27.3666  -12.6490   17.7979 H   0  0  0  0  0  0
  -27.6956  -14.2669   19.5797 H   0  0  0  0  0  0
  -28.6608  -12.0246   21.4130 H   0  0  0  0  0  0
  -28.4758  -13.6994   21.8578 H   0  0  0  0  0  0
  -25.2771   -9.5688   22.4800 H   0  0  0  0  0  0
  -24.0011   -7.4634   22.7504 H   0  0  0  0  0  0
  -21.0879   -8.8802   19.8932 H   0  0  0  0  0  0
  -22.3747  -10.9708   19.6177 H   0  0  0  0  0  0
  -21.1985   -7.6162   23.9733 H   0  0  0  0  0  0
  -21.1487   -6.0536   25.9086 H   0  0  0  0  0  0
  -22.0593   -2.7635   23.2835 H   0  0  0  0  0  0
  -22.4082  -11.9861   22.4716 H   0  0  0  0  0  0
  -21.1106  -13.1249   22.2575 H   0  0  0  0  0  0
  -24.6656  -15.8512   20.5214 H   0  0  0  0  0  0
  -26.2839  -15.6263   20.0890 H   0  0  0  0  0  0
  -26.7103  -32.5547   23.1241 H   0  0  0  0  0  0
  -25.0102  -33.9904   25.0501 H   0  0  0  0  0  0
  -22.6838  -31.3131   21.4191 H   0  0  0  0  0  0
  -23.3735  -35.9689   23.3291 H   0  0  0  0  0  0
  -24.3580  -36.8973   22.2067 H   0  0  0  0  0  0
  -23.7252  -37.6536   23.6689 H   0  0  0  0  0  0
  -26.0288  -31.5941   20.5878 H   0  0  0  0  0  0
  -26.8184  -30.8994   21.9792 H   0  0  0  0  0  0
  -28.0960  -29.1513   21.1378 H   0  0  0  0  0  0
  -26.0853  -26.0110   18.9782 H   0  0  0  0  0  0
  -23.9773  -27.3070   19.0340 H   0  0  0  0  0  0
  -23.7205  -30.6196   19.4170 H   0  0  0  0  0  0
  -22.7244  -29.2683   19.8665 H   0  0  0  0  0  0
  -25.1255  -36.2046   25.0825 H   0  0  0  0  0  0
  -20.9927  -28.3325   24.1423 H   0  0  0  0  0  0
  -20.5784  -26.2273   23.3552 H   0  0  0  0  0  0
  -21.6661  -26.7571   22.1131 H   0  0  0  0  0  0
  -19.6879  -25.6374   21.1217 H   0  0  0  0  0  0
  -19.6775  -27.3277   20.6746 H   0  0  0  0  0  0
  -17.4205  -26.6781   21.3988 H   0  0  0  0  0  0
  -18.0312  -26.0240   22.9054 H   0  0  0  0  0  0
  -19.7949  -30.7372   24.2197 H   0  0  0  0  0  0
  -17.5022  -31.6287   24.5241 H   0  0  0  0  0  0
  -15.5358  -30.2976   23.7784 H   0  0  0  0  0  0
  -15.8691  -28.0927   22.6926 H   0  0  0  0  0  0
  -24.6011  -30.6947   25.7771 H   0  0  0  0  0  0
  -24.8903  -32.2762   26.4966 H   0  0  0  0  0  0
  -25.8154  -30.8792   27.0229 H   0  0  0  0  0  0
  -26.2930  -29.6762   24.1235 H   0  0  0  0  0  0
  -27.4210  -29.7358   25.4578 H   0  0  0  0  0  0
  -27.8725  -30.4319   23.9204 H   0  0  0  0  0  0
  -27.2724  -33.3668   26.2062 H   0  0  0  0  0  0
  -28.3937  -32.6901   25.0350 H   0  0  0  0  0  0
  -28.0758  -31.8488   26.5422 H   0  0  0  0  0  0
  -28.2562  -38.0140   24.7530 H   0  0  0  0  0  0
  -28.1126  -36.2664   24.6294 H   0  0  0  0  0  0
  -27.2283  -37.1468   25.8853 H   0  0  0  0  0  0
  -20.9258  -29.8712   21.6852 H   0  0  0  0  0  0
  -26.0195  -38.2860   24.1424 H   0  0  0  0  0  0
  -29.0651  -17.7956   21.4988 H   0  0  0  0  0  0
  -32.9704  -16.0047   21.4854 H   0  0  0  0  0  0
  -30.3293  -16.8018   25.8061 H   0  0  0  0  0  0
  -28.6498  -17.3654   26.3412 H   0  0  0  0  0  0
  -27.6045  -19.3417   25.1654 H   0  0  0  0  0  0
  -30.5051  -18.5756   24.2498 H   0  0  0  0  0  0
  -26.6503  -21.3729   24.1936 H   0  0  0  0  0  0
  -27.1420  -21.4137   22.5254 H   0  0  0  0  0  0
  -30.6475  -22.3815   24.2843 H   0  0  0  0  0  0
  -31.2022  -22.4824   22.6410 H   0  0  0  0  0  0
  -27.1370  -23.6277   23.1998 H   0  0  0  0  0  0
  -32.1978  -21.3975   20.7039 H   0  0  0  0  0  0
  -33.7452  -20.6451   20.6845 H   0  0  0  0  0  0
  -33.0521  -21.0919   22.2270 H   0  0  0  0  0  0
  -28.7083  -22.9838   25.7311 H   0  0  0  0  0  0
  -26.9953  -23.3656   25.6197 H   0  0  0  0  0  0
  -28.1893  -24.5860   25.2152 H   0  0  0  0  0  0
  -31.3239  -25.9434   21.1587 H   0  0  0  0  0  0
  -30.9297  -26.9826   19.7987 H   0  0  0  0  0  0
  -30.4870  -25.2853   19.7512 H   0  0  0  0  0  0
  -28.8089  -20.1139   21.3516 H   0  0  0  0  0  0
  -30.0774  -21.1912   20.9177 H   0  0  0  0  0  0
  -27.7580  -24.9016   21.3476 H   0  0  0  0  0  0
  -28.1252  -25.7836   22.8016 H   0  0  0  0  0  0
  -29.3312  -27.3905   21.6676 H   0  0  0  0  0  0
  -29.3881  -15.3254   21.7221 H   0  0  0  0  0  0
  -30.5678  -20.3345   23.4478 H   0  0  0  0  0  0
  1 25  1  0  0  0
  1 30  2  0  0  0
  1 93  1  0  0  0
  2  3  1  0  0  0
  2 25  1  0  0  0
  2 98  1  0  0  0
  2 99  1  0  0  0
  3  4  1  0  0  0
  3100  1  0  0  0
  3101  1  0  0  0
  4  5  1  0  0  0
  4102  1  0  0  0
  4103  1  0  0  0
  5  6  1  0  0  0
  5 26  1  0  0  0
  5104  1  0  0  0
  6 25  1  0  0  0
  6105  1  0  0  0
  6106  1  0  0  0
  7  8  2  0  0  0
  7 26  1  0  0  0
  7 29  1  0  0  0
  8  9  1  0  0  0
  8 22  1  0  0  0
  9 10  1  0  0  0
  9 27  2  0  0  0
 10 11  2  0  0  0
 10 15  1  0  0  0
 11 12  1  0  0  0
 11107  1  0  0  0
 12 13  2  0  0  0
 12108  1  0  0  0
 13 14  1  0  0  0
 13 31  1  0  0  0
 14 15  2  0  0  0
 14109  1  0  0  0
 15110  1  0  0  0
 16 17  2  0  0  0
 16 21  1  0  0  0
 16 31  1  0  0  0
 17 18  1  0  0  0
 17111  1  0  0  0
 18 19  2  0  0  0
 18112  1  0  0  0
 19 20  1  0  0  0
 19 24  1  0  0  0
 20 21  2  0  0  0
 20113  1  0  0  0
 21 23  1  0  0  0
 22 28  1  0  0  0
 22 32  2  0  0  0
 26 27  1  0  0  0
 28114  1  0  0  0
 28115  1  0  0  0
 29116  1  0  0  0
 29117  1  0  0  0
 33 34  1  0  0  0
 33 66  1  0  0  0
 33 70  2  0  0  0
 34 36  1  0  0  0
 34 59  1  0  0  0
 34118  1  0  0  0
 35 44  2  0  0  0
 35 45  1  0  0  0
 35 68  1  0  0  0
 36 56  1  0  0  0
 36119  1  0  0  0
 37 39  1  0  0  0
 37 47  1  0  0  0
 37 66  1  0  0  0
 37120  1  0  0  0
 38 43  2  0  0  0
 38 46  1  0  0  0
 38 47  1  0  0  0
 39 64  1  0  0  0
 39 67  2  0  0  0
 40 52  1  0  0  0
 40 53  2  0  0  0
 40 58  1  0  0  0
 41121  1  0  0  0
 41122  1  0  0  0
 41123  1  0  0  0
 41 48  1  0  0  0
 42 43  1  0  0  0
 42 66  1  0  0  0
 42124  1  0  0  0
 42125  1  0  0  0
 43 44  1  0  0  0
 44126  1  0  0  0
 45 46  2  0  0  0
 45127  1  0  0  0
 46128  1  0  0  0
 47129  1  0  0  0
 47130  1  0  0  0
 48 56  1  0  0  0
 48 65  1  0  0  0
 48131  1  0  0  0
 49 50  1  0  0  0
 49 53  1  0  0  0
 49 64  1  0  0  0
 49132  1  0  0  0
 50 51  1  0  0  0
 50133  1  0  0  0
 50134  1  0  0  0
 51 52  1  0  0  0
 51135  1  0  0  0
 51136  1  0  0  0
 52137  1  0  0  0
 52138  1  0  0  0
 53 54  1  0  0  0
 54 55  2  0  0  0
 54139  1  0  0  0
 55 57  1  0  0  0
 55140  1  0  0  0
 56 69  2  0  0  0
 57 58  2  0  0  0
 57141  1  0  0  0
 58142  1  0  0  0
 59 60  1  0  0  0
 59 61  1  0  0  0
 59 62  1  0  0  0
 60143  1  0  0  0
 60144  1  0  0  0
 60145  1  0  0  0
 61146  1  0  0  0
 61147  1  0  0  0
 61148  1  0  0  0
 62149  1  0  0  0
 62150  1  0  0  0
 62151  1  0  0  0
 63 65  1  0  0  0
 63152  1  0  0  0
 63153  1  0  0  0
 63154  1  0  0  0
 64155  1  0  0  0
 65156  1  0  0  0
 68 90  1  0  0  0
 71 73  2  0  0  0
 71 76  1  0  0  0
 71157  1  0  0  0
 72 74  1  0  0  0
 72 76  2  0  0  0
 72158  1  0  0  0
 73 75  1  0  0  0
 73 88  1  0  0  0
 74 75  2  0  0  0
 74 91  1  0  0  0
 75 85  1  0  0  0
 76 93  1  0  0  0
 77 80  2  0  0  0
 77 82  1  0  0  0
 77 94  1  0  0  0
 78 83  1  0  0  0
 78 84  1  0  0  0
 78 92  2  0  0  0
 79 81  2  0  0  0
 79159  1  0  0  0
 79160  1  0  0  0
 80 81  1  0  0  0
 80161  1  0  0  0
 81162  1  0  0  0
 82 84  1  0  0  0
 82163  1  0  0  0
 82164  1  0  0  0
 83 94  1  0  0  0
 83165  1  0  0  0
 83166  1  0  0  0
 84 86  1  0  0  0
 84167  1  0  0  0
 85168  1  0  0  0
 85169  1  0  0  0
 85170  1  0  0  0
 86171  1  0  0  0
 86172  1  0  0  0
 86173  1  0  0  0
 87174  1  0  0  0
 87175  1  0  0  0
 87176  1  0  0  0
 87 90  1  0  0  0
 88177  1  0  0  0
 88178  1  0  0  0
 88 94  1  0  0  0
 89 90  1  0  0  0
 89 92  1  0  0  0
 89179  1  0  0  0
 89180  1  0  0  0
 90181  1  0  0  0
 91 95  1  0  0  0
 91 96  1  0  0  0
 91 97  1  0  0  0
 93182  1  0  0  0
 94183  1  0  0  0
M  CHG  1  94   1
M  ISO  4   1 100  68 101  90 101  93 100
M  END
> <chiral flag>
0

> <version>
0

> <s_m_source_file>
/data/baiqing/PycharmProjects/Reinvent-master-3.2/result/LINK_invent/BTK/process_docking_weight1_custom_product_contain_oxygen_bond_distance_aromatic_linkinvent_7_9_3/rearranged_h_0049.sdf

> <i_m_source_file_index>
36

> <r_mmod_Potential_Energy-OPLS-2005>
-106.214370727539

> <r_mmod_Stretch_Energy-OPLS-2005>
41.1684913635254

> <r_mmod_Bend_Energy-OPLS-2005>
130.244613647461

> <r_mmod_Torsional_Energy-OPLS-2005>
256.552673339844

> <r_mmod_Improper_Torsional_Energy-OPLS-2005>
2.73730158805847

> <r_mmod_Van_der_Waal_Energy-OPLS-2005>
178.337051391602

> <r_mmod_Electrostatic_Energy-OPLS-2005>
-288.643188476562

> <r_mmod_Solvation_Energy-OPLS-2005>
-439.857055664062

> <b_mmod_Minimization_Converged-OPLS-2005>
0

> <r_mmod_RMS_Derivative-OPLS-2005>
4.57671213150024

$$$$
36
                    3D
 Structure written by MMmdl.
160168  0  0  1  0            999 V2000
  -30.1434  -14.4844   19.4132 C   0  0  0  0  0  0
  -30.7956  -12.2422   19.4526 C   0  0  0  0  0  0
  -29.7629  -11.8536   18.4169 C   0  0  0  0  0  0
  -28.4716  -11.7420   19.2318 C   0  0  0  0  0  0
  -28.1368  -12.8844   20.4518 C   0  0  2  0  0  0
  -29.3172  -13.0718   21.2563 C   0  0  0  0  0  0
  -25.9551  -13.9310   20.9338 C   0  0  0  0  0  0
  -24.1868  -13.2673   20.6865 C   0  0  0  0  0  0
  -24.0210  -12.0600   20.2982 C   0  0  0  0  0  0
  -23.6325  -10.6303   20.8361 C   0  0  0  0  0  0
  -24.2276   -9.6259   21.7064 C   0  0  0  0  0  0
  -23.6045   -8.3744   21.9721 C   0  0  0  0  0  0
  -22.3878   -8.0605   21.3309 C   0  0  0  0  0  0
  -21.8513   -8.9881   20.4344 C   0  0  0  0  0  0
  -22.4604  -10.2240   20.1973 C   0  0  0  0  0  0
  -21.7197   -6.0768   22.5345 C   0  0  0  0  0  0
  -21.4286   -6.5710   23.8244 C   0  0  0  0  0  0
  -21.3754   -5.6845   24.9197 C   0  0  0  0  0  0
  -21.6053   -4.3082   24.7263 C   0  0  0  0  0  0
  -21.8819   -3.8140   23.4400 C   0  0  0  0  0  0
  -21.9330   -4.6964   22.3472 C   0  0  0  0  0  0
  -22.6049  -13.6497   21.0259 C   0  0  0  0  0  0
  -22.1716   -4.2124   21.1039 F   0  0  0  0  0  0
  -21.5552   -3.4568   25.7766 F   0  0  0  0  0  0
  -30.2426  -13.3747   20.1760 N   0  0  0  0  0  0
  -26.8109  -13.4048   21.0687 N   0  0  0  0  0  0
  -24.9778  -13.1794   20.6656 N   0  0  0  0  0  0
  -21.9705  -12.9269   21.9610 N   0  0  0  0  0  0
  -26.7815  -15.1575   21.1576 N   0  0  0  0  0  0
  -31.1676  -15.1827   19.5117 O   0  0  0  0  0  0
  -21.7025   -6.8726   21.4202 O   0  0  0  0  0  0
  -22.0288  -14.5771   20.4701 O   0  0  0  0  0  0
  -24.6527  -31.8407   23.1889 C   0  0  0  0  0  0
  -25.9291  -32.4651   23.8264 C   0  0  1  0  0  0
  -26.9552  -26.9569   20.2295 C   0  0  0  0  0  0
  -25.6023  -33.8471   24.2165 N   0  0  0  0  0  0
  -23.4465  -30.4794   21.5385 C   0  0  2  0  0  0
  -24.8496  -28.9068   20.0865 C   0  0  0  0  0  0
  -22.7567  -29.4559   22.4784 C   0  0  0  0  0  0
  -18.0299  -28.1397   22.8464 C   0  0  0  0  0  0
  -24.1486  -36.7221   23.2643 C   0  0  0  0  0  0
  -26.0132  -30.6594   21.4094 C   0  0  0  0  0  0
  -26.0356  -29.2657   20.7425 C   0  0  0  0  0  0
  -27.1179  -28.2991   20.7930 C   0  0  0  0  0  0
  -25.8053  -26.7533   19.4706 C   0  0  0  0  0  0
  -24.7612  -27.6828   19.4163 C   0  0  0  0  0  0
  -23.6634  -29.8493   20.1412 C   0  0  0  0  0  0
  -25.4128  -36.3007   24.0307 C   0  0  1  0  0  0
  -20.5919  -28.3736   23.1196 C   0  0  2  0  0  0
  -20.6791  -26.9434   22.5386 C   0  0  0  0  0  0
  -19.5763  -26.6373   21.5200 C   0  0  0  0  0  0
  -18.1941  -26.7928   22.1613 C   0  0  0  0  0  0
  -19.1559  -28.8880   23.2826 C   0  0  0  0  0  0
  -18.9479  -30.1473   23.8861 C   0  0  0  0  0  0
  -17.6479  -30.6596   24.0552 C   0  0  0  0  0  0
  -25.9098  -34.9386   23.5037 C   0  0  0  0  0  0
  -16.5365  -29.9090   23.6345 C   0  0  0  0  0  0
  -16.7284  -28.6507   23.0366 C   0  0  0  0  0  0
  -26.4556  -31.6573   25.0768 C   0  0  0  0  0  0
  -25.3700  -31.3825   26.1442 C   0  0  0  0  0  0
  -27.0450  -30.2944   24.6484 C   0  0  0  0  0  0
  -27.6049  -32.4378   25.7571 C   0  0  0  0  0  0
  -27.5567  -37.1781   24.8465 C   0  0  0  0  0  0
  -21.4254  -29.3064   22.3551 N   0  0  0  0  0  0
  -26.4276  -37.3738   23.9408 N   0  0  0  0  0  0
  -24.7268  -31.0198   22.0969 N   0  0  0  0  0  0
  -23.4206  -28.8071   23.2915 O   0  0  0  0  0  0
  -27.7354  -25.7548   20.3589 O   0  0  0  0  0  0
  -26.5675  -34.8895   22.4613 O   0  0  0  0  0  0
  -23.5640  -32.1366   23.7061 O   0  0  0  0  0  0
  -25.0749  -14.9386   19.1417 C   0  0  0  0  0  0
  -24.7348  -14.1324   22.7973 C   0  0  0  0  0  0
  -26.2182  -11.3880   20.3962 C   0  0  0  0  0  0
  -24.4495  -15.5803   21.1099 C   0  0  0  0  0  0
  -26.1178  -13.0914   18.7684 C   0  0  0  0  0  0
  -25.5512  -12.0970   22.4874 C   0  0  0  0  0  0
  -25.2646  -19.9267   20.7450 C   0  0  0  0  0  0
  -24.3030  -17.2779   21.2672 C   0  0  0  0  0  0
  -27.5225  -13.8386   17.9493 C   0  0  0  0  0  0
  -26.3122  -21.2536   21.0557 C   0  0  0  0  0  0
  -26.4756  -22.8419   20.2952 C   0  0  0  0  0  0
  -27.1295  -24.3550   20.9186 C   0  0  0  0  0  0
  -25.3663  -18.5217   21.1352 N   0  0  0  0  0  0
  -28.9918  -14.6074   18.4518 N   0  0  0  0  0  0
  -24.2362  -20.2386   20.1439 O   0  0  0  0  0  0
  -25.7573  -11.3190   23.5789 F   0  0  0  0  0  0
  -31.7493  -12.4886   18.9805 H   0  0  0  0  0  0
  -30.9987  -11.4162   20.1365 H   0  0  0  0  0  0
  -30.0162  -10.8710   18.0150 H   0  0  0  0  0  0
  -29.7539  -12.4898   17.5360 H   0  0  0  0  0  0
  -28.6576  -10.8242   19.7944 H   0  0  0  0  0  0
  -27.7256  -11.4020   18.5155 H   0  0  0  0  0  0
  -28.0687  -13.7861   20.1094 H   0  0  0  0  0  0
  -29.5907  -12.1732   21.8103 H   0  0  0  0  0  0
  -29.2400  -13.9059   21.9574 H   0  0  0  0  0  0
  -25.1973   -9.7321   22.1525 H   0  0  0  0  0  0
  -24.0854   -7.6597   22.6242 H   0  0  0  0  0  0
  -20.9385   -8.7449   19.9086 H   0  0  0  0  0  0
  -21.9809  -10.8913   19.4931 H   0  0  0  0  0  0
  -21.2345   -7.6235   23.9733 H   0  0  0  0  0  0
  -21.1546   -6.0584   25.9094 H   0  0  0  0  0  0
  -22.0480   -2.7586   23.2901 H   0  0  0  0  0  0
  -22.4481  -12.1826   22.4461 H   0  0  0  0  0  0
  -21.0112  -13.1378   22.1964 H   0  0  0  0  0  0
  -26.2275  -15.9546   20.8799 H   0  0  0  0  0  0
  -27.7049  -15.1741   20.7568 H   0  0  0  0  0  0
  -26.7340  -32.5152   23.0950 H   0  0  0  0  0  0
  -25.0160  -33.9586   25.0307 H   0  0  0  0  0  0
  -22.7541  -31.3128   21.4055 H   0  0  0  0  0  0
  -23.3768  -35.9532   23.3287 H   0  0  0  0  0  0
  -24.3558  -36.8881   22.2061 H   0  0  0  0  0  0
  -23.7217  -37.6398   23.6701 H   0  0  0  0  0  0
  -26.2077  -31.4086   20.6408 H   0  0  0  0  0  0
  -26.8737  -30.6818   22.0661 H   0  0  0  0  0  0
  -28.0098  -28.5295   21.3586 H   0  0  0  0  0  0
  -25.6570  -25.7987   18.9841 H   0  0  0  0  0  0
  -23.8585  -27.4233   18.8816 H   0  0  0  0  0  0
  -23.8387  -30.6415   19.4126 H   0  0  0  0  0  0
  -22.7602  -29.3371   19.8055 H   0  0  0  0  0  0
  -25.1316  -36.1820   25.0800 H   0  0  0  0  0  0
  -21.0018  -28.3336   24.1315 H   0  0  0  0  0  0
  -20.5682  -26.2353   23.3613 H   0  0  0  0  0  0
  -21.6655  -26.7433   22.1184 H   0  0  0  0  0  0
  -19.6933  -25.6269   21.1268 H   0  0  0  0  0  0
  -19.6704  -27.3146   20.6700 H   0  0  0  0  0  0
  -17.4208  -26.6649   21.4024 H   0  0  0  0  0  0
  -18.0357  -26.0083   22.9026 H   0  0  0  0  0  0
  -19.7959  -30.7292   24.2216 H   0  0  0  0  0  0
  -17.5040  -31.6274   24.5154 H   0  0  0  0  0  0
  -15.5369  -30.2988   23.7700 H   0  0  0  0  0  0
  -15.8673  -28.0818   22.7121 H   0  0  0  0  0  0
  -24.5859  -30.7200   25.7764 H   0  0  0  0  0  0
  -24.8926  -32.3044   26.4784 H   0  0  0  0  0  0
  -25.7945  -30.9044   27.0282 H   0  0  0  0  0  0
  -26.3113  -29.6613   24.1492 H   0  0  0  0  0  0
  -27.3983  -29.7325   25.5142 H   0  0  0  0  0  0
  -27.9055  -30.4132   23.9896 H   0  0  0  0  0  0
  -27.2606  -33.3706   26.2058 H   0  0  0  0  0  0
  -28.3919  -32.6906   25.0450 H   0  0  0  0  0  0
  -28.0660  -31.8582   26.5585 H   0  0  0  0  0  0
  -28.2564  -38.0097   24.7522 H   0  0  0  0  0  0
  -28.1084  -36.2624   24.6278 H   0  0  0  0  0  0
  -27.2285  -37.1405   25.8869 H   0  0  0  0  0  0
  -20.9444  -29.8818   21.6776 H   0  0  0  0  0  0
  -26.0126  -38.2797   24.1422 H   0  0  0  0  0  0
  -25.1563  -15.7171   18.3981 H   0  0  0  0  0  0
  -24.5300  -14.4602   23.8050 H   0  0  0  0  0  0
  -26.6701  -10.4146   20.2735 H   0  0  0  0  0  0
  -23.8620  -17.4114   22.2553 H   0  0  0  0  0  0
  -23.4949  -17.5348   20.5821 H   0  0  0  0  0  0
  -27.0452  -14.6652   17.4251 H   0  0  0  0  0  0
  -27.7591  -13.1875   17.1088 H   0  0  0  0  0  0
  -27.3129  -20.8222   21.0872 H   0  0  0  0  0  0
  -26.0945  -21.4765   22.1002 H   0  0  0  0  0  0
  -25.4849  -23.0873   19.9104 H   0  0  0  0  0  0
  -27.0574  -22.6432   19.3950 H   0  0  0  0  0  0
  -27.9731  -24.0064   21.5143 H   0  0  0  0  0  0
  -26.4056  -24.6701   21.6706 H   0  0  0  0  0  0
  -26.2537  -18.3090   21.5726 H   0  0  0  0  0  0
  -29.1273  -15.4483   17.9072 H   0  0  0  0  0  0
  1 25  1  0  0  0
  1 30  2  0  0  0
  1 84  1  0  0  0
  2  3  1  0  0  0
  2 25  1  0  0  0
  2 87  1  0  0  0
  2 88  1  0  0  0
  3  4  1  0  0  0
  3 89  1  0  0  0
  3 90  1  0  0  0
  4  5  1  0  0  0
  4 91  1  0  0  0
  4 92  1  0  0  0
  5  6  1  0  0  0
  5 26  1  0  0  0
  5 93  1  0  0  0
  6 25  1  0  0  0
  6 94  1  0  0  0
  6 95  1  0  0  0
  7  8  2  0  0  0
  7 26  1  0  0  0
  7 29  1  0  0  0
  8  9  1  0  0  0
  8 22  1  0  0  0
  9 10  1  0  0  0
  9 27  2  0  0  0
 10 11  2  0  0  0
 10 15  1  0  0  0
 11 12  1  0  0  0
 11 96  1  0  0  0
 12 13  2  0  0  0
 12 97  1  0  0  0
 13 14  1  0  0  0
 13 31  1  0  0  0
 14 15  2  0  0  0
 14 98  1  0  0  0
 15 99  1  0  0  0
 16 17  2  0  0  0
 16 21  1  0  0  0
 16 31  1  0  0  0
 17 18  1  0  0  0
 17100  1  0  0  0
 18 19  2  0  0  0
 18101  1  0  0  0
 19 20  1  0  0  0
 19 24  1  0  0  0
 20 21  2  0  0  0
 20102  1  0  0  0
 21 23  1  0  0  0
 22 28  1  0  0  0
 22 32  2  0  0  0
 26 27  1  0  0  0
 28103  1  0  0  0
 28104  1  0  0  0
 29105  1  0  0  0
 29106  1  0  0  0
 33 34  1  0  0  0
 33 66  1  0  0  0
 33 70  2  0  0  0
 34 36  1  0  0  0
 34 59  1  0  0  0
 34107  1  0  0  0
 35 44  2  0  0  0
 35 45  1  0  0  0
 35 68  1  0  0  0
 36 56  1  0  0  0
 36108  1  0  0  0
 37 39  1  0  0  0
 37 47  1  0  0  0
 37 66  1  0  0  0
 37109  1  0  0  0
 38 43  2  0  0  0
 38 46  1  0  0  0
 38 47  1  0  0  0
 39 64  1  0  0  0
 39 67  2  0  0  0
 40 52  1  0  0  0
 40 53  2  0  0  0
 40 58  1  0  0  0
 41110  1  0  0  0
 41111  1  0  0  0
 41112  1  0  0  0
 41 48  1  0  0  0
 42 43  1  0  0  0
 42 66  1  0  0  0
 42113  1  0  0  0
 42114  1  0  0  0
 43 44  1  0  0  0
 44115  1  0  0  0
 45 46  2  0  0  0
 45116  1  0  0  0
 46117  1  0  0  0
 47118  1  0  0  0
 47119  1  0  0  0
 48 56  1  0  0  0
 48 65  1  0  0  0
 48120  1  0  0  0
 49 50  1  0  0  0
 49 53  1  0  0  0
 49 64  1  0  0  0
 49121  1  0  0  0
 50 51  1  0  0  0
 50122  1  0  0  0
 50123  1  0  0  0
 51 52  1  0  0  0
 51124  1  0  0  0
 51125  1  0  0  0
 52126  1  0  0  0
 52127  1  0  0  0
 53 54  1  0  0  0
 54 55  2  0  0  0
 54128  1  0  0  0
 55 57  1  0  0  0
 55129  1  0  0  0
 56 69  2  0  0  0
 57 58  2  0  0  0
 57130  1  0  0  0
 58131  1  0  0  0
 59 60  1  0  0  0
 59 61  1  0  0  0
 59 62  1  0  0  0
 60132  1  0  0  0
 60133  1  0  0  0
 60134  1  0  0  0
 61135  1  0  0  0
 61136  1  0  0  0
 61137  1  0  0  0
 62138  1  0  0  0
 62139  1  0  0  0
 62140  1  0  0  0
 63 65  1  0  0  0
 63141  1  0  0  0
 63142  1  0  0  0
 63143  1  0  0  0
 64144  1  0  0  0
 65145  1  0  0  0
 68 82  1  0  0  0
 71 74  2  0  0  0
 71 75  1  0  0  0
 71146  1  0  0  0
 72 74  1  0  0  0
 72 76  2  0  0  0
 72147  1  0  0  0
 73 75  2  0  0  0
 73 76  1  0  0  0
 73148  1  0  0  0
 74 78  1  0  0  0
 75 79  1  0  0  0
 76 86  1  0  0  0
 77 80  1  0  0  0
 77 83  1  0  0  0
 77 85  2  0  0  0
 78 83  1  0  0  0
 78149  1  0  0  0
 78150  1  0  0  0
 79 84  1  0  0  0
 79151  1  0  0  0
 79152  1  0  0  0
 80 81  1  0  0  0
 80153  1  0  0  0
 80154  1  0  0  0
 81 82  1  0  0  0
 81155  1  0  0  0
 81156  1  0  0  0
 82157  1  0  0  0
 82158  1  0  0  0
 83159  1  0  0  0
 84160  1  0  0  0
M  ISO  4   1 100  68 101  82 101  84 100
M  END
> <chiral flag>
0

> <version>
0

> <s_m_source_file>
/data/baiqing/PycharmProjects/Reinvent-master-3.2/result/LINK_invent/BTK/process_docking_weight1_custom_product_contain_oxygen_bond_distance_aromatic_linkinvent_7_9_3/rearranged_h_0049.sdf

> <i_m_source_file_index>
37

> <r_mmod_Potential_Energy-OPLS-2005>
19324.041015625

> <r_mmod_Stretch_Energy-OPLS-2005>
10748.90234375

> <r_mmod_Bend_Energy-OPLS-2005>
2188.7119140625

> <r_mmod_Torsional_Energy-OPLS-2005>
608.556457519531

> <r_mmod_Improper_Torsional_Energy-OPLS-2005>
83.3614196777344

> <r_mmod_Van_der_Waal_Energy-OPLS-2005>
4676.03369140625

> <r_mmod_Electrostatic_Energy-OPLS-2005>
-475.934936523438

> <r_mmod_Solvation_Energy-OPLS-2005>
-245.541107177734

> <b_mmod_Minimization_Converged-OPLS-2005>
0

> <r_mmod_RMS_Derivative-OPLS-2005>
3.24860596656799

$$$$
37
                    3D
 Structure written by MMmdl.
164172  0  0  1  0            999 V2000
  -30.7636  -14.6258   20.4420 C   0  0  0  0  0  0
  -30.3896  -12.3908   19.4571 C   0  0  0  0  0  0
  -29.4813  -12.4676   18.2178 C   0  0  0  0  0  0
  -28.0111  -12.3245   18.6443 C   0  0  0  0  0  0
  -27.6318  -13.2431   19.8370 C   0  0  2  0  0  0
  -28.6880  -13.2217   20.9649 C   0  0  0  0  0  0
  -25.2468  -13.8236   20.5742 C   0  0  0  0  0  0
  -24.1758  -13.0464   20.9243 C   0  0  0  0  0  0
  -24.6358  -11.6941   20.8781 C   0  0  0  0  0  0
  -23.9042  -10.4307   21.0422 C   0  0  0  0  0  0
  -24.3597   -9.4222   21.9196 C   0  0  0  0  0  0
  -23.6278   -8.2256   22.0755 C   0  0  0  0  0  0
  -22.4265   -8.0288   21.3546 C   0  0  0  0  0  0
  -21.9890   -9.0256   20.4655 C   0  0  0  0  0  0
  -22.7211  -10.2143   20.3072 C   0  0  0  0  0  0
  -21.6850   -6.0736   22.5274 C   0  0  0  0  0  0
  -21.4026   -6.5636   23.8210 C   0  0  0  0  0  0
  -21.3663   -5.6789   24.9164 C   0  0  0  0  0  0
  -21.6043   -4.3049   24.7221 C   0  0  0  0  0  0
  -21.8818   -3.8138   23.4340 C   0  0  0  0  0  0
  -21.9192   -4.6960   22.3397 C   0  0  0  0  0  0
  -22.7781  -13.5234   21.1876 C   0  0  0  0  0  0
  -22.1658   -4.2147   21.0974 F   0  0  0  0  0  0
  -21.5618   -3.4534   25.7730 F   0  0  0  0  0  0
  -29.9879  -13.4993   20.3502 N   0  0  0  0  0  0
  -26.2894  -12.9471   20.3299 N   0  0  0  0  0  0
  -25.9292  -11.6601   20.5787 N   0  0  0  0  0  0
  -22.0412  -12.8242   22.0440 N   0  0  0  0  0  0
  -25.4151  -15.1963   20.4170 N   0  0  0  0  0  0
  -31.9681  -14.4912   20.2687 O   0  0  0  0  0  0
  -21.6638   -6.8881   21.4237 O   0  0  0  0  0  0
  -22.3469  -14.5536   20.6703 O   0  0  0  0  0  0
  -24.6226  -31.8633   23.2052 C   0  0  0  0  0  0
  -25.9098  -32.4789   23.8362 C   0  0  1  0  0  0
  -27.2096  -27.3541   20.1185 C   0  0  0  0  0  0
  -25.5943  -33.8590   24.2302 N   0  0  0  0  0  0
  -23.4131  -30.4886   21.5462 C   0  0  2  0  0  0
  -24.8594  -28.9508   20.1069 C   0  0  0  0  0  0
  -22.7454  -29.4635   22.4931 C   0  0  0  0  0  0
  -18.0289  -28.1371   22.8488 C   0  0  0  0  0  0
  -24.1494  -36.7283   23.2632 C   0  0  0  0  0  0
  -25.9512  -30.8073   21.3708 C   0  0  0  0  0  0
  -26.0263  -29.4390   20.7102 C   0  0  0  0  0  0
  -27.2120  -28.6508   20.7056 C   0  0  0  0  0  0
  -26.0314  -26.9088   19.4894 C   0  0  0  0  0  0
  -24.8628  -27.6918   19.4839 C   0  0  0  0  0  0
  -23.6255  -29.8267   20.1585 C   0  0  0  0  0  0
  -25.4118  -36.3087   24.0328 C   0  0  1  0  0  0
  -20.5887  -28.3669   23.1285 C   0  0  2  0  0  0
  -20.6779  -26.9394   22.5405 C   0  0  0  0  0  0
  -19.5749  -26.6374   21.5210 C   0  0  0  0  0  0
  -18.1929  -26.7918   22.1621 C   0  0  0  0  0  0
  -19.1544  -28.8841   23.2882 C   0  0  0  0  0  0
  -18.9465  -30.1449   23.8889 C   0  0  0  0  0  0
  -17.6465  -30.6577   24.0558 C   0  0  0  0  0  0
  -25.9059  -34.9456   23.5112 C   0  0  0  0  0  0
  -16.5356  -29.9070   23.6330 C   0  0  0  0  0  0
  -16.7278  -28.6488   23.0351 C   0  0  0  0  0  0
  -26.4499  -31.6583   25.0714 C   0  0  0  0  0  0
  -25.3745  -31.3727   26.1452 C   0  0  0  0  0  0
  -27.0326  -30.3006   24.6144 C   0  0  0  0  0  0
  -27.6075  -32.4303   25.7478 C   0  0  0  0  0  0
  -27.5580  -37.1797   24.8463 C   0  0  0  0  0  0
  -21.4176  -29.3031   22.3678 N   0  0  0  0  0  0
  -26.4293  -37.3778   23.9411 N   0  0  0  0  0  0
  -24.6805  -31.0687   22.0978 N   0  0  0  0  0  0
  -23.4206  -28.8173   23.2991 O   0  0  0  0  0  0
  -28.2952  -26.4859   20.1628 O   0  0  0  0  0  0
  -26.5600  -34.8917   22.4663 O   0  0  0  0  0  0
  -23.5405  -32.1406   23.7410 O   0  0  0  0  0  0
  -32.7916  -19.2978   20.9703 C   0  0  0  0  0  0
  -32.2673  -17.2035   19.9088 C   0  0  0  0  0  0
  -33.1854  -18.2326   20.1618 C   0  0  0  0  0  0
  -31.4529  -19.4195   21.3763 C   0  0  0  0  0  0
  -30.4641  -18.4634   20.9588 C   0  0  0  0  0  0
  -30.9445  -17.1840   20.4477 C   0  0  0  0  0  0
  -28.3188  -22.6926   20.9635 C   0  0  0  0  0  0
  -28.3519  -23.8806   20.2800 C   0  0  0  0  0  0
  -28.5897  -21.3435   20.3891 C   0  0  0  0  0  0
  -34.6125  -18.1602   19.6455 C   0  0  0  0  0  0
  -31.1908  -20.5857   22.3187 C   0  0  0  0  0  0
  -27.7492  -20.3611   22.5223 C   0  0  0  0  0  0
  -28.9480  -18.8469   20.9459 C   0  0  0  0  0  0
  -28.0584  -25.2603   20.9374 C   0  0  0  0  0  0
  -30.2034  -15.8956   20.4684 N   0  0  0  0  0  0
  -28.4901  -20.2622   21.2487 N   0  0  0  0  0  0
  -28.9518  -21.1883   19.2204 O   0  0  0  0  0  0
  -31.4344  -12.4345   19.1470 H   0  0  0  0  0  0
  -30.2739  -11.4345   19.9678 H   0  0  0  0  0  0
  -29.7409  -11.6825   17.5074 H   0  0  0  0  0  0
  -29.6312  -13.4153   17.6972 H   0  0  0  0  0  0
  -27.8563  -11.2812   18.9201 H   0  0  0  0  0  0
  -27.3494  -12.5138   17.7992 H   0  0  0  0  0  0
  -27.6147  -14.2555   19.4322 H   0  0  0  0  0  0
  -28.7043  -12.2537   21.4674 H   0  0  0  0  0  0
  -28.4546  -13.9688   21.7256 H   0  0  0  0  0  0
  -25.2738   -9.5698   22.4775 H   0  0  0  0  0  0
  -23.9987   -7.4643   22.7464 H   0  0  0  0  0  0
  -21.0822   -8.8768   19.8963 H   0  0  0  0  0  0
  -22.3654  -10.9682   19.6188 H   0  0  0  0  0  0
  -21.2039   -7.6148   23.9715 H   0  0  0  0  0  0
  -21.1481   -6.0517   25.9071 H   0  0  0  0  0  0
  -22.0596   -2.7603   23.2835 H   0  0  0  0  0  0
  -22.4011  -11.9918   22.4879 H   0  0  0  0  0  0
  -21.1039  -13.1292   22.2651 H   0  0  0  0  0  0
  -24.6462  -15.8490   20.5282 H   0  0  0  0  0  0
  -26.2592  -15.6352   20.0738 H   0  0  0  0  0  0
  -26.7159  -32.5482   23.1108 H   0  0  0  0  0  0
  -25.0144  -33.9739   25.0483 H   0  0  0  0  0  0
  -22.7042  -31.3072   21.4069 H   0  0  0  0  0  0
  -23.3760  -35.9609   23.3301 H   0  0  0  0  0  0
  -24.3583  -36.8893   22.2044 H   0  0  0  0  0  0
  -23.7240  -37.6486   23.6644 H   0  0  0  0  0  0
  -26.0810  -31.5771   20.6086 H   0  0  0  0  0  0
  -26.8311  -30.8506   22.0005 H   0  0  0  0  0  0
  -28.1089  -29.0143   21.1869 H   0  0  0  0  0  0
  -26.0115  -25.9351   19.0190 H   0  0  0  0  0  0
  -23.9688  -27.3160   19.0056 H   0  0  0  0  0  0
  -23.7376  -30.6048   19.4026 H   0  0  0  0  0  0
  -22.7464  -29.2533   19.8594 H   0  0  0  0  0  0
  -25.1297  -36.1931   25.0814 H   0  0  0  0  0  0
  -20.9989  -28.3246   24.1402 H   0  0  0  0  0  0
  -20.5677  -26.2279   23.3601 H   0  0  0  0  0  0
  -21.6647  -26.7420   22.1200 H   0  0  0  0  0  0
  -19.6911  -25.6288   21.1231 H   0  0  0  0  0  0
  -19.6688  -27.3187   20.6742 H   0  0  0  0  0  0
  -17.4201  -26.6671   21.4021 H   0  0  0  0  0  0
  -18.0325  -26.0055   22.9009 H   0  0  0  0  0  0
  -19.7944  -30.7271   24.2242 H   0  0  0  0  0  0
  -17.5018  -31.6259   24.5154 H   0  0  0  0  0  0
  -15.5355  -30.2965   23.7662 H   0  0  0  0  0  0
  -15.8676  -28.0803   22.7065 H   0  0  0  0  0  0
  -24.5915  -30.7078   25.7790 H   0  0  0  0  0  0
  -24.8948  -32.2905   26.4869 H   0  0  0  0  0  0
  -25.8083  -30.8911   27.0225 H   0  0  0  0  0  0
  -26.2889  -29.6767   24.1176 H   0  0  0  0  0  0
  -27.4041  -29.7248   25.4631 H   0  0  0  0  0  0
  -27.8753  -30.4291   23.9345 H   0  0  0  0  0  0
  -27.2700  -33.3600   26.2068 H   0  0  0  0  0  0
  -28.3882  -32.6864   25.0304 H   0  0  0  0  0  0
  -28.0742  -31.8414   26.5385 H   0  0  0  0  0  0
  -28.2602  -38.0090   24.7512 H   0  0  0  0  0  0
  -28.1074  -36.2627   24.6290 H   0  0  0  0  0  0
  -27.2297  -37.1441   25.8863 H   0  0  0  0  0  0
  -20.9338  -29.8752   21.6894 H   0  0  0  0  0  0
  -26.0178  -38.2850   24.1416 H   0  0  0  0  0  0
  -33.5215  -20.0438   21.2582 H   0  0  0  0  0  0
  -32.6472  -16.3956   19.3068 H   0  0  0  0  0  0
  -28.0827  -22.7767   22.0123 H   0  0  0  0  0  0
  -28.5846  -23.8873   19.2240 H   0  0  0  0  0  0
  -35.3089  -18.5730   20.3775 H   0  0  0  0  0  0
  -34.7190  -18.7342   18.7254 H   0  0  0  0  0  0
  -34.9205  -17.1331   19.4442 H   0  0  0  0  0  0
  -32.1097  -20.8924   22.8197 H   0  0  0  0  0  0
  -30.4987  -20.3036   23.1101 H   0  0  0  0  0  0
  -30.8368  -21.4676   21.7925 H   0  0  0  0  0  0
  -26.8217  -20.9239   22.4053 H   0  0  0  0  0  0
  -28.3439  -20.8567   23.2886 H   0  0  0  0  0  0
  -27.4508  -19.3951   22.9296 H   0  0  0  0  0  0
  -28.4326  -18.1201   21.5705 H   0  0  0  0  0  0
  -28.5910  -18.6227   19.9397 H   0  0  0  0  0  0
  -28.6750  -25.3254   21.8341 H   0  0  0  0  0  0
  -27.0339  -25.2176   21.3117 H   0  0  0  0  0  0
  -29.2035  -15.9396   20.5892 H   0  0  0  0  0  0
  1 25  1  0  0  0
  1 30  2  0  0  0
  1 85  1  0  0  0
  2  3  1  0  0  0
  2 25  1  0  0  0
  2 88  1  0  0  0
  2 89  1  0  0  0
  3  4  1  0  0  0
  3 90  1  0  0  0
  3 91  1  0  0  0
  4  5  1  0  0  0
  4 92  1  0  0  0
  4 93  1  0  0  0
  5  6  1  0  0  0
  5 26  1  0  0  0
  5 94  1  0  0  0
  6 25  1  0  0  0
  6 95  1  0  0  0
  6 96  1  0  0  0
  7  8  2  0  0  0
  7 26  1  0  0  0
  7 29  1  0  0  0
  8  9  1  0  0  0
  8 22  1  0  0  0
  9 10  1  0  0  0
  9 27  2  0  0  0
 10 11  2  0  0  0
 10 15  1  0  0  0
 11 12  1  0  0  0
 11 97  1  0  0  0
 12 13  2  0  0  0
 12 98  1  0  0  0
 13 14  1  0  0  0
 13 31  1  0  0  0
 14 15  2  0  0  0
 14 99  1  0  0  0
 15100  1  0  0  0
 16 17  2  0  0  0
 16 21  1  0  0  0
 16 31  1  0  0  0
 17 18  1  0  0  0
 17101  1  0  0  0
 18 19  2  0  0  0
 18102  1  0  0  0
 19 20  1  0  0  0
 19 24  1  0  0  0
 20 21  2  0  0  0
 20103  1  0  0  0
 21 23  1  0  0  0
 22 28  1  0  0  0
 22 32  2  0  0  0
 26 27  1  0  0  0
 28104  1  0  0  0
 28105  1  0  0  0
 29106  1  0  0  0
 29107  1  0  0  0
 33 34  1  0  0  0
 33 66  1  0  0  0
 33 70  2  0  0  0
 34 36  1  0  0  0
 34 59  1  0  0  0
 34108  1  0  0  0
 35 44  2  0  0  0
 35 45  1  0  0  0
 35 68  1  0  0  0
 36 56  1  0  0  0
 36109  1  0  0  0
 37 39  1  0  0  0
 37 47  1  0  0  0
 37 66  1  0  0  0
 37110  1  0  0  0
 38 43  2  0  0  0
 38 46  1  0  0  0
 38 47  1  0  0  0
 39 64  1  0  0  0
 39 67  2  0  0  0
 40 52  1  0  0  0
 40 53  2  0  0  0
 40 58  1  0  0  0
 41111  1  0  0  0
 41112  1  0  0  0
 41113  1  0  0  0
 41 48  1  0  0  0
 42 43  1  0  0  0
 42 66  1  0  0  0
 42114  1  0  0  0
 42115  1  0  0  0
 43 44  1  0  0  0
 44116  1  0  0  0
 45 46  2  0  0  0
 45117  1  0  0  0
 46118  1  0  0  0
 47119  1  0  0  0
 47120  1  0  0  0
 48 56  1  0  0  0
 48 65  1  0  0  0
 48121  1  0  0  0
 49 50  1  0  0  0
 49 53  1  0  0  0
 49 64  1  0  0  0
 49122  1  0  0  0
 50 51  1  0  0  0
 50123  1  0  0  0
 50124  1  0  0  0
 51 52  1  0  0  0
 51125  1  0  0  0
 51126  1  0  0  0
 52127  1  0  0  0
 52128  1  0  0  0
 53 54  1  0  0  0
 54 55  2  0  0  0
 54129  1  0  0  0
 55 57  1  0  0  0
 55130  1  0  0  0
 56 69  2  0  0  0
 57 58  2  0  0  0
 57131  1  0  0  0
 58132  1  0  0  0
 59 60  1  0  0  0
 59 61  1  0  0  0
 59 62  1  0  0  0
 60133  1  0  0  0
 60134  1  0  0  0
 60135  1  0  0  0
 61136  1  0  0  0
 61137  1  0  0  0
 61138  1  0  0  0
 62139  1  0  0  0
 62140  1  0  0  0
 62141  1  0  0  0
 63 65  1  0  0  0
 63142  1  0  0  0
 63143  1  0  0  0
 63144  1  0  0  0
 64145  1  0  0  0
 65146  1  0  0  0
 68 84  1  0  0  0
 71 73  2  0  0  0
 71 74  1  0  0  0
 71147  1  0  0  0
 72 73  1  0  0  0
 72 76  2  0  0  0
 72148  1  0  0  0
 73 80  1  0  0  0
 74 75  2  0  0  0
 74 81  1  0  0  0
 75 76  1  0  0  0
 75 83  1  0  0  0
 76 85  1  0  0  0
 77 78  2  0  0  0
 77 79  1  0  0  0
 77149  1  0  0  0
 78 84  1  0  0  0
 78150  1  0  0  0
 79 86  1  0  0  0
 79 87  2  0  0  0
 80151  1  0  0  0
 80152  1  0  0  0
 80153  1  0  0  0
 81154  1  0  0  0
 81155  1  0  0  0
 81156  1  0  0  0
 82 86  1  0  0  0
 82157  1  0  0  0
 82158  1  0  0  0
 82159  1  0  0  0
 83 86  1  0  0  0
 83160  1  0  0  0
 83161  1  0  0  0
 84162  1  0  0  0
 84163  1  0  0  0
 85164  1  0  0  0
M  ISO  4   1 100  68 101  84 101  85 100
M  END
> <chiral flag>
0

> <version>
0

> <s_m_source_file>
/data/baiqing/PycharmProjects/Reinvent-master-3.2/result/LINK_invent/BTK/process_docking_weight1_custom_product_contain_oxygen_bond_distance_aromatic_linkinvent_7_9_3/rearranged_h_0049.sdf

> <i_m_source_file_index>
38

> <r_mmod_Potential_Energy-OPLS-2005>
184.705520629883

> <r_mmod_Stretch_Energy-OPLS-2005>
91.6760711669922

> <r_mmod_Bend_Energy-OPLS-2005>
149.322570800781

> <r_mmod_Torsional_Energy-OPLS-2005>
308.757049560547

> <r_mmod_Improper_Torsional_Energy-OPLS-2005>
6.73597860336304

> <r_mmod_Van_der_Waal_Energy-OPLS-2005>
183.03125

> <r_mmod_Electrostatic_Energy-OPLS-2005>
-390.172607421875

> <r_mmod_Solvation_Energy-OPLS-2005>
-231.34358215332

> <b_mmod_Minimization_Converged-OPLS-2005>
0

> <r_mmod_RMS_Derivative-OPLS-2005>
2.47681045532227

$$$$
38
                    3D
 Structure written by MMmdl.
157165  0  0  1  0            999 V2000
  -30.6679  -14.6384   21.0370 C   0  0  0  0  0  0
  -31.3134  -13.7472   19.0974 C   0  0  0  0  0  0
  -28.7194  -13.9374   17.2147 C   0  0  0  0  0  0
  -27.3349  -13.2956   18.2502 C   0  0  0  0  0  0
  -27.4998  -13.1599   20.0379 C   0  0  2  0  0  0
  -28.9834  -12.8212   21.0824 C   0  0  0  0  0  0
  -25.1699  -13.7757   20.6460 C   0  0  0  0  0  0
  -24.1049  -13.0018   20.9605 C   0  0  0  0  0  0
  -24.5765  -11.6524   20.9197 C   0  0  0  0  0  0
  -23.8609  -10.4004   21.0605 C   0  0  0  0  0  0
  -24.3300   -9.3963   21.9311 C   0  0  0  0  0  0
  -23.6073   -8.1978   22.0775 C   0  0  0  0  0  0
  -22.4089   -8.0060   21.3519 C   0  0  0  0  0  0
  -21.9660   -9.0001   20.4626 C   0  0  0  0  0  0
  -22.6901  -10.1916   20.3115 C   0  0  0  0  0  0
  -21.6753   -6.0602   22.5287 C   0  0  0  0  0  0
  -21.3941   -6.5558   23.8203 C   0  0  0  0  0  0
  -21.3647   -5.6748   24.9184 C   0  0  0  0  0  0
  -21.6039   -4.3009   24.7256 C   0  0  0  0  0  0
  -21.8827   -3.8068   23.4388 C   0  0  0  0  0  0
  -21.9162   -4.6851   22.3428 C   0  0  0  0  0  0
  -22.7134  -13.4945   21.1959 C   0  0  0  0  0  0
  -22.1645   -4.2052   21.1000 F   0  0  0  0  0  0
  -21.5654   -3.4513   25.7780 F   0  0  0  0  0  0
  -30.5972  -13.3838   20.6889 N   0  0  0  0  0  0
  -26.2159  -12.8706   20.5126 N   0  0  0  0  0  0
  -25.8728  -11.5908   20.6624 N   0  0  0  0  0  0
  -21.9697  -12.8077   22.0516 N   0  0  0  0  0  0
  -25.3121  -15.1563   20.4478 N   0  0  0  0  0  0
  -31.7358  -15.2539   21.0165 O   0  0  0  0  0  0
  -21.6476   -6.8688   21.4222 O   0  0  0  0  0  0
  -22.3033  -14.5309   20.6745 O   0  0  0  0  0  0
  -24.6852  -31.8033   23.1517 C   0  0  0  0  0  0
  -25.9459  -32.4469   23.8046 C   0  0  1  0  0  0
  -27.2165  -26.7785   20.0386 C   0  0  0  0  0  0
  -25.6036  -33.8293   24.1932 N   0  0  0  0  0  0
  -23.5023  -30.4154   21.5124 C   0  0  2  0  0  0
  -24.9399  -28.7720   20.0968 C   0  0  0  0  0  0
  -22.7744  -29.4385   22.4740 C   0  0  0  0  0  0
  -18.0363  -28.1439   22.8473 C   0  0  0  0  0  0
  -24.1517  -36.7135   23.2648 C   0  0  0  0  0  0
  -26.0857  -30.5406   21.4103 C   0  0  0  0  0  0
  -26.1426  -29.1244   20.7207 C   0  0  0  0  0  0
  -27.2670  -28.1501   20.6694 C   0  0  0  0  0  0
  -25.9658  -26.6118   19.4029 C   0  0  0  0  0  0
  -24.8839  -27.5380   19.4286 C   0  0  0  0  0  0
  -23.7380  -29.7234   20.1436 C   0  0  0  0  0  0
  -25.4176  -36.2889   24.0265 C   0  0  1  0  0  0
  -20.5998  -28.3809   23.1136 C   0  0  2  0  0  0
  -20.6846  -26.9476   22.5391 C   0  0  0  0  0  0
  -19.5806  -26.6384   21.5227 C   0  0  0  0  0  0
  -18.1991  -26.7976   22.1629 C   0  0  0  0  0  0
  -19.1629  -28.8946   23.2793 C   0  0  0  0  0  0
  -18.9532  -30.1542   23.8815 C   0  0  0  0  0  0
  -17.6518  -30.6619   24.0555 C   0  0  0  0  0  0
  -25.9158  -34.9281   23.4927 C   0  0  0  0  0  0
  -16.5410  -29.9095   23.6360 C   0  0  0  0  0  0
  -16.7341  -28.6526   23.0364 C   0  0  0  0  0  0
  -26.4607  -31.6520   25.0684 C   0  0  0  0  0  0
  -25.3645  -31.3877   26.1273 C   0  0  0  0  0  0
  -27.0510  -30.2833   24.6642 C   0  0  0  0  0  0
  -27.6076  -32.4386   25.7486 C   0  0  0  0  0  0
  -27.5580  -37.1717   24.8460 C   0  0  0  0  0  0
  -21.4408  -29.3052   22.3448 N   0  0  0  0  0  0
  -26.4296  -37.3656   23.9396 N   0  0  0  0  0  0
  -24.7818  -30.9509   22.0752 N   0  0  0  0  0  0
  -23.4193  -28.7989   23.3084 O   0  0  0  0  0  0
  -28.1943  -25.5925   19.9882 O   0  0  0  0  0  0
  -26.5790  -34.8856   22.4541 O   0  0  0  0  0  0
  -23.5897  -32.1122   23.6504 O   0  0  0  0  0  0
  -30.4880  -12.3788   17.3494 C   0  0  0  0  0  0
  -31.0740  -13.7375   16.6834 C   0  0  0  0  0  0
  -29.5473  -12.5465   18.6847 C   0  0  0  0  0  0
  -30.7913  -15.2752   17.1347 C   0  0  0  0  0  0
  -29.8934  -15.8558   18.3390 C   0  0  0  0  0  0
  -29.2971  -14.6343   19.2381 C   0  0  0  0  0  0
  -28.7121  -20.5491   18.9182 C   0  0  0  0  0  0
  -31.3867  -16.3029   16.1913 C   0  0  0  0  0  0
  -29.2396  -17.5802   18.3740 C   0  0  0  0  0  0
  -28.9221  -22.2503   19.5831 C   0  0  0  0  0  0
  -28.0155  -23.9303   19.5120 C   0  0  0  0  0  0
  -29.5481  -15.1807   20.5479 N   0  0  0  0  0  0
  -29.4281  -19.1916   19.0212 N   0  0  0  0  0  0
  -27.7232  -20.4901   18.1861 O   0  0  0  0  0  0
  -32.0788  -14.5252   18.9750 H   0  0  0  0  0  0
  -32.0074  -12.8969   19.0165 H   0  0  0  0  0  0
  -28.6735  -13.4041   16.2572 H   0  0  0  0  0  0
  -28.3480  -14.9110   16.8711 H   0  0  0  0  0  0
  -27.1010  -12.2912   17.8867 H   0  0  0  0  0  0
  -26.4328  -13.8603   18.0108 H   0  0  0  0  0  0
  -27.4193  -14.1780   20.3734 H   0  0  0  0  0  0
  -29.0534  -11.7456   21.2452 H   0  0  0  0  0  0
  -28.7439  -13.1724   22.0901 H   0  0  0  0  0  0
  -25.2401   -9.5500   22.4917 H   0  0  0  0  0  0
  -23.9790   -7.4365   22.7488 H   0  0  0  0  0  0
  -21.0594   -8.8480   19.8932 H   0  0  0  0  0  0
  -22.3345  -10.9475   19.6259 H   0  0  0  0  0  0
  -21.1898   -7.6063   23.9678 H   0  0  0  0  0  0
  -21.1479   -6.0483   25.9092 H   0  0  0  0  0  0
  -22.0637   -2.7528   23.2914 H   0  0  0  0  0  0
  -22.3156  -11.9704   22.4937 H   0  0  0  0  0  0
  -21.0359  -13.1248   22.2713 H   0  0  0  0  0  0
  -24.5330  -15.7994   20.5257 H   0  0  0  0  0  0
  -26.1671  -15.6048   20.1393 H   0  0  0  0  0  0
  -26.7538  -32.4921   23.0749 H   0  0  0  0  0  0
  -25.0071  -33.9341   25.0005 H   0  0  0  0  0  0
  -22.8299  -31.2579   21.3353 H   0  0  0  0  0  0
  -23.3806  -35.9438   23.3267 H   0  0  0  0  0  0
  -24.3575  -36.8849   22.2069 H   0  0  0  0  0  0
  -23.7242  -37.6279   23.6770 H   0  0  0  0  0  0
  -26.3191  -31.2912   20.6551 H   0  0  0  0  0  0
  -26.9228  -30.5654   22.0944 H   0  0  0  0  0  0
  -28.1834  -28.4225   21.1758 H   0  0  0  0  0  0
  -25.7869  -25.6802   18.8852 H   0  0  0  0  0  0
  -23.9696  -27.2674   18.9178 H   0  0  0  0  0  0
  -23.8879  -30.4867   19.3785 H   0  0  0  0  0  0
  -22.8398  -29.1870   19.8364 H   0  0  0  0  0  0
  -25.1397  -36.1639   25.0758 H   0  0  0  0  0  0
  -21.0115  -28.3466   24.1247 H   0  0  0  0  0  0
  -20.5763  -26.2445   23.3661 H   0  0  0  0  0  0
  -21.6706  -26.7457   22.1174 H   0  0  0  0  0  0
  -19.6968  -25.6272   21.1318 H   0  0  0  0  0  0
  -19.6739  -27.3142   20.6718 H   0  0  0  0  0  0
  -17.4265  -26.6734   21.4025 H   0  0  0  0  0  0
  -18.0378  -26.0135   22.9037 H   0  0  0  0  0  0
  -19.8003  -30.7404   24.2123 H   0  0  0  0  0  0
  -17.5058  -31.6289   24.5181 H   0  0  0  0  0  0
  -15.5405  -30.2948   23.7747 H   0  0  0  0  0  0
  -15.8751  -28.0800   22.7112 H   0  0  0  0  0  0
  -24.5807  -30.7289   25.7511 H   0  0  0  0  0  0
  -24.8856  -32.3120   26.4515 H   0  0  0  0  0  0
  -25.7740  -30.9078   27.0166 H   0  0  0  0  0  0
  -26.3199  -29.6443   24.1666 H   0  0  0  0  0  0
  -27.3910  -29.7324   25.5420 H   0  0  0  0  0  0
  -27.9224  -30.3901   24.0184 H   0  0  0  0  0  0
  -27.2633  -33.3770   26.1855 H   0  0  0  0  0  0
  -28.3967  -32.6819   25.0359 H   0  0  0  0  0  0
  -28.0663  -31.8651   26.5549 H   0  0  0  0  0  0
  -28.2563  -38.0048   24.7530 H   0  0  0  0  0  0
  -28.1113  -36.2555   24.6284 H   0  0  0  0  0  0
  -27.2274  -37.1353   25.8859 H   0  0  0  0  0  0
  -20.9743  -29.8602   21.6404 H   0  0  0  0  0  0
  -26.0113  -38.2709   24.1394 H   0  0  0  0  0  0
  -30.7465  -11.4006   16.9639 H   0  0  0  0  0  0
  -31.7087  -13.5882   15.8200 H   0  0  0  0  0  0
  -29.2747  -11.6127   19.1595 H   0  0  0  0  0  0
  -32.1087  -15.8489   15.5122 H   0  0  0  0  0  0
  -31.9048  -17.0877   16.7419 H   0  0  0  0  0  0
  -30.6008  -16.7497   15.5808 H   0  0  0  0  0  0
  -28.1886  -17.3839   18.5930 H   0  0  0  0  0  0
  -29.2247  -17.8051   17.3067 H   0  0  0  0  0  0
  -29.9458  -22.4855   19.2848 H   0  0  0  0  0  0
  -29.0085  -22.0575   20.6534 H   0  0  0  0  0  0
  -27.0470  -23.6862   19.9515 H   0  0  0  0  0  0
  -27.7840  -24.0304   18.4507 H   0  0  0  0  0  0
  -28.7716  -15.1412   21.1903 H   0  0  0  0  0  0
  -30.2414  -19.2410   19.6220 H   0  0  0  0  0  0
  1 25  1  0  0  0
  1 30  2  0  0  0
  1 82  1  0  0  0
  2  3  1  0  0  0
  2 25  1  0  0  0
  2 85  1  0  0  0
  2 86  1  0  0  0
  3  4  1  0  0  0
  3 87  1  0  0  0
  3 88  1  0  0  0
  4  5  1  0  0  0
  4 89  1  0  0  0
  4 90  1  0  0  0
  5  6  1  0  0  0
  5 26  1  0  0  0
  5 91  1  0  0  0
  6 25  1  0  0  0
  6 92  1  0  0  0
  6 93  1  0  0  0
  7  8  2  0  0  0
  7 26  1  0  0  0
  7 29  1  0  0  0
  8  9  1  0  0  0
  8 22  1  0  0  0
  9 10  1  0  0  0
  9 27  2  0  0  0
 10 11  2  0  0  0
 10 15  1  0  0  0
 11 12  1  0  0  0
 11 94  1  0  0  0
 12 13  2  0  0  0
 12 95  1  0  0  0
 13 14  1  0  0  0
 13 31  1  0  0  0
 14 15  2  0  0  0
 14 96  1  0  0  0
 15 97  1  0  0  0
 16 17  2  0  0  0
 16 21  1  0  0  0
 16 31  1  0  0  0
 17 18  1  0  0  0
 17 98  1  0  0  0
 18 19  2  0  0  0
 18 99  1  0  0  0
 19 20  1  0  0  0
 19 24  1  0  0  0
 20 21  2  0  0  0
 20100  1  0  0  0
 21 23  1  0  0  0
 22 28  1  0  0  0
 22 32  2  0  0  0
 26 27  1  0  0  0
 28101  1  0  0  0
 28102  1  0  0  0
 29103  1  0  0  0
 29104  1  0  0  0
 33 34  1  0  0  0
 33 66  1  0  0  0
 33 70  2  0  0  0
 34 36  1  0  0  0
 34 59  1  0  0  0
 34105  1  0  0  0
 35 44  2  0  0  0
 35 45  1  0  0  0
 35 68  1  0  0  0
 36 56  1  0  0  0
 36106  1  0  0  0
 37 39  1  0  0  0
 37 47  1  0  0  0
 37 66  1  0  0  0
 37107  1  0  0  0
 38 43  2  0  0  0
 38 46  1  0  0  0
 38 47  1  0  0  0
 39 64  1  0  0  0
 39 67  2  0  0  0
 40 52  1  0  0  0
 40 53  2  0  0  0
 40 58  1  0  0  0
 41108  1  0  0  0
 41109  1  0  0  0
 41110  1  0  0  0
 41 48  1  0  0  0
 42 43  1  0  0  0
 42 66  1  0  0  0
 42111  1  0  0  0
 42112  1  0  0  0
 43 44  1  0  0  0
 44113  1  0  0  0
 45 46  2  0  0  0
 45114  1  0  0  0
 46115  1  0  0  0
 47116  1  0  0  0
 47117  1  0  0  0
 48 56  1  0  0  0
 48 65  1  0  0  0
 48118  1  0  0  0
 49 50  1  0  0  0
 49 53  1  0  0  0
 49 64  1  0  0  0
 49119  1  0  0  0
 50 51  1  0  0  0
 50120  1  0  0  0
 50121  1  0  0  0
 51 52  1  0  0  0
 51122  1  0  0  0
 51123  1  0  0  0
 52124  1  0  0  0
 52125  1  0  0  0
 53 54  1  0  0  0
 54 55  2  0  0  0
 54126  1  0  0  0
 55 57  1  0  0  0
 55127  1  0  0  0
 56 69  2  0  0  0
 57 58  2  0  0  0
 57128  1  0  0  0
 58129  1  0  0  0
 59 60  1  0  0  0
 59 61  1  0  0  0
 59 62  1  0  0  0
 60130  1  0  0  0
 60131  1  0  0  0
 60132  1  0  0  0
 61133  1  0  0  0
 61134  1  0  0  0
 61135  1  0  0  0
 62136  1  0  0  0
 62137  1  0  0  0
 62138  1  0  0  0
 63 65  1  0  0  0
 63139  1  0  0  0
 63140  1  0  0  0
 63141  1  0  0  0
 64142  1  0  0  0
 65143  1  0  0  0
 68 81  1  0  0  0
 71 72  2  0  0  0
 71 73  1  0  0  0
 71144  1  0  0  0
 72 74  1  0  0  0
 72145  1  0  0  0
 73 76  2  0  0  0
 73146  1  0  0  0
 74 75  2  0  0  0
 74 78  1  0  0  0
 75 76  1  0  0  0
 75 79  1  0  0  0
 76 82  1  0  0  0
 77 80  1  0  0  0
 77 83  1  0  0  0
 77 84  2  0  0  0
 78147  1  0  0  0
 78148  1  0  0  0
 78149  1  0  0  0
 79 83  1  0  0  0
 79150  1  0  0  0
 79151  1  0  0  0
 80 81  1  0  0  0
 80152  1  0  0  0
 80153  1  0  0  0
 81154  1  0  0  0
 81155  1  0  0  0
 82156  1  0  0  0
 83157  1  0  0  0
M  ISO  4   1 100  68 101  81 101  82 100
M  END
> <chiral flag>
0

> <version>
0

> <s_m_source_file>
/data/baiqing/PycharmProjects/Reinvent-master-3.2/result/LINK_invent/BTK/process_docking_weight1_custom_product_contain_oxygen_bond_distance_aromatic_linkinvent_7_9_3/rearranged_h_0049.sdf

> <i_m_source_file_index>
39

> <r_mmod_Potential_Energy-OPLS-2005>
11116.9765625

> <r_mmod_Stretch_Energy-OPLS-2005>
6389.27685546875

> <r_mmod_Bend_Energy-OPLS-2005>
863.7841796875

> <r_mmod_Torsional_Energy-OPLS-2005>
418.169311523438

> <r_mmod_Improper_Torsional_Energy-OPLS-2005>
62.9999046325684

> <r_mmod_Van_der_Waal_Energy-OPLS-2005>
2741.17797851562

> <r_mmod_Electrostatic_Energy-OPLS-2005>
-418.440612792969

> <r_mmod_Solvation_Energy-OPLS-2005>
-257.188232421875

> <b_mmod_Minimization_Converged-OPLS-2005>
0

> <r_mmod_RMS_Derivative-OPLS-2005>
6.66878604888916

$$$$
39
                    3D
 Structure written by MMmdl.
162170  0  0  1  0            999 V2000
  -30.5933  -14.6587   20.5223 C   0  0  0  0  0  0
  -30.4497  -12.4103   19.4542 C   0  0  0  0  0  0
  -29.5141  -12.5251   18.2284 C   0  0  0  0  0  0
  -28.0338  -12.3619   18.6351 C   0  0  0  0  0  0
  -27.6558  -13.2168   19.8738 C   0  0  2  0  0  0
  -28.7012  -13.0476   20.9999 C   0  0  0  0  0  0
  -25.2527  -13.8138   20.5650 C   0  0  0  0  0  0
  -24.1798  -13.0399   20.9133 C   0  0  0  0  0  0
  -24.6394  -11.6884   20.8714 C   0  0  0  0  0  0
  -23.9067  -10.4264   21.0393 C   0  0  0  0  0  0
  -24.3617   -9.4186   21.9174 C   0  0  0  0  0  0
  -23.6285   -8.2231   22.0754 C   0  0  0  0  0  0
  -22.4264   -8.0267   21.3548 C   0  0  0  0  0  0
  -21.9903   -9.0236   20.4641 C   0  0  0  0  0  0
  -22.7244  -10.2111   20.3039 C   0  0  0  0  0  0
  -21.6848   -6.0725   22.5273 C   0  0  0  0  0  0
  -21.4016   -6.5635   23.8207 C   0  0  0  0  0  0
  -21.3662   -5.6790   24.9169 C   0  0  0  0  0  0
  -21.6041   -4.3049   24.7220 C   0  0  0  0  0  0
  -21.8822   -3.8141   23.4342 C   0  0  0  0  0  0
  -21.9192   -4.6955   22.3397 C   0  0  0  0  0  0
  -22.7823  -13.5193   21.1819 C   0  0  0  0  0  0
  -22.1661   -4.2144   21.0973 F   0  0  0  0  0  0
  -21.5625   -3.4530   25.7734 F   0  0  0  0  0  0
  -30.0172  -13.4142   20.4461 N   0  0  0  0  0  0
  -26.2995  -12.9344   20.3374 N   0  0  0  0  0  0
  -25.9335  -11.6488   20.5782 N   0  0  0  0  0  0
  -22.0486  -12.8182   22.0391 N   0  0  0  0  0  0
  -25.4149  -15.1852   20.4093 N   0  0  0  0  0  0
  -31.7376  -14.8691   20.1088 O   0  0  0  0  0  0
  -21.6633   -6.8865   21.4234 O   0  0  0  0  0  0
  -22.3493  -14.5498   20.6680 O   0  0  0  0  0  0
  -24.6239  -31.8606   23.2024 C   0  0  0  0  0  0
  -25.9056  -32.4797   23.8361 C   0  0  1  0  0  0
  -27.2255  -27.3242   20.1175 C   0  0  0  0  0  0
  -25.5872  -33.8605   24.2278 N   0  0  0  0  0  0
  -23.4193  -30.4830   21.5457 C   0  0  2  0  0  0
  -24.8667  -28.9413   20.1078 C   0  0  0  0  0  0
  -22.7469  -29.4609   22.4929 C   0  0  0  0  0  0
  -18.0289  -28.1426   22.8493 C   0  0  0  0  0  0
  -24.1474  -36.7293   23.2651 C   0  0  0  0  0  0
  -25.9596  -30.7932   21.3736 C   0  0  0  0  0  0
  -26.0335  -29.4213   20.7141 C   0  0  0  0  0  0
  -27.2157  -28.6244   20.7084 C   0  0  0  0  0  0
  -26.0392  -26.9016   19.4742 C   0  0  0  0  0  0
  -24.8702  -27.6872   19.4789 C   0  0  0  0  0  0
  -23.6338  -29.8207   20.1587 C   0  0  0  0  0  0
  -25.4108  -36.3107   24.0340 C   0  0  1  0  0  0
  -20.5892  -28.3692   23.1302 C   0  0  2  0  0  0
  -20.6777  -26.9406   22.5430 C   0  0  0  0  0  0
  -19.5748  -26.6407   21.5231 C   0  0  0  0  0  0
  -18.1924  -26.7977   22.1630 C   0  0  0  0  0  0
  -19.1545  -28.8871   23.2897 C   0  0  0  0  0  0
  -18.9475  -30.1489   23.8906 C   0  0  0  0  0  0
  -17.6473  -30.6621   24.0582 C   0  0  0  0  0  0
  -25.9035  -34.9472   23.5116 C   0  0  0  0  0  0
  -16.5361  -29.9131   23.6354 C   0  0  0  0  0  0
  -16.7274  -28.6560   23.0345 C   0  0  0  0  0  0
  -26.4448  -31.6619   25.0735 C   0  0  0  0  0  0
  -25.3683  -31.3775   26.1464 C   0  0  0  0  0  0
  -27.0262  -30.3047   24.6165 C   0  0  0  0  0  0
  -27.5996  -32.4370   25.7511 C   0  0  0  0  0  0
  -27.5581  -37.1810   24.8472 C   0  0  0  0  0  0
  -21.4183  -29.3050   22.3686 N   0  0  0  0  0  0
  -26.4288  -37.3799   23.9413 N   0  0  0  0  0  0
  -24.6856  -31.0617   22.0973 N   0  0  0  0  0  0
  -23.4184  -28.8126   23.2993 O   0  0  0  0  0  0
  -28.3543  -26.4929   20.1926 O   0  0  0  0  0  0
  -26.5607  -34.8937   22.4692 O   0  0  0  0  0  0
  -23.5403  -32.1396   23.7372 O   0  0  0  0  0  0
  -28.2023  -19.0671   21.2313 C   0  0  0  0  0  0
  -30.6833  -18.0339   20.4524 C   0  0  0  0  0  0
  -29.2107  -20.0136   20.9146 C   0  0  0  0  0  0
  -29.6767  -17.1035   20.8468 C   0  0  0  0  0  0
  -28.4327  -17.6692   21.2116 C   0  0  0  0  0  0
  -30.4573  -19.4564   20.4901 C   0  0  0  0  0  0
  -28.9280  -21.4789   21.2107 C   0  0  0  0  0  0
  -31.4029  -24.5993   19.6916 C   0  0  0  0  0  0
  -31.3615  -23.9546   22.1397 C   0  0  0  0  0  0
  -28.2351  -25.0322   19.9659 C   0  0  0  0  0  0
  -30.5901  -24.6349   20.9952 C   0  0  0  0  0  0
  -29.1533  -24.0746   20.8476 C   0  0  2  0  0  0
  -28.3002  -21.7197   22.3638 N   0  0  0  0  0  0
  -29.7549  -15.6451   20.9624 N   0  0  0  0  0  0
  -29.2188  -22.5932   20.4600 N   0  3  0  0  0  0
  -27.4333  -16.8369   21.5844 F   0  0  0  0  0  0
  -31.4762  -20.2870   20.1601 F   0  0  0  0  0  0
  -31.4892  -12.5572   19.1537 H   0  0  0  0  0  0
  -30.4009  -11.4091   19.8851 H   0  0  0  0  0  0
  -29.7823  -11.7784   17.4799 H   0  0  0  0  0  0
  -29.6552  -13.4971   17.7526 H   0  0  0  0  0  0
  -27.8639  -11.3060   18.8489 H   0  0  0  0  0  0
  -27.3836  -12.6111   17.7957 H   0  0  0  0  0  0
  -27.6760  -14.2581   19.5506 H   0  0  0  0  0  0
  -28.7187  -12.0151   21.3521 H   0  0  0  0  0  0
  -28.4381  -13.6462   21.8739 H   0  0  0  0  0  0
  -25.2761   -9.5656   22.4750 H   0  0  0  0  0  0
  -23.9988   -7.4617   22.7474 H   0  0  0  0  0  0
  -21.0839   -8.8752   19.8943 H   0  0  0  0  0  0
  -22.3708  -10.9639   19.6140 H   0  0  0  0  0  0
  -21.2016   -7.6146   23.9709 H   0  0  0  0  0  0
  -21.1482   -6.0519   25.9075 H   0  0  0  0  0  0
  -22.0600   -2.7602   23.2838 H   0  0  0  0  0  0
  -22.4124  -11.9854   22.4772 H   0  0  0  0  0  0
  -21.1096  -13.1188   22.2611 H   0  0  0  0  0  0
  -24.6568  -15.8335   20.5850 H   0  0  0  0  0  0
  -26.3031  -15.6509   20.2747 H   0  0  0  0  0  0
  -26.7118  -32.5458   23.1104 H   0  0  0  0  0  0
  -24.9985  -33.9762   25.0398 H   0  0  0  0  0  0
  -22.7162  -31.3063   21.4045 H   0  0  0  0  0  0
  -23.3753  -35.9606   23.3328 H   0  0  0  0  0  0
  -24.3564  -36.8893   22.2061 H   0  0  0  0  0  0
  -23.7191  -37.6494   23.6649 H   0  0  0  0  0  0
  -26.0918  -31.5581   20.6079 H   0  0  0  0  0  0
  -26.8413  -30.8386   22.0011 H   0  0  0  0  0  0
  -28.1106  -28.9892   21.1943 H   0  0  0  0  0  0
  -25.9848  -25.9513   18.9657 H   0  0  0  0  0  0
  -23.9756  -27.3162   18.9976 H   0  0  0  0  0  0
  -23.7568  -30.6018   19.4072 H   0  0  0  0  0  0
  -22.7545  -29.2529   19.8499 H   0  0  0  0  0  0
  -25.1290  -36.1975   25.0831 H   0  0  0  0  0  0
  -20.9986  -28.3265   24.1420 H   0  0  0  0  0  0
  -20.5690  -26.2277   23.3621 H   0  0  0  0  0  0
  -21.6642  -26.7465   22.1201 H   0  0  0  0  0  0
  -19.6884  -25.6314   21.1249 H   0  0  0  0  0  0
  -19.6709  -27.3246   20.6784 H   0  0  0  0  0  0
  -17.4195  -26.6738   21.4031 H   0  0  0  0  0  0
  -18.0305  -26.0149   22.9054 H   0  0  0  0  0  0
  -19.7945  -30.7317   24.2258 H   0  0  0  0  0  0
  -17.5035  -31.6300   24.5196 H   0  0  0  0  0  0
  -15.5367  -30.3034   23.7704 H   0  0  0  0  0  0
  -15.8675  -28.0910   22.7023 H   0  0  0  0  0  0
  -24.5856  -30.7114   25.7829 H   0  0  0  0  0  0
  -24.8867  -32.2944   26.4875 H   0  0  0  0  0  0
  -25.8012  -30.8993   27.0251 H   0  0  0  0  0  0
  -26.2825  -29.6854   24.1142 H   0  0  0  0  0  0
  -27.3914  -29.7254   25.4646 H   0  0  0  0  0  0
  -27.8710  -30.4354   23.9401 H   0  0  0  0  0  0
  -27.2578  -33.3677   26.2061 H   0  0  0  0  0  0
  -28.3809  -32.6928   25.0341 H   0  0  0  0  0  0
  -28.0630  -31.8505   26.5453 H   0  0  0  0  0  0
  -28.2615  -38.0103   24.7534 H   0  0  0  0  0  0
  -28.1055  -36.2628   24.6277 H   0  0  0  0  0  0
  -27.2293  -37.1450   25.8879 H   0  0  0  0  0  0
  -20.9341  -29.8789   21.6921 H   0  0  0  0  0  0
  -26.0175  -38.2872   24.1444 H   0  0  0  0  0  0
  -27.2311  -19.4143   21.5513 H   0  0  0  0  0  0
  -31.6553  -17.6706   20.1561 H   0  0  0  0  0  0
  -32.3431  -25.1374   19.8151 H   0  0  0  0  0  0
  -30.8694  -25.0752   18.8694 H   0  0  0  0  0  0
  -31.6511  -23.5823   19.3913 H   0  0  0  0  0  0
  -32.3678  -24.3624   22.2330 H   0  0  0  0  0  0
  -31.4628  -22.8814   21.9846 H   0  0  0  0  0  0
  -30.8550  -24.1010   23.0956 H   0  0  0  0  0  0
  -27.2193  -24.6997   20.1762 H   0  0  0  0  0  0
  -28.4044  -24.8350   18.9075 H   0  0  0  0  0  0
  -30.4935  -25.6848   21.2754 H   0  0  0  0  0  0
  -28.7178  -24.1420   21.8447 H   0  0  0  0  0  0
  -28.1289  -20.9577   23.0030 H   0  0  0  0  0  0
  -27.9254  -22.6223   22.5961 H   0  0  0  0  0  0
  -28.8972  -15.2592   21.3286 H   0  0  0  0  0  0
  -29.6511  -22.4096   19.5632 H   0  0  0  0  0  0
  1 25  1  0  0  0
  1 30  2  0  0  0
  1 84  1  0  0  0
  2  3  1  0  0  0
  2 25  1  0  0  0
  2 88  1  0  0  0
  2 89  1  0  0  0
  3  4  1  0  0  0
  3 90  1  0  0  0
  3 91  1  0  0  0
  4  5  1  0  0  0
  4 92  1  0  0  0
  4 93  1  0  0  0
  5  6  1  0  0  0
  5 26  1  0  0  0
  5 94  1  0  0  0
  6 25  1  0  0  0
  6 95  1  0  0  0
  6 96  1  0  0  0
  7  8  2  0  0  0
  7 26  1  0  0  0
  7 29  1  0  0  0
  8  9  1  0  0  0
  8 22  1  0  0  0
  9 10  1  0  0  0
  9 27  2  0  0  0
 10 11  2  0  0  0
 10 15  1  0  0  0
 11 12  1  0  0  0
 11 97  1  0  0  0
 12 13  2  0  0  0
 12 98  1  0  0  0
 13 14  1  0  0  0
 13 31  1  0  0  0
 14 15  2  0  0  0
 14 99  1  0  0  0
 15100  1  0  0  0
 16 17  2  0  0  0
 16 21  1  0  0  0
 16 31  1  0  0  0
 17 18  1  0  0  0
 17101  1  0  0  0
 18 19  2  0  0  0
 18102  1  0  0  0
 19 20  1  0  0  0
 19 24  1  0  0  0
 20 21  2  0  0  0
 20103  1  0  0  0
 21 23  1  0  0  0
 22 28  1  0  0  0
 22 32  2  0  0  0
 26 27  1  0  0  0
 28104  1  0  0  0
 28105  1  0  0  0
 29106  1  0  0  0
 29107  1  0  0  0
 33 34  1  0  0  0
 33 66  1  0  0  0
 33 70  2  0  0  0
 34 36  1  0  0  0
 34 59  1  0  0  0
 34108  1  0  0  0
 35 44  2  0  0  0
 35 45  1  0  0  0
 35 68  1  0  0  0
 36 56  1  0  0  0
 36109  1  0  0  0
 37 39  1  0  0  0
 37 47  1  0  0  0
 37 66  1  0  0  0
 37110  1  0  0  0
 38 43  2  0  0  0
 38 46  1  0  0  0
 38 47  1  0  0  0
 39 64  1  0  0  0
 39 67  2  0  0  0
 40 52  1  0  0  0
 40 53  2  0  0  0
 40 58  1  0  0  0
 41111  1  0  0  0
 41112  1  0  0  0
 41113  1  0  0  0
 41 48  1  0  0  0
 42 43  1  0  0  0
 42 66  1  0  0  0
 42114  1  0  0  0
 42115  1  0  0  0
 43 44  1  0  0  0
 44116  1  0  0  0
 45 46  2  0  0  0
 45117  1  0  0  0
 46118  1  0  0  0
 47119  1  0  0  0
 47120  1  0  0  0
 48 56  1  0  0  0
 48 65  1  0  0  0
 48121  1  0  0  0
 49 50  1  0  0  0
 49 53  1  0  0  0
 49 64  1  0  0  0
 49122  1  0  0  0
 50 51  1  0  0  0
 50123  1  0  0  0
 50124  1  0  0  0
 51 52  1  0  0  0
 51125  1  0  0  0
 51126  1  0  0  0
 52127  1  0  0  0
 52128  1  0  0  0
 53 54  1  0  0  0
 54 55  2  0  0  0
 54129  1  0  0  0
 55 57  1  0  0  0
 55130  1  0  0  0
 56 69  2  0  0  0
 57 58  2  0  0  0
 57131  1  0  0  0
 58132  1  0  0  0
 59 60  1  0  0  0
 59 61  1  0  0  0
 59 62  1  0  0  0
 60133  1  0  0  0
 60134  1  0  0  0
 60135  1  0  0  0
 61136  1  0  0  0
 61137  1  0  0  0
 61138  1  0  0  0
 62139  1  0  0  0
 62140  1  0  0  0
 62141  1  0  0  0
 63 65  1  0  0  0
 63142  1  0  0  0
 63143  1  0  0  0
 63144  1  0  0  0
 64145  1  0  0  0
 65146  1  0  0  0
 68 80  1  0  0  0
 71 73  2  0  0  0
 71 75  1  0  0  0
 71147  1  0  0  0
 72 74  1  0  0  0
 72 76  2  0  0  0
 72148  1  0  0  0
 73 76  1  0  0  0
 73 77  1  0  0  0
 74 75  2  0  0  0
 74 84  1  0  0  0
 75 86  1  0  0  0
 76 87  1  0  0  0
 77 83  1  0  0  0
 77 85  2  0  0  0
 78149  1  0  0  0
 78150  1  0  0  0
 78151  1  0  0  0
 78 81  1  0  0  0
 79 81  1  0  0  0
 79152  1  0  0  0
 79153  1  0  0  0
 79154  1  0  0  0
 80155  1  0  0  0
 80156  1  0  0  0
 80 82  1  0  0  0
 81 82  1  0  0  0
 81157  1  0  0  0
 82 85  1  0  0  0
 82158  1  0  0  0
 83159  1  0  0  0
 83160  1  0  0  0
 84161  1  0  0  0
 85162  1  0  0  0
M  CHG  1  85   1
M  ISO  4   1 100  68 101  80 101  84 100
M  END
> <chiral flag>
0

> <version>
0

> <s_m_source_file>
/data/baiqing/PycharmProjects/Reinvent-master-3.2/result/LINK_invent/BTK/process_docking_weight1_custom_product_contain_oxygen_bond_distance_aromatic_linkinvent_7_9_3/rearranged_h_0049.sdf

> <i_m_source_file_index>
40

> <r_mmod_Potential_Energy-OPLS-2005>
-203.693542480469

> <r_mmod_Stretch_Energy-OPLS-2005>
81.9252777099609

> <r_mmod_Bend_Energy-OPLS-2005>
164.996551513672

> <r_mmod_Torsional_Energy-OPLS-2005>
235.821228027344

> <r_mmod_Improper_Torsional_Energy-OPLS-2005>
4.71383714675903

> <r_mmod_Van_der_Waal_Energy-OPLS-2005>
146.951690673828

> <r_mmod_Electrostatic_Energy-OPLS-2005>
-470.762634277344

> <r_mmod_Solvation_Energy-OPLS-2005>
-418.710418701172

> <b_mmod_Minimization_Converged-OPLS-2005>
0

> <r_mmod_RMS_Derivative-OPLS-2005>
2.71063947677612

$$$$
40
                    3D
 Structure written by MMmdl.
151159  0  0  1  0            999 V2000
  -30.5201  -14.8914   20.4491 C   0  0  0  0  0  0
  -30.4598  -12.5495   19.4923 C   0  0  0  0  0  0
  -29.5288  -12.5280   18.2551 C   0  0  0  0  0  0
  -28.0591  -12.3176   18.6698 C   0  0  0  0  0  0
  -27.6420  -13.2322   19.8495 C   0  0  2  0  0  0
  -28.6865  -13.2012   20.9890 C   0  0  0  0  0  0
  -25.2514  -13.8179   20.5682 C   0  0  0  0  0  0
  -24.1811  -13.0443   20.9234 C   0  0  0  0  0  0
  -24.6403  -11.6915   20.8759 C   0  0  0  0  0  0
  -23.9063  -10.4307   21.0420 C   0  0  0  0  0  0
  -24.3608   -9.4217   21.9188 C   0  0  0  0  0  0
  -23.6279   -8.2248   22.0769 C   0  0  0  0  0  0
  -22.4265   -8.0280   21.3553 C   0  0  0  0  0  0
  -21.9895   -9.0265   20.4667 C   0  0  0  0  0  0
  -22.7232  -10.2143   20.3072 C   0  0  0  0  0  0
  -21.6848   -6.0724   22.5276 C   0  0  0  0  0  0
  -21.4017   -6.5630   23.8205 C   0  0  0  0  0  0
  -21.3665   -5.6785   24.9171 C   0  0  0  0  0  0
  -21.6031   -4.3047   24.7218 C   0  0  0  0  0  0
  -21.8824   -3.8143   23.4337 C   0  0  0  0  0  0
  -21.9196   -4.6957   22.3394 C   0  0  0  0  0  0
  -22.7824  -13.5241   21.1853 C   0  0  0  0  0  0
  -22.1662   -4.2144   21.0972 F   0  0  0  0  0  0
  -21.5626   -3.4536   25.7736 F   0  0  0  0  0  0
  -29.9744  -13.6131   20.4112 N   0  0  0  0  0  0
  -26.2940  -12.9377   20.3260 N   0  0  0  0  0  0
  -25.9336  -11.6522   20.5737 N   0  0  0  0  0  0
  -22.0447  -12.8270   22.0421 N   0  0  0  0  0  0
  -25.4213  -15.1889   20.4012 N   0  0  0  0  0  0
  -31.7033  -15.0413   20.1287 O   0  0  0  0  0  0
  -21.6635   -6.8868   21.4241 O   0  0  0  0  0  0
  -22.3532  -14.5543   20.6686 O   0  0  0  0  0  0
  -24.6414  -31.8472   23.1928 C   0  0  0  0  0  0
  -25.9195  -32.4715   23.8306 C   0  0  1  0  0  0
  -27.2172  -27.1629   20.1526 C   0  0  0  0  0  0
  -25.5952  -33.8521   24.2226 N   0  0  0  0  0  0
  -23.4436  -30.4696   21.5367 C   0  0  2  0  0  0
  -24.8951  -28.9034   20.1118 C   0  0  0  0  0  0
  -22.7561  -29.4567   22.4870 C   0  0  0  0  0  0
  -18.0301  -28.1390   22.8484 C   0  0  0  0  0  0
  -24.1495  -36.7272   23.2639 C   0  0  0  0  0  0
  -26.0001  -30.7301   21.3902 C   0  0  0  0  0  0
  -26.0709  -29.3432   20.7325 C   0  0  0  0  0  0
  -27.2340  -28.4871   20.7406 C   0  0  0  0  0  0
  -26.0202  -26.8314   19.4767 C   0  0  0  0  0  0
  -24.8816  -27.6607   19.4675 C   0  0  0  0  0  0
  -23.6702  -29.8014   20.1563 C   0  0  0  0  0  0
  -25.4118  -36.3051   24.0323 C   0  0  1  0  0  0
  -20.5922  -28.3716   23.1238 C   0  0  2  0  0  0
  -20.6791  -26.9424   22.5398 C   0  0  0  0  0  0
  -19.5757  -26.6382   21.5214 C   0  0  0  0  0  0
  -18.1940  -26.7929   22.1633 C   0  0  0  0  0  0
  -19.1560  -28.8867   23.2854 C   0  0  0  0  0  0
  -18.9477  -30.1466   23.8877 C   0  0  0  0  0  0
  -17.6472  -30.6591   24.0552 C   0  0  0  0  0  0
  -25.9059  -34.9419   23.5071 C   0  0  0  0  0  0
  -16.5362  -29.9080   23.6338 C   0  0  0  0  0  0
  -16.7286  -28.6500   23.0357 C   0  0  0  0  0  0
  -26.4512  -31.6568   25.0731 C   0  0  0  0  0  0
  -25.3709  -31.3767   26.1442 C   0  0  0  0  0  0
  -27.0350  -30.2956   24.6299 C   0  0  0  0  0  0
  -27.6061  -32.4318   25.7504 C   0  0  0  0  0  0
  -27.5580  -37.1789   24.8463 C   0  0  0  0  0  0
  -21.4259  -29.3047   22.3625 N   0  0  0  0  0  0
  -26.4293  -37.3754   23.9405 N   0  0  0  0  0  0
  -24.7141  -31.0352   22.0954 N   0  0  0  0  0  0
  -23.4207  -28.8094   23.3001 O   0  0  0  0  0  0
  -28.2668  -26.1778   20.2080 O   0  0  0  0  0  0
  -26.5646  -34.8907   22.4658 O   0  0  0  0  0  0
  -23.5539  -32.1331   23.7147 O   0  0  0  0  0  0
  -30.5334  -18.5112   20.5185 C   0  0  0  0  0  0
  -28.2305  -18.0539   20.5121 C   0  0  0  0  0  0
  -28.9077  -20.5178   20.4456 C   0  0  0  0  0  0
  -30.2422  -19.9518   20.4670 C   0  0  0  0  0  0
  -29.5328  -17.4770   20.5544 C   0  0  0  0  0  0
  -27.9265  -19.4597   20.4505 C   0  0  0  0  0  0
  -28.4105  -22.0467   20.4327 C   0  0  0  0  0  0
  -28.8533  -23.3862   20.3892 C   0  0  0  0  0  0
  -31.4179  -20.9078   20.4540 C   0  0  0  0  0  0
  -27.8798  -24.6990   20.4416 C   0  0  0  0  0  0
  -29.6352  -15.9602   20.6938 N   0  0  0  0  0  0
  -26.2369  -19.8350   20.3869 Cl  0  0  0  0  0  0
  -31.4906  -12.7270   19.1798 H   0  0  0  0  0  0
  -30.4628  -11.5821   19.9962 H   0  0  0  0  0  0
  -29.8396  -11.7437   17.5636 H   0  0  0  0  0  0
  -29.6240  -13.4687   17.7105 H   0  0  0  0  0  0
  -27.9458  -11.2730   18.9612 H   0  0  0  0  0  0
  -27.3988  -12.4687   17.8163 H   0  0  0  0  0  0
  -27.6249  -14.2448   19.4454 H   0  0  0  0  0  0
  -28.7572  -12.2048   21.4278 H   0  0  0  0  0  0
  -28.3898  -13.8672   21.8026 H   0  0  0  0  0  0
  -25.2744   -9.5685   22.4774 H   0  0  0  0  0  0
  -23.9987   -7.4633   22.7485 H   0  0  0  0  0  0
  -21.0821   -8.8787   19.8965 H   0  0  0  0  0  0
  -22.3680  -10.9691   19.6187 H   0  0  0  0  0  0
  -21.2017   -7.6146   23.9705 H   0  0  0  0  0  0
  -21.1476   -6.0520   25.9068 H   0  0  0  0  0  0
  -22.0598   -2.7616   23.2841 H   0  0  0  0  0  0
  -22.4029  -11.9945   22.4848 H   0  0  0  0  0  0
  -21.1067  -13.1346   22.2593 H   0  0  0  0  0  0
  -24.6416  -15.8316   20.4777 H   0  0  0  0  0  0
  -26.2266  -15.5950   19.9433 H   0  0  0  0  0  0
  -26.7265  -32.5330   23.1045 H   0  0  0  0  0  0
  -25.0072  -33.9640   25.0354 H   0  0  0  0  0  0
  -22.7445  -31.2947   21.3852 H   0  0  0  0  0  0
  -23.3757  -35.9603   23.3287 H   0  0  0  0  0  0
  -24.3587  -36.8913   22.2056 H   0  0  0  0  0  0
  -23.7246  -37.6467   23.6674 H   0  0  0  0  0  0
  -26.1522  -31.4827   20.6148 H   0  0  0  0  0  0
  -26.8723  -30.7801   22.0309 H   0  0  0  0  0  0
  -28.1278  -28.8169   21.2503 H   0  0  0  0  0  0
  -25.9269  -25.9015   18.9411 H   0  0  0  0  0  0
  -23.9877  -27.3245   18.9583 H   0  0  0  0  0  0
  -23.8035  -30.5750   19.4010 H   0  0  0  0  0  0
  -22.7869  -29.2428   19.8463 H   0  0  0  0  0  0
  -25.1300  -36.1889   25.0814 H   0  0  0  0  0  0
  -21.0007  -28.3302   24.1360 H   0  0  0  0  0  0
  -20.5697  -26.2328   23.3610 H   0  0  0  0  0  0
  -21.6654  -26.7436   22.1188 H   0  0  0  0  0  0
  -19.6915  -25.6286   21.1259 H   0  0  0  0  0  0
  -19.6687  -27.3178   20.6730 H   0  0  0  0  0  0
  -17.4207  -26.6674   21.4039 H   0  0  0  0  0  0
  -18.0343  -26.0074   22.9034 H   0  0  0  0  0  0
  -19.7947  -30.7299   24.2237 H   0  0  0  0  0  0
  -17.5016  -31.6267   24.5157 H   0  0  0  0  0  0
  -15.5357  -30.2971   23.7656 H   0  0  0  0  0  0
  -15.8696  -28.0801   22.7089 H   0  0  0  0  0  0
  -24.5859  -30.7147   25.7770 H   0  0  0  0  0  0
  -24.8928  -32.2955   26.4850 H   0  0  0  0  0  0
  -25.7990  -30.8943   27.0236 H   0  0  0  0  0  0
  -26.2947  -29.6706   24.1294 H   0  0  0  0  0  0
  -27.3937  -29.7238   25.4866 H   0  0  0  0  0  0
  -27.8876  -30.4180   23.9619 H   0  0  0  0  0  0
  -27.2670  -33.3635   26.2045 H   0  0  0  0  0  0
  -28.3881  -32.6852   25.0336 H   0  0  0  0  0  0
  -28.0715  -31.8469   26.5447 H   0  0  0  0  0  0
  -28.2591  -38.0092   24.7510 H   0  0  0  0  0  0
  -28.1084  -36.2623   24.6284 H   0  0  0  0  0  0
  -27.2303  -37.1433   25.8869 H   0  0  0  0  0  0
  -20.9469  -29.8775   21.6830 H   0  0  0  0  0  0
  -26.0167  -38.2830   24.1395 H   0  0  0  0  0  0
  -31.5673  -18.1988   20.5573 H   0  0  0  0  0  0
  -27.3839  -17.3861   20.5287 H   0  0  0  0  0  0
  -27.3367  -22.0841   20.5005 H   0  0  0  0  0  0
  -29.9121  -23.5869   20.3381 H   0  0  0  0  0  0
  -32.3550  -20.3896   20.2462 H   0  0  0  0  0  0
  -31.5105  -21.4021   21.4210 H   0  0  0  0  0  0
  -31.2871  -21.6707   19.6869 H   0  0  0  0  0  0
  -27.4402  -24.6798   21.4409 H   0  0  0  0  0  0
  -27.0624  -24.4223   19.7818 H   0  0  0  0  0  0
  -28.7469  -15.5588   20.9482 H   0  0  0  0  0  0
  1 25  1  0  0  0
  1 30  2  0  0  0
  1 81  1  0  0  0
  2  3  1  0  0  0
  2 25  1  0  0  0
  2 83  1  0  0  0
  2 84  1  0  0  0
  3  4  1  0  0  0
  3 85  1  0  0  0
  3 86  1  0  0  0
  4  5  1  0  0  0
  4 87  1  0  0  0
  4 88  1  0  0  0
  5  6  1  0  0  0
  5 26  1  0  0  0
  5 89  1  0  0  0
  6 25  1  0  0  0
  6 90  1  0  0  0
  6 91  1  0  0  0
  7  8  2  0  0  0
  7 26  1  0  0  0
  7 29  1  0  0  0
  8  9  1  0  0  0
  8 22  1  0  0  0
  9 10  1  0  0  0
  9 27  2  0  0  0
 10 11  2  0  0  0
 10 15  1  0  0  0
 11 12  1  0  0  0
 11 92  1  0  0  0
 12 13  2  0  0  0
 12 93  1  0  0  0
 13 14  1  0  0  0
 13 31  1  0  0  0
 14 15  2  0  0  0
 14 94  1  0  0  0
 15 95  1  0  0  0
 16 17  2  0  0  0
 16 21  1  0  0  0
 16 31  1  0  0  0
 17 18  1  0  0  0
 17 96  1  0  0  0
 18 19  2  0  0  0
 18 97  1  0  0  0
 19 20  1  0  0  0
 19 24  1  0  0  0
 20 21  2  0  0  0
 20 98  1  0  0  0
 21 23  1  0  0  0
 22 28  1  0  0  0
 22 32  2  0  0  0
 26 27  1  0  0  0
 28 99  1  0  0  0
 28100  1  0  0  0
 29101  1  0  0  0
 29102  1  0  0  0
 33 34  1  0  0  0
 33 66  1  0  0  0
 33 70  2  0  0  0
 34 36  1  0  0  0
 34 59  1  0  0  0
 34103  1  0  0  0
 35 44  2  0  0  0
 35 45  1  0  0  0
 35 68  1  0  0  0
 36 56  1  0  0  0
 36104  1  0  0  0
 37 39  1  0  0  0
 37 47  1  0  0  0
 37 66  1  0  0  0
 37105  1  0  0  0
 38 43  2  0  0  0
 38 46  1  0  0  0
 38 47  1  0  0  0
 39 64  1  0  0  0
 39 67  2  0  0  0
 40 52  1  0  0  0
 40 53  2  0  0  0
 40 58  1  0  0  0
 41106  1  0  0  0
 41107  1  0  0  0
 41108  1  0  0  0
 41 48  1  0  0  0
 42 43  1  0  0  0
 42 66  1  0  0  0
 42109  1  0  0  0
 42110  1  0  0  0
 43 44  1  0  0  0
 44111  1  0  0  0
 45 46  2  0  0  0
 45112  1  0  0  0
 46113  1  0  0  0
 47114  1  0  0  0
 47115  1  0  0  0
 48 56  1  0  0  0
 48 65  1  0  0  0
 48116  1  0  0  0
 49 50  1  0  0  0
 49 53  1  0  0  0
 49 64  1  0  0  0
 49117  1  0  0  0
 50 51  1  0  0  0
 50118  1  0  0  0
 50119  1  0  0  0
 51 52  1  0  0  0
 51120  1  0  0  0
 51121  1  0  0  0
 52122  1  0  0  0
 52123  1  0  0  0
 53 54  1  0  0  0
 54 55  2  0  0  0
 54124  1  0  0  0
 55 57  1  0  0  0
 55125  1  0  0  0
 56 69  2  0  0  0
 57 58  2  0  0  0
 57126  1  0  0  0
 58127  1  0  0  0
 59 60  1  0  0  0
 59 61  1  0  0  0
 59 62  1  0  0  0
 60128  1  0  0  0
 60129  1  0  0  0
 60130  1  0  0  0
 61131  1  0  0  0
 61132  1  0  0  0
 61133  1  0  0  0
 62134  1  0  0  0
 62135  1  0  0  0
 62136  1  0  0  0
 63 65  1  0  0  0
 63137  1  0  0  0
 63138  1  0  0  0
 63139  1  0  0  0
 64140  1  0  0  0
 65141  1  0  0  0
 68 80  1  0  0  0
 71 74  2  0  0  0
 71 75  1  0  0  0
 71142  1  0  0  0
 72 75  2  0  0  0
 72 76  1  0  0  0
 72143  1  0  0  0
 73 74  1  0  0  0
 73 76  2  0  0  0
 73 77  1  0  0  0
 74 79  1  0  0  0
 75 81  1  0  0  0
 76 82  1  0  0  0
 77 78  2  0  0  0
 77144  1  0  0  0
 78 80  1  0  0  0
 78145  1  0  0  0
 79146  1  0  0  0
 79147  1  0  0  0
 79148  1  0  0  0
 80149  1  0  0  0
 80150  1  0  0  0
 81151  1  0  0  0
M  ISO  4   1 100  68 101  80 101  81 100
M  END
> <chiral flag>
0

> <version>
0

> <s_m_source_file>
/data/baiqing/PycharmProjects/Reinvent-master-3.2/result/LINK_invent/BTK/process_docking_weight1_custom_product_contain_oxygen_bond_distance_aromatic_linkinvent_7_9_3/rearranged_h_0049.sdf

> <i_m_source_file_index>
41

> <r_mmod_Potential_Energy-OPLS-2005>
464.424713134766

> <r_mmod_Stretch_Energy-OPLS-2005>
204.335861206055

> <r_mmod_Bend_Energy-OPLS-2005>
268.906036376953

> <r_mmod_Torsional_Energy-OPLS-2005>
228.453186035156

> <r_mmod_Improper_Torsional_Energy-OPLS-2005>
4.86850690841675

> <r_mmod_Van_der_Waal_Energy-OPLS-2005>
138.256454467773

> <r_mmod_Electrostatic_Energy-OPLS-2005>
-340.732574462891

> <r_mmod_Solvation_Energy-OPLS-2005>
-203.930603027344

> <b_mmod_Minimization_Converged-OPLS-2005>
0

> <r_mmod_RMS_Derivative-OPLS-2005>
3.0548107624054

$$$$
41
                    3D
 Structure written by MMmdl.
157165  0  0  1  0            999 V2000
  -30.6971  -14.4667   20.6145 C   0  0  0  0  0  0
  -30.4377  -12.3200   19.4146 C   0  0  0  0  0  0
  -29.4975  -12.5085   18.2049 C   0  0  0  0  0  0
  -28.0195  -12.3674   18.6212 C   0  0  0  0  0  0
  -27.6702  -13.1956   19.8842 C   0  0  2  0  0  0
  -28.7116  -12.9554   20.9993 C   0  0  0  0  0  0
  -25.2635  -13.8139   20.5664 C   0  0  0  0  0  0
  -24.1867  -13.0433   20.9188 C   0  0  0  0  0  0
  -24.6407  -11.6904   20.8756 C   0  0  0  0  0  0
  -23.9070  -10.4295   21.0425 C   0  0  0  0  0  0
  -24.3618   -9.4208   21.9193 C   0  0  0  0  0  0
  -23.6295   -8.2242   22.0747 C   0  0  0  0  0  0
  -22.4274   -8.0280   21.3544 C   0  0  0  0  0  0
  -21.9913   -9.0257   20.4644 C   0  0  0  0  0  0
  -22.7243  -10.2146   20.3068 C   0  0  0  0  0  0
  -21.6853   -6.0736   22.5282 C   0  0  0  0  0  0
  -21.4011   -6.5641   23.8208 C   0  0  0  0  0  0
  -21.3656   -5.6796   24.9171 C   0  0  0  0  0  0
  -21.6045   -4.3060   24.7229 C   0  0  0  0  0  0
  -21.8820   -3.8152   23.4351 C   0  0  0  0  0  0
  -21.9198   -4.6969   22.3403 C   0  0  0  0  0  0
  -22.7917  -13.5257   21.1849 C   0  0  0  0  0  0
  -22.1673   -4.2140   21.0990 F   0  0  0  0  0  0
  -21.5625   -3.4542   25.7750 F   0  0  0  0  0  0
  -30.0406  -13.2856   20.4495 N   0  0  0  0  0  0
  -26.3070  -12.9271   20.3416 N   0  0  0  0  0  0
  -25.9330  -11.6451   20.5801 N   0  0  0  0  0  0
  -22.0571  -12.8230   22.0419 N   0  0  0  0  0  0
  -25.4435  -15.1812   20.3951 N   0  0  0  0  0  0
  -31.8187  -14.6910   20.1489 O   0  0  0  0  0  0
  -21.6638   -6.8877   21.4244 O   0  0  0  0  0  0
  -22.3601  -14.5569   20.6722 O   0  0  0  0  0  0
  -24.6182  -31.8682   23.2086 C   0  0  0  0  0  0
  -25.9053  -32.4840   23.8396 C   0  0  1  0  0  0
  -27.2337  -27.3986   20.1007 C   0  0  0  0  0  0
  -25.5889  -33.8635   24.2351 N   0  0  0  0  0  0
  -23.4105  -30.4874   21.5558 C   0  0  2  0  0  0
  -24.8515  -28.9537   20.1139 C   0  0  0  0  0  0
  -22.7444  -29.4666   22.5049 C   0  0  0  0  0  0
  -18.0281  -28.1377   22.8629 C   0  0  0  0  0  0
  -24.1490  -36.7322   23.2636 C   0  0  0  0  0  0
  -25.9414  -30.8183   21.3650 C   0  0  0  0  0  0
  -26.0147  -29.4478   20.7188 C   0  0  0  0  0  0
  -27.2044  -28.6763   20.7159 C   0  0  0  0  0  0
  -26.0467  -26.9408   19.4732 C   0  0  0  0  0  0
  -24.8633  -27.6970   19.4911 C   0  0  0  0  0  0
  -23.6135  -29.8196   20.1712 C   0  0  0  0  0  0
  -25.4112  -36.3140   24.0346 C   0  0  1  0  0  0
  -20.5870  -28.3729   23.1401 C   0  0  2  0  0  0
  -20.6821  -26.9509   22.5380 C   0  0  0  0  0  0
  -19.5727  -26.6538   21.5236 C   0  0  0  0  0  0
  -18.1979  -26.7873   22.1880 C   0  0  0  0  0  0
  -19.1518  -28.8895   23.2966 C   0  0  0  0  0  0
  -18.9438  -30.1561   23.8861 C   0  0  0  0  0  0
  -17.6411  -30.6666   24.0527 C   0  0  0  0  0  0
  -25.9023  -34.9490   23.5152 C   0  0  0  0  0  0
  -16.5305  -29.9089   23.6395 C   0  0  0  0  0  0
  -16.7241  -28.6471   23.0481 C   0  0  0  0  0  0
  -26.4449  -31.6603   25.0730 C   0  0  0  0  0  0
  -25.3741  -31.3665   26.1500 C   0  0  0  0  0  0
  -27.0265  -30.3052   24.6071 C   0  0  0  0  0  0
  -27.6043  -32.4283   25.7497 C   0  0  0  0  0  0
  -27.5586  -37.1822   24.8473 C   0  0  0  0  0  0
  -21.4144  -29.3175   22.3900 N   0  0  0  0  0  0
  -26.4314  -37.3812   23.9401 N   0  0  0  0  0  0
  -24.6761  -31.0754   22.1006 N   0  0  0  0  0  0
  -23.4224  -28.8103   23.3001 O   0  0  0  0  0  0
  -28.3900  -26.6229   20.1419 O   0  0  0  0  0  0
  -26.5592  -34.8959   22.4723 O   0  0  0  0  0  0
  -23.5361  -32.1434   23.7467 O   0  0  0  0  0  0
  -30.4601  -19.4408   22.4403 C   0  0  0  0  0  0
  -30.8905  -18.3781   23.2583 C   0  0  0  0  0  0
  -29.9675  -19.2052   21.1342 C   0  0  0  0  0  0
  -29.9542  -17.8499   20.6517 C   0  0  0  0  0  0
  -30.2956  -16.7728   21.5200 C   0  0  0  0  0  0
  -30.7826  -17.0462   22.8180 C   0  0  0  0  0  0
  -29.3041  -20.3521   20.3803 C   0  0  0  0  0  0
  -29.5615  -17.5002   19.2179 C   0  0  0  0  0  0
  -29.3194  -24.2241   20.4095 C   0  0  0  0  0  0
  -28.8812  -22.7598   20.0949 C   0  0  0  0  0  0
  -28.2263  -25.2052   19.8916 C   0  0  0  0  0  0
  -29.9475  -15.4301   21.1791 N   0  0  0  0  0  0
  -29.6926  -21.6298   20.6039 N   0  0  0  0  0  0
  -28.3711  -20.1132   19.6090 O   0  0  0  0  0  0
  -31.1917  -15.7707   23.9129 Cl  0  0  0  0  0  0
  -31.4768  -12.4471   19.1110 H   0  0  0  0  0  0
  -30.3626  -11.3039   19.8056 H   0  0  0  0  0  0
  -29.7364  -11.7766   17.4320 H   0  0  0  0  0  0
  -29.6589  -13.4908   17.7594 H   0  0  0  0  0  0
  -27.8333  -11.3094   18.8095 H   0  0  0  0  0  0
  -27.3656  -12.6505   17.7962 H   0  0  0  0  0  0
  -27.7247  -14.2473   19.6031 H   0  0  0  0  0  0
  -28.6967  -11.9118   21.3170 H   0  0  0  0  0  0
  -28.4628  -13.5282   21.8937 H   0  0  0  0  0  0
  -25.2768   -9.5668   22.4741 H   0  0  0  0  0  0
  -24.0008   -7.4620   22.7441 H   0  0  0  0  0  0
  -21.0851   -8.8786   19.8921 H   0  0  0  0  0  0
  -22.3719  -10.9686   19.6157 H   0  0  0  0  0  0
  -21.2002   -7.6144   23.9716 H   0  0  0  0  0  0
  -21.1475   -6.0522   25.9070 H   0  0  0  0  0  0
  -22.0602   -2.7610   23.2864 H   0  0  0  0  0  0
  -22.4221  -11.9889   22.4767 H   0  0  0  0  0  0
  -21.1170  -13.1204   22.2624 H   0  0  0  0  0  0
  -24.6825  -15.8454   20.4780 H   0  0  0  0  0  0
  -26.2881  -15.5984   20.0236 H   0  0  0  0  0  0
  -26.7155  -32.5543   23.1188 H   0  0  0  0  0  0
  -25.0080  -33.9792   25.0521 H   0  0  0  0  0  0
  -22.7002  -31.3056   21.4194 H   0  0  0  0  0  0
  -23.3755  -35.9647   23.3327 H   0  0  0  0  0  0
  -24.3584  -36.8896   22.2037 H   0  0  0  0  0  0
  -23.7213  -37.6535   23.6625 H   0  0  0  0  0  0
  -26.0545  -31.5680   20.5830 H   0  0  0  0  0  0
  -26.8309  -30.8781   21.9784 H   0  0  0  0  0  0
  -28.0929  -29.0470   21.2071 H   0  0  0  0  0  0
  -26.0043  -25.9887   18.9669 H   0  0  0  0  0  0
  -23.9732  -27.3066   19.0207 H   0  0  0  0  0  0
  -23.7114  -30.5937   19.4082 H   0  0  0  0  0  0
  -22.7400  -29.2307   19.8885 H   0  0  0  0  0  0
  -25.1275  -36.2032   25.0833 H   0  0  0  0  0  0
  -20.9921  -28.3253   24.1546 H   0  0  0  0  0  0
  -20.5877  -26.2283   23.3521 H   0  0  0  0  0  0
  -21.6673  -26.7686   22.1085 H   0  0  0  0  0  0
  -19.6967  -25.6543   21.1062 H   0  0  0  0  0  0
  -19.6457  -27.3557   20.6897 H   0  0  0  0  0  0
  -17.4082  -26.6310   21.4506 H   0  0  0  0  0  0
  -18.0706  -26.0112   22.9460 H   0  0  0  0  0  0
  -19.7892  -30.7457   24.2202 H   0  0  0  0  0  0
  -17.4965  -31.6352   24.5108 H   0  0  0  0  0  0
  -15.5309  -30.2953   23.7762 H   0  0  0  0  0  0
  -15.8659  -28.0707   22.7277 H   0  0  0  0  0  0
  -24.5938  -30.6972   25.7867 H   0  0  0  0  0  0
  -24.8916  -32.2787   26.5010 H   0  0  0  0  0  0
  -25.8127  -30.8839   27.0235 H   0  0  0  0  0  0
  -26.2787  -29.6825   24.1153 H   0  0  0  0  0  0
  -27.4075  -29.7250   25.4476 H   0  0  0  0  0  0
  -27.8602  -30.4392   23.9177 H   0  0  0  0  0  0
  -27.2693  -33.3572   26.2116 H   0  0  0  0  0  0
  -28.3837  -32.6822   25.0308 H   0  0  0  0  0  0
  -28.0720  -31.8371   26.5385 H   0  0  0  0  0  0
  -28.2629  -38.0102   24.7530 H   0  0  0  0  0  0
  -28.1066  -36.2631   24.6312 H   0  0  0  0  0  0
  -27.2311  -37.1476   25.8885 H   0  0  0  0  0  0
  -20.9245  -29.9131   21.7372 H   0  0  0  0  0  0
  -26.0219  -38.2905   24.1389 H   0  0  0  0  0  0
  -30.4673  -20.4394   22.8547 H   0  0  0  0  0  0
  -31.2403  -18.5883   24.2587 H   0  0  0  0  0  0
  -28.5040  -17.2493   19.1506 H   0  0  0  0  0  0
  -30.1281  -16.6436   18.8539 H   0  0  0  0  0  0
  -29.7849  -18.3087   18.5216 H   0  0  0  0  0  0
  -30.2751  -24.4514   19.9323 H   0  0  0  0  0  0
  -29.4497  -24.3607   21.4829 H   0  0  0  0  0  0
  -28.7649  -22.6477   19.0145 H   0  0  0  0  0  0
  -27.8824  -22.6310   20.5135 H   0  0  0  0  0  0
  -27.2962  -24.8652   20.3537 H   0  0  0  0  0  0
  -28.1115  -25.0601   18.8161 H   0  0  0  0  0  0
  -29.0162  -15.1400   21.4309 H   0  0  0  0  0  0
  -30.4672  -21.8070   21.2287 H   0  0  0  0  0  0
  1 25  1  0  0  0
  1 30  2  0  0  0
  1 82  1  0  0  0
  2  3  1  0  0  0
  2 25  1  0  0  0
  2 86  1  0  0  0
  2 87  1  0  0  0
  3  4  1  0  0  0
  3 88  1  0  0  0
  3 89  1  0  0  0
  4  5  1  0  0  0
  4 90  1  0  0  0
  4 91  1  0  0  0
  5  6  1  0  0  0
  5 26  1  0  0  0
  5 92  1  0  0  0
  6 25  1  0  0  0
  6 93  1  0  0  0
  6 94  1  0  0  0
  7  8  2  0  0  0
  7 26  1  0  0  0
  7 29  1  0  0  0
  8  9  1  0  0  0
  8 22  1  0  0  0
  9 10  1  0  0  0
  9 27  2  0  0  0
 10 11  2  0  0  0
 10 15  1  0  0  0
 11 12  1  0  0  0
 11 95  1  0  0  0
 12 13  2  0  0  0
 12 96  1  0  0  0
 13 14  1  0  0  0
 13 31  1  0  0  0
 14 15  2  0  0  0
 14 97  1  0  0  0
 15 98  1  0  0  0
 16 17  2  0  0  0
 16 21  1  0  0  0
 16 31  1  0  0  0
 17 18  1  0  0  0
 17 99  1  0  0  0
 18 19  2  0  0  0
 18100  1  0  0  0
 19 20  1  0  0  0
 19 24  1  0  0  0
 20 21  2  0  0  0
 20101  1  0  0  0
 21 23  1  0  0  0
 22 28  1  0  0  0
 22 32  2  0  0  0
 26 27  1  0  0  0
 28102  1  0  0  0
 28103  1  0  0  0
 29104  1  0  0  0
 29105  1  0  0  0
 33 34  1  0  0  0
 33 66  1  0  0  0
 33 70  2  0  0  0
 34 36  1  0  0  0
 34 59  1  0  0  0
 34106  1  0  0  0
 35 44  2  0  0  0
 35 45  1  0  0  0
 35 68  1  0  0  0
 36 56  1  0  0  0
 36107  1  0  0  0
 37 39  1  0  0  0
 37 47  1  0  0  0
 37 66  1  0  0  0
 37108  1  0  0  0
 38 43  2  0  0  0
 38 46  1  0  0  0
 38 47  1  0  0  0
 39 64  1  0  0  0
 39 67  2  0  0  0
 40 52  1  0  0  0
 40 53  2  0  0  0
 40 58  1  0  0  0
 41109  1  0  0  0
 41110  1  0  0  0
 41111  1  0  0  0
 41 48  1  0  0  0
 42 43  1  0  0  0
 42 66  1  0  0  0
 42112  1  0  0  0
 42113  1  0  0  0
 43 44  1  0  0  0
 44114  1  0  0  0
 45 46  2  0  0  0
 45115  1  0  0  0
 46116  1  0  0  0
 47117  1  0  0  0
 47118  1  0  0  0
 48 56  1  0  0  0
 48 65  1  0  0  0
 48119  1  0  0  0
 49 50  1  0  0  0
 49 53  1  0  0  0
 49 64  1  0  0  0
 49120  1  0  0  0
 50 51  1  0  0  0
 50121  1  0  0  0
 50122  1  0  0  0
 51 52  1  0  0  0
 51123  1  0  0  0
 51124  1  0  0  0
 52125  1  0  0  0
 52126  1  0  0  0
 53 54  1  0  0  0
 54 55  2  0  0  0
 54127  1  0  0  0
 55 57  1  0  0  0
 55128  1  0  0  0
 56 69  2  0  0  0
 57 58  2  0  0  0
 57129  1  0  0  0
 58130  1  0  0  0
 59 60  1  0  0  0
 59 61  1  0  0  0
 59 62  1  0  0  0
 60131  1  0  0  0
 60132  1  0  0  0
 60133  1  0  0  0
 61134  1  0  0  0
 61135  1  0  0  0
 61136  1  0  0  0
 62137  1  0  0  0
 62138  1  0  0  0
 62139  1  0  0  0
 63 65  1  0  0  0
 63140  1  0  0  0
 63141  1  0  0  0
 63142  1  0  0  0
 64143  1  0  0  0
 65144  1  0  0  0
 68 81  1  0  0  0
 71 72  2  0  0  0
 71 73  1  0  0  0
 71145  1  0  0  0
 72 76  1  0  0  0
 72146  1  0  0  0
 73 74  2  0  0  0
 73 77  1  0  0  0
 74 75  1  0  0  0
 74 78  1  0  0  0
 75 76  2  0  0  0
 75 82  1  0  0  0
 76 85  1  0  0  0
 77 83  1  0  0  0
 77 84  2  0  0  0
 78147  1  0  0  0
 78148  1  0  0  0
 78149  1  0  0  0
 79 80  1  0  0  0
 79 81  1  0  0  0
 79150  1  0  0  0
 79151  1  0  0  0
 80 83  1  0  0  0
 80152  1  0  0  0
 80153  1  0  0  0
 81154  1  0  0  0
 81155  1  0  0  0
 82156  1  0  0  0
 83157  1  0  0  0
M  ISO  4   1 100  68 101  81 101  82 100
M  END
> <chiral flag>
0

> <version>
0

> <s_m_source_file>
/data/baiqing/PycharmProjects/Reinvent-master-3.2/result/LINK_invent/BTK/process_docking_weight1_custom_product_contain_oxygen_bond_distance_aromatic_linkinvent_7_9_3/rearranged_h_0049.sdf

> <i_m_source_file_index>
42

> <r_mmod_Potential_Energy-OPLS-2005>
-68.0027160644531

> <r_mmod_Stretch_Energy-OPLS-2005>
47.0204620361328

> <r_mmod_Bend_Energy-OPLS-2005>
111.225967407227

> <r_mmod_Torsional_Energy-OPLS-2005>
254.123626708984

> <r_mmod_Improper_Torsional_Energy-OPLS-2005>
6.25266313552856

> <r_mmod_Van_der_Waal_Energy-OPLS-2005>
167.897262573242

> <r_mmod_Electrostatic_Energy-OPLS-2005>
-444.294799804688

> <r_mmod_Solvation_Energy-OPLS-2005>
-226.496398925781

> <b_mmod_Minimization_Converged-OPLS-2005>
0

> <r_mmod_RMS_Derivative-OPLS-2005>
4.39300441741943

$$$$
42
                    3D
 Structure written by MMmdl.
156165  0  0  1  0            999 V2000
  -30.4898  -14.9285   20.4570 C   0  0  0  0  0  0
  -30.4576  -12.5762   19.5001 C   0  0  0  0  0  0
  -29.5340  -12.5438   18.2569 C   0  0  0  0  0  0
  -28.0573  -12.3382   18.6559 C   0  0  0  0  0  0
  -27.6357  -13.2396   19.8451 C   0  0  2  0  0  0
  -28.6752  -13.2065   20.9855 C   0  0  0  0  0  0
  -25.2446  -13.8178   20.5639 C   0  0  0  0  0  0
  -24.1767  -13.0418   20.9209 C   0  0  0  0  0  0
  -24.6380  -11.6900   20.8719 C   0  0  0  0  0  0
  -23.9060  -10.4274   21.0380 C   0  0  0  0  0  0
  -24.3617   -9.4196   21.9158 C   0  0  0  0  0  0
  -23.6285   -8.2237   22.0741 C   0  0  0  0  0  0
  -22.4263   -8.0265   21.3542 C   0  0  0  0  0  0
  -21.9903   -9.0233   20.4641 C   0  0  0  0  0  0
  -22.7232  -10.2107   20.3037 C   0  0  0  0  0  0
  -21.6849   -6.0717   22.5268 C   0  0  0  0  0  0
  -21.4019   -6.5629   23.8204 C   0  0  0  0  0  0
  -21.3659   -5.6780   24.9166 C   0  0  0  0  0  0
  -21.6048   -4.3046   24.7216 C   0  0  0  0  0  0
  -21.8823   -3.8133   23.4338 C   0  0  0  0  0  0
  -21.9190   -4.6947   22.3398 C   0  0  0  0  0  0
  -22.7791  -13.5189   21.1863 C   0  0  0  0  0  0
  -22.1658   -4.2130   21.0979 F   0  0  0  0  0  0
  -21.5626   -3.4535   25.7732 F   0  0  0  0  0  0
  -29.9574  -13.6405   20.4127 N   0  0  0  0  0  0
  -26.2880  -12.9400   20.3201 N   0  0  0  0  0  0
  -25.9311  -11.6537   20.5695 N   0  0  0  0  0  0
  -22.0445  -12.8189   22.0434 N   0  0  0  0  0  0
  -25.4089  -15.1900   20.3999 N   0  0  0  0  0  0
  -31.6796  -15.0738   20.1527 O   0  0  0  0  0  0
  -21.6638   -6.8859   21.4233 O   0  0  0  0  0  0
  -22.3465  -14.5475   20.6670 O   0  0  0  0  0  0
  -24.6426  -31.8477   23.1891 C   0  0  0  0  0  0
  -25.9191  -32.4716   23.8280 C   0  0  1  0  0  0
  -27.2047  -27.1266   20.1968 C   0  0  0  0  0  0
  -25.5949  -33.8527   24.2193 N   0  0  0  0  0  0
  -23.4464  -30.4618   21.5366 C   0  0  2  0  0  0
  -24.8982  -28.8867   20.1136 C   0  0  0  0  0  0
  -22.7559  -29.4550   22.4894 C   0  0  0  0  0  0
  -18.0276  -28.1421   22.8481 C   0  0  0  0  0  0
  -24.1469  -36.7272   23.2647 C   0  0  0  0  0  0
  -26.0004  -30.7154   21.3930 C   0  0  0  0  0  0
  -26.0713  -29.3240   20.7445 C   0  0  0  0  0  0
  -27.2278  -28.4574   20.7741 C   0  0  0  0  0  0
  -26.0218  -26.8009   19.4994 C   0  0  0  0  0  0
  -24.8874  -27.6382   19.4717 C   0  0  0  0  0  0
  -23.6750  -29.7901   20.1564 C   0  0  0  0  0  0
  -25.4116  -36.3073   24.0322 C   0  0  1  0  0  0
  -20.5883  -28.3754   23.1241 C   0  0  2  0  0  0
  -20.6749  -26.9445   22.5435 C   0  0  0  0  0  0
  -19.5739  -26.6389   21.5229 C   0  0  0  0  0  0
  -18.1916  -26.7948   22.1634 C   0  0  0  0  0  0
  -19.1529  -28.8898   23.2855 C   0  0  0  0  0  0
  -18.9466  -30.1485   23.8905 C   0  0  0  0  0  0
  -17.6466  -30.6626   24.0540 C   0  0  0  0  0  0
  -25.9072  -34.9446   23.5074 C   0  0  0  0  0  0
  -16.5346  -29.9119   23.6334 C   0  0  0  0  0  0
  -16.7266  -28.6522   23.0382 C   0  0  0  0  0  0
  -26.4502  -31.6576   25.0729 C   0  0  0  0  0  0
  -25.3684  -31.3788   26.1423 C   0  0  0  0  0  0
  -27.0351  -30.2951   24.6341 C   0  0  0  0  0  0
  -27.6023  -32.4340   25.7530 C   0  0  0  0  0  0
  -27.5573  -37.1792   24.8464 C   0  0  0  0  0  0
  -21.4247  -29.3084   22.3624 N   0  0  0  0  0  0
  -26.4284  -37.3779   23.9414 N   0  0  0  0  0  0
  -24.7160  -31.0287   22.0961 N   0  0  0  0  0  0
  -23.4188  -28.8109   23.3057 O   0  0  0  0  0  0
  -28.2295  -26.1122   20.2737 O   0  0  0  0  0  0
  -26.5676  -34.8954   22.4659 O   0  0  0  0  0  0
  -23.5538  -32.1349   23.7106 O   0  0  0  0  0  0
  -27.9023  -19.5455   20.4636 C   0  0  0  0  0  0
  -28.1919  -18.1292   20.4179 C   0  0  0  0  0  0
  -30.4757  -18.5706   20.7567 C   0  0  0  0  0  0
  -28.8652  -20.5910   20.6655 C   0  0  0  0  0  0
  -30.1866  -20.0148   20.8044 C   0  0  0  0  0  0
  -29.4842  -17.5357   20.5834 C   0  0  0  0  0  0
  -28.6814  -23.5271   20.4077 C   0  0  0  0  0  0
  -27.4625  -22.1301   21.9620 C   0  0  0  0  0  0
  -28.3694  -22.1036   20.9612 C   0  0  0  0  0  0
  -27.9741  -24.7250   20.7027 C   0  0  0  0  0  0
  -26.8410  -23.3730   22.5887 C   0  0  0  0  0  0
  -26.8082  -24.6234   21.6849 C   0  0  0  0  0  0
  -31.3308  -20.9503   21.1430 C   0  0  0  0  0  0
  -29.5886  -16.0027   20.6661 N   0  0  0  0  0  0
  -31.4884  -12.7630   19.1924 H   0  0  0  0  0  0
  -30.4682  -11.6086   20.0053 H   0  0  0  0  0  0
  -29.8526  -11.7608   17.5671 H   0  0  0  0  0  0
  -29.6328  -13.4864   17.7154 H   0  0  0  0  0  0
  -27.9238  -11.2882   18.9164 H   0  0  0  0  0  0
  -27.4099  -12.5221   17.7978 H   0  0  0  0  0  0
  -27.6147  -14.2554   19.4487 H   0  0  0  0  0  0
  -28.7550  -12.2039   21.4075 H   0  0  0  0  0  0
  -28.3711  -13.8557   21.8076 H   0  0  0  0  0  0
  -25.2771   -9.5659   22.4719 H   0  0  0  0  0  0
  -23.9980   -7.4635   22.7465 H   0  0  0  0  0  0
  -21.0830   -8.8748   19.8954 H   0  0  0  0  0  0
  -22.3687  -10.9635   19.6129 H   0  0  0  0  0  0
  -21.2028   -7.6138   23.9699 H   0  0  0  0  0  0
  -21.1477   -6.0518   25.9069 H   0  0  0  0  0  0
  -22.0605   -2.7593   23.2852 H   0  0  0  0  0  0
  -22.4102  -11.9897   22.4888 H   0  0  0  0  0  0
  -21.1044  -13.1156   22.2597 H   0  0  0  0  0  0
  -24.6208  -15.8237   20.4819 H   0  0  0  0  0  0
  -26.2092  -15.6139   19.9526 H   0  0  0  0  0  0
  -26.7261  -32.5326   23.1022 H   0  0  0  0  0  0
  -24.9988  -33.9640   25.0261 H   0  0  0  0  0  0
  -22.7497  -31.2893   21.3817 H   0  0  0  0  0  0
  -23.3760  -35.9573   23.3314 H   0  0  0  0  0  0
  -24.3494  -36.8877   22.2048 H   0  0  0  0  0  0
  -23.7215  -37.6469   23.6664 H   0  0  0  0  0  0
  -26.1534  -31.4665   20.6173 H   0  0  0  0  0  0
  -26.8703  -30.7702   22.0337 H   0  0  0  0  0  0
  -28.1158  -28.7764   21.3015 H   0  0  0  0  0  0
  -25.9492  -25.8304   19.0261 H   0  0  0  0  0  0
  -23.9943  -27.2971   18.9661 H   0  0  0  0  0  0
  -23.8135  -30.5661   19.4027 H   0  0  0  0  0  0
  -22.7891  -29.2327   19.8431 H   0  0  0  0  0  0
  -25.1293  -36.1932   25.0809 H   0  0  0  0  0  0
  -20.9947  -28.3397   24.1368 H   0  0  0  0  0  0
  -20.5631  -26.2398   23.3692 H   0  0  0  0  0  0
  -21.6621  -26.7451   22.1241 H   0  0  0  0  0  0
  -19.6909  -25.6298   21.1273 H   0  0  0  0  0  0
  -19.6656  -27.3206   20.6749 H   0  0  0  0  0  0
  -17.4162  -26.6694   21.4050 H   0  0  0  0  0  0
  -18.0307  -26.0118   22.9051 H   0  0  0  0  0  0
  -19.7952  -30.7261   24.2310 H   0  0  0  0  0  0
  -17.5041  -31.6303   24.5163 H   0  0  0  0  0  0
  -15.5355  -30.3025   23.7686 H   0  0  0  0  0  0
  -15.8648  -28.0826   22.7144 H   0  0  0  0  0  0
  -24.5882  -30.7100   25.7756 H   0  0  0  0  0  0
  -24.8878  -32.2975   26.4786 H   0  0  0  0  0  0
  -25.7979  -30.9017   27.0244 H   0  0  0  0  0  0
  -26.2965  -29.6718   24.1292 H   0  0  0  0  0  0
  -27.3821  -29.7227   25.4963 H   0  0  0  0  0  0
  -27.8927  -30.4098   23.9722 H   0  0  0  0  0  0
  -27.2565  -33.3612   26.2109 H   0  0  0  0  0  0
  -28.3845  -32.6941   25.0388 H   0  0  0  0  0  0
  -28.0688  -31.8494   26.5468 H   0  0  0  0  0  0
  -28.2605  -38.0083   24.7490 H   0  0  0  0  0  0
  -28.1044  -36.2603   24.6294 H   0  0  0  0  0  0
  -27.2262  -37.1431   25.8860 H   0  0  0  0  0  0
  -20.9519  -29.8772   21.6745 H   0  0  0  0  0  0
  -26.0183  -38.2848   24.1421 H   0  0  0  0  0  0
  -26.8639  -19.8316   20.3738 H   0  0  0  0  0  0
  -27.3473  -17.4693   20.2776 H   0  0  0  0  0  0
  -31.4935  -18.2497   20.9234 H   0  0  0  0  0  0
  -29.5285  -23.6167   19.7437 H   0  0  0  0  0  0
  -27.1864  -21.2074   22.4550 H   0  0  0  0  0  0
  -27.4045  -23.5890   23.4976 H   0  0  0  0  0  0
  -25.8290  -23.1306   22.9179 H   0  0  0  0  0  0
  -25.8773  -24.6050   21.1168 H   0  0  0  0  0  0
  -26.7651  -25.5143   22.3129 H   0  0  0  0  0  0
  -32.2992  -20.4684   20.9975 H   0  0  0  0  0  0
  -31.2603  -21.2569   22.1873 H   0  0  0  0  0  0
  -31.3023  -21.8454   20.5213 H   0  0  0  0  0  0
  -28.6871  -15.5957   20.8579 H   0  0  0  0  0  0
  1 25  1  0  0  0
  1 30  2  0  0  0
  1 84  1  0  0  0
  2  3  1  0  0  0
  2 25  1  0  0  0
  2 85  1  0  0  0
  2 86  1  0  0  0
  3  4  1  0  0  0
  3 87  1  0  0  0
  3 88  1  0  0  0
  4  5  1  0  0  0
  4 89  1  0  0  0
  4 90  1  0  0  0
  5  6  1  0  0  0
  5 26  1  0  0  0
  5 91  1  0  0  0
  6 25  1  0  0  0
  6 92  1  0  0  0
  6 93  1  0  0  0
  7  8  2  0  0  0
  7 26  1  0  0  0
  7 29  1  0  0  0
  8  9  1  0  0  0
  8 22  1  0  0  0
  9 10  1  0  0  0
  9 27  2  0  0  0
 10 11  2  0  0  0
 10 15  1  0  0  0
 11 12  1  0  0  0
 11 94  1  0  0  0
 12 13  2  0  0  0
 12 95  1  0  0  0
 13 14  1  0  0  0
 13 31  1  0  0  0
 14 15  2  0  0  0
 14 96  1  0  0  0
 15 97  1  0  0  0
 16 17  2  0  0  0
 16 21  1  0  0  0
 16 31  1  0  0  0
 17 18  1  0  0  0
 17 98  1  0  0  0
 18 19  2  0  0  0
 18 99  1  0  0  0
 19 20  1  0  0  0
 19 24  1  0  0  0
 20 21  2  0  0  0
 20100  1  0  0  0
 21 23  1  0  0  0
 22 28  1  0  0  0
 22 32  2  0  0  0
 26 27  1  0  0  0
 28101  1  0  0  0
 28102  1  0  0  0
 29103  1  0  0  0
 29104  1  0  0  0
 33 34  1  0  0  0
 33 66  1  0  0  0
 33 70  2  0  0  0
 34 36  1  0  0  0
 34 59  1  0  0  0
 34105  1  0  0  0
 35 44  2  0  0  0
 35 45  1  0  0  0
 35 68  1  0  0  0
 36 56  1  0  0  0
 36106  1  0  0  0
 37 39  1  0  0  0
 37 47  1  0  0  0
 37 66  1  0  0  0
 37107  1  0  0  0
 38 43  2  0  0  0
 38 46  1  0  0  0
 38 47  1  0  0  0
 39 64  1  0  0  0
 39 67  2  0  0  0
 40 52  1  0  0  0
 40 53  2  0  0  0
 40 58  1  0  0  0
 41108  1  0  0  0
 41109  1  0  0  0
 41110  1  0  0  0
 41 48  1  0  0  0
 42 43  1  0  0  0
 42 66  1  0  0  0
 42111  1  0  0  0
 42112  1  0  0  0
 43 44  1  0  0  0
 44113  1  0  0  0
 45 46  2  0  0  0
 45114  1  0  0  0
 46115  1  0  0  0
 47116  1  0  0  0
 47117  1  0  0  0
 48 56  1  0  0  0
 48 65  1  0  0  0
 48118  1  0  0  0
 49 50  1  0  0  0
 49 53  1  0  0  0
 49 64  1  0  0  0
 49119  1  0  0  0
 50 51  1  0  0  0
 50120  1  0  0  0
 50121  1  0  0  0
 51 52  1  0  0  0
 51122  1  0  0  0
 51123  1  0  0  0
 52124  1  0  0  0
 52125  1  0  0  0
 53 54  1  0  0  0
 54 55  2  0  0  0
 54126  1  0  0  0
 55 57  1  0  0  0
 55127  1  0  0  0
 56 69  2  0  0  0
 57 58  2  0  0  0
 57128  1  0  0  0
 58129  1  0  0  0
 59 60  1  0  0  0
 59 61  1  0  0  0
 59 62  1  0  0  0
 60130  1  0  0  0
 60131  1  0  0  0
 60132  1  0  0  0
 61133  1  0  0  0
 61134  1  0  0  0
 61135  1  0  0  0
 62136  1  0  0  0
 62137  1  0  0  0
 62138  1  0  0  0
 63 65  1  0  0  0
 63139  1  0  0  0
 63140  1  0  0  0
 63141  1  0  0  0
 64142  1  0  0  0
 65143  1  0  0  0
 68 80  1  0  0  0
 71 72  2  0  0  0
 71 74  1  0  0  0
 71144  1  0  0  0
 72 76  1  0  0  0
 72145  1  0  0  0
 73 75  1  0  0  0
 73 76  2  0  0  0
 73146  1  0  0  0
 74 75  2  0  0  0
 74 79  1  0  0  0
 75 83  1  0  0  0
 76 84  1  0  0  0
 77 79  1  0  0  0
 77 80  2  0  0  0
 77147  1  0  0  0
 78 79  2  0  0  0
 78 81  1  0  0  0
 78148  1  0  0  0
 80 82  1  0  0  0
 81 82  1  0  0  0
 81149  1  0  0  0
 81150  1  0  0  0
 82151  1  0  0  0
 82152  1  0  0  0
 83153  1  0  0  0
 83154  1  0  0  0
 83155  1  0  0  0
 84156  1  0  0  0
M  ISO  4   1 100  68 101  80 101  84 100
M  END
> <chiral flag>
0

> <version>
0

> <s_m_source_file>
/data/baiqing/PycharmProjects/Reinvent-master-3.2/result/LINK_invent/BTK/process_docking_weight1_custom_product_contain_oxygen_bond_distance_aromatic_linkinvent_7_9_3/rearranged_h_0049.sdf

> <i_m_source_file_index>
43

> <r_mmod_Potential_Energy-OPLS-2005>
536.649963378906

> <r_mmod_Stretch_Energy-OPLS-2005>
225.478271484375

> <r_mmod_Bend_Energy-OPLS-2005>
256.509765625

> <r_mmod_Torsional_Energy-OPLS-2005>
275.041961669922

> <r_mmod_Improper_Torsional_Energy-OPLS-2005>
7.43554353713989

> <r_mmod_Van_der_Waal_Energy-OPLS-2005>
139.814239501953

> <r_mmod_Electrostatic_Energy-OPLS-2005>
-365.736999511719

> <r_mmod_Solvation_Energy-OPLS-2005>
-199.04850769043

> <b_mmod_Minimization_Converged-OPLS-2005>
0

> <r_mmod_RMS_Derivative-OPLS-2005>
3.91727590560913

$$$$
43
                    3D
 Structure written by MMmdl.
155164  0  0  1  0            999 V2000
  -30.5257  -15.0813   20.4111 C   0  0  0  0  0  0
  -30.4299  -12.6884   19.4951 C   0  0  0  0  0  0
  -29.5154  -12.5364   18.2585 C   0  0  0  0  0  0
  -28.0585  -12.2949   18.6926 C   0  0  0  0  0  0
  -27.6145  -13.2588   19.8238 C   0  0  2  0  0  0
  -28.6576  -13.3715   20.9538 C   0  0  0  0  0  0
  -25.2411  -13.8229   20.5743 C   0  0  0  0  0  0
  -24.1745  -13.0435   20.9250 C   0  0  0  0  0  0
  -24.6380  -11.6926   20.8768 C   0  0  0  0  0  0
  -23.9074  -10.4288   21.0410 C   0  0  0  0  0  0
  -24.3627   -9.4200   21.9182 C   0  0  0  0  0  0
  -23.6301   -8.2233   22.0747 C   0  0  0  0  0  0
  -22.4280   -8.0273   21.3538 C   0  0  0  0  0  0
  -21.9921   -9.0245   20.4636 C   0  0  0  0  0  0
  -22.7253  -10.2123   20.3050 C   0  0  0  0  0  0
  -21.6857   -6.0733   22.5276 C   0  0  0  0  0  0
  -21.4015   -6.5637   23.8210 C   0  0  0  0  0  0
  -21.3660   -5.6790   24.9173 C   0  0  0  0  0  0
  -21.6050   -4.3053   24.7226 C   0  0  0  0  0  0
  -21.8821   -3.8144   23.4347 C   0  0  0  0  0  0
  -21.9193   -4.6960   22.3402 C   0  0  0  0  0  0
  -22.7765  -13.5189   21.1912 C   0  0  0  0  0  0
  -22.1661   -4.2144   21.0980 F   0  0  0  0  0  0
  -21.5632   -3.4538   25.7738 F   0  0  0  0  0  0
  -29.9039  -13.8236   20.3206 N   0  0  0  0  0  0
  -26.2825  -12.9476   20.3231 N   0  0  0  0  0  0
  -25.9312  -11.6597   20.5740 N   0  0  0  0  0  0
  -22.0438  -12.8149   22.0462 N   0  0  0  0  0  0
  -25.4068  -15.1965   20.4197 N   0  0  0  0  0  0
  -31.7466  -15.0621   20.2082 O   0  0  0  0  0  0
  -21.6643   -6.8871   21.4233 O   0  0  0  0  0  0
  -22.3433  -14.5492   20.6762 O   0  0  0  0  0  0
  -24.6541  -31.8356   23.1806 C   0  0  0  0  0  0
  -25.9271  -32.4656   23.8229 C   0  0  1  0  0  0
  -27.2019  -27.0350   20.1652 C   0  0  0  0  0  0
  -25.5991  -33.8467   24.2138 N   0  0  0  0  0  0
  -23.4619  -30.4542   21.5283 C   0  0  2  0  0  0
  -24.9080  -28.8637   20.1147 C   0  0  0  0  0  0
  -22.7627  -29.4508   22.4819 C   0  0  0  0  0  0
  -18.0315  -28.1421   22.8474 C   0  0  0  0  0  0
  -24.1486  -36.7232   23.2644 C   0  0  0  0  0  0
  -26.0254  -30.6761   21.3954 C   0  0  0  0  0  0
  -26.0909  -29.2766   20.7419 C   0  0  0  0  0  0
  -27.2386  -28.3813   20.7458 C   0  0  0  0  0  0
  -25.9973  -26.7585   19.4858 C   0  0  0  0  0  0
  -24.8797  -27.6208   19.4696 C   0  0  0  0  0  0
  -23.6942  -29.7815   20.1499 C   0  0  0  0  0  0
  -25.4125  -36.3001   24.0301 C   0  0  1  0  0  0
  -20.5937  -28.3750   23.1219 C   0  0  2  0  0  0
  -20.6805  -26.9446   22.5404 C   0  0  0  0  0  0
  -19.5770  -26.6387   21.5226 C   0  0  0  0  0  0
  -18.1945  -26.7958   22.1625 C   0  0  0  0  0  0
  -19.1575  -28.8904   23.2836 C   0  0  0  0  0  0
  -18.9492  -30.1504   23.8861 C   0  0  0  0  0  0
  -17.6487  -30.6613   24.0565 C   0  0  0  0  0  0
  -25.9089  -34.9383   23.5021 C   0  0  0  0  0  0
  -16.5377  -29.9105   23.6350 C   0  0  0  0  0  0
  -16.7299  -28.6529   23.0359 C   0  0  0  0  0  0
  -26.4550  -31.6575   25.0721 C   0  0  0  0  0  0
  -25.3692  -31.3811   26.1389 C   0  0  0  0  0  0
  -27.0430  -30.2955   24.6378 C   0  0  0  0  0  0
  -27.6059  -32.4352   25.7523 C   0  0  0  0  0  0
  -27.5558  -37.1779   24.8467 C   0  0  0  0  0  0
  -21.4301  -29.3067   22.3589 N   0  0  0  0  0  0
  -26.4271  -37.3732   23.9409 N   0  0  0  0  0  0
  -24.7345  -31.0129   22.0889 N   0  0  0  0  0  0
  -23.4225  -28.8047   23.2998 O   0  0  0  0  0  0
  -28.2288  -25.9902   20.1625 O   0  0  0  0  0  0
  -26.5672  -34.8900   22.4602 O   0  0  0  0  0  0
  -23.5635  -32.1269   23.6968 O   0  0  0  0  0  0
  -30.4575  -20.1210   21.9468 C   0  0  0  0  0  0
  -31.3537  -19.7133   22.9343 C   0  0  0  0  0  0
  -31.1335  -17.4453   22.1491 C   0  0  0  0  0  0
  -29.8490  -19.2633   20.9931 C   0  0  0  0  0  0
  -30.2132  -17.7451   21.0989 C   0  0  0  0  0  0
  -31.6971  -18.3727   23.0308 C   0  0  0  0  0  0
  -29.0466  -23.1868   20.2898 C   0  0  0  0  0  0
  -26.7949  -23.6336   19.9391 C   0  0  0  0  0  0
  -27.0683  -22.1199   20.2840 C   0  0  0  0  0  0
  -27.9757  -24.4402   20.5053 C   0  0  1  0  0  0
  -28.9925  -20.3088   20.0132 C   0  0  0  0  0  0
  -28.5205  -21.8582   20.2936 N   0  0  0  0  0  0
  -29.8211  -16.3608   20.4735 N   0  0  0  0  0  0
  -30.2486  -23.4198   20.1329 O   0  0  0  0  0  0
  -32.8048  -17.8537   24.2480 Cl  0  0  0  0  0  0
  -31.4561  -12.8609   19.1684 H   0  0  0  0  0  0
  -30.4552  -11.7648   20.0759 H   0  0  0  0  0  0
  -29.8595  -11.7144   17.6293 H   0  0  0  0  0  0
  -29.5714  -13.4378   17.6465 H   0  0  0  0  0  0
  -27.9893  -11.2632   19.0412 H   0  0  0  0  0  0
  -27.3855  -12.3714   17.8374 H   0  0  0  0  0  0
  -27.5478  -14.2400   19.3527 H   0  0  0  0  0  0
  -28.7888  -12.4208   21.4738 H   0  0  0  0  0  0
  -28.3326  -14.0945   21.7037 H   0  0  0  0  0  0
  -25.2774   -9.5676   22.4754 H   0  0  0  0  0  0
  -24.0017   -7.4620   22.7460 H   0  0  0  0  0  0
  -21.0859   -8.8765   19.8932 H   0  0  0  0  0  0
  -22.3721  -10.9660   19.6154 H   0  0  0  0  0  0
  -21.2004   -7.6146   23.9710 H   0  0  0  0  0  0
  -21.1485   -6.0522   25.9075 H   0  0  0  0  0  0
  -22.0599   -2.7605   23.2850 H   0  0  0  0  0  0
  -22.4105  -11.9828   22.4844 H   0  0  0  0  0  0
  -21.1039  -13.1114   22.2675 H   0  0  0  0  0  0
  -24.6401  -15.8490   20.5440 H   0  0  0  0  0  0
  -26.2561  -15.6418   20.0983 H   0  0  0  0  0  0
  -26.7340  -32.5215   23.0945 H   0  0  0  0  0  0
  -25.0161  -33.9579   25.0300 H   0  0  0  0  0  0
  -22.7696  -31.2836   21.3683 H   0  0  0  0  0  0
  -23.3751  -35.9562   23.3294 H   0  0  0  0  0  0
  -24.3566  -36.8880   22.2062 H   0  0  0  0  0  0
  -23.7240  -37.6418   23.6697 H   0  0  0  0  0  0
  -26.1937  -31.4216   20.6168 H   0  0  0  0  0  0
  -26.8928  -30.7288   22.0425 H   0  0  0  0  0  0
  -28.1390  -28.6989   21.2519 H   0  0  0  0  0  0
  -25.8901  -25.8297   18.9511 H   0  0  0  0  0  0
  -23.9845  -27.3045   18.9523 H   0  0  0  0  0  0
  -23.8487  -30.5544   19.3964 H   0  0  0  0  0  0
  -22.8046  -29.2357   19.8306 H   0  0  0  0  0  0
  -25.1320  -36.1801   25.0794 H   0  0  0  0  0  0
  -21.0026  -28.3337   24.1342 H   0  0  0  0  0  0
  -20.5722  -26.2361   23.3632 H   0  0  0  0  0  0
  -21.6662  -26.7453   22.1186 H   0  0  0  0  0  0
  -19.6931  -25.6281   21.1288 H   0  0  0  0  0  0
  -19.6713  -27.3178   20.6743 H   0  0  0  0  0  0
  -17.4226  -26.6715   21.4021 H   0  0  0  0  0  0
  -18.0321  -26.0116   22.9034 H   0  0  0  0  0  0
  -19.7972  -30.7339   24.2193 H   0  0  0  0  0  0
  -17.5043  -31.6285   24.5182 H   0  0  0  0  0  0
  -15.5378  -30.2998   23.7707 H   0  0  0  0  0  0
  -15.8695  -28.0849   22.7081 H   0  0  0  0  0  0
  -24.5897  -30.7131   25.7708 H   0  0  0  0  0  0
  -24.8864  -32.3021   26.4670 H   0  0  0  0  0  0
  -25.7947  -30.9084   27.0253 H   0  0  0  0  0  0
  -26.3080  -29.6659   24.1349 H   0  0  0  0  0  0
  -27.3976  -29.7282   25.4996 H   0  0  0  0  0  0
  -27.9012  -30.4172   23.9763 H   0  0  0  0  0  0
  -27.2645  -33.3698   26.1982 H   0  0  0  0  0  0
  -28.3945  -32.6831   25.0408 H   0  0  0  0  0  0
  -28.0636  -31.8548   26.5541 H   0  0  0  0  0  0
  -28.2571  -38.0076   24.7496 H   0  0  0  0  0  0
  -28.1050  -36.2602   24.6307 H   0  0  0  0  0  0
  -27.2274  -37.1440   25.8869 H   0  0  0  0  0  0
  -20.9528  -29.8795   21.6770 H   0  0  0  0  0  0
  -26.0111  -38.2787   24.1431 H   0  0  0  0  0  0
  -30.2629  -21.1811   21.9333 H   0  0  0  0  0  0
  -31.7806  -20.4362   23.6148 H   0  0  0  0  0  0
  -31.4470  -16.4349   22.3533 H   0  0  0  0  0  0
  -25.8355  -23.9578   20.3436 H   0  0  0  0  0  0
  -26.7499  -23.7555   18.8557 H   0  0  0  0  0  0
  -26.5493  -21.4669   19.5817 H   0  0  0  0  0  0
  -26.6819  -21.8907   21.2786 H   0  0  0  0  0  0
  -27.8279  -24.4623   21.5856 H   0  0  0  0  0  0
  -28.0998  -19.7547   19.7234 H   0  0  0  0  0  0
  -29.5779  -20.3641   19.0949 H   0  0  0  0  0  0
  -28.8388  -16.2764   20.2571 H   0  0  0  0  0  0
  1 25  1  0  0  0
  1 30  2  0  0  0
  1 83  1  0  0  0
  2  3  1  0  0  0
  2 25  1  0  0  0
  2 86  1  0  0  0
  2 87  1  0  0  0
  3  4  1  0  0  0
  3 88  1  0  0  0
  3 89  1  0  0  0
  4  5  1  0  0  0
  4 90  1  0  0  0
  4 91  1  0  0  0
  5  6  1  0  0  0
  5 26  1  0  0  0
  5 92  1  0  0  0
  6 25  1  0  0  0
  6 93  1  0  0  0
  6 94  1  0  0  0
  7  8  2  0  0  0
  7 26  1  0  0  0
  7 29  1  0  0  0
  8  9  1  0  0  0
  8 22  1  0  0  0
  9 10  1  0  0  0
  9 27  2  0  0  0
 10 11  2  0  0  0
 10 15  1  0  0  0
 11 12  1  0  0  0
 11 95  1  0  0  0
 12 13  2  0  0  0
 12 96  1  0  0  0
 13 14  1  0  0  0
 13 31  1  0  0  0
 14 15  2  0  0  0
 14 97  1  0  0  0
 15 98  1  0  0  0
 16 17  2  0  0  0
 16 21  1  0  0  0
 16 31  1  0  0  0
 17 18  1  0  0  0
 17 99  1  0  0  0
 18 19  2  0  0  0
 18100  1  0  0  0
 19 20  1  0  0  0
 19 24  1  0  0  0
 20 21  2  0  0  0
 20101  1  0  0  0
 21 23  1  0  0  0
 22 28  1  0  0  0
 22 32  2  0  0  0
 26 27  1  0  0  0
 28102  1  0  0  0
 28103  1  0  0  0
 29104  1  0  0  0
 29105  1  0  0  0
 33 34  1  0  0  0
 33 66  1  0  0  0
 33 70  2  0  0  0
 34 36  1  0  0  0
 34 59  1  0  0  0
 34106  1  0  0  0
 35 44  2  0  0  0
 35 45  1  0  0  0
 35 68  1  0  0  0
 36 56  1  0  0  0
 36107  1  0  0  0
 37 39  1  0  0  0
 37 47  1  0  0  0
 37 66  1  0  0  0
 37108  1  0  0  0
 38 43  2  0  0  0
 38 46  1  0  0  0
 38 47  1  0  0  0
 39 64  1  0  0  0
 39 67  2  0  0  0
 40 52  1  0  0  0
 40 53  2  0  0  0
 40 58  1  0  0  0
 41109  1  0  0  0
 41110  1  0  0  0
 41111  1  0  0  0
 41 48  1  0  0  0
 42 43  1  0  0  0
 42 66  1  0  0  0
 42112  1  0  0  0
 42113  1  0  0  0
 43 44  1  0  0  0
 44114  1  0  0  0
 45 46  2  0  0  0
 45115  1  0  0  0
 46116  1  0  0  0
 47117  1  0  0  0
 47118  1  0  0  0
 48 56  1  0  0  0
 48 65  1  0  0  0
 48119  1  0  0  0
 49 50  1  0  0  0
 49 53  1  0  0  0
 49 64  1  0  0  0
 49120  1  0  0  0
 50 51  1  0  0  0
 50121  1  0  0  0
 50122  1  0  0  0
 51 52  1  0  0  0
 51123  1  0  0  0
 51124  1  0  0  0
 52125  1  0  0  0
 52126  1  0  0  0
 53 54  1  0  0  0
 54 55  2  0  0  0
 54127  1  0  0  0
 55 57  1  0  0  0
 55128  1  0  0  0
 56 69  2  0  0  0
 57 58  2  0  0  0
 57129  1  0  0  0
 58130  1  0  0  0
 59 60  1  0  0  0
 59 61  1  0  0  0
 59 62  1  0  0  0
 60131  1  0  0  0
 60132  1  0  0  0
 60133  1  0  0  0
 61134  1  0  0  0
 61135  1  0  0  0
 61136  1  0  0  0
 62137  1  0  0  0
 62138  1  0  0  0
 62139  1  0  0  0
 63 65  1  0  0  0
 63140  1  0  0  0
 63141  1  0  0  0
 63142  1  0  0  0
 64143  1  0  0  0
 65144  1  0  0  0
 68 80  1  0  0  0
 71 72  2  0  0  0
 71 74  1  0  0  0
 71145  1  0  0  0
 72 76  1  0  0  0
 72146  1  0  0  0
 73 75  1  0  0  0
 73 76  2  0  0  0
 73147  1  0  0  0
 74 75  2  0  0  0
 74 81  1  0  0  0
 75 83  1  0  0  0
 76 85  1  0  0  0
 77 80  1  0  0  0
 77 82  1  0  0  0
 77 84  2  0  0  0
 78 79  1  0  0  0
 78 80  1  0  0  0
 78148  1  0  0  0
 78149  1  0  0  0
 79 82  1  0  0  0
 79150  1  0  0  0
 79151  1  0  0  0
 80152  1  0  0  0
 81 82  1  0  0  0
 81153  1  0  0  0
 81154  1  0  0  0
 83155  1  0  0  0
M  ISO  4   1 100  68 101  80 101  83 100
M  END
> <chiral flag>
0

> <version>
0

> <s_m_source_file>
/data/baiqing/PycharmProjects/Reinvent-master-3.2/result/LINK_invent/BTK/process_docking_weight1_custom_product_contain_oxygen_bond_distance_aromatic_linkinvent_7_9_3/rearranged_h_0049.sdf

> <i_m_source_file_index>
44

> <r_mmod_Potential_Energy-OPLS-2005>
974.465637207031

> <r_mmod_Stretch_Energy-OPLS-2005>
397.405609130859

> <r_mmod_Bend_Energy-OPLS-2005>
457.867401123047

> <r_mmod_Torsional_Energy-OPLS-2005>
254.608871459961

> <r_mmod_Improper_Torsional_Energy-OPLS-2005>
6.97599124908447

> <r_mmod_Van_der_Waal_Energy-OPLS-2005>
137.351364135742

> <r_mmod_Electrostatic_Energy-OPLS-2005>
-326.046783447266

> <r_mmod_Solvation_Energy-OPLS-2005>
-247.984741210938

> <b_mmod_Minimization_Converged-OPLS-2005>
0

> <r_mmod_RMS_Derivative-OPLS-2005>
1.54896438121796

$$$$
44
                    3D
 Structure written by MMmdl.
159167  0  0  1  0            999 V2000
  -30.7334  -14.4040   20.5472 C   0  0  0  0  0  0
  -30.3996  -12.2541   19.4186 C   0  0  0  0  0  0
  -29.4851  -12.5189   18.2058 C   0  0  0  0  0  0
  -28.0048  -12.3847   18.6133 C   0  0  0  0  0  0
  -27.6634  -13.2054   19.8865 C   0  0  2  0  0  0
  -28.7063  -12.9672   21.0076 C   0  0  0  0  0  0
  -25.2579  -13.8155   20.5663 C   0  0  0  0  0  0
  -24.1824  -13.0439   20.9124 C   0  0  0  0  0  0
  -24.6369  -11.6909   20.8694 C   0  0  0  0  0  0
  -23.9047  -10.4288   21.0347 C   0  0  0  0  0  0
  -24.3603   -9.4215   21.9132 C   0  0  0  0  0  0
  -23.6283   -8.2256   22.0738 C   0  0  0  0  0  0
  -22.4271   -8.0281   21.3530 C   0  0  0  0  0  0
  -21.9890   -9.0242   20.4625 C   0  0  0  0  0  0
  -22.7216  -10.2121   20.3007 C   0  0  0  0  0  0
  -21.6871   -6.0732   22.5277 C   0  0  0  0  0  0
  -21.4029   -6.5634   23.8211 C   0  0  0  0  0  0
  -21.3653   -5.6782   24.9166 C   0  0  0  0  0  0
  -21.6033   -4.3041   24.7217 C   0  0  0  0  0  0
  -21.8824   -3.8144   23.4336 C   0  0  0  0  0  0
  -21.9189   -4.6960   22.3386 C   0  0  0  0  0  0
  -22.7844  -13.5249   21.1781 C   0  0  0  0  0  0
  -22.1652   -4.2149   21.0969 F   0  0  0  0  0  0
  -21.5624   -3.4508   25.7712 F   0  0  0  0  0  0
  -30.0489  -13.2329   20.4597 N   0  0  0  0  0  0
  -26.3033  -12.9331   20.3442 N   0  0  0  0  0  0
  -25.9312  -11.6489   20.5796 N   0  0  0  0  0  0
  -22.0511  -12.8230   22.0353 N   0  0  0  0  0  0
  -25.4314  -15.1868   20.4047 N   0  0  0  0  0  0
  -31.8310  -14.5870   20.0222 O   0  0  0  0  0  0
  -21.6659   -6.8867   21.4238 O   0  0  0  0  0  0
  -22.3509  -14.5548   20.6635 O   0  0  0  0  0  0
  -24.6138  -31.8694   23.2138 C   0  0  0  0  0  0
  -25.9040  -32.4831   23.8420 C   0  0  1  0  0  0
  -27.2186  -27.4429   20.0880 C   0  0  0  0  0  0
  -25.5907  -33.8632   24.2342 N   0  0  0  0  0  0
  -23.4016  -30.5037   21.5491 C   0  0  2  0  0  0
  -24.8453  -28.9797   20.1045 C   0  0  0  0  0  0
  -22.7410  -29.4702   22.4907 C   0  0  0  0  0  0
  -18.0304  -28.1423   22.8463 C   0  0  0  0  0  0
  -24.1489  -36.7325   23.2640 C   0  0  0  0  0  0
  -25.9337  -30.8400   21.3667 C   0  0  0  0  0  0
  -26.0075  -29.4802   20.7044 C   0  0  0  0  0  0
  -27.1995  -28.7196   20.6944 C   0  0  0  0  0  0
  -26.0425  -26.9695   19.4607 C   0  0  0  0  0  0
  -24.8571  -27.7245   19.4786 C   0  0  0  0  0  0
  -23.6117  -29.8507   20.1573 C   0  0  0  0  0  0
  -25.4094  -36.3123   24.0353 C   0  0  1  0  0  0
  -20.5893  -28.3707   23.1286 C   0  0  2  0  0  0
  -20.6800  -26.9430   22.5419 C   0  0  0  0  0  0
  -19.5787  -26.6398   21.5217 C   0  0  0  0  0  0
  -18.1952  -26.7966   22.1600 C   0  0  0  0  0  0
  -19.1554  -28.8868   23.2893 C   0  0  0  0  0  0
  -18.9493  -30.1471   23.8899 C   0  0  0  0  0  0
  -17.6493  -30.6605   24.0581 C   0  0  0  0  0  0
  -25.9025  -34.9490   23.5131 C   0  0  0  0  0  0
  -16.5375  -29.9125   23.6344 C   0  0  0  0  0  0
  -16.7291  -28.6569   23.0307 C   0  0  0  0  0  0
  -26.4458  -31.6613   25.0755 C   0  0  0  0  0  0
  -25.3728  -31.3747   26.1521 C   0  0  0  0  0  0
  -27.0272  -30.3059   24.6098 C   0  0  0  0  0  0
  -27.6030  -32.4317   25.7531 C   0  0  0  0  0  0
  -27.5576  -37.1814   24.8461 C   0  0  0  0  0  0
  -21.4132  -29.3085   22.3675 N   0  0  0  0  0  0
  -26.4273  -37.3811   23.9423 N   0  0  0  0  0  0
  -24.6680  -31.0836   22.1023 N   0  0  0  0  0  0
  -23.4197  -28.8173   23.2891 O   0  0  0  0  0  0
  -28.3585  -26.6640   20.1292 O   0  0  0  0  0  0
  -26.5590  -34.8931   22.4696 O   0  0  0  0  0  0
  -23.5337  -32.1441   23.7534 O   0  0  0  0  0  0
  -32.7769  -19.8826   21.8403 C   0  0  0  0  0  0
  -32.3977  -17.5816   21.1150 C   0  0  0  0  0  0
  -31.3954  -20.1604   21.7250 C   0  0  0  0  0  0
  -31.0127  -17.8290   20.9955 C   0  0  0  0  0  0
  -33.2723  -18.6011   21.5334 C   0  0  0  0  0  0
  -30.5237  -19.1260   21.2931 C   0  0  0  0  0  0
  -30.8764  -21.5063   22.0461 C   0  0  0  0  0  0
  -30.0581  -16.7708   20.4297 C   0  0  0  0  0  0
  -29.3541  -24.4497   20.7991 C   0  0  0  0  0  0
  -29.0052  -23.2075   21.6514 C   0  0  0  0  0  0
  -28.1082  -25.3430   20.6326 C   0  0  0  0  0  0
  -31.4256  -22.2558   23.0056 N   0  0  0  0  0  0
  -30.0381  -15.4347   21.0426 N   0  0  0  0  0  0
  -29.8214  -22.0042   21.3810 N   0  3  0  0  0  0
  -34.6012  -18.3520   21.6274 F   0  0  0  0  0  0
  -29.2016  -19.3820   21.1247 F   0  0  0  0  0  0
  -31.4510  -12.3029   19.1287 H   0  0  0  0  0  0
  -30.2425  -11.2394   19.7901 H   0  0  0  0  0  0
  -29.7193  -11.8327   17.3919 H   0  0  0  0  0  0
  -29.6655  -13.5236   17.8202 H   0  0  0  0  0  0
  -27.8021  -11.3268   18.7856 H   0  0  0  0  0  0
  -27.3583  -12.6854   17.7880 H   0  0  0  0  0  0
  -27.7128  -14.2574   19.6059 H   0  0  0  0  0  0
  -28.6544  -11.9333   21.3530 H   0  0  0  0  0  0
  -28.4837  -13.5758   21.8851 H   0  0  0  0  0  0
  -25.2758   -9.5688   22.4686 H   0  0  0  0  0  0
  -23.9985   -7.4652   22.7470 H   0  0  0  0  0  0
  -21.0818   -8.8740   19.8928 H   0  0  0  0  0  0
  -22.3665  -10.9636   19.6089 H   0  0  0  0  0  0
  -21.2058   -7.6146   23.9699 H   0  0  0  0  0  0
  -21.1456   -6.0520   25.9063 H   0  0  0  0  0  0
  -22.0607   -2.7610   23.2836 H   0  0  0  0  0  0
  -22.4193  -11.9932   22.4745 H   0  0  0  0  0  0
  -21.1106  -13.1195   22.2547 H   0  0  0  0  0  0
  -24.6681  -15.8475   20.5090 H   0  0  0  0  0  0
  -26.2938  -15.6226   20.1039 H   0  0  0  0  0  0
  -26.7087  -32.5528   23.1162 H   0  0  0  0  0  0
  -25.0089  -33.9809   25.0509 H   0  0  0  0  0  0
  -22.6945  -31.3256   21.4146 H   0  0  0  0  0  0
  -23.3743  -35.9668   23.3321 H   0  0  0  0  0  0
  -24.3599  -36.8920   22.2054 H   0  0  0  0  0  0
  -23.7253  -37.6540   23.6632 H   0  0  0  0  0  0
  -26.0513  -31.6111   20.6039 H   0  0  0  0  0  0
  -26.8213  -30.8861   21.9850 H   0  0  0  0  0  0
  -28.0930  -29.1002   21.1685 H   0  0  0  0  0  0
  -26.0251  -26.0195   18.9474 H   0  0  0  0  0  0
  -23.9640  -27.3400   19.0052 H   0  0  0  0  0  0
  -23.7378  -30.6407   19.4161 H   0  0  0  0  0  0
  -22.7311  -29.2906   19.8396 H   0  0  0  0  0  0
  -25.1259  -36.1984   25.0846 H   0  0  0  0  0  0
  -21.0011  -28.3285   24.1396 H   0  0  0  0  0  0
  -20.5725  -26.2295   23.3606 H   0  0  0  0  0  0
  -21.6661  -26.7485   22.1182 H   0  0  0  0  0  0
  -19.6958  -25.6310   21.1252 H   0  0  0  0  0  0
  -19.6754  -27.3206   20.6748 H   0  0  0  0  0  0
  -17.4233  -26.6731   21.3994 H   0  0  0  0  0  0
  -18.0324  -26.0130   22.9008 H   0  0  0  0  0  0
  -19.7979  -30.7309   24.2218 H   0  0  0  0  0  0
  -17.5070  -31.6274   24.5210 H   0  0  0  0  0  0
  -15.5388  -30.3032   23.7692 H   0  0  0  0  0  0
  -15.8691  -28.0931   22.6938 H   0  0  0  0  0  0
  -24.5962  -30.6976   25.7935 H   0  0  0  0  0  0
  -24.8830  -32.2903   26.4849 H   0  0  0  0  0  0
  -25.8128  -30.9078   27.0335 H   0  0  0  0  0  0
  -26.2818  -29.6864   24.1078 H   0  0  0  0  0  0
  -27.4008  -29.7247   25.4528 H   0  0  0  0  0  0
  -27.8660  -30.4414   23.9266 H   0  0  0  0  0  0
  -27.2665  -33.3651   26.2047 H   0  0  0  0  0  0
  -28.3888  -32.6798   25.0395 H   0  0  0  0  0  0
  -28.0600  -31.8452   26.5509 H   0  0  0  0  0  0
  -28.2562  -38.0138   24.7528 H   0  0  0  0  0  0
  -28.1101  -36.2671   24.6233 H   0  0  0  0  0  0
  -27.2316  -37.1406   25.8871 H   0  0  0  0  0  0
  -20.9246  -29.8898   21.6998 H   0  0  0  0  0  0
  -26.0165  -38.2876   24.1471 H   0  0  0  0  0  0
  -33.4749  -20.6445   22.1550 H   0  0  0  0  0  0
  -32.8187  -16.6239   20.8589 H   0  0  0  0  0  0
  -29.0330  -17.1383   20.4633 H   0  0  0  0  0  0
  -30.2735  -16.6734   19.3633 H   0  0  0  0  0  0
  -29.7482  -24.1661   19.8218 H   0  0  0  0  0  0
  -30.1335  -25.0148   21.3070 H   0  0  0  0  0  0
  -27.9763  -22.9154   21.4356 H   0  0  0  0  0  0
  -29.0164  -23.4615   22.7126 H   0  0  0  0  0  0
  -27.6059  -25.4383   21.5975 H   0  0  0  0  0  0
  -27.4257  -24.7999   19.9808 H   0  0  0  0  0  0
  -32.2416  -21.9393   23.5092 H   0  0  0  0  0  0
  -31.0348  -23.1464   23.2623 H   0  0  0  0  0  0
  -29.1774  -15.1756   21.5005 H   0  0  0  0  0  0
  -29.3752  -21.3182   20.7759 H   0  0  0  0  0  0
  1 25  1  0  0  0
  1 30  2  0  0  0
  1 83  1  0  0  0
  2  3  1  0  0  0
  2 25  1  0  0  0
  2 87  1  0  0  0
  2 88  1  0  0  0
  3  4  1  0  0  0
  3 89  1  0  0  0
  3 90  1  0  0  0
  4  5  1  0  0  0
  4 91  1  0  0  0
  4 92  1  0  0  0
  5  6  1  0  0  0
  5 26  1  0  0  0
  5 93  1  0  0  0
  6 25  1  0  0  0
  6 94  1  0  0  0
  6 95  1  0  0  0
  7  8  2  0  0  0
  7 26  1  0  0  0
  7 29  1  0  0  0
  8  9  1  0  0  0
  8 22  1  0  0  0
  9 10  1  0  0  0
  9 27  2  0  0  0
 10 11  2  0  0  0
 10 15  1  0  0  0
 11 12  1  0  0  0
 11 96  1  0  0  0
 12 13  2  0  0  0
 12 97  1  0  0  0
 13 14  1  0  0  0
 13 31  1  0  0  0
 14 15  2  0  0  0
 14 98  1  0  0  0
 15 99  1  0  0  0
 16 17  2  0  0  0
 16 21  1  0  0  0
 16 31  1  0  0  0
 17 18  1  0  0  0
 17100  1  0  0  0
 18 19  2  0  0  0
 18101  1  0  0  0
 19 20  1  0  0  0
 19 24  1  0  0  0
 20 21  2  0  0  0
 20102  1  0  0  0
 21 23  1  0  0  0
 22 28  1  0  0  0
 22 32  2  0  0  0
 26 27  1  0  0  0
 28103  1  0  0  0
 28104  1  0  0  0
 29105  1  0  0  0
 29106  1  0  0  0
 33 34  1  0  0  0
 33 66  1  0  0  0
 33 70  2  0  0  0
 34 36  1  0  0  0
 34 59  1  0  0  0
 34107  1  0  0  0
 35 44  2  0  0  0
 35 45  1  0  0  0
 35 68  1  0  0  0
 36 56  1  0  0  0
 36108  1  0  0  0
 37 39  1  0  0  0
 37 47  1  0  0  0
 37 66  1  0  0  0
 37109  1  0  0  0
 38 43  2  0  0  0
 38 46  1  0  0  0
 38 47  1  0  0  0
 39 64  1  0  0  0
 39 67  2  0  0  0
 40 52  1  0  0  0
 40 53  2  0  0  0
 40 58  1  0  0  0
 41110  1  0  0  0
 41111  1  0  0  0
 41112  1  0  0  0
 41 48  1  0  0  0
 42 43  1  0  0  0
 42 66  1  0  0  0
 42113  1  0  0  0
 42114  1  0  0  0
 43 44  1  0  0  0
 44115  1  0  0  0
 45 46  2  0  0  0
 45116  1  0  0  0
 46117  1  0  0  0
 47118  1  0  0  0
 47119  1  0  0  0
 48 56  1  0  0  0
 48 65  1  0  0  0
 48120  1  0  0  0
 49 50  1  0  0  0
 49 53  1  0  0  0
 49 64  1  0  0  0
 49121  1  0  0  0
 50 51  1  0  0  0
 50122  1  0  0  0
 50123  1  0  0  0
 51 52  1  0  0  0
 51124  1  0  0  0
 51125  1  0  0  0
 52126  1  0  0  0
 52127  1  0  0  0
 53 54  1  0  0  0
 54 55  2  0  0  0
 54128  1  0  0  0
 55 57  1  0  0  0
 55129  1  0  0  0
 56 69  2  0  0  0
 57 58  2  0  0  0
 57130  1  0  0  0
 58131  1  0  0  0
 59 60  1  0  0  0
 59 61  1  0  0  0
 59 62  1  0  0  0
 60132  1  0  0  0
 60133  1  0  0  0
 60134  1  0  0  0
 61135  1  0  0  0
 61136  1  0  0  0
 61137  1  0  0  0
 62138  1  0  0  0
 62139  1  0  0  0
 62140  1  0  0  0
 63 65  1  0  0  0
 63141  1  0  0  0
 63142  1  0  0  0
 63143  1  0  0  0
 64144  1  0  0  0
 65145  1  0  0  0
 68 81  1  0  0  0
 71 73  2  0  0  0
 71 75  1  0  0  0
 71146  1  0  0  0
 72 74  1  0  0  0
 72 75  2  0  0  0
 72147  1  0  0  0
 73 76  1  0  0  0
 73 77  1  0  0  0
 74 76  2  0  0  0
 74 78  1  0  0  0
 75 85  1  0  0  0
 76 86  1  0  0  0
 77 82  1  0  0  0
 77 84  2  0  0  0
 78 83  1  0  0  0
 78148  1  0  0  0
 78149  1  0  0  0
 79 80  1  0  0  0
 79 81  1  0  0  0
 79150  1  0  0  0
 79151  1  0  0  0
 80 84  1  0  0  0
 80152  1  0  0  0
 80153  1  0  0  0
 81154  1  0  0  0
 81155  1  0  0  0
 82156  1  0  0  0
 82157  1  0  0  0
 83158  1  0  0  0
 84159  1  0  0  0
M  CHG  1  84   1
M  ISO  4   1 100  68 101  81 101  83 100
M  END
> <chiral flag>
0

> <version>
0

> <s_m_source_file>
/data/baiqing/PycharmProjects/Reinvent-master-3.2/result/LINK_invent/BTK/process_docking_weight1_custom_product_contain_oxygen_bond_distance_aromatic_linkinvent_7_9_3/rearranged_h_0049.sdf

> <i_m_source_file_index>
45

> <r_mmod_Potential_Energy-OPLS-2005>
-286.260467529297

> <r_mmod_Stretch_Energy-OPLS-2005>
36.1532135009766

> <r_mmod_Bend_Energy-OPLS-2005>
99.9039916992188

> <r_mmod_Torsional_Energy-OPLS-2005>
230.97151184082

> <r_mmod_Improper_Torsional_Energy-OPLS-2005>
8.68056869506836

> <r_mmod_Van_der_Waal_Energy-OPLS-2005>
166.747039794922

> <r_mmod_Electrostatic_Energy-OPLS-2005>
-421.602844238281

> <r_mmod_Solvation_Energy-OPLS-2005>
-420.138549804688

> <b_mmod_Minimization_Converged-OPLS-2005>
0

> <r_mmod_RMS_Derivative-OPLS-2005>
3.86155200004578

$$$$
45
                    3D
 Structure written by MMmdl.
180190  0  0  1  0            999 V2000
  -30.7611  -14.4008   20.6513 C   0  0  0  0  0  0
  -30.4178  -12.3051   19.3874 C   0  0  0  0  0  0
  -29.4850  -12.5488   18.1868 C   0  0  0  0  0  0
  -28.0059  -12.4164   18.6027 C   0  0  0  0  0  0
  -27.6699  -13.2133   19.8941 C   0  0  2  0  0  0
  -28.7222  -12.9282   20.9918 C   0  0  0  0  0  0
  -25.2524  -13.8132   20.5545 C   0  0  0  0  0  0
  -24.1846  -13.0402   20.9185 C   0  0  0  0  0  0
  -24.6458  -11.6897   20.8791 C   0  0  0  0  0  0
  -23.9130  -10.4275   21.0448 C   0  0  0  0  0  0
  -24.3675   -9.4182   21.9216 C   0  0  0  0  0  0
  -23.6335   -8.2226   22.0776 C   0  0  0  0  0  0
  -22.4318   -8.0287   21.3555 C   0  0  0  0  0  0
  -21.9992   -9.0264   20.4644 C   0  0  0  0  0  0
  -22.7331  -10.2139   20.3066 C   0  0  0  0  0  0
  -21.6862   -6.0764   22.5297 C   0  0  0  0  0  0
  -21.4015   -6.5659   23.8233 C   0  0  0  0  0  0
  -21.3655   -5.6810   24.9195 C   0  0  0  0  0  0
  -21.6053   -4.3071   24.7238 C   0  0  0  0  0  0
  -21.8823   -3.8172   23.4357 C   0  0  0  0  0  0
  -21.9203   -4.6994   22.3415 C   0  0  0  0  0  0
  -22.7869  -13.5189   21.1859 C   0  0  0  0  0  0
  -22.1667   -4.2174   21.0990 F   0  0  0  0  0  0
  -21.5624   -3.4557   25.7748 F   0  0  0  0  0  0
  -30.0450  -13.2601   20.4408 N   0  0  0  0  0  0
  -26.3070  -12.9367   20.3485 N   0  0  0  0  0  0
  -25.9405  -11.6521   20.5916 N   0  0  0  0  0  0
  -22.0525  -12.8141   22.0378 N   0  0  0  0  0  0
  -25.4003  -15.1816   20.3604 N   0  0  0  0  0  0
  -31.8584  -14.5939   20.1168 O   0  0  0  0  0  0
  -21.6650   -6.8903   21.4256 O   0  0  0  0  0  0
  -22.3552  -14.5513   20.6730 O   0  0  0  0  0  0
  -24.6095  -31.8681   23.2117 C   0  0  0  0  0  0
  -25.8983  -32.4819   23.8425 C   0  0  1  0  0  0
  -27.2433  -27.4469   20.0807 C   0  0  0  0  0  0
  -25.5838  -33.8621   24.2315 N   0  0  0  0  0  0
  -23.3975  -30.4922   21.5494 C   0  0  2  0  0  0
  -24.8492  -28.9615   20.1081 C   0  0  0  0  0  0
  -22.7379  -29.4647   22.4977 C   0  0  0  0  0  0
  -18.0244  -28.1385   22.8523 C   0  0  0  0  0  0
  -24.1478  -36.7301   23.2661 C   0  0  0  0  0  0
  -25.9282  -30.8315   21.3746 C   0  0  0  0  0  0
  -26.0032  -29.4677   20.7173 C   0  0  0  0  0  0
  -27.1963  -28.7104   20.7136 C   0  0  0  0  0  0
  -26.0707  -26.9553   19.4619 C   0  0  0  0  0  0
  -24.8771  -27.7044   19.4781 C   0  0  0  0  0  0
  -23.6061  -29.8243   20.1634 C   0  0  0  0  0  0
  -25.4111  -36.3095   24.0349 C   0  0  1  0  0  0
  -20.5836  -28.3659   23.1350 C   0  0  2  0  0  0
  -20.6719  -26.9391   22.5444 C   0  0  0  0  0  0
  -19.5699  -26.6384   21.5231 C   0  0  0  0  0  0
  -18.1886  -26.7921   22.1659 C   0  0  0  0  0  0
  -19.1506  -28.8848   23.2928 C   0  0  0  0  0  0
  -18.9439  -30.1456   23.8931 C   0  0  0  0  0  0
  -17.6445  -30.6605   24.0571 C   0  0  0  0  0  0
  -25.9050  -34.9469   23.5130 C   0  0  0  0  0  0
  -16.5329  -29.9110   23.6317 C   0  0  0  0  0  0
  -16.7238  -28.6517   23.0357 C   0  0  0  0  0  0
  -26.4430  -31.6596   25.0750 C   0  0  0  0  0  0
  -25.3681  -31.3644   26.1464 C   0  0  0  0  0  0
  -27.0312  -30.3044   24.6154 C   0  0  0  0  0  0
  -27.5979  -32.4338   25.7539 C   0  0  0  0  0  0
  -27.5569  -37.1804   24.8479 C   0  0  0  0  0  0
  -21.4104  -29.3024   22.3742 N   0  0  0  0  0  0
  -26.4278  -37.3797   23.9435 N   0  0  0  0  0  0
  -24.6613  -31.0800   22.1023 N   0  0  0  0  0  0
  -23.4146  -28.8180   23.3017 O   0  0  0  0  0  0
  -28.4342  -26.7471   20.1218 O   0  0  0  0  0  0
  -26.5636  -34.8916   22.4714 O   0  0  0  0  0  0
  -23.5284  -32.1454   23.7504 O   0  0  0  0  0  0
  -29.8098  -18.4373   19.3154 C   0  0  0  0  0  0
  -30.3476  -17.2772   19.9062 C   0  0  0  0  0  0
  -27.8144  -18.1808   20.6659 C   0  0  0  0  0  0
  -30.6851  -17.6705   23.9347 C   0  0  0  0  0  0
  -32.7410  -16.8028   22.9552 C   0  0  0  0  0  0
  -32.7148  -19.0213   23.9730 C   0  0  0  0  0  0
  -28.5289  -18.9006   19.6809 C   0  0  0  0  0  0
  -28.3563  -17.0285   21.2839 C   0  0  0  0  0  0
  -31.3737  -16.6384   23.2632 C   0  0  0  0  0  0
  -29.6306  -16.5389   20.8828 C   0  0  0  0  0  0
  -31.3499  -18.8623   24.2789 C   0  0  0  0  0  0
  -33.4103  -17.9888   23.3138 C   0  0  0  0  0  0
  -27.3837  -22.1976   20.2350 C   0  0  0  0  0  0
  -26.8167  -21.6263   21.3114 C   0  0  0  0  0  0
  -27.3647  -23.6848   19.8947 C   0  0  0  0  0  0
  -29.6841  -23.3868   18.8461 C   0  0  0  0  0  0
  -29.5994  -21.8778   19.1919 C   0  0  0  0  0  0
  -28.7792  -24.2947   19.7246 C   0  0  1  0  0  0
  -27.5252  -16.3334   22.3501 C   0  0  0  0  0  0
  -30.6429  -15.3643   22.8586 C   0  0  0  0  0  0
  -27.8524  -20.0368   18.8945 C   0  0  0  0  0  0
  -28.7350  -25.7401   19.1495 C   0  0  0  0  0  0
  -30.2045  -15.3433   21.4510 N   0  0  0  0  0  0
  -28.1781  -21.4648   19.2015 N   0  3  1  0  0  0
  -30.4832  -20.1289   25.0676 Cl  0  0  0  0  0  0
  -35.0846  -18.1791   22.9375 Cl  0  0  0  0  0  0
  -31.4587  -12.4029   19.0785 H   0  0  0  0  0  0
  -30.3099  -11.2824   19.7527 H   0  0  0  0  0  0
  -29.7106  -11.8516   17.3782 H   0  0  0  0  0  0
  -29.6582  -13.5498   17.7883 H   0  0  0  0  0  0
  -27.7886  -11.3582   18.7515 H   0  0  0  0  0  0
  -27.3611  -12.7439   17.7867 H   0  0  0  0  0  0
  -27.7283  -14.2737   19.6516 H   0  0  0  0  0  0
  -28.6991  -11.8710   21.2579 H   0  0  0  0  0  0
  -28.5170  -13.4464   21.9236 H   0  0  0  0  0  0
  -25.2823   -9.5646   22.4799 H   0  0  0  0  0  0
  -24.0051   -7.4616   22.7499 H   0  0  0  0  0  0
  -21.0954   -8.8803   19.8910 H   0  0  0  0  0  0
  -22.3834  -10.9699   19.6171 H   0  0  0  0  0  0
  -21.1993   -7.6163   23.9740 H   0  0  0  0  0  0
  -21.1466   -6.0538   25.9100 H   0  0  0  0  0  0
  -22.0606   -2.7642   23.2859 H   0  0  0  0  0  0
  -22.4200  -11.9798   22.4708 H   0  0  0  0  0  0
  -21.1120  -13.1087   22.2583 H   0  0  0  0  0  0
  -24.6228  -15.8217   20.4725 H   0  0  0  0  0  0
  -26.2546  -15.6332   20.0586 H   0  0  0  0  0  0
  -26.7049  -32.5553   23.1202 H   0  0  0  0  0  0
  -24.9851  -33.9797   25.0353 H   0  0  0  0  0  0
  -22.6836  -31.3078   21.4104 H   0  0  0  0  0  0
  -23.3751  -35.9616   23.3312 H   0  0  0  0  0  0
  -24.3549  -36.8952   22.2072 H   0  0  0  0  0  0
  -23.7203  -37.6485   23.6713 H   0  0  0  0  0  0
  -26.0491  -31.6039   20.6119 H   0  0  0  0  0  0
  -26.8102  -30.8741   22.0030 H   0  0  0  0  0  0
  -28.0862  -29.0944   21.1940 H   0  0  0  0  0  0
  -26.0538  -25.9981   18.9665 H   0  0  0  0  0  0
  -23.9912  -27.3152   18.9970 H   0  0  0  0  0  0
  -23.7046  -30.6006   19.4034 H   0  0  0  0  0  0
  -22.7322  -29.2375   19.8733 H   0  0  0  0  0  0
  -25.1269  -36.1963   25.0840 H   0  0  0  0  0  0
  -20.9929  -28.3224   24.1471 H   0  0  0  0  0  0
  -20.5612  -26.2265   23.3630 H   0  0  0  0  0  0
  -21.6592  -26.7424   22.1254 H   0  0  0  0  0  0
  -19.6854  -25.6303   21.1248 H   0  0  0  0  0  0
  -19.6622  -27.3207   20.6773 H   0  0  0  0  0  0
  -17.4133  -26.6673   21.4080 H   0  0  0  0  0  0
  -18.0290  -26.0079   22.9078 H   0  0  0  0  0  0
  -19.7915  -30.7251   24.2326 H   0  0  0  0  0  0
  -17.5004  -31.6293   24.5162 H   0  0  0  0  0  0
  -15.5332  -30.3033   23.7628 H   0  0  0  0  0  0
  -15.8633  -28.0849   22.7060 H   0  0  0  0  0  0
  -24.5903  -30.6959   25.7757 H   0  0  0  0  0  0
  -24.8820  -32.2772   26.4919 H   0  0  0  0  0  0
  -25.8032  -30.8801   27.0218 H   0  0  0  0  0  0
  -26.2908  -29.6781   24.1162 H   0  0  0  0  0  0
  -27.4020  -29.7291   25.4653 H   0  0  0  0  0  0
  -27.8765  -30.4370   23.9390 H   0  0  0  0  0  0
  -27.2569  -33.3648   26.2094 H   0  0  0  0  0  0
  -28.3814  -32.6875   25.0381 H   0  0  0  0  0  0
  -28.0612  -31.8470   26.5479 H   0  0  0  0  0  0
  -28.2555  -38.0129   24.7557 H   0  0  0  0  0  0
  -28.1087  -36.2650   24.6284 H   0  0  0  0  0  0
  -27.2278  -37.1434   25.8876 H   0  0  0  0  0  0
  -20.9243  -29.8798   21.7031 H   0  0  0  0  0  0
  -26.0151  -38.2867   24.1470 H   0  0  0  0  0  0
  -30.3753  -18.9347   18.5395 H   0  0  0  0  0  0
  -31.3298  -16.9608   19.5849 H   0  0  0  0  0  0
  -26.8129  -18.4895   20.9279 H   0  0  0  0  0  0
  -29.6400  -17.5669   24.1822 H   0  0  0  0  0  0
  -33.2801  -16.0213   22.4390 H   0  0  0  0  0  0
  -33.2257  -19.9339   24.2414 H   0  0  0  0  0  0
  -26.2623  -22.2209   22.0219 H   0  0  0  0  0  0
  -26.8943  -20.5740   21.5175 H   0  0  0  0  0  0
  -26.8195  -24.2241   20.6699 H   0  0  0  0  0  0
  -26.7888  -23.8068   18.9765 H   0  0  0  0  0  0
  -29.4206  -23.5266   17.7966 H   0  0  0  0  0  0
  -30.7206  -23.7209   18.9265 H   0  0  0  0  0  0
  -30.0553  -21.6600   20.1591 H   0  0  0  0  0  0
  -30.1592  -21.3144   18.4455 H   0  0  0  0  0  0
  -29.2417  -24.3378   20.7118 H   0  0  0  0  0  0
  -26.5021  -16.7098   22.3683 H   0  0  0  0  0  0
  -27.9352  -16.4867   23.3446 H   0  0  0  0  0  0
  -27.4659  -15.2672   22.1635 H   0  0  0  0  0  0
  -29.7876  -15.2044   23.5127 H   0  0  0  0  0  0
  -31.3058  -14.5239   23.0755 H   0  0  0  0  0  0
  -26.7711  -19.9142   18.9516 H   0  0  0  0  0  0
  -28.0944  -19.8820   17.8425 H   0  0  0  0  0  0
  -28.1120  -25.8002   18.2576 H   0  0  0  0  0  0
  -29.7355  -25.9932   18.7974 H   0  0  0  0  0  0
  -27.8668  -21.8659   18.3295 H   0  0  0  0  0  0
  1 25  1  0  0  0
  1 30  2  0  0  0
  1 93  1  0  0  0
  2  3  1  0  0  0
  2 25  1  0  0  0
  2 97  1  0  0  0
  2 98  1  0  0  0
  3  4  1  0  0  0
  3 99  1  0  0  0
  3100  1  0  0  0
  4  5  1  0  0  0
  4101  1  0  0  0
  4102  1  0  0  0
  5  6  1  0  0  0
  5 26  1  0  0  0
  5103  1  0  0  0
  6 25  1  0  0  0
  6104  1  0  0  0
  6105  1  0  0  0
  7  8  2  0  0  0
  7 26  1  0  0  0
  7 29  1  0  0  0
  8  9  1  0  0  0
  8 22  1  0  0  0
  9 10  1  0  0  0
  9 27  2  0  0  0
 10 11  2  0  0  0
 10 15  1  0  0  0
 11 12  1  0  0  0
 11106  1  0  0  0
 12 13  2  0  0  0
 12107  1  0  0  0
 13 14  1  0  0  0
 13 31  1  0  0  0
 14 15  2  0  0  0
 14108  1  0  0  0
 15109  1  0  0  0
 16 17  2  0  0  0
 16 21  1  0  0  0
 16 31  1  0  0  0
 17 18  1  0  0  0
 17110  1  0  0  0
 18 19  2  0  0  0
 18111  1  0  0  0
 19 20  1  0  0  0
 19 24  1  0  0  0
 20 21  2  0  0  0
 20112  1  0  0  0
 21 23  1  0  0  0
 22 28  1  0  0  0
 22 32  2  0  0  0
 26 27  1  0  0  0
 28113  1  0  0  0
 28114  1  0  0  0
 29115  1  0  0  0
 29116  1  0  0  0
 33 34  1  0  0  0
 33 66  1  0  0  0
 33 70  2  0  0  0
 34 36  1  0  0  0
 34 59  1  0  0  0
 34117  1  0  0  0
 35 44  2  0  0  0
 35 45  1  0  0  0
 35 68  1  0  0  0
 36 56  1  0  0  0
 36118  1  0  0  0
 37 39  1  0  0  0
 37 47  1  0  0  0
 37 66  1  0  0  0
 37119  1  0  0  0
 38 43  2  0  0  0
 38 46  1  0  0  0
 38 47  1  0  0  0
 39 64  1  0  0  0
 39 67  2  0  0  0
 40 52  1  0  0  0
 40 53  2  0  0  0
 40 58  1  0  0  0
 41120  1  0  0  0
 41121  1  0  0  0
 41122  1  0  0  0
 41 48  1  0  0  0
 42 43  1  0  0  0
 42 66  1  0  0  0
 42123  1  0  0  0
 42124  1  0  0  0
 43 44  1  0  0  0
 44125  1  0  0  0
 45 46  2  0  0  0
 45126  1  0  0  0
 46127  1  0  0  0
 47128  1  0  0  0
 47129  1  0  0  0
 48 56  1  0  0  0
 48 65  1  0  0  0
 48130  1  0  0  0
 49 50  1  0  0  0
 49 53  1  0  0  0
 49 64  1  0  0  0
 49131  1  0  0  0
 50 51  1  0  0  0
 50132  1  0  0  0
 50133  1  0  0  0
 51 52  1  0  0  0
 51134  1  0  0  0
 51135  1  0  0  0
 52136  1  0  0  0
 52137  1  0  0  0
 53 54  1  0  0  0
 54 55  2  0  0  0
 54138  1  0  0  0
 55 57  1  0  0  0
 55139  1  0  0  0
 56 69  2  0  0  0
 57 58  2  0  0  0
 57140  1  0  0  0
 58141  1  0  0  0
 59 60  1  0  0  0
 59 61  1  0  0  0
 59 62  1  0  0  0
 60142  1  0  0  0
 60143  1  0  0  0
 60144  1  0  0  0
 61145  1  0  0  0
 61146  1  0  0  0
 61147  1  0  0  0
 62148  1  0  0  0
 62149  1  0  0  0
 62150  1  0  0  0
 63 65  1  0  0  0
 63151  1  0  0  0
 63152  1  0  0  0
 63153  1  0  0  0
 64154  1  0  0  0
 65155  1  0  0  0
 68 92  1  0  0  0
 71 72  2  0  0  0
 71 77  1  0  0  0
 71156  1  0  0  0
 72 80  1  0  0  0
 72157  1  0  0  0
 73 77  2  0  0  0
 73 78  1  0  0  0
 73158  1  0  0  0
 74 79  2  0  0  0
 74 81  1  0  0  0
 74159  1  0  0  0
 75 79  1  0  0  0
 75 82  2  0  0  0
 75160  1  0  0  0
 76 81  2  0  0  0
 76 82  1  0  0  0
 76161  1  0  0  0
 77 91  1  0  0  0
 78 80  2  0  0  0
 78 89  1  0  0  0
 79 90  1  0  0  0
 80 93  1  0  0  0
 81 95  1  0  0  0
 82 96  1  0  0  0
 83 84  2  0  0  0
 83 85  1  0  0  0
 83 94  1  0  0  0
 84162  1  0  0  0
 84163  1  0  0  0
 85 88  1  0  0  0
 85164  1  0  0  0
 85165  1  0  0  0
 86 87  1  0  0  0
 86 88  1  0  0  0
 86166  1  0  0  0
 86167  1  0  0  0
 87 94  1  0  0  0
 87168  1  0  0  0
 87169  1  0  0  0
 88 92  1  0  0  0
 88170  1  0  0  0
 89171  1  0  0  0
 89172  1  0  0  0
 89173  1  0  0  0
 90 93  1  0  0  0
 90174  1  0  0  0
 90175  1  0  0  0
 91176  1  0  0  0
 91177  1  0  0  0
 91 94  1  0  0  0
 92178  1  0  0  0
 92179  1  0  0  0
 94180  1  0  0  0
M  CHG  1  94   1
M  ISO  4   1 100  68 101  92 101  93 100
M  END
> <chiral flag>
0

> <version>
0

> <s_m_source_file>
/data/baiqing/PycharmProjects/Reinvent-master-3.2/result/LINK_invent/BTK/process_docking_weight1_custom_product_contain_oxygen_bond_distance_aromatic_linkinvent_7_9_3/rearranged_h_0049.sdf

> <i_m_source_file_index>
46

> <r_mmod_Potential_Energy-OPLS-2005>
30.8295307159424

> <r_mmod_Stretch_Energy-OPLS-2005>
44.9292755126953

> <r_mmod_Bend_Energy-OPLS-2005>
139.451522827148

> <r_mmod_Torsional_Energy-OPLS-2005>
322.410186767578

> <r_mmod_Improper_Torsional_Energy-OPLS-2005>
3.69423794746399

> <r_mmod_Van_der_Waal_Energy-OPLS-2005>
156.352386474609

> <r_mmod_Electrostatic_Energy-OPLS-2005>
-220.766830444336

> <r_mmod_Solvation_Energy-OPLS-2005>
-426.356842041016

> <b_mmod_Minimization_Converged-OPLS-2005>
0

> <r_mmod_RMS_Derivative-OPLS-2005>
3.45674657821655

$$$$
46
                    3D
 Structure written by MMmdl.
171180  0  0  1  0            999 V2000
  -30.6134  -14.7677   20.4632 C   0  0  0  0  0  0
  -30.4361  -12.4770   19.4644 C   0  0  0  0  0  0
  -29.5046  -12.5121   18.2325 C   0  0  0  0  0  0
  -28.0307  -12.3304   18.6489 C   0  0  0  0  0  0
  -27.6331  -13.2348   19.8459 C   0  0  2  0  0  0
  -28.6855  -13.1883   20.9758 C   0  0  0  0  0  0
  -25.2386  -13.8120   20.5637 C   0  0  0  0  0  0
  -24.1723  -13.0351   20.9202 C   0  0  0  0  0  0
  -24.6374  -11.6867   20.8762 C   0  0  0  0  0  0
  -23.9056  -10.4248   21.0401 C   0  0  0  0  0  0
  -24.3603   -9.4181   21.9190 C   0  0  0  0  0  0
  -23.6281   -8.2220   22.0762 C   0  0  0  0  0  0
  -22.4269   -8.0262   21.3545 C   0  0  0  0  0  0
  -21.9892   -9.0227   20.4643 C   0  0  0  0  0  0
  -22.7225  -10.2106   20.3052 C   0  0  0  0  0  0
  -21.6852   -6.0733   22.5272 C   0  0  0  0  0  0
  -21.4008   -6.5634   23.8205 C   0  0  0  0  0  0
  -21.3650   -5.6791   24.9170 C   0  0  0  0  0  0
  -21.6031   -4.3051   24.7212 C   0  0  0  0  0  0
  -21.8830   -3.8143   23.4338 C   0  0  0  0  0  0
  -21.9194   -4.6964   22.3397 C   0  0  0  0  0  0
  -22.7753  -13.5151   21.1861 C   0  0  0  0  0  0
  -22.1670   -4.2143   21.0969 F   0  0  0  0  0  0
  -21.5614   -3.4537   25.7733 F   0  0  0  0  0  0
  -29.9841  -13.5430   20.3846 N   0  0  0  0  0  0
  -26.2886  -12.9380   20.3315 N   0  0  0  0  0  0
  -25.9313  -11.6520   20.5791 N   0  0  0  0  0  0
  -22.0430  -12.8165   22.0456 N   0  0  0  0  0  0
  -25.3836  -15.1812   20.3946 N   0  0  0  0  0  0
  -31.8156  -14.8531   20.2006 O   0  0  0  0  0  0
  -21.6633   -6.8866   21.4236 O   0  0  0  0  0  0
  -22.3428  -14.5459   20.6717 O   0  0  0  0  0  0
  -24.6303  -31.8517   23.2023 C   0  0  0  0  0  0
  -25.9132  -32.4738   23.8366 C   0  0  1  0  0  0
  -27.2194  -27.2571   20.1201 C   0  0  0  0  0  0
  -25.5961  -33.8546   24.2284 N   0  0  0  0  0  0
  -23.4302  -30.4795   21.5386 C   0  0  2  0  0  0
  -24.8779  -28.9275   20.1030 C   0  0  0  0  0  0
  -22.7494  -29.4600   22.4832 C   0  0  0  0  0  0
  -18.0295  -28.1393   22.8462 C   0  0  0  0  0  0
  -24.1498  -36.7245   23.2645 C   0  0  0  0  0  0
  -25.9800  -30.7574   21.3954 C   0  0  0  0  0  0
  -26.0465  -29.3858   20.7226 C   0  0  0  0  0  0
  -27.2130  -28.5591   20.7250 C   0  0  0  0  0  0
  -26.0251  -26.8565   19.4828 C   0  0  0  0  0  0
  -24.8721  -27.6694   19.4791 C   0  0  0  0  0  0
  -23.6533  -29.8224   20.1499 C   0  0  0  0  0  0
  -25.4118  -36.3028   24.0324 C   0  0  1  0  0  0
  -20.5900  -28.3694   23.1230 C   0  0  2  0  0  0
  -20.6794  -26.9403   22.5383 C   0  0  0  0  0  0
  -19.5781  -26.6372   21.5193 C   0  0  0  0  0  0
  -18.1945  -26.7953   22.1574 C   0  0  0  0  0  0
  -19.1551  -28.8857   23.2865 C   0  0  0  0  0  0
  -18.9484  -30.1457   23.8897 C   0  0  0  0  0  0
  -17.6481  -30.6598   24.0555 C   0  0  0  0  0  0
  -25.9054  -34.9422   23.5097 C   0  0  0  0  0  0
  -16.5366  -29.9090   23.6334 C   0  0  0  0  0  0
  -16.7282  -28.6501   23.0359 C   0  0  0  0  0  0
  -26.4525  -31.6586   25.0774 C   0  0  0  0  0  0
  -25.3745  -31.3753   26.1497 C   0  0  0  0  0  0
  -27.0429  -30.3003   24.6339 C   0  0  0  0  0  0
  -27.6079  -32.4365   25.7528 C   0  0  0  0  0  0
  -27.5592  -37.1757   24.8453 C   0  0  0  0  0  0
  -21.4187  -29.3058   22.3621 N   0  0  0  0  0  0
  -26.4274  -37.3746   23.9435 N   0  0  0  0  0  0
  -24.6969  -31.0491   22.0983 N   0  0  0  0  0  0
  -23.4185  -28.8072   23.2885 O   0  0  0  0  0  0
  -28.3346  -26.3959   20.2047 O   0  0  0  0  0  0
  -26.5603  -34.8894   22.4647 O   0  0  0  0  0  0
  -23.5438  -32.1321   23.7304 O   0  0  0  0  0  0
  -31.5493  -19.0859   21.6886 C   0  0  0  0  0  0
  -31.2912  -17.7483   21.3394 C   0  0  0  0  0  0
  -30.6401  -20.1312   21.4183 C   0  0  0  0  0  0
  -29.4349  -19.8822   20.7035 C   0  0  0  0  0  0
  -29.1454  -18.4612   20.4226 C   0  0  0  0  0  0
  -30.0775  -17.3638   20.7335 C   0  0  0  0  0  0
  -30.6961  -21.5827   23.3253 C   0  0  0  0  0  0
  -31.0111  -21.4341   22.0214 C   0  0  0  0  0  0
  -28.1478  -23.7176   20.3394 C   0  0  0  0  0  0
  -31.1679  -22.6389   24.3121 C   0  0  0  0  0  0
  -31.9458  -22.3682   21.2585 C   0  0  0  0  0  0
  -31.0149  -24.0914   23.8529 C   0  0  0  0  0  0
  -31.7120  -23.8889   21.3954 C   0  0  0  0  0  0
  -32.0101  -24.5073   22.7657 C   0  0  0  0  0  0
  -28.4101  -21.0842   20.3966 C   0  0  0  0  0  0
  -28.4562  -25.0646   19.5197 C   0  0  0  0  0  0
  -27.7776  -18.1222   19.8074 C   0  0  0  0  0  0
  -29.8090  -15.8976   20.5649 N   0  0  0  0  0  0
  -28.8064  -22.5251   20.0602 N   0  0  0  0  0  0
  -27.2551  -23.7462   21.1886 O   0  0  0  0  0  0
  -27.7435  -18.4916   18.5282 F   0  0  0  0  0  0
  -27.4950  -16.8229   19.8573 F   0  0  0  0  0  0
  -26.7961  -18.7393   20.4650 F   0  0  0  0  0  0
  -31.4734  -12.6169   19.1535 H   0  0  0  0  0  0
  -30.3968  -11.5064   19.9597 H   0  0  0  0  0  0
  -29.7898  -11.7341   17.5229 H   0  0  0  0  0  0
  -29.6216  -13.4633   17.7095 H   0  0  0  0  0  0
  -27.8885  -11.2826   18.9137 H   0  0  0  0  0  0
  -27.3720  -12.5210   17.8013 H   0  0  0  0  0  0
  -27.6135  -14.2506   19.4533 H   0  0  0  0  0  0
  -28.7291  -12.1963   21.4275 H   0  0  0  0  0  0
  -28.4178  -13.8807   21.7782 H   0  0  0  0  0  0
  -25.2747   -9.5675   22.4772 H   0  0  0  0  0  0
  -23.9981   -7.4612   22.7477 H   0  0  0  0  0  0
  -21.0828   -8.8731   19.8948 H   0  0  0  0  0  0
  -22.3665  -10.9646   19.6158 H   0  0  0  0  0  0
  -21.2003   -7.6158   23.9707 H   0  0  0  0  0  0
  -21.1453   -6.0526   25.9066 H   0  0  0  0  0  0
  -22.0616   -2.7612   23.2835 H   0  0  0  0  0  0
  -22.4066  -11.9836   22.4850 H   0  0  0  0  0  0
  -21.1064  -13.1204   22.2709 H   0  0  0  0  0  0
  -24.5850  -15.8038   20.4293 H   0  0  0  0  0  0
  -26.2197  -15.6408   20.0493 H   0  0  0  0  0  0
  -26.7182  -32.5356   23.1077 H   0  0  0  0  0  0
  -25.0247  -33.9735   25.0521 H   0  0  0  0  0  0
  -22.7303  -31.3040   21.3918 H   0  0  0  0  0  0
  -23.3820  -35.9521   23.3233 H   0  0  0  0  0  0
  -24.3602  -36.8930   22.2080 H   0  0  0  0  0  0
  -23.7185  -37.6395   23.6701 H   0  0  0  0  0  0
  -26.1529  -31.5301   20.6444 H   0  0  0  0  0  0
  -26.8420  -30.7751   22.0519 H   0  0  0  0  0  0
  -28.1035  -28.9001   21.2344 H   0  0  0  0  0  0
  -25.9406  -25.8864   19.0186 H   0  0  0  0  0  0
  -23.9699  -27.3112   19.0045 H   0  0  0  0  0  0
  -23.7918  -30.6071   19.4049 H   0  0  0  0  0  0
  -22.7698  -29.2700   19.8247 H   0  0  0  0  0  0
  -25.1295  -36.1851   25.0810 H   0  0  0  0  0  0
  -21.0005  -28.3263   24.1345 H   0  0  0  0  0  0
  -20.5704  -26.2295   23.3578 H   0  0  0  0  0  0
  -21.6646  -26.7433   22.1149 H   0  0  0  0  0  0
  -19.6957  -25.6275   21.1226 H   0  0  0  0  0  0
  -19.6751  -27.3178   20.6717 H   0  0  0  0  0  0
  -17.4214  -26.6699   21.3974 H   0  0  0  0  0  0
  -18.0336  -26.0102   22.8976 H   0  0  0  0  0  0
  -19.7972  -30.7255   24.2264 H   0  0  0  0  0  0
  -17.5057  -31.6290   24.5145 H   0  0  0  0  0  0
  -15.5374  -30.3004   23.7729 H   0  0  0  0  0  0
  -15.8656  -28.0830   22.7105 H   0  0  0  0  0  0
  -24.5894  -30.7138   25.7820 H   0  0  0  0  0  0
  -24.8997  -32.2946   26.4938 H   0  0  0  0  0  0
  -25.8056  -30.8898   27.0264 H   0  0  0  0  0  0
  -26.3051  -29.6714   24.1362 H   0  0  0  0  0  0
  -27.4105  -29.7295   25.4878 H   0  0  0  0  0  0
  -27.8916  -30.4297   23.9628 H   0  0  0  0  0  0
  -27.2671  -33.3687   26.2058 H   0  0  0  0  0  0
  -28.3906  -32.6906   25.0361 H   0  0  0  0  0  0
  -28.0749  -31.8541   26.5480 H   0  0  0  0  0  0
  -28.2501  -38.0163   24.7609 H   0  0  0  0  0  0
  -28.1189  -36.2688   24.6108 H   0  0  0  0  0  0
  -27.2329  -37.1174   25.8857 H   0  0  0  0  0  0
  -20.9349  -29.8841   21.6889 H   0  0  0  0  0  0
  -26.0142  -38.2792   24.1543 H   0  0  0  0  0  0
  -32.4562  -19.3030   22.2387 H   0  0  0  0  0  0
  -32.0238  -17.0075   21.6230 H   0  0  0  0  0  0
  -30.1236  -20.7919   23.7908 H   0  0  0  0  0  0
  -32.1999  -22.4227   24.5937 H   0  0  0  0  0  0
  -30.5745  -22.5029   25.2194 H   0  0  0  0  0  0
  -31.8008  -22.1382   20.2020 H   0  0  0  0  0  0
  -32.9806  -22.1007   21.4776 H   0  0  0  0  0  0
  -31.1757  -24.7355   24.7194 H   0  0  0  0  0  0
  -29.9892  -24.2843   23.5338 H   0  0  0  0  0  0
  -30.7005  -24.1544   21.1099 H   0  0  0  0  0  0
  -32.3494  -24.3836   20.6605 H   0  0  0  0  0  0
  -33.0370  -24.2966   23.0691 H   0  0  0  0  0  0
  -31.9507  -25.5925   22.6642 H   0  0  0  0  0  0
  -27.6960  -21.1025   21.2232 H   0  0  0  0  0  0
  -27.8276  -20.7882   19.5244 H   0  0  0  0  0  0
  -27.8879  -25.0493   18.5900 H   0  0  0  0  0  0
  -29.4916  -25.0047   19.1815 H   0  0  0  0  0  0
  -28.8279  -15.6763   20.4915 H   0  0  0  0  0  0
  -29.5472  -22.6043   19.3765 H   0  0  0  0  0  0
  1 25  1  0  0  0
  1 30  2  0  0  0
  1 88  1  0  0  0
  2  3  1  0  0  0
  2 25  1  0  0  0
  2 94  1  0  0  0
  2 95  1  0  0  0
  3  4  1  0  0  0
  3 96  1  0  0  0
  3 97  1  0  0  0
  4  5  1  0  0  0
  4 98  1  0  0  0
  4 99  1  0  0  0
  5  6  1  0  0  0
  5 26  1  0  0  0
  5100  1  0  0  0
  6 25  1  0  0  0
  6101  1  0  0  0
  6102  1  0  0  0
  7  8  2  0  0  0
  7 26  1  0  0  0
  7 29  1  0  0  0
  8  9  1  0  0  0
  8 22  1  0  0  0
  9 10  1  0  0  0
  9 27  2  0  0  0
 10 11  2  0  0  0
 10 15  1  0  0  0
 11 12  1  0  0  0
 11103  1  0  0  0
 12 13  2  0  0  0
 12104  1  0  0  0
 13 14  1  0  0  0
 13 31  1  0  0  0
 14 15  2  0  0  0
 14105  1  0  0  0
 15106  1  0  0  0
 16 17  2  0  0  0
 16 21  1  0  0  0
 16 31  1  0  0  0
 17 18  1  0  0  0
 17107  1  0  0  0
 18 19  2  0  0  0
 18108  1  0  0  0
 19 20  1  0  0  0
 19 24  1  0  0  0
 20 21  2  0  0  0
 20109  1  0  0  0
 21 23  1  0  0  0
 22 28  1  0  0  0
 22 32  2  0  0  0
 26 27  1  0  0  0
 28110  1  0  0  0
 28111  1  0  0  0
 29112  1  0  0  0
 29113  1  0  0  0
 33 34  1  0  0  0
 33 66  1  0  0  0
 33 70  2  0  0  0
 34 36  1  0  0  0
 34 59  1  0  0  0
 34114  1  0  0  0
 35 44  2  0  0  0
 35 45  1  0  0  0
 35 68  1  0  0  0
 36 56  1  0  0  0
 36115  1  0  0  0
 37 39  1  0  0  0
 37 47  1  0  0  0
 37 66  1  0  0  0
 37116  1  0  0  0
 38 43  2  0  0  0
 38 46  1  0  0  0
 38 47  1  0  0  0
 39 64  1  0  0  0
 39 67  2  0  0  0
 40 52  1  0  0  0
 40 53  2  0  0  0
 40 58  1  0  0  0
 41117  1  0  0  0
 41118  1  0  0  0
 41119  1  0  0  0
 41 48  1  0  0  0
 42 43  1  0  0  0
 42 66  1  0  0  0
 42120  1  0  0  0
 42121  1  0  0  0
 43 44  1  0  0  0
 44122  1  0  0  0
 45 46  2  0  0  0
 45123  1  0  0  0
 46124  1  0  0  0
 47125  1  0  0  0
 47126  1  0  0  0
 48 56  1  0  0  0
 48 65  1  0  0  0
 48127  1  0  0  0
 49 50  1  0  0  0
 49 53  1  0  0  0
 49 64  1  0  0  0
 49128  1  0  0  0
 50 51  1  0  0  0
 50129  1  0  0  0
 50130  1  0  0  0
 51 52  1  0  0  0
 51131  1  0  0  0
 51132  1  0  0  0
 52133  1  0  0  0
 52134  1  0  0  0
 53 54  1  0  0  0
 54 55  2  0  0  0
 54135  1  0  0  0
 55 57  1  0  0  0
 55136  1  0  0  0
 56 69  2  0  0  0
 57 58  2  0  0  0
 57137  1  0  0  0
 58138  1  0  0  0
 59 60  1  0  0  0
 59 61  1  0  0  0
 59 62  1  0  0  0
 60139  1  0  0  0
 60140  1  0  0  0
 60141  1  0  0  0
 61142  1  0  0  0
 61143  1  0  0  0
 61144  1  0  0  0
 62145  1  0  0  0
 62146  1  0  0  0
 62147  1  0  0  0
 63 65  1  0  0  0
 63148  1  0  0  0
 63149  1  0  0  0
 63150  1  0  0  0
 64151  1  0  0  0
 65152  1  0  0  0
 68 86  1  0  0  0
 71 72  2  0  0  0
 71 73  1  0  0  0
 71153  1  0  0  0
 72 76  1  0  0  0
 72154  1  0  0  0
 73 74  2  0  0  0
 73 78  1  0  0  0
 74 75  1  0  0  0
 74 85  1  0  0  0
 75 76  2  0  0  0
 75 87  1  0  0  0
 76 88  1  0  0  0
 77 78  2  0  0  0
 77 80  1  0  0  0
 77155  1  0  0  0
 78 81  1  0  0  0
 79 86  1  0  0  0
 79 89  1  0  0  0
 79 90  2  0  0  0
 80 82  1  0  0  0
 80156  1  0  0  0
 80157  1  0  0  0
 81 83  1  0  0  0
 81158  1  0  0  0
 81159  1  0  0  0
 82 84  1  0  0  0
 82160  1  0  0  0
 82161  1  0  0  0
 83 84  1  0  0  0
 83162  1  0  0  0
 83163  1  0  0  0
 84164  1  0  0  0
 84165  1  0  0  0
 85 89  1  0  0  0
 85166  1  0  0  0
 85167  1  0  0  0
 86168  1  0  0  0
 86169  1  0  0  0
 87 91  1  0  0  0
 87 92  1  0  0  0
 87 93  1  0  0  0
 88170  1  0  0  0
 89171  1  0  0  0
M  ISO  4   1 100  68 101  86 101  88 100
M  END
> <chiral flag>
0

> <version>
0

> <s_m_source_file>
/data/baiqing/PycharmProjects/Reinvent-master-3.2/result/LINK_invent/BTK/process_docking_weight1_custom_product_contain_oxygen_bond_distance_aromatic_linkinvent_7_9_3/rearranged_h_0049.sdf

> <i_m_source_file_index>
47

> <r_mmod_Potential_Energy-OPLS-2005>
238.525787353516

> <r_mmod_Stretch_Energy-OPLS-2005>
138.788146972656

> <r_mmod_Bend_Energy-OPLS-2005>
206.069946289062

> <r_mmod_Torsional_Energy-OPLS-2005>
264.965545654297

> <r_mmod_Improper_Torsional_Energy-OPLS-2005>
9.37341976165771

> <r_mmod_Van_der_Waal_Energy-OPLS-2005>
139.60871887207

> <r_mmod_Electrostatic_Energy-OPLS-2005>
-389.008056640625

> <r_mmod_Solvation_Energy-OPLS-2005>
-224.564407348633

> <b_mmod_Minimization_Converged-OPLS-2005>
0

> <r_mmod_RMS_Derivative-OPLS-2005>
4.75998735427856

$$$$
47
                    3D
 Structure written by MMmdl.
161170  0  0  1  0            999 V2000
  -30.5373  -14.7913   20.4453 C   0  0  0  0  0  0
  -30.4555  -12.4869   19.4605 C   0  0  0  0  0  0
  -29.5156  -12.5267   18.2313 C   0  0  0  0  0  0
  -28.0419  -12.3401   18.6478 C   0  0  0  0  0  0
  -27.6464  -13.2261   19.8579 C   0  0  2  0  0  0
  -28.6968  -13.1338   20.9881 C   0  0  0  0  0  0
  -25.2524  -13.8157   20.5681 C   0  0  0  0  0  0
  -24.1812  -13.0434   20.9230 C   0  0  0  0  0  0
  -24.6398  -11.6911   20.8780 C   0  0  0  0  0  0
  -23.9067  -10.4304   21.0445 C   0  0  0  0  0  0
  -24.3610   -9.4217   21.9219 C   0  0  0  0  0  0
  -23.6288   -8.2249   22.0779 C   0  0  0  0  0  0
  -22.4274   -8.0297   21.3561 C   0  0  0  0  0  0
  -21.9912   -9.0279   20.4666 C   0  0  0  0  0  0
  -22.7246  -10.2156   20.3086 C   0  0  0  0  0  0
  -21.6848   -6.0746   22.5284 C   0  0  0  0  0  0
  -21.4026   -6.5648   23.8220 C   0  0  0  0  0  0
  -21.3662   -5.6795   24.9180 C   0  0  0  0  0  0
  -21.6026   -4.3055   24.7225 C   0  0  0  0  0  0
  -21.8814   -3.8155   23.4345 C   0  0  0  0  0  0
  -21.9194   -4.6978   22.3406 C   0  0  0  0  0  0
  -22.7829  -13.5247   21.1850 C   0  0  0  0  0  0
  -22.1651   -4.2170   21.0982 F   0  0  0  0  0  0
  -21.5624   -3.4533   25.7729 F   0  0  0  0  0  0
  -29.9911  -13.5241   20.4096 N   0  0  0  0  0  0
  -26.2958  -12.9357   20.3300 N   0  0  0  0  0  0
  -25.9326  -11.6512   20.5767 N   0  0  0  0  0  0
  -22.0432  -12.8295   22.0404 N   0  0  0  0  0  0
  -25.4149  -15.1866   20.4011 N   0  0  0  0  0  0
  -31.7204  -14.9612   20.1309 O   0  0  0  0  0  0
  -21.6638   -6.8890   21.4248 O   0  0  0  0  0  0
  -22.3556  -14.5560   20.6687 O   0  0  0  0  0  0
  -24.6302  -31.8498   23.1897 C   0  0  0  0  0  0
  -25.9112  -32.4717   23.8271 C   0  0  1  0  0  0
  -27.2480  -27.2408   20.1509 C   0  0  0  0  0  0
  -25.5887  -33.8522   24.2209 N   0  0  0  0  0  0
  -23.4296  -30.4621   21.5350 C   0  0  2  0  0  0
  -24.8827  -28.8889   20.1150 C   0  0  0  0  0  0
  -22.7495  -29.4561   22.4936 C   0  0  0  0  0  0
  -18.0283  -28.1368   22.8490 C   0  0  0  0  0  0
  -24.1468  -36.7253   23.2647 C   0  0  0  0  0  0
  -25.9711  -30.7586   21.3674 C   0  0  0  0  0  0
  -26.0482  -29.3736   20.7196 C   0  0  0  0  0  0
  -27.2283  -28.5644   20.7154 C   0  0  0  0  0  0
  -26.0585  -26.8091   19.5298 C   0  0  0  0  0  0
  -24.8957  -27.6175   19.5070 C   0  0  0  0  0  0
  -23.6483  -29.7749   20.1576 C   0  0  0  0  0  0
  -25.4095  -36.3042   24.0332 C   0  0  1  0  0  0
  -20.5884  -28.3676   23.1286 C   0  0  2  0  0  0
  -20.6767  -26.9395   22.5430 C   0  0  0  0  0  0
  -19.5745  -26.6369   21.5221 C   0  0  0  0  0  0
  -18.1921  -26.7910   22.1626 C   0  0  0  0  0  0
  -19.1537  -28.8841   23.2876 C   0  0  0  0  0  0
  -18.9463  -30.1444   23.8886 C   0  0  0  0  0  0
  -17.6465  -30.6577   24.0553 C   0  0  0  0  0  0
  -25.9047  -34.9422   23.5089 C   0  0  0  0  0  0
  -16.5353  -29.9075   23.6331 C   0  0  0  0  0  0
  -16.7272  -28.6488   23.0362 C   0  0  0  0  0  0
  -26.4476  -31.6552   25.0674 C   0  0  0  0  0  0
  -25.3687  -31.3734   26.1390 C   0  0  0  0  0  0
  -27.0335  -30.2961   24.6186 C   0  0  0  0  0  0
  -27.6015  -32.4304   25.7461 C   0  0  0  0  0  0
  -27.5567  -37.1768   24.8467 C   0  0  0  0  0  0
  -21.4202  -29.3007   22.3667 N   0  0  0  0  0  0
  -26.4262  -37.3752   23.9431 N   0  0  0  0  0  0
  -24.6959  -31.0431   22.0875 N   0  0  0  0  0  0
  -23.4181  -28.8151   23.3085 O   0  0  0  0  0  0
  -28.4161  -26.4412   20.1875 O   0  0  0  0  0  0
  -26.5652  -34.8922   22.4681 O   0  0  0  0  0  0
  -23.5447  -32.1333   23.7185 O   0  0  0  0  0  0
  -28.1462  -19.3865   20.2775 C   0  0  0  0  0  0
  -28.3209  -17.9642   20.3664 C   0  0  0  0  0  0
  -30.6693  -18.2450   20.5482 C   0  0  0  0  0  0
  -30.5086  -19.6906   20.5230 C   0  0  0  0  0  0
  -29.2162  -20.3255   20.3366 C   0  0  0  0  0  0
  -29.5863  -17.3204   20.4956 C   0  0  0  0  0  0
  -29.2326  -22.5615   19.1136 C   0  0  0  0  0  0
  -28.8687  -24.1020   18.9680 C   0  0  0  0  0  0
  -27.6769  -24.0052   21.1271 C   0  0  0  0  0  0
  -28.2489  -22.5297   21.3514 C   0  0  0  0  0  0
  -28.5742  -24.9276   20.2616 C   0  0  2  0  0  0
  -32.5592  -20.0578   22.0131 C   0  0  0  0  0  0
  -31.7844  -20.5088   20.7608 C   0  0  0  0  0  0
  -28.9273  -21.8099   20.2254 N   0  0  0  0  0  0
  -29.6331  -15.8310   20.6478 N   0  0  0  0  0  0
  -29.7899  -22.0418   18.1393 O   0  0  0  0  0  0
  -31.5415  -21.8051   20.9402 F   0  0  0  0  0  0
  -32.5788  -20.3800   19.6993 F   0  0  0  0  0  0
  -31.4880  -12.6553   19.1484 H   0  0  0  0  0  0
  -30.4397  -11.5047   19.9328 H   0  0  0  0  0  0
  -29.8050  -11.7622   17.5102 H   0  0  0  0  0  0
  -29.6267  -13.4831   17.7164 H   0  0  0  0  0  0
  -27.8995  -11.2885   18.8985 H   0  0  0  0  0  0
  -27.3833  -12.5429   17.8029 H   0  0  0  0  0  0
  -27.6413  -14.2519   19.4900 H   0  0  0  0  0  0
  -28.7467  -12.1214   21.3909 H   0  0  0  0  0  0
  -28.4289  -13.7760   21.8295 H   0  0  0  0  0  0
  -25.2754   -9.5698   22.4793 H   0  0  0  0  0  0
  -24.0008   -7.4642   22.7489 H   0  0  0  0  0  0
  -21.0845   -8.8809   19.8956 H   0  0  0  0  0  0
  -22.3721  -10.9708   19.6195 H   0  0  0  0  0  0
  -21.2025   -7.6156   23.9729 H   0  0  0  0  0  0
  -21.1477   -6.0523   25.9081 H   0  0  0  0  0  0
  -22.0586   -2.7622   23.2826 H   0  0  0  0  0  0
  -22.4030  -12.0013   22.4889 H   0  0  0  0  0  0
  -21.1047  -13.1364   22.2536 H   0  0  0  0  0  0
  -24.6232  -15.8156   20.4713 H   0  0  0  0  0  0
  -26.2122  -15.6024   19.9394 H   0  0  0  0  0  0
  -26.7182  -32.5362   23.1016 H   0  0  0  0  0  0
  -24.9963  -33.9642   25.0306 H   0  0  0  0  0  0
  -22.7241  -31.2806   21.3784 H   0  0  0  0  0  0
  -23.3745  -35.9572   23.3293 H   0  0  0  0  0  0
  -24.3557  -36.8896   22.2067 H   0  0  0  0  0  0
  -23.7209  -37.6439   23.6692 H   0  0  0  0  0  0
  -26.1027  -31.5146   20.5918 H   0  0  0  0  0  0
  -26.8497  -30.8166   21.9997 H   0  0  0  0  0  0
  -28.1261  -28.9415   21.1850 H   0  0  0  0  0  0
  -26.0257  -25.8339   19.0640 H   0  0  0  0  0  0
  -24.0039  -27.2404   19.0256 H   0  0  0  0  0  0
  -23.7597  -30.5387   19.3866 H   0  0  0  0  0  0
  -22.7694  -29.1958   19.8675 H   0  0  0  0  0  0
  -25.1279  -36.1869   25.0822 H   0  0  0  0  0  0
  -20.9970  -28.3250   24.1408 H   0  0  0  0  0  0
  -20.5658  -26.2282   23.3634 H   0  0  0  0  0  0
  -21.6634  -26.7412   22.1230 H   0  0  0  0  0  0
  -19.6914  -25.6278   21.1248 H   0  0  0  0  0  0
  -19.6682  -27.3184   20.6751 H   0  0  0  0  0  0
  -17.4200  -26.6666   21.4014 H   0  0  0  0  0  0
  -18.0309  -26.0045   22.9018 H   0  0  0  0  0  0
  -19.7941  -30.7253   24.2254 H   0  0  0  0  0  0
  -17.5022  -31.6257   24.5152 H   0  0  0  0  0  0
  -15.5355  -30.2978   23.7648 H   0  0  0  0  0  0
  -15.8671  -28.0798   22.7100 H   0  0  0  0  0  0
  -24.5842  -30.7103   25.7719 H   0  0  0  0  0  0
  -24.8888  -32.2921   26.4776 H   0  0  0  0  0  0
  -25.7966  -30.8922   27.0194 H   0  0  0  0  0  0
  -26.2934  -29.6690   24.1192 H   0  0  0  0  0  0
  -27.3993  -29.7235   25.4721 H   0  0  0  0  0  0
  -27.8815  -30.4227   23.9450 H   0  0  0  0  0  0
  -27.2598  -33.3603   26.2029 H   0  0  0  0  0  0
  -28.3825  -32.6868   25.0290 H   0  0  0  0  0  0
  -28.0686  -31.8435   26.5384 H   0  0  0  0  0  0
  -28.2573  -38.0076   24.7526 H   0  0  0  0  0  0
  -28.1067  -36.2603   24.6260 H   0  0  0  0  0  0
  -27.2296  -37.1392   25.8874 H   0  0  0  0  0  0
  -20.9406  -29.8651   21.6791 H   0  0  0  0  0  0
  -26.0129  -38.2821   24.1444 H   0  0  0  0  0  0
  -27.1402  -19.7648   20.1624 H   0  0  0  0  0  0
  -27.4296  -17.3558   20.3262 H   0  0  0  0  0  0
  -31.6599  -17.8295   20.6553 H   0  0  0  0  0  0
  -28.0129  -24.1736   18.2983 H   0  0  0  0  0  0
  -29.6927  -24.5837   18.4413 H   0  0  0  0  0  0
  -27.5162  -24.4679   22.1022 H   0  0  0  0  0  0
  -26.6925  -23.9420   20.6636 H   0  0  0  0  0  0
  -27.4409  -21.9003   21.7237 H   0  0  0  0  0  0
  -28.9774  -22.5697   22.1605 H   0  0  0  0  0  0
  -29.5281  -24.8938   20.7899 H   0  0  0  0  0  0
  -31.9265  -20.1042   22.8995 H   0  0  0  0  0  0
  -33.4233  -20.6974   22.1876 H   0  0  0  0  0  0
  -32.9370  -19.0403   21.9304 H   0  0  0  0  0  0
  -28.7271  -15.4414   20.8558 H   0  0  0  0  0  0
  1 25  1  0  0  0
  1 30  2  0  0  0
  1 85  1  0  0  0
  2  3  1  0  0  0
  2 25  1  0  0  0
  2 89  1  0  0  0
  2 90  1  0  0  0
  3  4  1  0  0  0
  3 91  1  0  0  0
  3 92  1  0  0  0
  4  5  1  0  0  0
  4 93  1  0  0  0
  4 94  1  0  0  0
  5  6  1  0  0  0
  5 26  1  0  0  0
  5 95  1  0  0  0
  6 25  1  0  0  0
  6 96  1  0  0  0
  6 97  1  0  0  0
  7  8  2  0  0  0
  7 26  1  0  0  0
  7 29  1  0  0  0
  8  9  1  0  0  0
  8 22  1  0  0  0
  9 10  1  0  0  0
  9 27  2  0  0  0
 10 11  2  0  0  0
 10 15  1  0  0  0
 11 12  1  0  0  0
 11 98  1  0  0  0
 12 13  2  0  0  0
 12 99  1  0  0  0
 13 14  1  0  0  0
 13 31  1  0  0  0
 14 15  2  0  0  0
 14100  1  0  0  0
 15101  1  0  0  0
 16 17  2  0  0  0
 16 21  1  0  0  0
 16 31  1  0  0  0
 17 18  1  0  0  0
 17102  1  0  0  0
 18 19  2  0  0  0
 18103  1  0  0  0
 19 20  1  0  0  0
 19 24  1  0  0  0
 20 21  2  0  0  0
 20104  1  0  0  0
 21 23  1  0  0  0
 22 28  1  0  0  0
 22 32  2  0  0  0
 26 27  1  0  0  0
 28105  1  0  0  0
 28106  1  0  0  0
 29107  1  0  0  0
 29108  1  0  0  0
 33 34  1  0  0  0
 33 66  1  0  0  0
 33 70  2  0  0  0
 34 36  1  0  0  0
 34 59  1  0  0  0
 34109  1  0  0  0
 35 44  2  0  0  0
 35 45  1  0  0  0
 35 68  1  0  0  0
 36 56  1  0  0  0
 36110  1  0  0  0
 37 39  1  0  0  0
 37 47  1  0  0  0
 37 66  1  0  0  0
 37111  1  0  0  0
 38 43  2  0  0  0
 38 46  1  0  0  0
 38 47  1  0  0  0
 39 64  1  0  0  0
 39 67  2  0  0  0
 40 52  1  0  0  0
 40 53  2  0  0  0
 40 58  1  0  0  0
 41112  1  0  0  0
 41113  1  0  0  0
 41114  1  0  0  0
 41 48  1  0  0  0
 42 43  1  0  0  0
 42 66  1  0  0  0
 42115  1  0  0  0
 42116  1  0  0  0
 43 44  1  0  0  0
 44117  1  0  0  0
 45 46  2  0  0  0
 45118  1  0  0  0
 46119  1  0  0  0
 47120  1  0  0  0
 47121  1  0  0  0
 48 56  1  0  0  0
 48 65  1  0  0  0
 48122  1  0  0  0
 49 50  1  0  0  0
 49 53  1  0  0  0
 49 64  1  0  0  0
 49123  1  0  0  0
 50 51  1  0  0  0
 50124  1  0  0  0
 50125  1  0  0  0
 51 52  1  0  0  0
 51126  1  0  0  0
 51127  1  0  0  0
 52128  1  0  0  0
 52129  1  0  0  0
 53 54  1  0  0  0
 54 55  2  0  0  0
 54130  1  0  0  0
 55 57  1  0  0  0
 55131  1  0  0  0
 56 69  2  0  0  0
 57 58  2  0  0  0
 57132  1  0  0  0
 58133  1  0  0  0
 59 60  1  0  0  0
 59 61  1  0  0  0
 59 62  1  0  0  0
 60134  1  0  0  0
 60135  1  0  0  0
 60136  1  0  0  0
 61137  1  0  0  0
 61138  1  0  0  0
 61139  1  0  0  0
 62140  1  0  0  0
 62141  1  0  0  0
 62142  1  0  0  0
 63 65  1  0  0  0
 63143  1  0  0  0
 63144  1  0  0  0
 63145  1  0  0  0
 64146  1  0  0  0
 65147  1  0  0  0
 68 81  1  0  0  0
 71 72  2  0  0  0
 71 75  1  0  0  0
 71148  1  0  0  0
 72 76  1  0  0  0
 72149  1  0  0  0
 73 74  1  0  0  0
 73 76  2  0  0  0
 73150  1  0  0  0
 74 75  2  0  0  0
 74 83  1  0  0  0
 75 84  1  0  0  0
 76 85  1  0  0  0
 77 78  1  0  0  0
 77 84  1  0  0  0
 77 86  2  0  0  0
 78 81  1  0  0  0
 78151  1  0  0  0
 78152  1  0  0  0
 79 80  1  0  0  0
 79 81  1  0  0  0
 79153  1  0  0  0
 79154  1  0  0  0
 80 84  1  0  0  0
 80155  1  0  0  0
 80156  1  0  0  0
 81157  1  0  0  0
 82158  1  0  0  0
 82159  1  0  0  0
 82160  1  0  0  0
 82 83  1  0  0  0
 83 87  1  0  0  0
 83 88  1  0  0  0
 85161  1  0  0  0
M  ISO  4   1 100  68 101  81 101  85 100
M  END
> <chiral flag>
0

> <version>
0

> <s_m_source_file>
/data/baiqing/PycharmProjects/Reinvent-master-3.2/result/LINK_invent/BTK/process_docking_weight1_custom_product_contain_oxygen_bond_distance_aromatic_linkinvent_7_9_3/rearranged_h_0049.sdf

> <i_m_source_file_index>
48

> <r_mmod_Potential_Energy-OPLS-2005>
308.123718261719

> <r_mmod_Stretch_Energy-OPLS-2005>
140.138336181641

> <r_mmod_Bend_Energy-OPLS-2005>
240.283813476562

> <r_mmod_Torsional_Energy-OPLS-2005>
291.689605712891

> <r_mmod_Improper_Torsional_Energy-OPLS-2005>
6.07674694061279

> <r_mmod_Van_der_Waal_Energy-OPLS-2005>
134.137680053711

> <r_mmod_Electrostatic_Energy-OPLS-2005>
-375.984619140625

> <r_mmod_Solvation_Energy-OPLS-2005>
-225.419708251953

> <b_mmod_Minimization_Converged-OPLS-2005>
0

> <r_mmod_RMS_Derivative-OPLS-2005>
2.5470757484436

$$$$
48
                    3D
 Structure written by MMmdl.
167175  0  0  1  0            999 V2000
  -30.6490  -14.8641   20.4539 C   0  0  0  0  0  0
  -30.4264  -12.5473   19.4769 C   0  0  0  0  0  0
  -29.5035  -12.5153   18.2409 C   0  0  0  0  0  0
  -28.0401  -12.3001   18.6689 C   0  0  0  0  0  0
  -27.6213  -13.2272   19.8387 C   0  0  2  0  0  0
  -28.6801  -13.2698   20.9663 C   0  0  0  0  0  0
  -25.2247  -13.7839   20.5543 C   0  0  0  0  0  0
  -24.1641  -13.0154   20.9226 C   0  0  0  0  0  0
  -24.6357  -11.6712   20.8820 C   0  0  0  0  0  0
  -23.9049  -10.4140   21.0438 C   0  0  0  0  0  0
  -24.3598   -9.4079   21.9221 C   0  0  0  0  0  0
  -23.6257   -8.2137   22.0769 C   0  0  0  0  0  0
  -22.4243   -8.0209   21.3543 C   0  0  0  0  0  0
  -21.9885   -9.0182   20.4643 C   0  0  0  0  0  0
  -22.7232  -10.2040   20.3063 C   0  0  0  0  0  0
  -21.6820   -6.0698   22.5283 C   0  0  0  0  0  0
  -21.3990   -6.5615   23.8213 C   0  0  0  0  0  0
  -21.3654   -5.6774   24.9182 C   0  0  0  0  0  0
  -21.6045   -4.3037   24.7232 C   0  0  0  0  0  0
  -21.8825   -3.8123   23.4354 C   0  0  0  0  0  0
  -21.9183   -4.6935   22.3407 C   0  0  0  0  0  0
  -22.7689  -13.5016   21.1884 C   0  0  0  0  0  0
  -22.1658   -4.2126   21.0985 F   0  0  0  0  0  0
  -21.5637   -3.4525   25.7746 F   0  0  0  0  0  0
  -29.9602  -13.6569   20.3536 N   0  0  0  0  0  0
  -26.2838  -12.9218   20.3324 N   0  0  0  0  0  0
  -25.9322  -11.6371   20.5900 N   0  0  0  0  0  0
  -22.0338  -12.8080   22.0490 N   0  0  0  0  0  0
  -25.3398  -15.1416   20.3607 N   0  0  0  0  0  0
  -31.8591  -14.8379   20.2078 O   0  0  0  0  0  0
  -21.6589   -6.8829   21.4241 O   0  0  0  0  0  0
  -22.3407  -14.5348   20.6742 O   0  0  0  0  0  0
  -24.6322  -31.8524   23.1939 C   0  0  0  0  0  0
  -25.9136  -32.4742   23.8305 C   0  0  1  0  0  0
  -27.2470  -27.2502   20.1505 C   0  0  0  0  0  0
  -25.5921  -33.8542   24.2232 N   0  0  0  0  0  0
  -23.4323  -30.4684   21.5371 C   0  0  2  0  0  0
  -24.8862  -28.8982   20.1244 C   0  0  0  0  0  0
  -22.7510  -29.4581   22.4914 C   0  0  0  0  0  0
  -18.0291  -28.1390   22.8483 C   0  0  0  0  0  0
  -24.1487  -36.7276   23.2643 C   0  0  0  0  0  0
  -25.9766  -30.7625   21.3740 C   0  0  0  0  0  0
  -26.0560  -29.3777   20.7282 C   0  0  0  0  0  0
  -27.2398  -28.5692   20.7223 C   0  0  0  0  0  0
  -26.0510  -26.8271   19.5353 C   0  0  0  0  0  0
  -24.8882  -27.6297   19.5180 C   0  0  0  0  0  0
  -23.6554  -29.7874   20.1597 C   0  0  0  0  0  0
  -25.4115  -36.3060   24.0326 C   0  0  1  0  0  0
  -20.5896  -28.3701   23.1270 C   0  0  2  0  0  0
  -20.6777  -26.9417   22.5412 C   0  0  0  0  0  0
  -19.5755  -26.6382   21.5216 C   0  0  0  0  0  0
  -18.1934  -26.7931   22.1623 C   0  0  0  0  0  0
  -19.1545  -28.8863   23.2870 C   0  0  0  0  0  0
  -18.9466  -30.1464   23.8889 C   0  0  0  0  0  0
  -17.6465  -30.6591   24.0561 C   0  0  0  0  0  0
  -25.9054  -34.9433   23.5084 C   0  0  0  0  0  0
  -16.5356  -29.9085   23.6335 C   0  0  0  0  0  0
  -16.7277  -28.6502   23.0355 C   0  0  0  0  0  0
  -26.4504  -31.6576   25.0704 C   0  0  0  0  0  0
  -25.3725  -31.3731   26.1423 C   0  0  0  0  0  0
  -27.0360  -30.2992   24.6202 C   0  0  0  0  0  0
  -27.6050  -32.4327   25.7484 C   0  0  0  0  0  0
  -27.5575  -37.1793   24.8467 C   0  0  0  0  0  0
  -21.4214  -29.3041   22.3654 N   0  0  0  0  0  0
  -26.4287  -37.3762   23.9410 N   0  0  0  0  0  0
  -24.6992  -31.0470   22.0918 N   0  0  0  0  0  0
  -23.4194  -28.8142   23.3039 O   0  0  0  0  0  0
  -28.3767  -26.3985   20.0905 O   0  0  0  0  0  0
  -26.5636  -34.8915   22.4659 O   0  0  0  0  0  0
  -23.5467  -32.1349   23.7228 O   0  0  0  0  0  0
  -27.5976  -17.2562   18.0144 C   0  0  0  0  0  0
  -26.6314  -17.8728   18.8272 C   0  0  0  0  0  0
  -28.6651  -16.5585   18.6033 C   0  0  0  0  0  0
  -26.6836  -17.7306   20.2289 C   0  0  0  0  0  0
  -27.7024  -16.9420   20.8252 C   0  0  0  0  0  0
  -28.7429  -16.4234   20.0081 C   0  0  0  0  0  0
  -29.8178  -18.9207   22.4475 C   0  0  0  0  0  0
  -30.1291  -18.8625   21.1391 C   0  0  0  0  0  0
  -29.9410  -20.2101   20.3420 C   0  0  0  0  0  0
  -25.6206  -18.4103   21.0763 C   0  0  0  0  0  0
  -27.6661  -16.6718   22.3266 C   0  0  0  0  0  0
  -30.5441  -20.1989   18.9495 C   0  0  0  0  0  0
  -30.7870  -17.4801   20.6001 C   0  0  0  0  0  0
  -28.4392  -25.0834   20.8276 C   0  0  0  0  0  0
  -28.3433  -23.5664   20.2116 C   0  0  0  0  0  0
  -29.3337  -21.3008   20.8123 N   0  0  0  0  0  0
  -30.0157  -16.1343   20.5617 N   0  0  0  0  0  0
  -29.4962  -22.6014   20.1080 O   0  0  0  0  0  0
  -31.4614  -12.6729   19.1559 H   0  0  0  0  0  0
  -30.3971  -11.5954   20.0095 H   0  0  0  0  0  0
  -29.8146  -11.7246   17.5565 H   0  0  0  0  0  0
  -29.5927  -13.4521   17.6888 H   0  0  0  0  0  0
  -27.9382  -11.2579   18.9736 H   0  0  0  0  0  0
  -27.3706  -12.4343   17.8186 H   0  0  0  0  0  0
  -27.5577  -14.2157   19.3960 H   0  0  0  0  0  0
  -28.7628  -12.3020   21.4628 H   0  0  0  0  0  0
  -28.3927  -13.9862   21.7349 H   0  0  0  0  0  0
  -25.2731   -9.5556   22.4816 H   0  0  0  0  0  0
  -23.9941   -7.4518   22.7488 H   0  0  0  0  0  0
  -21.0815   -8.8707   19.8951 H   0  0  0  0  0  0
  -22.3702  -10.9594   19.6177 H   0  0  0  0  0  0
  -21.1971   -7.6121   23.9711 H   0  0  0  0  0  0
  -21.1479   -6.0504   25.9087 H   0  0  0  0  0  0
  -22.0614   -2.7587   23.2857 H   0  0  0  0  0  0
  -22.3926  -11.9738   22.4891 H   0  0  0  0  0  0
  -21.0979  -13.1162   22.2713 H   0  0  0  0  0  0
  -24.5456  -15.7603   20.4645 H   0  0  0  0  0  0
  -26.1889  -15.6415   20.1157 H   0  0  0  0  0  0
  -26.7204  -32.5401   23.1051 H   0  0  0  0  0  0
  -25.0061  -33.9672   25.0373 H   0  0  0  0  0  0
  -22.7301  -31.2897   21.3816 H   0  0  0  0  0  0
  -23.3750  -35.9608   23.3305 H   0  0  0  0  0  0
  -24.3574  -36.8901   22.2057 H   0  0  0  0  0  0
  -23.7241  -37.6476   23.6671 H   0  0  0  0  0  0
  -26.1110  -31.5165   20.5972 H   0  0  0  0  0  0
  -26.8551  -30.8213   22.0049 H   0  0  0  0  0  0
  -28.1436  -28.9443   21.1819 H   0  0  0  0  0  0
  -26.0182  -25.8560   19.0619 H   0  0  0  0  0  0
  -23.9926  -27.2544   19.0421 H   0  0  0  0  0  0
  -23.7817  -30.5558   19.3959 H   0  0  0  0  0  0
  -22.7752  -29.2165   19.8580 H   0  0  0  0  0  0
  -25.1301  -36.1900   25.0819 H   0  0  0  0  0  0
  -20.9987  -28.3279   24.1392 H   0  0  0  0  0  0
  -20.5673  -26.2313   23.3620 H   0  0  0  0  0  0
  -21.6645  -26.7434   22.1209 H   0  0  0  0  0  0
  -19.6915  -25.6289   21.1253 H   0  0  0  0  0  0
  -19.6694  -27.3187   20.6742 H   0  0  0  0  0  0
  -17.4206  -26.6682   21.4023 H   0  0  0  0  0  0
  -18.0327  -26.0074   22.9019 H   0  0  0  0  0  0
  -19.7944  -30.7282   24.2250 H   0  0  0  0  0  0
  -17.5020  -31.6272   24.5162 H   0  0  0  0  0  0
  -15.5356  -30.2984   23.7666 H   0  0  0  0  0  0
  -15.8676  -28.0819   22.7074 H   0  0  0  0  0  0
  -24.5901  -30.7080   25.7751 H   0  0  0  0  0  0
  -24.8915  -32.2901   26.4834 H   0  0  0  0  0  0
  -25.8036  -30.8918   27.0208 H   0  0  0  0  0  0
  -26.2947  -29.6727   24.1226 H   0  0  0  0  0  0
  -27.4039  -29.7269   25.4728 H   0  0  0  0  0  0
  -27.8822  -30.4266   23.9448 H   0  0  0  0  0  0
  -27.2649  -33.3632   26.2041 H   0  0  0  0  0  0
  -28.3871  -32.6879   25.0322 H   0  0  0  0  0  0
  -28.0706  -31.8467   26.5418 H   0  0  0  0  0  0
  -28.2596  -38.0086   24.7505 H   0  0  0  0  0  0
  -28.1066  -36.2615   24.6303 H   0  0  0  0  0  0
  -27.2293  -37.1453   25.8871 H   0  0  0  0  0  0
  -20.9410  -29.8744   21.6836 H   0  0  0  0  0  0
  -26.0163  -38.2835   24.1408 H   0  0  0  0  0  0
  -27.5539  -17.3738   16.9408 H   0  0  0  0  0  0
  -25.8429  -18.4509   18.3649 H   0  0  0  0  0  0
  -29.4648  -16.1974   17.9717 H   0  0  0  0  0  0
  -29.4136  -19.8075   22.9144 H   0  0  0  0  0  0
  -29.9715  -18.0656   23.0878 H   0  0  0  0  0  0
  -24.8589  -18.8852   20.4576 H   0  0  0  0  0  0
  -26.0724  -19.1835   21.6987 H   0  0  0  0  0  0
  -25.1183  -17.6942   21.7269 H   0  0  0  0  0  0
  -27.5016  -17.5876   22.8923 H   0  0  0  0  0  0
  -28.5795  -16.2111   22.6988 H   0  0  0  0  0  0
  -26.8468  -15.9925   22.5601 H   0  0  0  0  0  0
  -30.1430  -19.3626   18.3776 H   0  0  0  0  0  0
  -31.6266  -20.0936   19.0102 H   0  0  0  0  0  0
  -30.3182  -21.1080   18.3938 H   0  0  0  0  0  0
  -31.6744  -17.3178   21.2136 H   0  0  0  0  0  0
  -31.1825  -17.6491   19.5990 H   0  0  0  0  0  0
  -29.3636  -25.1206   21.4043 H   0  0  0  0  0  0
  -27.6629  -25.1461   21.5918 H   0  0  0  0  0  0
  -27.9182  -23.6516   19.2112 H   0  0  0  0  0  0
  -27.5610  -23.0579   20.7772 H   0  0  0  0  0  0
  1 25  1  0  0  0
  1 30  2  0  0  0
  1 87  1  0  0  0
  2  3  1  0  0  0
  2 25  1  0  0  0
  2 89  1  0  0  0
  2 90  1  0  0  0
  3  4  1  0  0  0
  3 91  1  0  0  0
  3 92  1  0  0  0
  4  5  1  0  0  0
  4 93  1  0  0  0
  4 94  1  0  0  0
  5  6  1  0  0  0
  5 26  1  0  0  0
  5 95  1  0  0  0
  6 25  1  0  0  0
  6 96  1  0  0  0
  6 97  1  0  0  0
  7  8  2  0  0  0
  7 26  1  0  0  0
  7 29  1  0  0  0
  8  9  1  0  0  0
  8 22  1  0  0  0
  9 10  1  0  0  0
  9 27  2  0  0  0
 10 11  2  0  0  0
 10 15  1  0  0  0
 11 12  1  0  0  0
 11 98  1  0  0  0
 12 13  2  0  0  0
 12 99  1  0  0  0
 13 14  1  0  0  0
 13 31  1  0  0  0
 14 15  2  0  0  0
 14100  1  0  0  0
 15101  1  0  0  0
 16 17  2  0  0  0
 16 21  1  0  0  0
 16 31  1  0  0  0
 17 18  1  0  0  0
 17102  1  0  0  0
 18 19  2  0  0  0
 18103  1  0  0  0
 19 20  1  0  0  0
 19 24  1  0  0  0
 20 21  2  0  0  0
 20104  1  0  0  0
 21 23  1  0  0  0
 22 28  1  0  0  0
 22 32  2  0  0  0
 26 27  1  0  0  0
 28105  1  0  0  0
 28106  1  0  0  0
 29107  1  0  0  0
 29108  1  0  0  0
 33 34  1  0  0  0
 33 66  1  0  0  0
 33 70  2  0  0  0
 34 36  1  0  0  0
 34 59  1  0  0  0
 34109  1  0  0  0
 35 44  2  0  0  0
 35 45  1  0  0  0
 35 68  1  0  0  0
 36 56  1  0  0  0
 36110  1  0  0  0
 37 39  1  0  0  0
 37 47  1  0  0  0
 37 66  1  0  0  0
 37111  1  0  0  0
 38 43  2  0  0  0
 38 46  1  0  0  0
 38 47  1  0  0  0
 39 64  1  0  0  0
 39 67  2  0  0  0
 40 52  1  0  0  0
 40 53  2  0  0  0
 40 58  1  0  0  0
 41112  1  0  0  0
 41113  1  0  0  0
 41114  1  0  0  0
 41 48  1  0  0  0
 42 43  1  0  0  0
 42 66  1  0  0  0
 42115  1  0  0  0
 42116  1  0  0  0
 43 44  1  0  0  0
 44117  1  0  0  0
 45 46  2  0  0  0
 45118  1  0  0  0
 46119  1  0  0  0
 47120  1  0  0  0
 47121  1  0  0  0
 48 56  1  0  0  0
 48 65  1  0  0  0
 48122  1  0  0  0
 49 50  1  0  0  0
 49 53  1  0  0  0
 49 64  1  0  0  0
 49123  1  0  0  0
 50 51  1  0  0  0
 50124  1  0  0  0
 50125  1  0  0  0
 51 52  1  0  0  0
 51126  1  0  0  0
 51127  1  0  0  0
 52128  1  0  0  0
 52129  1  0  0  0
 53 54  1  0  0  0
 54 55  2  0  0  0
 54130  1  0  0  0
 55 57  1  0  0  0
 55131  1  0  0  0
 56 69  2  0  0  0
 57 58  2  0  0  0
 57132  1  0  0  0
 58133  1  0  0  0
 59 60  1  0  0  0
 59 61  1  0  0  0
 59 62  1  0  0  0
 60134  1  0  0  0
 60135  1  0  0  0
 60136  1  0  0  0
 61137  1  0  0  0
 61138  1  0  0  0
 61139  1  0  0  0
 62140  1  0  0  0
 62141  1  0  0  0
 62142  1  0  0  0
 63 65  1  0  0  0
 63143  1  0  0  0
 63144  1  0  0  0
 63145  1  0  0  0
 64146  1  0  0  0
 65147  1  0  0  0
 68 84  1  0  0  0
 71 72  2  0  0  0
 71 73  1  0  0  0
 71148  1  0  0  0
 72 74  1  0  0  0
 72149  1  0  0  0
 73 76  2  0  0  0
 73150  1  0  0  0
 74 75  2  0  0  0
 74 80  1  0  0  0
 75 76  1  0  0  0
 75 81  1  0  0  0
 76 87  1  0  0  0
 77 78  2  0  0  0
 77151  1  0  0  0
 77152  1  0  0  0
 78 79  1  0  0  0
 78 83  1  0  0  0
 79 82  1  0  0  0
 79 86  2  0  0  0
 80153  1  0  0  0
 80154  1  0  0  0
 80155  1  0  0  0
 81156  1  0  0  0
 81157  1  0  0  0
 81158  1  0  0  0
 82159  1  0  0  0
 82160  1  0  0  0
 82161  1  0  0  0
 83 87  1  0  0  0
 83162  1  0  0  0
 83163  1  0  0  0
 84 85  1  0  0  0
 84164  1  0  0  0
 84165  1  0  0  0
 85 88  1  0  0  0
 85166  1  0  0  0
 85167  1  0  0  0
 86 88  1  0  0  0
M  ISO  4   1 100  68 101  84 101  87 100
M  END
> <chiral flag>
0

> <version>
0

> <s_m_source_file>
/data/baiqing/PycharmProjects/Reinvent-master-3.2/result/LINK_invent/BTK/process_docking_weight1_custom_product_contain_oxygen_bond_distance_aromatic_linkinvent_7_9_3/rearranged_h_0049.sdf

> <i_m_source_file_index>
49

> <r_mmod_Potential_Energy-OPLS-2005>
537.752746582031

> <r_mmod_Stretch_Energy-OPLS-2005>
178.551162719727

> <r_mmod_Bend_Energy-OPLS-2005>
249.346740722656

> <r_mmod_Torsional_Energy-OPLS-2005>
342.932434082031

> <r_mmod_Improper_Torsional_Energy-OPLS-2005>
13.3916730880737

> <r_mmod_Van_der_Waal_Energy-OPLS-2005>
144.425170898438

> <r_mmod_Electrostatic_Energy-OPLS-2005>
-321.715209960938

> <r_mmod_Solvation_Energy-OPLS-2005>
-188.848220825195

> <b_mmod_Minimization_Converged-OPLS-2005>
0

> <r_mmod_RMS_Derivative-OPLS-2005>
0.680119335651398

$$$$
49
                    3D
 Structure written by MMmdl.
160168  0  0  1  0            999 V2000
  -29.4479  -16.0138   20.3339 C   0  0  0  0  0  0
  -30.2556  -13.4373   19.6014 C   0  0  0  0  0  0
  -29.5254  -12.7753   18.3874 C   0  0  0  0  0  0
  -28.1295  -12.2775   18.7953 C   0  0  0  0  0  0
  -27.4929  -13.2729   19.7842 C   0  0  2  0  0  0
  -28.3922  -13.6635   20.9518 C   0  0  0  0  0  0
  -25.1898  -13.8162   20.5678 C   0  0  0  0  0  0
  -24.1373  -13.0354   20.9367 C   0  0  0  0  0  0
  -24.6042  -11.6850   20.8807 C   0  0  0  0  0  0
  -23.8861  -10.4234   21.0487 C   0  0  0  0  0  0
  -24.3517   -9.4186   21.9236 C   0  0  0  0  0  0
  -23.6250   -8.2189   22.0763 C   0  0  0  0  0  0
  -22.4240   -8.0215   21.3540 C   0  0  0  0  0  0
  -21.9826   -9.0167   20.4654 C   0  0  0  0  0  0
  -22.7079  -10.2074   20.3102 C   0  0  0  0  0  0
  -21.6840   -6.0708   22.5279 C   0  0  0  0  0  0
  -21.3996   -6.5627   23.8208 C   0  0  0  0  0  0
  -21.3651   -5.6785   24.9177 C   0  0  0  0  0  0
  -21.6051   -4.3049   24.7232 C   0  0  0  0  0  0
  -21.8823   -3.8133   23.4357 C   0  0  0  0  0  0
  -21.9191   -4.6941   22.3411 C   0  0  0  0  0  0
  -22.7455  -13.5162   21.2023 C   0  0  0  0  0  0
  -22.1669   -4.2128   21.0989 F   0  0  0  0  0  0
  -21.5636   -3.4539   25.7752 F   0  0  0  0  0  0
  -29.3663  -14.5198   20.2995 N   0  0  0  0  0  0
  -26.2013  -12.9275   20.2771 N   0  0  0  0  0  0
  -25.8864  -11.6434   20.5496 N   0  0  0  0  0  0
  -22.0125  -12.8147   22.0582 N   0  0  0  0  0  0
  -25.3664  -15.1908   20.4078 N   0  0  0  0  0  0
  -30.7080  -16.1382   20.2016 O   0  0  0  0  0  0
  -21.6617   -6.8823   21.4228 O   0  0  0  0  0  0
  -22.3201  -14.5473   20.6843 O   0  0  0  0  0  0
  -24.7214  -31.8673   22.6931 C   0  0  0  0  0  0
  -25.9216  -32.4708   23.6060 C   0  0  1  0  0  0
  -26.5459  -28.0078   21.5009 C   0  0  0  0  0  0
  -25.5332  -33.8228   24.0545 N   0  0  0  0  0  0
  -24.1440  -29.4060   21.0718 C   0  0  2  0  0  0
  -25.4561  -28.9932   19.4341 C   0  0  0  0  0  0
  -23.6395  -27.6226   22.1457 C   0  0  0  0  0  0
  -18.1451  -28.0640   22.8205 C   0  0  0  0  0  0
  -24.1402  -36.7294   23.2743 C   0  0  0  0  0  0
  -26.0948  -31.0363   20.8517 C   0  0  0  0  0  0
  -26.4490  -29.7154   20.1751 C   0  0  0  0  0  0
  -27.3592  -28.9321   20.8728 C   0  0  0  0  0  0
  -26.0764  -27.0530   20.5064 C   0  0  0  0  0  0
  -25.4582  -27.5980   19.3782 C   0  0  0  0  0  0
  -24.1352  -29.4910   19.5434 C   0  0  0  0  0  0
  -25.4087  -36.2928   24.0233 C   0  0  1  0  0  0
  -20.7687  -27.5512   23.2777 C   0  0  2  0  0  0
  -20.3619  -26.2432   22.6548 C   0  0  0  0  0  0
  -19.3336  -26.3047   21.5396 C   0  0  0  0  0  0
  -18.0297  -26.7292   22.1337 C   0  0  0  0  0  0
  -19.4204  -28.5845   23.2763 C   0  0  0  0  0  0
  -19.2385  -29.8601   23.9373 C   0  0  0  0  0  0
  -17.9816  -30.5317   24.0714 C   0  0  0  0  0  0
  -25.9061  -34.9517   23.4456 C   0  0  0  0  0  0
  -16.7899  -29.9437   23.6225 C   0  0  0  0  0  0
  -16.8885  -28.6980   23.0032 C   0  0  0  0  0  0
  -26.4176  -31.7104   24.9509 C   0  0  0  0  0  0
  -25.3494  -31.5349   26.0770 C   0  0  0  0  0  0
  -27.0663  -30.3464   24.6376 C   0  0  0  0  0  0
  -27.5721  -32.5057   25.6339 C   0  0  0  0  0  0
  -27.5527  -37.1709   24.8462 C   0  0  0  0  0  0
  -22.3900  -27.4025   23.0064 N   0  0  0  0  0  0
  -26.4169  -37.3741   23.9503 N   0  0  0  0  0  0
  -24.8553  -30.8913   21.5971 N   0  0  0  0  0  0
  -24.3266  -26.9873   22.8849 O   0  0  0  0  0  0
  -25.8554  -28.7425   22.6767 O   0  0  0  0  0  0
  -26.6119  -34.9442   22.4360 O   0  0  0  0  0  0
  -23.6063  -32.1571   23.1808 O   0  0  0  0  0  0
  -25.6465  -22.1007   20.6641 C   0  0  0  0  0  0
  -25.2394  -20.2408   19.2291 C   0  0  0  0  0  0
  -23.8042  -22.4362   19.2051 C   0  0  0  0  0  0
  -26.1999  -20.5251   20.2372 C   0  0  0  0  0  0
  -24.4143  -23.2213   20.2261 C   0  0  0  0  0  0
  -24.1711  -21.1031   18.7657 C   0  0  0  0  0  0
  -21.7069  -28.1866   20.6255 C   0  0  0  0  0  0
  -21.6651  -26.1885   18.9493 C   0  0  0  0  0  0
  -27.6474  -19.0841   20.5273 C   0  0  0  0  0  0
  -23.5333  -25.0636   20.5689 C   0  0  0  0  0  0
  -22.1631  -29.6100   22.2513 C   0  0  0  0  0  0
  -24.1109  -29.4712   23.4854 C   0  0  0  0  0  0
  -28.2645  -17.2201   20.3874 N   0  0  0  0  0  0
  -22.3116  -26.6013   20.2024 N   0  0  0  0  0  0
  -20.9136  -28.6956   19.8292 O   0  0  0  0  0  0
  -23.1964  -20.4519   17.4994 Cl  0  0  0  0  0  0
  -31.1798  -13.8946   19.2479 H   0  0  0  0  0  0
  -30.5851  -12.6733   20.3095 H   0  0  0  0  0  0
  -30.1217  -11.9653   17.9687 H   0  0  0  0  0  0
  -29.4238  -13.5217   17.5993 H   0  0  0  0  0  0
  -28.2330  -11.3050   19.2791 H   0  0  0  0  0  0
  -27.4983  -12.1306   17.9184 H   0  0  0  0  0  0
  -27.3197  -14.1583   19.1694 H   0  0  0  0  0  0
  -28.8008  -12.8065   21.4904 H   0  0  0  0  0  0
  -27.8513  -14.2634   21.6863 H   0  0  0  0  0  0
  -25.2655   -9.5716   22.4820 H   0  0  0  0  0  0
  -23.9990   -7.4581   22.7461 H   0  0  0  0  0  0
  -21.0777   -8.8664   19.8950 H   0  0  0  0  0  0
  -22.3519  -10.9637   19.6251 H   0  0  0  0  0  0
  -21.1973   -7.6133   23.9698 H   0  0  0  0  0  0
  -21.1474   -6.0525   25.9078 H   0  0  0  0  0  0
  -22.0609   -2.7592   23.2859 H   0  0  0  0  0  0
  -22.3764  -11.9806   22.4944 H   0  0  0  0  0  0
  -21.0758  -13.1174   22.2859 H   0  0  0  0  0  0
  -24.5459  -15.7835   20.4826 H   0  0  0  0  0  0
  -25.9904  -15.5011   19.6742 H   0  0  0  0  0  0
  -26.8133  -32.5864   22.9988 H   0  0  0  0  0  0
  -24.8925  -33.8782   24.8327 H   0  0  0  0  0  0
  -23.3896  -30.0395   20.6310 H   0  0  0  0  0  0
  -23.3712  -35.9565   23.3177 H   0  0  0  0  0  0
  -24.3443  -36.9267   22.2211 H   0  0  0  0  0  0
  -23.7113  -37.6335   23.7073 H   0  0  0  0  0  0
  -25.9573  -31.7995   20.0847 H   0  0  0  0  0  0
  -26.9533  -31.3525   21.4312 H   0  0  0  0  0  0
  -27.9892  -29.5029   21.5397 H   0  0  0  0  0  0
  -25.8377  -26.0402   20.7933 H   0  0  0  0  0  0
  -24.7672  -27.0192   18.7828 H   0  0  0  0  0  0
  -24.1500  -30.4745   19.0370 H   0  0  0  0  0  0
  -23.4594  -28.8599   18.9649 H   0  0  0  0  0  0
  -25.1392  -36.1394   25.0712 H   0  0  0  0  0  0
  -20.8034  -27.3672   24.3534 H   0  0  0  0  0  0
  -19.9068  -25.6498   23.4501 H   0  0  0  0  0  0
  -21.1822  -25.5967   22.3438 H   0  0  0  0  0  0
  -19.2214  -25.3189   21.0877 H   0  0  0  0  0  0
  -19.5252  -26.9759   20.7235 H   0  0  0  0  0  0
  -17.2861  -26.7887   21.3367 H   0  0  0  0  0  0
  -17.6658  -25.9833   22.8417 H   0  0  0  0  0  0
  -20.0766  -30.3269   24.4346 H   0  0  0  0  0  0
  -17.9435  -31.4830   24.5824 H   0  0  0  0  0  0
  -15.8338  -30.4302   23.7578 H   0  0  0  0  0  0
  -15.9819  -28.2194   22.6581 H   0  0  0  0  0  0
  -24.3186  -31.5416   25.7322 H   0  0  0  0  0  0
  -25.3811  -32.3654   26.7830 H   0  0  0  0  0  0
  -25.5093  -30.6334   26.6690 H   0  0  0  0  0  0
  -26.3811  -29.5199   24.7973 H   0  0  0  0  0  0
  -27.9044  -30.1179   25.2974 H   0  0  0  0  0  0
  -27.4665  -30.3144   23.6265 H   0  0  0  0  0  0
  -27.2687  -33.5034   25.9540 H   0  0  0  0  0  0
  -28.4236  -32.6310   24.9638 H   0  0  0  0  0  0
  -27.9387  -32.0021   26.5308 H   0  0  0  0  0  0
  -28.2476  -38.0082   24.7625 H   0  0  0  0  0  0
  -28.1072  -36.2617   24.6066 H   0  0  0  0  0  0
  -27.2327  -37.1123   25.8886 H   0  0  0  0  0  0
  -22.7168  -26.7264   23.6830 H   0  0  0  0  0  0
  -25.9975  -38.2755   24.1619 H   0  0  0  0  0  0
  -26.2697  -22.5129   21.4461 H   0  0  0  0  0  0
  -25.3384  -19.2830   18.7411 H   0  0  0  0  0  0
  -22.9660  -22.8881   18.6984 H   0  0  0  0  0  0
  -22.0947  -26.7345   18.1095 H   0  0  0  0  0  0
  -20.5918  -26.3695   18.9421 H   0  0  0  0  0  0
  -21.7695  -25.1222   18.7483 H   0  0  0  0  0  0
  -27.8670  -19.2742   21.5779 H   0  0  0  0  0  0
  -28.4793  -19.5759   20.0263 H   0  0  0  0  0  0
  -22.6342  -24.4948   20.8049 H   0  0  0  0  0  0
  -23.8241  -25.1859   19.5274 H   0  0  0  0  0  0
  -22.0079  -30.6139   21.8462 H   0  0  0  0  0  0
  -21.4284  -29.7967   22.9852 H   0  0  0  0  0  0
  -23.9040  -28.8021   24.3272 H   0  0  0  0  0  0
  -24.2256  -30.1817   24.2726 H   0  0  0  0  0  0
  -27.4135  -16.6719   20.4381 H   0  0  0  0  0  0
  1 25  1  0  0  0
  1 30  2  0  0  0
  1 83  1  0  0  0
  2  3  1  0  0  0
  2 25  1  0  0  0
  2 87  1  0  0  0
  2 88  1  0  0  0
  3  4  1  0  0  0
  3 89  1  0  0  0
  3 90  1  0  0  0
  4  5  1  0  0  0
  4 91  1  0  0  0
  4 92  1  0  0  0
  5  6  1  0  0  0
  5 26  1  0  0  0
  5 93  1  0  0  0
  6 25  1  0  0  0
  6 94  1  0  0  0
  6 95  1  0  0  0
  7  8  2  0  0  0
  7 26  1  0  0  0
  7 29  1  0  0  0
  8  9  1  0  0  0
  8 22  1  0  0  0
  9 10  1  0  0  0
  9 27  2  0  0  0
 10 11  2  0  0  0
 10 15  1  0  0  0
 11 12  1  0  0  0
 11 96  1  0  0  0
 12 13  2  0  0  0
 12 97  1  0  0  0
 13 14  1  0  0  0
 13 31  1  0  0  0
 14 15  2  0  0  0
 14 98  1  0  0  0
 15 99  1  0  0  0
 16 17  2  0  0  0
 16 21  1  0  0  0
 16 31  1  0  0  0
 17 18  1  0  0  0
 17100  1  0  0  0
 18 19  2  0  0  0
 18101  1  0  0  0
 19 20  1  0  0  0
 19 24  1  0  0  0
 20 21  2  0  0  0
 20102  1  0  0  0
 21 23  1  0  0  0
 22 28  1  0  0  0
 22 32  2  0  0  0
 26 27  1  0  0  0
 28103  1  0  0  0
 28104  1  0  0  0
 29105  1  0  0  0
 29106  1  0  0  0
 33 34  1  0  0  0
 33 66  1  0  0  0
 33 70  2  0  0  0
 34 36  1  0  0  0
 34 59  1  0  0  0
 34107  1  0  0  0
 35 44  2  0  0  0
 35 45  1  0  0  0
 35 68  1  0  0  0
 36 56  1  0  0  0
 36108  1  0  0  0
 37 39  1  0  0  0
 37 47  1  0  0  0
 37 66  1  0  0  0
 37109  1  0  0  0
 38 43  2  0  0  0
 38 46  1  0  0  0
 38 47  1  0  0  0
 39 64  1  0  0  0
 39 67  2  0  0  0
 40 52  1  0  0  0
 40 53  2  0  0  0
 40 58  1  0  0  0
 41110  1  0  0  0
 41111  1  0  0  0
 41112  1  0  0  0
 41 48  1  0  0  0
 42 43  1  0  0  0
 42 66  1  0  0  0
 42113  1  0  0  0
 42114  1  0  0  0
 43 44  1  0  0  0
 44115  1  0  0  0
 45 46  2  0  0  0
 45116  1  0  0  0
 46117  1  0  0  0
 47118  1  0  0  0
 47119  1  0  0  0
 48 56  1  0  0  0
 48 65  1  0  0  0
 48120  1  0  0  0
 49 50  1  0  0  0
 49 53  1  0  0  0
 49 64  1  0  0  0
 49121  1  0  0  0
 50 51  1  0  0  0
 50122  1  0  0  0
 50123  1  0  0  0
 51 52  1  0  0  0
 51124  1  0  0  0
 51125  1  0  0  0
 52126  1  0  0  0
 52127  1  0  0  0
 53 54  1  0  0  0
 54 55  2  0  0  0
 54128  1  0  0  0
 55 57  1  0  0  0
 55129  1  0  0  0
 56 69  2  0  0  0
 57 58  2  0  0  0
 57130  1  0  0  0
 58131  1  0  0  0
 59 60  1  0  0  0
 59 61  1  0  0  0
 59 62  1  0  0  0
 60132  1  0  0  0
 60133  1  0  0  0
 60134  1  0  0  0
 61135  1  0  0  0
 61136  1  0  0  0
 61137  1  0  0  0
 62138  1  0  0  0
 62139  1  0  0  0
 62140  1  0  0  0
 63 65  1  0  0  0
 63141  1  0  0  0
 63142  1  0  0  0
 63143  1  0  0  0
 64144  1  0  0  0
 65145  1  0  0  0
 68 82  1  0  0  0
 71 74  2  0  0  0
 71 75  1  0  0  0
 71146  1  0  0  0
 72 74  1  0  0  0
 72 76  2  0  0  0
 72147  1  0  0  0
 73 75  2  0  0  0
 73 76  1  0  0  0
 73148  1  0  0  0
 74 79  1  0  0  0
 75 80  1  0  0  0
 76 86  1  0  0  0
 77 81  1  0  0  0
 77 84  1  0  0  0
 77 85  2  0  0  0
 78 84  1  0  0  0
 78149  1  0  0  0
 78150  1  0  0  0
 78151  1  0  0  0
 79 83  1  0  0  0
 79152  1  0  0  0
 79153  1  0  0  0
 80 84  1  0  0  0
 80154  1  0  0  0
 80155  1  0  0  0
 81 82  1  0  0  0
 81156  1  0  0  0
 81157  1  0  0  0
 82158  1  0  0  0
 82159  1  0  0  0
 83160  1  0  0  0
M  ISO  4   1 100  68 101  82 101  83 100
M  END
> <chiral flag>
0

> <version>
0

> <s_m_source_file>
/data/baiqing/PycharmProjects/Reinvent-master-3.2/result/LINK_invent/BTK/process_docking_weight1_custom_product_contain_oxygen_bond_distance_aromatic_linkinvent_7_9_3/rearranged_h_0049.sdf

> <i_m_source_file_index>
50

> <r_mmod_Potential_Energy-OPLS-2005>
15265.8115234375

> <r_mmod_Stretch_Energy-OPLS-2005>
5592.52734375

> <r_mmod_Bend_Energy-OPLS-2005>
2137.91235351562

> <r_mmod_Torsional_Energy-OPLS-2005>
637.394104003906

> <r_mmod_Improper_Torsional_Energy-OPLS-2005>
94.0177307128906

> <r_mmod_Van_der_Waal_Energy-OPLS-2005>
1858.75732421875

> <r_mmod_Electrostatic_Energy-OPLS-2005>
-403.457611083984

> <r_mmod_Solvation_Energy-OPLS-2005>
-215.245254516602

> <b_mmod_Minimization_Converged-OPLS-2005>
0

> <r_mmod_RMS_Derivative-OPLS-2005>
4.89006567001343

$$$$
50
                    3D
 Structure written by MMmdl.
171180  0  0  1  0            999 V2000
  -30.6194  -14.6369   20.4811 C   0  0  0  0  0  0
  -30.4278  -12.3830   19.4653 C   0  0  0  0  0  0
  -29.5044  -12.5015   18.2321 C   0  0  0  0  0  0
  -28.0259  -12.3480   18.6404 C   0  0  0  0  0  0
  -27.6511  -13.2204   19.8676 C   0  0  2  0  0  0
  -28.6924  -13.0811   21.0008 C   0  0  0  0  0  0
  -25.2551  -13.8179   20.5692 C   0  0  0  0  0  0
  -24.1819  -13.0440   20.9195 C   0  0  0  0  0  0
  -24.6399  -11.6913   20.8753 C   0  0  0  0  0  0
  -23.9067  -10.4290   21.0416 C   0  0  0  0  0  0
  -24.3617   -9.4203   21.9190 C   0  0  0  0  0  0
  -23.6292   -8.2244   22.0753 C   0  0  0  0  0  0
  -22.4276   -8.0286   21.3545 C   0  0  0  0  0  0
  -21.9911   -9.0260   20.4650 C   0  0  0  0  0  0
  -22.7241  -10.2139   20.3059 C   0  0  0  0  0  0
  -21.6848   -6.0745   22.5280 C   0  0  0  0  0  0
  -21.4019   -6.5648   23.8216 C   0  0  0  0  0  0
  -21.3656   -5.6799   24.9180 C   0  0  0  0  0  0
  -21.6036   -4.3058   24.7228 C   0  0  0  0  0  0
  -21.8819   -3.8154   23.4350 C   0  0  0  0  0  0
  -21.9195   -4.6973   22.3410 C   0  0  0  0  0  0
  -22.7844  -13.5231   21.1854 C   0  0  0  0  0  0
  -22.1659   -4.2157   21.0987 F   0  0  0  0  0  0
  -21.5624   -3.4546   25.7744 F   0  0  0  0  0  0
  -30.0082  -13.4120   20.4398 N   0  0  0  0  0  0
  -26.2981  -12.9377   20.3344 N   0  0  0  0  0  0
  -25.9324  -11.6525   20.5782 N   0  0  0  0  0  0
  -22.0500  -12.8220   22.0414 N   0  0  0  0  0  0
  -25.4274  -15.1897   20.4123 N   0  0  0  0  0  0
  -31.7751  -14.7864   20.0748 O   0  0  0  0  0  0
  -21.6633   -6.8886   21.4240 O   0  0  0  0  0  0
  -22.3526  -14.5533   20.6696 O   0  0  0  0  0  0
  -24.6244  -31.8581   23.2006 C   0  0  0  0  0  0
  -25.9091  -32.4763   23.8351 C   0  0  1  0  0  0
  -27.2339  -27.3180   20.1340 C   0  0  0  0  0  0
  -25.5901  -33.8565   24.2283 N   0  0  0  0  0  0
  -23.4187  -30.4774   21.5426 C   0  0  2  0  0  0
  -24.8652  -28.9167   20.1226 C   0  0  0  0  0  0
  -22.7466  -29.4605   22.4941 C   0  0  0  0  0  0
  -18.0282  -28.1370   22.8489 C   0  0  0  0  0  0
  -24.1491  -36.7302   23.2640 C   0  0  0  0  0  0
  -25.9563  -30.7876   21.3695 C   0  0  0  0  0  0
  -26.0293  -29.4083   20.7259 C   0  0  0  0  0  0
  -27.2144  -28.6215   20.7161 C   0  0  0  0  0  0
  -26.0523  -26.8697   19.5089 C   0  0  0  0  0  0
  -24.8776  -27.6515   19.5081 C   0  0  0  0  0  0
  -23.6329  -29.7984   20.1622 C   0  0  0  0  0  0
  -25.4116  -36.3088   24.0336 C   0  0  1  0  0  0
  -20.5879  -28.3677   23.1278 C   0  0  2  0  0  0
  -20.6759  -26.9397   22.5408 C   0  0  0  0  0  0
  -19.5740  -26.6375   21.5205 C   0  0  0  0  0  0
  -18.1922  -26.7910   22.1623 C   0  0  0  0  0  0
  -19.1530  -28.8844   23.2881 C   0  0  0  0  0  0
  -18.9452  -30.1440   23.8910 C   0  0  0  0  0  0
  -17.6451  -30.6579   24.0557 C   0  0  0  0  0  0
  -25.9049  -34.9446   23.5123 C   0  0  0  0  0  0
  -16.5344  -29.9077   23.6310 C   0  0  0  0  0  0
  -16.7269  -28.6480   23.0358 C   0  0  0  0  0  0
  -26.4482  -31.6570   25.0717 C   0  0  0  0  0  0
  -25.3716  -31.3695   26.1451 C   0  0  0  0  0  0
  -27.0333  -30.3003   24.6143 C   0  0  0  0  0  0
  -27.6055  -32.4302   25.7470 C   0  0  0  0  0  0
  -27.5589  -37.1809   24.8467 C   0  0  0  0  0  0
  -21.4180  -29.3032   22.3685 N   0  0  0  0  0  0
  -26.4302  -37.3776   23.9405 N   0  0  0  0  0  0
  -24.6859  -31.0591   22.0948 N   0  0  0  0  0  0
  -23.4187  -28.8155   23.3030 O   0  0  0  0  0  0
  -28.4164  -26.5773   20.0611 O   0  0  0  0  0  0
  -26.5630  -34.8910   22.4697 O   0  0  0  0  0  0
  -23.5411  -32.1367   23.7341 O   0  0  0  0  0  0
  -29.0277  -17.8099   17.8429 C   0  0  0  0  0  0
  -29.3197  -16.7232   18.6746 C   0  0  0  0  0  0
  -29.5785  -18.2719   20.5331 C   0  0  0  0  0  0
  -29.0355  -19.1389   18.3170 C   0  0  0  0  0  0
  -29.3122  -19.4249   19.6914 C   0  0  0  0  0  0
  -29.6210  -16.9154   20.0341 C   0  0  0  0  0  0
  -27.8542  -22.7614   21.2052 C   0  0  0  0  0  0
  -27.6382  -22.1544   22.3875 C   0  0  0  0  0  0
  -27.4310  -24.2346   20.9069 C   0  0  0  0  0  0
  -29.3241  -24.3878   19.2829 C   0  0  0  0  0  0
  -28.7747  -22.9749   18.8898 C   0  0  0  0  0  0
  -28.6064  -25.1522   20.4394 C   0  0  2  0  0  0
  -28.7787  -20.1959   17.2600 C   0  0  0  0  0  0
  -30.0110  -26.0572   23.7833 C   0  0  0  0  0  0
  -29.4923  -20.9122   20.2377 C   0  0  0  0  0  0
  -29.6317  -25.2886   21.5944 C   0  0  0  0  0  0
  -29.8518  -15.7187   20.8389 N   0  0  0  0  0  0
  -28.4469  -22.0147   20.0033 N   0  3  1  0  0  0
  -29.0504  -25.8690   22.7543 O   0  0  0  0  0  0
  -31.4712  -12.4957   19.1683 H   0  0  0  0  0  0
  -30.3543  -11.3898   19.9105 H   0  0  0  0  0  0
  -29.7674  -11.7462   17.4907 H   0  0  0  0  0  0
  -29.6526  -13.4664   17.7468 H   0  0  0  0  0  0
  -27.8553  -11.2953   18.8681 H   0  0  0  0  0  0
  -27.3742  -12.5841   17.7979 H   0  0  0  0  0  0
  -27.6666  -14.2539   19.5220 H   0  0  0  0  0  0
  -28.6981  -12.0635   21.3953 H   0  0  0  0  0  0
  -28.4407  -13.7277   21.8432 H   0  0  0  0  0  0
  -25.2769   -9.5684   22.4761 H   0  0  0  0  0  0
  -24.0004   -7.4634   22.7472 H   0  0  0  0  0  0
  -21.0841   -8.8782   19.8956 H   0  0  0  0  0  0
  -22.3701  -10.9680   19.6164 H   0  0  0  0  0  0
  -21.2007   -7.6156   23.9723 H   0  0  0  0  0  0
  -21.1471   -6.0531   25.9082 H   0  0  0  0  0  0
  -22.0599   -2.7617   23.2851 H   0  0  0  0  0  0
  -22.4110  -11.9867   22.4784 H   0  0  0  0  0  0
  -21.1118  -13.1246   22.2625 H   0  0  0  0  0  0
  -24.6621  -15.8467   20.5207 H   0  0  0  0  0  0
  -26.2823  -15.6295   20.0953 H   0  0  0  0  0  0
  -26.7159  -32.5432   23.1105 H   0  0  0  0  0  0
  -25.0023  -33.9701   25.0415 H   0  0  0  0  0  0
  -22.7124  -31.2972   21.3942 H   0  0  0  0  0  0
  -23.3747  -35.9641   23.3304 H   0  0  0  0  0  0
  -24.3585  -36.8924   22.2054 H   0  0  0  0  0  0
  -23.7253  -37.6510   23.6659 H   0  0  0  0  0  0
  -26.0826  -31.5436   20.5930 H   0  0  0  0  0  0
  -26.8403  -30.8439   21.9935 H   0  0  0  0  0  0
  -28.1199  -29.0049   21.1644 H   0  0  0  0  0  0
  -26.0389  -25.9242   18.9892 H   0  0  0  0  0  0
  -23.9872  -27.2737   19.0245 H   0  0  0  0  0  0
  -23.7521  -30.5669   19.3977 H   0  0  0  0  0  0
  -22.7541  -29.2229   19.8643 H   0  0  0  0  0  0
  -25.1295  -36.1948   25.0829 H   0  0  0  0  0  0
  -20.9968  -28.3249   24.1400 H   0  0  0  0  0  0
  -20.5622  -26.2296   23.3615 H   0  0  0  0  0  0
  -21.6631  -26.7401   22.1227 H   0  0  0  0  0  0
  -19.6898  -25.6287   21.1233 H   0  0  0  0  0  0
  -19.6671  -27.3183   20.6732 H   0  0  0  0  0  0
  -17.4184  -26.6652   21.4027 H   0  0  0  0  0  0
  -18.0332  -26.0050   22.9018 H   0  0  0  0  0  0
  -19.7930  -30.7241   24.2291 H   0  0  0  0  0  0
  -17.5010  -31.6256   24.5159 H   0  0  0  0  0  0
  -15.5345  -30.2992   23.7619 H   0  0  0  0  0  0
  -15.8665  -28.0796   22.7096 H   0  0  0  0  0  0
  -24.5880  -30.7056   25.7773 H   0  0  0  0  0  0
  -24.8906  -32.2851   26.4903 H   0  0  0  0  0  0
  -25.8029  -30.8844   27.0217 H   0  0  0  0  0  0
  -26.2901  -29.6752   24.1168 H   0  0  0  0  0  0
  -27.4072  -29.7241   25.4621 H   0  0  0  0  0  0
  -27.8750  -30.4330   23.9339 H   0  0  0  0  0  0
  -27.2682  -33.3600   26.2070 H   0  0  0  0  0  0
  -28.3839  -32.6874   25.0269 H   0  0  0  0  0  0
  -28.0761  -31.8412   26.5363 H   0  0  0  0  0  0
  -28.2612  -38.0101   24.7511 H   0  0  0  0  0  0
  -28.1084  -36.2635   24.6298 H   0  0  0  0  0  0
  -27.2308  -37.1469   25.8870 H   0  0  0  0  0  0
  -20.9365  -29.8764   21.6899 H   0  0  0  0  0  0
  -26.0191  -38.2857   24.1379 H   0  0  0  0  0  0
  -28.8157  -17.6026   16.8019 H   0  0  0  0  0  0
  -29.2990  -15.7320   18.2474 H   0  0  0  0  0  0
  -29.7992  -18.4336   21.5792 H   0  0  0  0  0  0
  -27.1826  -22.6984   23.2044 H   0  0  0  0  0  0
  -27.8855  -21.1202   22.5735 H   0  0  0  0  0  0
  -26.9667  -24.6634   21.7961 H   0  0  0  0  0  0
  -26.6384  -24.1981   20.1621 H   0  0  0  0  0  0
  -29.2904  -25.0058   18.3850 H   0  0  0  0  0  0
  -30.3905  -24.2848   19.4939 H   0  0  0  0  0  0
  -29.4797  -22.5452   18.1854 H   0  0  0  0  0  0
  -27.8506  -23.1251   18.3291 H   0  0  0  0  0  0
  -28.4724  -19.7471   16.3137 H   0  0  0  0  0  0
  -29.6913  -20.7530   17.0476 H   0  0  0  0  0  0
  -27.9600  -20.8546   17.5384 H   0  0  0  0  0  0
  -29.5302  -26.4776   24.6666 H   0  0  0  0  0  0
  -30.7983  -26.7445   23.4721 H   0  0  0  0  0  0
  -30.4752  -25.1109   24.0688 H   0  0  0  0  0  0
  -30.4483  -21.2718   19.8567 H   0  0  0  0  0  0
  -29.6747  -20.8272   21.3079 H   0  0  0  0  0  0
  -30.0386  -24.3108   21.8595 H   0  0  0  0  0  0
  -30.4787  -25.8933   21.2611 H   0  0  0  0  0  0
  -29.0718  -15.4752   21.4314 H   0  0  0  0  0  0
  -27.6864  -21.4677   19.6271 H   0  0  0  0  0  0
  1 25  1  0  0  0
  1 30  2  0  0  0
  1 87  1  0  0  0
  2  3  1  0  0  0
  2 25  1  0  0  0
  2 90  1  0  0  0
  2 91  1  0  0  0
  3  4  1  0  0  0
  3 92  1  0  0  0
  3 93  1  0  0  0
  4  5  1  0  0  0
  4 94  1  0  0  0
  4 95  1  0  0  0
  5  6  1  0  0  0
  5 26  1  0  0  0
  5 96  1  0  0  0
  6 25  1  0  0  0
  6 97  1  0  0  0
  6 98  1  0  0  0
  7  8  2  0  0  0
  7 26  1  0  0  0
  7 29  1  0  0  0
  8  9  1  0  0  0
  8 22  1  0  0  0
  9 10  1  0  0  0
  9 27  2  0  0  0
 10 11  2  0  0  0
 10 15  1  0  0  0
 11 12  1  0  0  0
 11 99  1  0  0  0
 12 13  2  0  0  0
 12100  1  0  0  0
 13 14  1  0  0  0
 13 31  1  0  0  0
 14 15  2  0  0  0
 14101  1  0  0  0
 15102  1  0  0  0
 16 17  2  0  0  0
 16 21  1  0  0  0
 16 31  1  0  0  0
 17 18  1  0  0  0
 17103  1  0  0  0
 18 19  2  0  0  0
 18104  1  0  0  0
 19 20  1  0  0  0
 19 24  1  0  0  0
 20 21  2  0  0  0
 20105  1  0  0  0
 21 23  1  0  0  0
 22 28  1  0  0  0
 22 32  2  0  0  0
 26 27  1  0  0  0
 28106  1  0  0  0
 28107  1  0  0  0
 29108  1  0  0  0
 29109  1  0  0  0
 33 34  1  0  0  0
 33 66  1  0  0  0
 33 70  2  0  0  0
 34 36  1  0  0  0
 34 59  1  0  0  0
 34110  1  0  0  0
 35 44  2  0  0  0
 35 45  1  0  0  0
 35 68  1  0  0  0
 36 56  1  0  0  0
 36111  1  0  0  0
 37 39  1  0  0  0
 37 47  1  0  0  0
 37 66  1  0  0  0
 37112  1  0  0  0
 38 43  2  0  0  0
 38 46  1  0  0  0
 38 47  1  0  0  0
 39 64  1  0  0  0
 39 67  2  0  0  0
 40 52  1  0  0  0
 40 53  2  0  0  0
 40 58  1  0  0  0
 41113  1  0  0  0
 41114  1  0  0  0
 41115  1  0  0  0
 41 48  1  0  0  0
 42 43  1  0  0  0
 42 66  1  0  0  0
 42116  1  0  0  0
 42117  1  0  0  0
 43 44  1  0  0  0
 44118  1  0  0  0
 45 46  2  0  0  0
 45119  1  0  0  0
 46120  1  0  0  0
 47121  1  0  0  0
 47122  1  0  0  0
 48 56  1  0  0  0
 48 65  1  0  0  0
 48123  1  0  0  0
 49 50  1  0  0  0
 49 53  1  0  0  0
 49 64  1  0  0  0
 49124  1  0  0  0
 50 51  1  0  0  0
 50125  1  0  0  0
 50126  1  0  0  0
 51 52  1  0  0  0
 51127  1  0  0  0
 51128  1  0  0  0
 52129  1  0  0  0
 52130  1  0  0  0
 53 54  1  0  0  0
 54 55  2  0  0  0
 54131  1  0  0  0
 55 57  1  0  0  0
 55132  1  0  0  0
 56 69  2  0  0  0
 57 58  2  0  0  0
 57133  1  0  0  0
 58134  1  0  0  0
 59 60  1  0  0  0
 59 61  1  0  0  0
 59 62  1  0  0  0
 60135  1  0  0  0
 60136  1  0  0  0
 60137  1  0  0  0
 61138  1  0  0  0
 61139  1  0  0  0
 61140  1  0  0  0
 62141  1  0  0  0
 62142  1  0  0  0
 62143  1  0  0  0
 63 65  1  0  0  0
 63144  1  0  0  0
 63145  1  0  0  0
 63146  1  0  0  0
 64147  1  0  0  0
 65148  1  0  0  0
 68 82  1  0  0  0
 71 72  2  0  0  0
 71 74  1  0  0  0
 71149  1  0  0  0
 72 76  1  0  0  0
 72150  1  0  0  0
 73 75  1  0  0  0
 73 76  2  0  0  0
 73151  1  0  0  0
 74 75  2  0  0  0
 74 83  1  0  0  0
 75 85  1  0  0  0
 76 87  1  0  0  0
 77 78  2  0  0  0
 77 79  1  0  0  0
 77 88  1  0  0  0
 78152  1  0  0  0
 78153  1  0  0  0
 79 82  1  0  0  0
 79154  1  0  0  0
 79155  1  0  0  0
 80 81  1  0  0  0
 80 82  1  0  0  0
 80156  1  0  0  0
 80157  1  0  0  0
 81 88  1  0  0  0
 81158  1  0  0  0
 81159  1  0  0  0
 82 86  1  0  0  0
 83160  1  0  0  0
 83161  1  0  0  0
 83162  1  0  0  0
 84 89  1  0  0  0
 84163  1  0  0  0
 84164  1  0  0  0
 84165  1  0  0  0
 85166  1  0  0  0
 85167  1  0  0  0
 85 88  1  0  0  0
 86 89  1  0  0  0
 86168  1  0  0  0
 86169  1  0  0  0
 87170  1  0  0  0
 88171  1  0  0  0
M  CHG  1  88   1
M  ISO  4   1 100  68 101  82 101  87 100
M  END
> <chiral flag>
0

> <version>
0

> <s_m_source_file>
/data/baiqing/PycharmProjects/Reinvent-master-3.2/result/LINK_invent/BTK/process_docking_weight1_custom_product_contain_oxygen_bond_distance_aromatic_linkinvent_7_9_3/rearranged_h_0049.sdf

> <i_m_source_file_index>
51

> <r_mmod_Potential_Energy-OPLS-2005>
73.6103210449219

> <r_mmod_Stretch_Energy-OPLS-2005>
94.3274002075195

> <r_mmod_Bend_Energy-OPLS-2005>
192.212036132812

> <r_mmod_Torsional_Energy-OPLS-2005>
308.978881835938

> <r_mmod_Improper_Torsional_Energy-OPLS-2005>
7.29590511322021

> <r_mmod_Van_der_Waal_Energy-OPLS-2005>
149.78857421875

> <r_mmod_Electrostatic_Energy-OPLS-2005>
-263.432098388672

> <r_mmod_Solvation_Energy-OPLS-2005>
-457.255493164062

> <b_mmod_Minimization_Converged-OPLS-2005>
0

> <r_mmod_RMS_Derivative-OPLS-2005>
2.16124820709229

$$$$
51
                    3D
 Structure written by MMmdl.
160169  0  0  1  0            999 V2000
  -30.7409  -14.4493   20.6156 C   0  0  0  0  0  0
  -30.4180  -12.3137   19.4108 C   0  0  0  0  0  0
  -29.4889  -12.5323   18.2023 C   0  0  0  0  0  0
  -28.0177  -12.3625   18.6206 C   0  0  0  0  0  0
  -27.6642  -13.2057   19.8770 C   0  0  2  0  0  0
  -28.7035  -12.9889   20.9993 C   0  0  0  0  0  0
  -25.2593  -13.8152   20.5646 C   0  0  0  0  0  0
  -24.1833  -13.0433   20.9153 C   0  0  0  0  0  0
  -24.6392  -11.6897   20.8759 C   0  0  0  0  0  0
  -23.9061  -10.4285   21.0447 C   0  0  0  0  0  0
  -24.3605   -9.4200   21.9229 C   0  0  0  0  0  0
  -23.6283   -8.2232   22.0785 C   0  0  0  0  0  0
  -22.4274   -8.0270   21.3560 C   0  0  0  0  0  0
  -21.9910   -9.0246   20.4664 C   0  0  0  0  0  0
  -22.7236  -10.2126   20.3090 C   0  0  0  0  0  0
  -21.6839   -6.0724   22.5288 C   0  0  0  0  0  0
  -21.3989   -6.5630   23.8217 C   0  0  0  0  0  0
  -21.3670   -5.6792   24.9186 C   0  0  0  0  0  0
  -21.6071   -4.3056   24.7238 C   0  0  0  0  0  0
  -21.8811   -3.8133   23.4354 C   0  0  0  0  0  0
  -21.9181   -4.6952   22.3408 C   0  0  0  0  0  0
  -22.7853  -13.5258   21.1817 C   0  0  0  0  0  0
  -22.1658   -4.2130   21.0996 F   0  0  0  0  0  0
  -21.5655   -3.4545   25.7758 F   0  0  0  0  0  0
  -30.0371  -13.2933   20.4483 N   0  0  0  0  0  0
  -26.3034  -12.9320   20.3375 N   0  0  0  0  0  0
  -25.9321  -11.6491   20.5805 N   0  0  0  0  0  0
  -22.0454  -12.8262   22.0352 N   0  0  0  0  0  0
  -25.4333  -15.1847   20.3929 N   0  0  0  0  0  0
  -31.8248  -14.6425   20.0562 O   0  0  0  0  0  0
  -21.6632   -6.8865   21.4252 O   0  0  0  0  0  0
  -22.3560  -14.5574   20.6661 O   0  0  0  0  0  0
  -24.6199  -31.8652   23.2051 C   0  0  0  0  0  0
  -25.9089  -32.4808   23.8361 C   0  0  1  0  0  0
  -27.2443  -27.3852   20.1286 C   0  0  0  0  0  0
  -25.5954  -33.8603   24.2283 N   0  0  0  0  0  0
  -23.4076  -30.4844   21.5449 C   0  0  2  0  0  0
  -24.8604  -28.9434   20.1134 C   0  0  0  0  0  0
  -22.7430  -29.4628   22.4970 C   0  0  0  0  0  0
  -18.0259  -28.1328   22.8457 C   0  0  0  0  0  0
  -24.1491  -36.7322   23.2637 C   0  0  0  0  0  0
  -25.9388  -30.8188   21.3638 C   0  0  0  0  0  0
  -26.0162  -29.4457   20.7196 C   0  0  0  0  0  0
  -27.2053  -28.6765   20.7176 C   0  0  0  0  0  0
  -26.0660  -26.9052   19.5161 C   0  0  0  0  0  0
  -24.8862  -27.6775   19.5013 C   0  0  0  0  0  0
  -23.6230  -29.8159   20.1578 C   0  0  0  0  0  0
  -25.4122  -36.3106   24.0320 C   0  0  1  0  0  0
  -20.5853  -28.3602   23.1197 C   0  0  2  0  0  0
  -20.6767  -26.9398   22.5123 C   0  0  0  0  0  0
  -19.5643  -26.6400   21.5052 C   0  0  0  0  0  0
  -18.1894  -26.7868   22.1557 C   0  0  0  0  0  0
  -19.1519  -28.8783   23.2840 C   0  0  0  0  0  0
  -18.9458  -30.1373   23.8899 C   0  0  0  0  0  0
  -17.6481  -30.6523   24.0578 C   0  0  0  0  0  0
  -25.9061  -34.9468   23.5089 C   0  0  0  0  0  0
  -16.5345  -29.9046   23.6338 C   0  0  0  0  0  0
  -16.7251  -28.6467   23.0330 C   0  0  0  0  0  0
  -26.4494  -31.6599   25.0699 C   0  0  0  0  0  0
  -25.3737  -31.3739   26.1431 C   0  0  0  0  0  0
  -27.0337  -30.3035   24.6098 C   0  0  0  0  0  0
  -27.6018  -32.4361   25.7497 C   0  0  0  0  0  0
  -27.5572  -37.1824   24.8457 C   0  0  0  0  0  0
  -21.4156  -29.3000   22.3678 N   0  0  0  0  0  0
  -26.4298  -37.3808   23.9405 N   0  0  0  0  0  0
  -24.6730  -31.0734   22.0958 N   0  0  0  0  0  0
  -23.4188  -28.8194   23.3034 O   0  0  0  0  0  0
  -28.4491  -26.6929   20.1679 O   0  0  0  0  0  0
  -26.5600  -34.8929   22.4636 O   0  0  0  0  0  0
  -23.5375  -32.1409   23.7417 O   0  0  0  0  0  0
  -28.1662  -19.3715   21.9132 C   0  0  0  0  0  0
  -30.3342  -20.4280   21.6912 C   0  0  0  0  0  0
  -28.7725  -18.0898   21.8943 C   0  0  0  0  0  0
  -30.9425  -19.1479   21.6807 C   0  0  0  0  0  0
  -28.9329  -20.5618   21.8158 C   0  0  0  0  0  0
  -30.1748  -17.9630   21.7875 C   0  0  0  0  0  0
  -27.8206  -22.4989   19.6013 C   0  0  0  0  0  0
  -28.4341  -24.2745   21.0637 C   0  0  0  0  0  0
  -27.3753  -23.5134   18.5403 C   0  0  0  0  0  0
  -28.2993  -24.7370   18.4825 C   0  0  0  0  0  0
  -28.6600  -25.2734   19.8770 C   0  0  1  0  0  0
  -28.2614  -21.9541   21.9667 C   0  0  0  0  0  0
  -30.9010  -16.6069   21.8791 C   0  0  0  0  0  0
  -28.2274  -22.9320   20.8255 N   0  0  0  0  0  0
  -30.1955  -15.4016   21.4011 N   0  0  0  0  0  0
  -27.7098  -21.3052   19.3044 O   0  0  0  0  0  0
  -28.5324  -24.7235   22.2113 O   0  0  0  0  0  0
  -31.4609  -12.4101   19.1004 H   0  0  0  0  0  0
  -30.3223  -11.2932   19.7882 H   0  0  0  0  0  0
  -29.7363  -11.8407   17.3956 H   0  0  0  0  0  0
  -29.6369  -13.5384   17.8064 H   0  0  0  0  0  0
  -27.8493  -11.3021   18.8214 H   0  0  0  0  0  0
  -27.3546  -12.6212   17.7936 H   0  0  0  0  0  0
  -27.7166  -14.2566   19.5905 H   0  0  0  0  0  0
  -28.6701  -11.9558   21.3521 H   0  0  0  0  0  0
  -28.4568  -13.5994   21.8672 H   0  0  0  0  0  0
  -25.2747   -9.5647   22.4813 H   0  0  0  0  0  0
  -23.9984   -7.4600   22.7477 H   0  0  0  0  0  0
  -21.0866   -8.8743   19.8934 H   0  0  0  0  0  0
  -22.3716  -10.9650   19.6182 H   0  0  0  0  0  0
  -21.1955   -7.6130   23.9713 H   0  0  0  0  0  0
  -21.1531   -6.0527   25.9096 H   0  0  0  0  0  0
  -22.0582   -2.7588   23.2861 H   0  0  0  0  0  0
  -22.4033  -11.9912   22.4755 H   0  0  0  0  0  0
  -21.1062  -13.1279   22.2532 H   0  0  0  0  0  0
  -24.6608  -15.8379   20.4679 H   0  0  0  0  0  0
  -26.2815  -15.6072   20.0354 H   0  0  0  0  0  0
  -26.7149  -32.5498   23.1103 H   0  0  0  0  0  0
  -25.0169  -33.9782   25.0473 H   0  0  0  0  0  0
  -22.6967  -31.3019   21.4038 H   0  0  0  0  0  0
  -23.3746  -35.9669   23.3317 H   0  0  0  0  0  0
  -24.3551  -36.8933   22.2044 H   0  0  0  0  0  0
  -23.7266  -37.6531   23.6665 H   0  0  0  0  0  0
  -26.0572  -31.5792   20.5911 H   0  0  0  0  0  0
  -26.8265  -30.8771   21.9822 H   0  0  0  0  0  0
  -28.0980  -29.0681   21.1830 H   0  0  0  0  0  0
  -26.0367  -25.9416   19.0388 H   0  0  0  0  0  0
  -24.0029  -27.2914   19.0128 H   0  0  0  0  0  0
  -23.7451  -30.5976   19.4079 H   0  0  0  0  0  0
  -22.7431  -29.2478   19.8482 H   0  0  0  0  0  0
  -25.1306  -36.1939   25.0820 H   0  0  0  0  0  0
  -20.9937  -28.3004   24.1306 H   0  0  0  0  0  0
  -20.5875  -26.2172   23.3243 H   0  0  0  0  0  0
  -21.6588  -26.7603   22.0711 H   0  0  0  0  0  0
  -19.6808  -25.6366   21.0964 H   0  0  0  0  0  0
  -19.6441  -27.3258   20.6608 H   0  0  0  0  0  0
  -17.4166  -26.6561   21.3979 H   0  0  0  0  0  0
  -18.0414  -26.0011   22.8979 H   0  0  0  0  0  0
  -19.7966  -30.7141   24.2265 H   0  0  0  0  0  0
  -17.5055  -31.6205   24.5179 H   0  0  0  0  0  0
  -15.5356  -30.2948   23.7666 H   0  0  0  0  0  0
  -15.8636  -28.0802   22.7064 H   0  0  0  0  0  0
  -24.5851  -30.7170   25.7749 H   0  0  0  0  0  0
  -24.9017  -32.2922   26.4927 H   0  0  0  0  0  0
  -25.8057  -30.8826   27.0154 H   0  0  0  0  0  0
  -26.2866  -29.6749   24.1228 H   0  0  0  0  0  0
  -27.4169  -29.7328   25.4567 H   0  0  0  0  0  0
  -27.8685  -30.4331   23.9205 H   0  0  0  0  0  0
  -27.2553  -33.3603   26.2134 H   0  0  0  0  0  0
  -28.3807  -32.7025   25.0346 H   0  0  0  0  0  0
  -28.0722  -31.8470   26.5372 H   0  0  0  0  0  0
  -28.2598  -38.0109   24.7492 H   0  0  0  0  0  0
  -28.1046  -36.2631   24.6302 H   0  0  0  0  0  0
  -27.2268  -37.1507   25.8853 H   0  0  0  0  0  0
  -20.9323  -29.8634   21.6813 H   0  0  0  0  0  0
  -26.0152  -38.2881   24.1411 H   0  0  0  0  0  0
  -27.0947  -19.4308   22.0364 H   0  0  0  0  0  0
  -30.9555  -21.3091   21.6443 H   0  0  0  0  0  0
  -28.1533  -17.2081   22.0011 H   0  0  0  0  0  0
  -32.0196  -19.0841   21.6177 H   0  0  0  0  0  0
  -26.3501  -23.8002   18.7751 H   0  0  0  0  0  0
  -27.3364  -23.0243   17.5653 H   0  0  0  0  0  0
  -27.8714  -25.5163   17.8572 H   0  0  0  0  0  0
  -29.2198  -24.4408   17.9771 H   0  0  0  0  0  0
  -29.7496  -25.2748   19.8569 H   0  0  0  0  0  0
  -28.7462  -22.3928   22.8403 H   0  0  0  0  0  0
  -27.2279  -21.7989   22.2799 H   0  0  0  0  0  0
  -31.1245  -16.4355   22.9332 H   0  0  0  0  0  0
  -31.8736  -16.7103   21.3917 H   0  0  0  0  0  0
  -29.2897  -15.2125   21.7987 H   0  0  0  0  0  0
  1 25  1  0  0  0
  1 30  2  0  0  0
  1 85  1  0  0  0
  2  3  1  0  0  0
  2 25  1  0  0  0
  2 88  1  0  0  0
  2 89  1  0  0  0
  3  4  1  0  0  0
  3 90  1  0  0  0
  3 91  1  0  0  0
  4  5  1  0  0  0
  4 92  1  0  0  0
  4 93  1  0  0  0
  5  6  1  0  0  0
  5 26  1  0  0  0
  5 94  1  0  0  0
  6 25  1  0  0  0
  6 95  1  0  0  0
  6 96  1  0  0  0
  7  8  2  0  0  0
  7 26  1  0  0  0
  7 29  1  0  0  0
  8  9  1  0  0  0
  8 22  1  0  0  0
  9 10  1  0  0  0
  9 27  2  0  0  0
 10 11  2  0  0  0
 10 15  1  0  0  0
 11 12  1  0  0  0
 11 97  1  0  0  0
 12 13  2  0  0  0
 12 98  1  0  0  0
 13 14  1  0  0  0
 13 31  1  0  0  0
 14 15  2  0  0  0
 14 99  1  0  0  0
 15100  1  0  0  0
 16 17  2  0  0  0
 16 21  1  0  0  0
 16 31  1  0  0  0
 17 18  1  0  0  0
 17101  1  0  0  0
 18 19  2  0  0  0
 18102  1  0  0  0
 19 20  1  0  0  0
 19 24  1  0  0  0
 20 21  2  0  0  0
 20103  1  0  0  0
 21 23  1  0  0  0
 22 28  1  0  0  0
 22 32  2  0  0  0
 26 27  1  0  0  0
 28104  1  0  0  0
 28105  1  0  0  0
 29106  1  0  0  0
 29107  1  0  0  0
 33 34  1  0  0  0
 33 66  1  0  0  0
 33 70  2  0  0  0
 34 36  1  0  0  0
 34 59  1  0  0  0
 34108  1  0  0  0
 35 44  2  0  0  0
 35 45  1  0  0  0
 35 68  1  0  0  0
 36 56  1  0  0  0
 36109  1  0  0  0
 37 39  1  0  0  0
 37 47  1  0  0  0
 37 66  1  0  0  0
 37110  1  0  0  0
 38 43  2  0  0  0
 38 46  1  0  0  0
 38 47  1  0  0  0
 39 64  1  0  0  0
 39 67  2  0  0  0
 40 52  1  0  0  0
 40 53  2  0  0  0
 40 58  1  0  0  0
 41111  1  0  0  0
 41112  1  0  0  0
 41113  1  0  0  0
 41 48  1  0  0  0
 42 43  1  0  0  0
 42 66  1  0  0  0
 42114  1  0  0  0
 42115  1  0  0  0
 43 44  1  0  0  0
 44116  1  0  0  0
 45 46  2  0  0  0
 45117  1  0  0  0
 46118  1  0  0  0
 47119  1  0  0  0
 47120  1  0  0  0
 48 56  1  0  0  0
 48 65  1  0  0  0
 48121  1  0  0  0
 49 50  1  0  0  0
 49 53  1  0  0  0
 49 64  1  0  0  0
 49122  1  0  0  0
 50 51  1  0  0  0
 50123  1  0  0  0
 50124  1  0  0  0
 51 52  1  0  0  0
 51125  1  0  0  0
 51126  1  0  0  0
 52127  1  0  0  0
 52128  1  0  0  0
 53 54  1  0  0  0
 54 55  2  0  0  0
 54129  1  0  0  0
 55 57  1  0  0  0
 55130  1  0  0  0
 56 69  2  0  0  0
 57 58  2  0  0  0
 57131  1  0  0  0
 58132  1  0  0  0
 59 60  1  0  0  0
 59 61  1  0  0  0
 59 62  1  0  0  0
 60133  1  0  0  0
 60134  1  0  0  0
 60135  1  0  0  0
 61136  1  0  0  0
 61137  1  0  0  0
 61138  1  0  0  0
 62139  1  0  0  0
 62140  1  0  0  0
 62141  1  0  0  0
 63 65  1  0  0  0
 63142  1  0  0  0
 63143  1  0  0  0
 63144  1  0  0  0
 64145  1  0  0  0
 65146  1  0  0  0
 68 81  1  0  0  0
 71 73  2  0  0  0
 71 75  1  0  0  0
 71147  1  0  0  0
 72 74  1  0  0  0
 72 75  2  0  0  0
 72148  1  0  0  0
 73 76  1  0  0  0
 73149  1  0  0  0
 74 76  2  0  0  0
 74150  1  0  0  0
 75 82  1  0  0  0
 76 83  1  0  0  0
 77 79  1  0  0  0
 77 84  1  0  0  0
 77 86  2  0  0  0
 78 81  1  0  0  0
 78 84  1  0  0  0
 78 87  2  0  0  0
 79 80  1  0  0  0
 79151  1  0  0  0
 79152  1  0  0  0
 80 81  1  0  0  0
 80153  1  0  0  0
 80154  1  0  0  0
 81155  1  0  0  0
 82 84  1  0  0  0
 82156  1  0  0  0
 82157  1  0  0  0
 83 85  1  0  0  0
 83158  1  0  0  0
 83159  1  0  0  0
 85160  1  0  0  0
M  ISO  4   1 100  68 101  81 101  85 100
M  END
> <chiral flag>
0

> <version>
0

> <s_m_source_file>
/data/baiqing/PycharmProjects/Reinvent-master-3.2/result/LINK_invent/BTK/process_docking_weight1_custom_product_contain_oxygen_bond_distance_aromatic_linkinvent_7_9_3/rearranged_h_0049.sdf

> <i_m_source_file_index>
52

> <r_mmod_Potential_Energy-OPLS-2005>
-95.0759887695312

> <r_mmod_Stretch_Energy-OPLS-2005>
57.9049911499023

> <r_mmod_Bend_Energy-OPLS-2005>
161.274703979492

> <r_mmod_Torsional_Energy-OPLS-2005>
200.231323242188

> <r_mmod_Improper_Torsional_Energy-OPLS-2005>
3.97394990921021

> <r_mmod_Van_der_Waal_Energy-OPLS-2005>
168.253646850586

> <r_mmod_Electrostatic_Energy-OPLS-2005>
-458.344482421875

> <r_mmod_Solvation_Energy-OPLS-2005>
-243.424545288086

> <b_mmod_Minimization_Converged-OPLS-2005>
0

> <r_mmod_RMS_Derivative-OPLS-2005>
4.61996555328369

$$$$
52
                    3D
 Structure written by MMmdl.
167176  0  0  1  0            999 V2000
  -30.5982  -14.6128   20.5457 C   0  0  0  0  0  0
  -30.4452  -12.3853   19.4442 C   0  0  0  0  0  0
  -29.5134  -12.5369   18.2222 C   0  0  0  0  0  0
  -28.0341  -12.3677   18.6292 C   0  0  0  0  0  0
  -27.6630  -13.2096   19.8789 C   0  0  2  0  0  0
  -28.7025  -13.0056   21.0046 C   0  0  0  0  0  0
  -25.2585  -13.8164   20.5620 C   0  0  0  0  0  0
  -24.1850  -13.0450   20.9144 C   0  0  0  0  0  0
  -24.6408  -11.6914   20.8711 C   0  0  0  0  0  0
  -23.9079  -10.4315   21.0399 C   0  0  0  0  0  0
  -24.3629   -9.4232   21.9176 C   0  0  0  0  0  0
  -23.6304   -8.2268   22.0775 C   0  0  0  0  0  0
  -22.4286   -8.0293   21.3556 C   0  0  0  0  0  0
  -21.9901   -9.0262   20.4644 C   0  0  0  0  0  0
  -22.7247  -10.2138   20.3053 C   0  0  0  0  0  0
  -21.6876   -6.0732   22.5273 C   0  0  0  0  0  0
  -21.4027   -6.5630   23.8209 C   0  0  0  0  0  0
  -21.3676   -5.6776   24.9163 C   0  0  0  0  0  0
  -21.6069   -4.3048   24.7219 C   0  0  0  0  0  0
  -21.8827   -3.8146   23.4339 C   0  0  0  0  0  0
  -21.9203   -4.6955   22.3387 C   0  0  0  0  0  0
  -22.7872  -13.5234   21.1820 C   0  0  0  0  0  0
  -22.1677   -4.2134   21.0970 F   0  0  0  0  0  0
  -21.5626   -3.4534   25.7725 F   0  0  0  0  0  0
  -30.0246  -13.3704   20.4617 N   0  0  0  0  0  0
  -26.3036  -12.9328   20.3355 N   0  0  0  0  0  0
  -25.9339  -11.6497   20.5763 N   0  0  0  0  0  0
  -22.0535  -12.8234   22.0391 N   0  0  0  0  0  0
  -25.4306  -15.1882   20.3972 N   0  0  0  0  0  0
  -31.7113  -14.8431   20.0617 O   0  0  0  0  0  0
  -21.6668   -6.8874   21.4236 O   0  0  0  0  0  0
  -22.3544  -14.5550   20.6668 O   0  0  0  0  0  0
  -24.6246  -31.8602   23.1972 C   0  0  0  0  0  0
  -25.9110  -32.4759   23.8308 C   0  0  1  0  0  0
  -27.2262  -27.3179   20.1244 C   0  0  0  0  0  0
  -25.5912  -33.8552   24.2242 N   0  0  0  0  0  0
  -23.4186  -30.4790   21.5425 C   0  0  2  0  0  0
  -24.8665  -28.9242   20.1188 C   0  0  0  0  0  0
  -22.7463  -29.4626   22.4942 C   0  0  0  0  0  0
  -18.0264  -28.1403   22.8467 C   0  0  0  0  0  0
  -24.1502  -36.7304   23.2628 C   0  0  0  0  0  0
  -25.9576  -30.7882   21.3694 C   0  0  0  0  0  0
  -26.0353  -29.4127   20.7187 C   0  0  0  0  0  0
  -27.2205  -28.6218   20.7094 C   0  0  0  0  0  0
  -26.0354  -26.8702   19.5142 C   0  0  0  0  0  0
  -24.8677  -27.6579   19.5107 C   0  0  0  0  0  0
  -23.6347  -29.8052   20.1612 C   0  0  0  0  0  0
  -25.4127  -36.3072   24.0305 C   0  0  1  0  0  0
  -20.5868  -28.3702   23.1295 C   0  0  2  0  0  0
  -20.6776  -26.9427   22.5415 C   0  0  0  0  0  0
  -19.5757  -26.6381   21.5218 C   0  0  0  0  0  0
  -18.1931  -26.7941   22.1621 C   0  0  0  0  0  0
  -19.1518  -28.8865   23.2872 C   0  0  0  0  0  0
  -18.9456  -30.1461   23.8896 C   0  0  0  0  0  0
  -17.6465  -30.6602   24.0562 C   0  0  0  0  0  0
  -25.9062  -34.9439   23.5073 C   0  0  0  0  0  0
  -16.5345  -29.9117   23.6319 C   0  0  0  0  0  0
  -16.7260  -28.6537   23.0332 C   0  0  0  0  0  0
  -26.4459  -31.6535   25.0675 C   0  0  0  0  0  0
  -25.3669  -31.3712   26.1372 C   0  0  0  0  0  0
  -27.0251  -30.2934   24.6125 C   0  0  0  0  0  0
  -27.5996  -32.4239   25.7515 C   0  0  0  0  0  0
  -27.5581  -37.1815   24.8451 C   0  0  0  0  0  0
  -21.4168  -29.3051   22.3691 N   0  0  0  0  0  0
  -26.4303  -37.3769   23.9375 N   0  0  0  0  0  0
  -24.6853  -31.0596   22.0938 N   0  0  0  0  0  0
  -23.4186  -28.8172   23.3030 O   0  0  0  0  0  0
  -28.3537  -26.4931   20.0806 O   0  0  0  0  0  0
  -26.5664  -34.8919   22.4655 O   0  0  0  0  0  0
  -23.5416  -32.1412   23.7312 O   0  0  0  0  0  0
  -28.3018  -19.0155   21.5803 C   0  0  0  0  0  0
  -30.2991  -17.8346   20.0286 C   0  0  0  0  0  0
  -28.9377  -19.8516   20.6208 C   0  0  0  0  0  0
  -28.6488  -17.6469   21.7749 C   0  0  0  0  0  0
  -29.9677  -19.2215   19.8538 C   0  0  0  0  0  0
  -29.6353  -17.0060   20.9751 C   0  0  0  0  0  0
  -29.1022  -22.8617   22.2435 C   0  0  0  0  0  0
  -28.4996  -22.1561   23.2152 C   0  0  0  0  0  0
  -29.9344  -24.1063   22.4794 C   0  0  0  0  0  0
  -29.2041  -25.3763   22.0036 C   0  0  0  0  0  0
  -28.7145  -23.8505   19.9536 C   0  0  0  0  0  0
  -28.3111  -25.1765   20.7600 C   0  0  2  0  0  0
  -27.9180  -16.8653   22.8603 C   0  0  0  0  0  0
  -30.7090  -20.0150   18.7922 C   0  0  0  0  0  0
  -28.3545  -21.2987   20.3042 C   0  0  0  0  0  0
  -29.8291  -15.5660   21.1521 N   0  0  0  0  0  0
  -29.0354  -22.5851   20.7664 N   0  3  2  0  0  0
  -31.4862  -12.5239   19.1454 H   0  0  0  0  0  0
  -30.3861  -11.3734   19.8457 H   0  0  0  0  0  0
  -29.7720  -11.8129   17.4472 H   0  0  0  0  0  0
  -29.6634  -13.5254   17.7807 H   0  0  0  0  0  0
  -27.8613  -11.3080   18.8277 H   0  0  0  0  0  0
  -27.3862  -12.6304   17.7927 H   0  0  0  0  0  0
  -27.7020  -14.2562   19.5750 H   0  0  0  0  0  0
  -28.7084  -11.9640   21.3299 H   0  0  0  0  0  0
  -28.4369  -13.5789   21.8939 H   0  0  0  0  0  0
  -25.2790   -9.5716   22.4708 H   0  0  0  0  0  0
  -24.0045   -7.4667   22.7493 H   0  0  0  0  0  0
  -21.0844   -8.8776   19.8905 H   0  0  0  0  0  0
  -22.3748  -10.9665   19.6134 H   0  0  0  0  0  0
  -21.2027   -7.6142   23.9698 H   0  0  0  0  0  0
  -21.1493   -6.0511   25.9056 H   0  0  0  0  0  0
  -22.0593   -2.7612   23.2842 H   0  0  0  0  0  0
  -22.4183  -11.9906   22.4774 H   0  0  0  0  0  0
  -21.1111  -13.1192   22.2540 H   0  0  0  0  0  0
  -24.6560  -15.8384   20.4826 H   0  0  0  0  0  0
  -26.2726  -15.6266   20.0438 H   0  0  0  0  0  0
  -26.7172  -32.5443   23.1062 H   0  0  0  0  0  0
  -24.9939  -33.9692   25.0304 H   0  0  0  0  0  0
  -22.7102  -31.2978   21.3943 H   0  0  0  0  0  0
  -23.3744  -35.9664   23.3307 H   0  0  0  0  0  0
  -24.3585  -36.8915   22.2035 H   0  0  0  0  0  0
  -23.7294  -37.6520   23.6663 H   0  0  0  0  0  0
  -26.0815  -31.5464   20.5948 H   0  0  0  0  0  0
  -26.8409  -30.8442   21.9931 H   0  0  0  0  0  0
  -28.1233  -28.9956   21.1717 H   0  0  0  0  0  0
  -26.0087  -25.8982   19.0427 H   0  0  0  0  0  0
  -23.9705  -27.2793   19.0415 H   0  0  0  0  0  0
  -23.7562  -30.5780   19.4000 H   0  0  0  0  0  0
  -22.7556  -29.2327   19.8595 H   0  0  0  0  0  0
  -25.1322  -36.1912   25.0805 H   0  0  0  0  0  0
  -20.9927  -28.3282   24.1431 H   0  0  0  0  0  0
  -20.5701  -26.2306   23.3613 H   0  0  0  0  0  0
  -21.6651  -26.7478   22.1204 H   0  0  0  0  0  0
  -19.6931  -25.6292   21.1261 H   0  0  0  0  0  0
  -19.6712  -27.3186   20.6749 H   0  0  0  0  0  0
  -17.4191  -26.6648   21.4021 H   0  0  0  0  0  0
  -18.0338  -26.0105   22.9043 H   0  0  0  0  0  0
  -19.7932  -30.7262   24.2286 H   0  0  0  0  0  0
  -17.5025  -31.6289   24.5161 H   0  0  0  0  0  0
  -15.5360  -30.3036   23.7646 H   0  0  0  0  0  0
  -15.8650  -28.0876   22.7044 H   0  0  0  0  0  0
  -24.5832  -30.7097   25.7660 H   0  0  0  0  0  0
  -24.8883  -32.2911   26.4739 H   0  0  0  0  0  0
  -25.7952  -30.8884   27.0172 H   0  0  0  0  0  0
  -26.2812  -29.6749   24.1083 H   0  0  0  0  0  0
  -27.3823  -29.7117   25.4633 H   0  0  0  0  0  0
  -27.8748  -30.4127   23.9409 H   0  0  0  0  0  0
  -27.2556  -33.3497   26.2135 H   0  0  0  0  0  0
  -28.3848  -32.6849   25.0415 H   0  0  0  0  0  0
  -28.0619  -31.8316   26.5418 H   0  0  0  0  0  0
  -28.2590  -38.0120   24.7479 H   0  0  0  0  0  0
  -28.1087  -36.2633   24.6315 H   0  0  0  0  0  0
  -27.2283  -37.1505   25.8854 H   0  0  0  0  0  0
  -20.9358  -29.8740   21.6869 H   0  0  0  0  0  0
  -26.0173  -38.2845   24.1382 H   0  0  0  0  0  0
  -27.4792  -19.4067   22.1607 H   0  0  0  0  0  0
  -31.0587  -17.3969   19.3954 H   0  0  0  0  0  0
  -28.6118  -22.4523   24.2495 H   0  0  0  0  0  0
  -27.8879  -21.2917   23.0308 H   0  0  0  0  0  0
  -30.8784  -24.0005   21.9393 H   0  0  0  0  0  0
  -30.1974  -24.1925   23.5336 H   0  0  0  0  0  0
  -29.9531  -26.1460   21.8114 H   0  0  0  0  0  0
  -28.5787  -25.7753   22.8030 H   0  0  0  0  0  0
  -29.6096  -24.0678   19.3715 H   0  0  0  0  0  0
  -27.9346  -23.6323   19.2252 H   0  0  0  0  0  0
  -27.2942  -25.0001   21.1138 H   0  0  0  0  0  0
  -28.6252  -16.3382   23.5021 H   0  0  0  0  0  0
  -27.2321  -16.1370   22.4288 H   0  0  0  0  0  0
  -27.3414  -17.5257   23.5079 H   0  0  0  0  0  0
  -30.0154  -20.4851   18.0952 H   0  0  0  0  0  0
  -31.3754  -19.3807   18.2062 H   0  0  0  0  0  0
  -31.3113  -20.7965   19.2577 H   0  0  0  0  0  0
  -27.3231  -21.3357   20.6545 H   0  0  0  0  0  0
  -28.2566  -21.3530   19.2205 H   0  0  0  0  0  0
  -29.0958  -15.1377   21.6929 H   0  0  0  0  0  0
  -29.9888  -22.3973   20.4897 H   0  0  0  0  0  0
  1 25  1  0  0  0
  1 30  2  0  0  0
  1 86  1  0  0  0
  2  3  1  0  0  0
  2 25  1  0  0  0
  2 88  1  0  0  0
  2 89  1  0  0  0
  3  4  1  0  0  0
  3 90  1  0  0  0
  3 91  1  0  0  0
  4  5  1  0  0  0
  4 92  1  0  0  0
  4 93  1  0  0  0
  5  6  1  0  0  0
  5 26  1  0  0  0
  5 94  1  0  0  0
  6 25  1  0  0  0
  6 95  1  0  0  0
  6 96  1  0  0  0
  7  8  2  0  0  0
  7 26  1  0  0  0
  7 29  1  0  0  0
  8  9  1  0  0  0
  8 22  1  0  0  0
  9 10  1  0  0  0
  9 27  2  0  0  0
 10 11  2  0  0  0
 10 15  1  0  0  0
 11 12  1  0  0  0
 11 97  1  0  0  0
 12 13  2  0  0  0
 12 98  1  0  0  0
 13 14  1  0  0  0
 13 31  1  0  0  0
 14 15  2  0  0  0
 14 99  1  0  0  0
 15100  1  0  0  0
 16 17  2  0  0  0
 16 21  1  0  0  0
 16 31  1  0  0  0
 17 18  1  0  0  0
 17101  1  0  0  0
 18 19  2  0  0  0
 18102  1  0  0  0
 19 20  1  0  0  0
 19 24  1  0  0  0
 20 21  2  0  0  0
 20103  1  0  0  0
 21 23  1  0  0  0
 22 28  1  0  0  0
 22 32  2  0  0  0
 26 27  1  0  0  0
 28104  1  0  0  0
 28105  1  0  0  0
 29106  1  0  0  0
 29107  1  0  0  0
 33 34  1  0  0  0
 33 66  1  0  0  0
 33 70  2  0  0  0
 34 36  1  0  0  0
 34 59  1  0  0  0
 34108  1  0  0  0
 35 44  2  0  0  0
 35 45  1  0  0  0
 35 68  1  0  0  0
 36 56  1  0  0  0
 36109  1  0  0  0
 37 39  1  0  0  0
 37 47  1  0  0  0
 37 66  1  0  0  0
 37110  1  0  0  0
 38 43  2  0  0  0
 38 46  1  0  0  0
 38 47  1  0  0  0
 39 64  1  0  0  0
 39 67  2  0  0  0
 40 52  1  0  0  0
 40 53  2  0  0  0
 40 58  1  0  0  0
 41111  1  0  0  0
 41112  1  0  0  0
 41113  1  0  0  0
 41 48  1  0  0  0
 42 43  1  0  0  0
 42 66  1  0  0  0
 42114  1  0  0  0
 42115  1  0  0  0
 43 44  1  0  0  0
 44116  1  0  0  0
 45 46  2  0  0  0
 45117  1  0  0  0
 46118  1  0  0  0
 47119  1  0  0  0
 47120  1  0  0  0
 48 56  1  0  0  0
 48 65  1  0  0  0
 48121  1  0  0  0
 49 50  1  0  0  0
 49 53  1  0  0  0
 49 64  1  0  0  0
 49122  1  0  0  0
 50 51  1  0  0  0
 50123  1  0  0  0
 50124  1  0  0  0
 51 52  1  0  0  0
 51125  1  0  0  0
 51126  1  0  0  0
 52127  1  0  0  0
 52128  1  0  0  0
 53 54  1  0  0  0
 54 55  2  0  0  0
 54129  1  0  0  0
 55 57  1  0  0  0
 55130  1  0  0  0
 56 69  2  0  0  0
 57 58  2  0  0  0
 57131  1  0  0  0
 58132  1  0  0  0
 59 60  1  0  0  0
 59 61  1  0  0  0
 59 62  1  0  0  0
 60133  1  0  0  0
 60134  1  0  0  0
 60135  1  0  0  0
 61136  1  0  0  0
 61137  1  0  0  0
 61138  1  0  0  0
 62139  1  0  0  0
 62140  1  0  0  0
 62141  1  0  0  0
 63 65  1  0  0  0
 63142  1  0  0  0
 63143  1  0  0  0
 63144  1  0  0  0
 64145  1  0  0  0
 65146  1  0  0  0
 68 82  1  0  0  0
 71 73  2  0  0  0
 71 74  1  0  0  0
 71147  1  0  0  0
 72 75  2  0  0  0
 72 76  1  0  0  0
 72148  1  0  0  0
 73 75  1  0  0  0
 73 85  1  0  0  0
 74 76  2  0  0  0
 74 83  1  0  0  0
 75 84  1  0  0  0
 76 86  1  0  0  0
 77 78  2  0  0  0
 77 79  1  0  0  0
 77 87  1  0  0  0
 78149  1  0  0  0
 78150  1  0  0  0
 79 80  1  0  0  0
 79151  1  0  0  0
 79152  1  0  0  0
 80 82  1  0  0  0
 80153  1  0  0  0
 80154  1  0  0  0
 81 82  1  0  0  0
 81 87  1  0  0  0
 81155  1  0  0  0
 81156  1  0  0  0
 82157  1  0  0  0
 83158  1  0  0  0
 83159  1  0  0  0
 83160  1  0  0  0
 84161  1  0  0  0
 84162  1  0  0  0
 84163  1  0  0  0
 85164  1  0  0  0
 85165  1  0  0  0
 85 87  1  0  0  0
 86166  1  0  0  0
 87167  1  0  0  0
M  CHG  1  87   1
M  ISO  4   1 100  68 101  82 101  86 100
M  END
> <chiral flag>
0

> <version>
0

> <s_m_source_file>
/data/baiqing/PycharmProjects/Reinvent-master-3.2/result/LINK_invent/BTK/process_docking_weight1_custom_product_contain_oxygen_bond_distance_aromatic_linkinvent_7_9_3/rearranged_h_0049.sdf

> <i_m_source_file_index>
53

> <r_mmod_Potential_Energy-OPLS-2005>
8.64255809783936

> <r_mmod_Stretch_Energy-OPLS-2005>
88.7245254516602

> <r_mmod_Bend_Energy-OPLS-2005>
168.376617431641

> <r_mmod_Torsional_Energy-OPLS-2005>
272.857574462891

> <r_mmod_Improper_Torsional_Energy-OPLS-2005>
4.51513814926147

> <r_mmod_Van_der_Waal_Energy-OPLS-2005>
143.535095214844

> <r_mmod_Electrostatic_Energy-OPLS-2005>
-294.663330078125

> <r_mmod_Solvation_Energy-OPLS-2005>
-416.555633544922

> <b_mmod_Minimization_Converged-OPLS-2005>
0

> <r_mmod_RMS_Derivative-OPLS-2005>
3.86608815193176

$$$$
53
                    3D
 Structure written by MMmdl.
158166  0  0  1  0            999 V2000
  -30.6847  -14.4643   20.5985 C   0  0  0  0  0  0
  -30.4332  -12.3067   19.4240 C   0  0  0  0  0  0
  -29.5024  -12.5103   18.2094 C   0  0  0  0  0  0
  -28.0221  -12.3679   18.6164 C   0  0  0  0  0  0
  -27.6674  -13.1976   19.8794 C   0  0  2  0  0  0
  -28.7048  -12.9524   20.9994 C   0  0  0  0  0  0
  -25.2635  -13.8139   20.5677 C   0  0  0  0  0  0
  -24.1863  -13.0439   20.9161 C   0  0  0  0  0  0
  -24.6392  -11.6898   20.8722 C   0  0  0  0  0  0
  -23.9048  -10.4299   21.0410 C   0  0  0  0  0  0
  -24.3606   -9.4214   21.9176 C   0  0  0  0  0  0
  -23.6287   -8.2249   22.0751 C   0  0  0  0  0  0
  -22.4266   -8.0283   21.3542 C   0  0  0  0  0  0
  -21.9896   -9.0261   20.4650 C   0  0  0  0  0  0
  -22.7220  -10.2147   20.3062 C   0  0  0  0  0  0
  -21.6858   -6.0734   22.5268 C   0  0  0  0  0  0
  -21.4017   -6.5632   23.8203 C   0  0  0  0  0  0
  -21.3660   -5.6786   24.9163 C   0  0  0  0  0  0
  -21.6048   -4.3050   24.7212 C   0  0  0  0  0  0
  -21.8821   -3.8136   23.4335 C   0  0  0  0  0  0
  -21.9197   -4.6960   22.3396 C   0  0  0  0  0  0
  -22.7888  -13.5262   21.1820 C   0  0  0  0  0  0
  -22.1661   -4.2145   21.0975 F   0  0  0  0  0  0
  -21.5643   -3.4530   25.7728 F   0  0  0  0  0  0
  -30.0436  -13.2703   20.4660 N   0  0  0  0  0  0
  -26.3049  -12.9283   20.3348 N   0  0  0  0  0  0
  -25.9315  -11.6451   20.5736 N   0  0  0  0  0  0
  -22.0514  -12.8278   22.0383 N   0  0  0  0  0  0
  -25.4427  -15.1850   20.4120 N   0  0  0  0  0  0
  -31.7641  -14.7175   20.0544 O   0  0  0  0  0  0
  -21.6636   -6.8875   21.4230 O   0  0  0  0  0  0
  -22.3590  -14.5572   20.6667 O   0  0  0  0  0  0
  -24.6137  -31.8667   23.2102 C   0  0  0  0  0  0
  -25.9032  -32.4816   23.8389 C   0  0  1  0  0  0
  -27.2412  -27.4310   20.0822 C   0  0  0  0  0  0
  -25.5898  -33.8617   24.2327 N   0  0  0  0  0  0
  -23.4021  -30.4891   21.5512 C   0  0  2  0  0  0
  -24.8468  -28.9539   20.1141 C   0  0  0  0  0  0
  -22.7414  -29.4641   22.4995 C   0  0  0  0  0  0
  -18.0272  -28.1364   22.8479 C   0  0  0  0  0  0
  -24.1487  -36.7316   23.2633 C   0  0  0  0  0  0
  -25.9305  -30.8287   21.3644 C   0  0  0  0  0  0
  -26.0057  -29.4627   20.7112 C   0  0  0  0  0  0
  -27.1987  -28.7044   20.6993 C   0  0  0  0  0  0
  -26.0529  -26.9274   19.5015 C   0  0  0  0  0  0
  -24.8645  -27.6835   19.5133 C   0  0  0  0  0  0
  -23.6094  -29.8220   20.1650 C   0  0  0  0  0  0
  -25.4108  -36.3115   24.0335 C   0  0  1  0  0  0
  -20.5861  -28.3648   23.1324 C   0  0  2  0  0  0
  -20.6759  -26.9380   22.5435 C   0  0  0  0  0  0
  -19.5749  -26.6369   21.5217 C   0  0  0  0  0  0
  -18.1921  -26.7911   22.1613 C   0  0  0  0  0  0
  -19.1521  -28.8826   23.2893 C   0  0  0  0  0  0
  -18.9451  -30.1434   23.8897 C   0  0  0  0  0  0
  -17.6451  -30.6570   24.0563 C   0  0  0  0  0  0
  -25.9037  -34.9475   23.5133 C   0  0  0  0  0  0
  -16.5342  -29.9073   23.6318 C   0  0  0  0  0  0
  -16.7262  -28.6496   23.0328 C   0  0  0  0  0  0
  -26.4462  -31.6591   25.0710 C   0  0  0  0  0  0
  -25.3747  -31.3716   26.1478 C   0  0  0  0  0  0
  -27.0259  -30.3024   24.6076 C   0  0  0  0  0  0
  -27.6065  -32.4289   25.7445 C   0  0  0  0  0  0
  -27.5596  -37.1797   24.8446 C   0  0  0  0  0  0
  -21.4144  -29.3014   22.3738 N   0  0  0  0  0  0
  -26.4293  -37.3805   23.9414 N   0  0  0  0  0  0
  -24.6671  -31.0758   22.1007 N   0  0  0  0  0  0
  -23.4190  -28.8190   23.3044 O   0  0  0  0  0  0
  -28.4348  -26.7318   20.1190 O   0  0  0  0  0  0
  -26.5601  -34.8928   22.4697 O   0  0  0  0  0  0
  -23.5328  -32.1417   23.7493 O   0  0  0  0  0  0
  -28.8433  -18.3870   19.4580 C   0  0  0  0  0  0
  -29.8439  -17.7402   21.9912 C   0  0  0  0  0  0
  -28.8569  -19.3895   20.4566 C   0  0  0  0  0  0
  -29.3963  -19.0641   21.7345 C   0  0  0  0  0  0
  -29.7817  -16.7309   21.0014 C   0  0  0  0  0  0
  -29.2942  -17.0773   19.7190 C   0  0  0  0  0  0
  -28.1824  -20.6726   20.1412 C   0  0  0  0  0  0
  -28.2341  -23.1861   19.9641 C   0  0  0  0  0  0
  -29.4358  -20.0730   22.8765 C   0  0  0  0  0  0
  -29.2232  -24.3667   19.9264 C   0  0  0  0  0  0
  -28.7135  -25.6528   19.2081 C   0  0  0  0  0  0
  -30.0486  -15.3726   21.3592 N   0  0  0  0  0  0
  -28.8102  -21.8751   20.2094 N   0  0  0  0  0  0
  -26.9018  -20.5817   19.7661 N   0  3  0  0  0  0
  -27.0223  -23.3435   19.7694 O   0  0  0  0  0  0
  -29.1771  -16.1411   18.7465 F   0  0  0  0  0  0
  -31.4776  -12.4207   19.1267 H   0  0  0  0  0  0
  -30.3445  -11.2887   19.8064 H   0  0  0  0  0  0
  -29.7430  -11.7882   17.4280 H   0  0  0  0  0  0
  -29.6718  -13.4966   17.7744 H   0  0  0  0  0  0
  -27.8315  -11.3099   18.8008 H   0  0  0  0  0  0
  -27.3747  -12.6505   17.7853 H   0  0  0  0  0  0
  -27.7178  -14.2481   19.5963 H   0  0  0  0  0  0
  -28.6810  -11.9072   21.3104 H   0  0  0  0  0  0
  -28.4508  -13.5206   21.8951 H   0  0  0  0  0  0
  -25.2771   -9.5685   22.4728 H   0  0  0  0  0  0
  -24.0004   -7.4644   22.7468 H   0  0  0  0  0  0
  -21.0828   -8.8784   19.8959 H   0  0  0  0  0  0
  -22.3680  -10.9692   19.6169 H   0  0  0  0  0  0
  -21.2001   -7.6139   23.9711 H   0  0  0  0  0  0
  -21.1482   -6.0508   25.9069 H   0  0  0  0  0  0
  -22.0598   -2.7594   23.2835 H   0  0  0  0  0  0
  -22.4123  -11.9938   22.4778 H   0  0  0  0  0  0
  -21.1140  -13.1331   22.2596 H   0  0  0  0  0  0
  -24.6826  -15.8463   20.5312 H   0  0  0  0  0  0
  -26.2954  -15.6132   20.0763 H   0  0  0  0  0  0
  -26.7106  -32.5517   23.1155 H   0  0  0  0  0  0
  -25.0050  -33.9782   25.0474 H   0  0  0  0  0  0
  -22.6911  -31.3064   21.4140 H   0  0  0  0  0  0
  -23.3754  -35.9642   23.3275 H   0  0  0  0  0  0
  -24.3599  -36.8946   22.2053 H   0  0  0  0  0  0
  -23.7222  -37.6510   23.6656 H   0  0  0  0  0  0
  -26.0444  -31.5951   20.5968 H   0  0  0  0  0  0
  -26.8190  -30.8814   21.9818 H   0  0  0  0  0  0
  -28.0925  -29.0940   21.1662 H   0  0  0  0  0  0
  -26.0057  -25.9444   19.0587 H   0  0  0  0  0  0
  -23.9681  -27.2766   19.0656 H   0  0  0  0  0  0
  -23.7192  -30.5984   19.4072 H   0  0  0  0  0  0
  -22.7321  -29.2438   19.8685 H   0  0  0  0  0  0
  -25.1277  -36.1989   25.0826 H   0  0  0  0  0  0
  -20.9942  -28.3215   24.1449 H   0  0  0  0  0  0
  -20.5647  -26.2258   23.3624 H   0  0  0  0  0  0
  -21.6638  -26.7409   22.1246 H   0  0  0  0  0  0
  -19.6917  -25.6289   21.1223 H   0  0  0  0  0  0
  -19.6705  -27.3201   20.6766 H   0  0  0  0  0  0
  -17.4207  -26.6673   21.3998 H   0  0  0  0  0  0
  -18.0297  -26.0045   22.8999 H   0  0  0  0  0  0
  -19.7928  -30.7251   24.2270 H   0  0  0  0  0  0
  -17.5003  -31.6242   24.5170 H   0  0  0  0  0  0
  -15.5344  -30.2979   23.7636 H   0  0  0  0  0  0
  -15.8662  -28.0826   22.7019 H   0  0  0  0  0  0
  -24.5936  -30.7026   25.7850 H   0  0  0  0  0  0
  -24.8914  -32.2869   26.4903 H   0  0  0  0  0  0
  -25.8121  -30.8930   27.0248 H   0  0  0  0  0  0
  -26.2776  -29.6809   24.1137 H   0  0  0  0  0  0
  -27.4024  -29.7245   25.4526 H   0  0  0  0  0  0
  -27.8626  -30.4328   23.9210 H   0  0  0  0  0  0
  -27.2716  -33.3584   26.2063 H   0  0  0  0  0  0
  -28.3848  -32.6847   25.0245 H   0  0  0  0  0  0
  -28.0756  -31.8374   26.5318 H   0  0  0  0  0  0
  -28.2594  -38.0118   24.7543 H   0  0  0  0  0  0
  -28.1115  -36.2657   24.6200 H   0  0  0  0  0  0
  -27.2326  -37.1354   25.8850 H   0  0  0  0  0  0
  -20.9311  -29.8757   21.6973 H   0  0  0  0  0  0
  -26.0180  -38.2872   24.1460 H   0  0  0  0  0  0
  -28.4339  -18.6030   18.4814 H   0  0  0  0  0  0
  -30.2010  -17.4798   22.9773 H   0  0  0  0  0  0
  -29.7307  -19.5997   23.8137 H   0  0  0  0  0  0
  -28.4586  -20.5296   23.0402 H   0  0  0  0  0  0
  -30.1584  -20.8626   22.6713 H   0  0  0  0  0  0
  -30.1120  -24.0167   19.4004 H   0  0  0  0  0  0
  -29.5442  -24.6013   20.9408 H   0  0  0  0  0  0
  -27.9231  -25.4299   18.4951 H   0  0  0  0  0  0
  -29.5224  -26.0194   18.5755 H   0  0  0  0  0  0
  -29.3609  -14.9708   21.9764 H   0  0  0  0  0  0
  -29.7959  -21.7662   20.3943 H   0  0  0  0  0  0
  -26.4218  -19.6959   19.7727 H   0  0  0  0  0  0
  -26.3873  -21.4371   19.5937 H   0  0  0  0  0  0
  1 25  1  0  0  0
  1 30  2  0  0  0
  1 82  1  0  0  0
  2  3  1  0  0  0
  2 25  1  0  0  0
  2 87  1  0  0  0
  2 88  1  0  0  0
  3  4  1  0  0  0
  3 89  1  0  0  0
  3 90  1  0  0  0
  4  5  1  0  0  0
  4 91  1  0  0  0
  4 92  1  0  0  0
  5  6  1  0  0  0
  5 26  1  0  0  0
  5 93  1  0  0  0
  6 25  1  0  0  0
  6 94  1  0  0  0
  6 95  1  0  0  0
  7  8  2  0  0  0
  7 26  1  0  0  0
  7 29  1  0  0  0
  8  9  1  0  0  0
  8 22  1  0  0  0
  9 10  1  0  0  0
  9 27  2  0  0  0
 10 11  2  0  0  0
 10 15  1  0  0  0
 11 12  1  0  0  0
 11 96  1  0  0  0
 12 13  2  0  0  0
 12 97  1  0  0  0
 13 14  1  0  0  0
 13 31  1  0  0  0
 14 15  2  0  0  0
 14 98  1  0  0  0
 15 99  1  0  0  0
 16 17  2  0  0  0
 16 21  1  0  0  0
 16 31  1  0  0  0
 17 18  1  0  0  0
 17100  1  0  0  0
 18 19  2  0  0  0
 18101  1  0  0  0
 19 20  1  0  0  0
 19 24  1  0  0  0
 20 21  2  0  0  0
 20102  1  0  0  0
 21 23  1  0  0  0
 22 28  1  0  0  0
 22 32  2  0  0  0
 26 27  1  0  0  0
 28103  1  0  0  0
 28104  1  0  0  0
 29105  1  0  0  0
 29106  1  0  0  0
 33 34  1  0  0  0
 33 66  1  0  0  0
 33 70  2  0  0  0
 34 36  1  0  0  0
 34 59  1  0  0  0
 34107  1  0  0  0
 35 44  2  0  0  0
 35 45  1  0  0  0
 35 68  1  0  0  0
 36 56  1  0  0  0
 36108  1  0  0  0
 37 39  1  0  0  0
 37 47  1  0  0  0
 37 66  1  0  0  0
 37109  1  0  0  0
 38 43  2  0  0  0
 38 46  1  0  0  0
 38 47  1  0  0  0
 39 64  1  0  0  0
 39 67  2  0  0  0
 40 52  1  0  0  0
 40 53  2  0  0  0
 40 58  1  0  0  0
 41110  1  0  0  0
 41111  1  0  0  0
 41112  1  0  0  0
 41 48  1  0  0  0
 42 43  1  0  0  0
 42 66  1  0  0  0
 42113  1  0  0  0
 42114  1  0  0  0
 43 44  1  0  0  0
 44115  1  0  0  0
 45 46  2  0  0  0
 45116  1  0  0  0
 46117  1  0  0  0
 47118  1  0  0  0
 47119  1  0  0  0
 48 56  1  0  0  0
 48 65  1  0  0  0
 48120  1  0  0  0
 49 50  1  0  0  0
 49 53  1  0  0  0
 49 64  1  0  0  0
 49121  1  0  0  0
 50 51  1  0  0  0
 50122  1  0  0  0
 50123  1  0  0  0
 51 52  1  0  0  0
 51124  1  0  0  0
 51125  1  0  0  0
 52126  1  0  0  0
 52127  1  0  0  0
 53 54  1  0  0  0
 54 55  2  0  0  0
 54128  1  0  0  0
 55 57  1  0  0  0
 55129  1  0  0  0
 56 69  2  0  0  0
 57 58  2  0  0  0
 57130  1  0  0  0
 58131  1  0  0  0
 59 60  1  0  0  0
 59 61  1  0  0  0
 59 62  1  0  0  0
 60132  1  0  0  0
 60133  1  0  0  0
 60134  1  0  0  0
 61135  1  0  0  0
 61136  1  0  0  0
 61137  1  0  0  0
 62138  1  0  0  0
 62139  1  0  0  0
 62140  1  0  0  0
 63 65  1  0  0  0
 63141  1  0  0  0
 63142  1  0  0  0
 63143  1  0  0  0
 64144  1  0  0  0
 65145  1  0  0  0
 68 81  1  0  0  0
 71 73  2  0  0  0
 71 76  1  0  0  0
 71146  1  0  0  0
 72 74  2  0  0  0
 72 75  1  0  0  0
 72147  1  0  0  0
 73 74  1  0  0  0
 73 77  1  0  0  0
 74 79  1  0  0  0
 75 76  2  0  0  0
 75 82  1  0  0  0
 76 86  1  0  0  0
 77 83  1  0  0  0
 77 84  2  0  0  0
 78 80  1  0  0  0
 78 83  1  0  0  0
 78 85  2  0  0  0
 79148  1  0  0  0
 79149  1  0  0  0
 79150  1  0  0  0
 80 81  1  0  0  0
 80151  1  0  0  0
 80152  1  0  0  0
 81153  1  0  0  0
 81154  1  0  0  0
 82155  1  0  0  0
 83156  1  0  0  0
 84157  1  0  0  0
 84158  1  0  0  0
M  CHG  1  84   1
M  ISO  4   1 100  68 101  81 101  82 100
M  END
> <chiral flag>
0

> <version>
0

> <s_m_source_file>
/data/baiqing/PycharmProjects/Reinvent-master-3.2/result/LINK_invent/BTK/process_docking_weight1_custom_product_contain_oxygen_bond_distance_aromatic_linkinvent_7_9_3/rearranged_h_0049.sdf

> <i_m_source_file_index>
54

> <r_mmod_Potential_Energy-OPLS-2005>
-334.207550048828

> <r_mmod_Stretch_Energy-OPLS-2005>
41.7922477722168

> <r_mmod_Bend_Energy-OPLS-2005>
121.85472869873

> <r_mmod_Torsional_Energy-OPLS-2005>
247.00798034668

> <r_mmod_Improper_Torsional_Energy-OPLS-2005>
5.98492383956909

> <r_mmod_Van_der_Waal_Energy-OPLS-2005>
163.299880981445

> <r_mmod_Electrostatic_Energy-OPLS-2005>
-467.501403808594

> <r_mmod_Solvation_Energy-OPLS-2005>
-459.002349853516

> <b_mmod_Minimization_Converged-OPLS-2005>
0

> <r_mmod_RMS_Derivative-OPLS-2005>
1.66951012611389

$$$$
54
                    3D
 Structure written by MMmdl.
160169  0  0  1  0            999 V2000
  -30.6264  -14.6449   20.5021 C   0  0  0  0  0  0
  -30.4369  -12.4028   19.4416 C   0  0  0  0  0  0
  -29.5021  -12.5018   18.2164 C   0  0  0  0  0  0
  -28.0276  -12.3351   18.6354 C   0  0  0  0  0  0
  -27.6485  -13.2154   19.8556 C   0  0  2  0  0  0
  -28.6952  -13.0882   20.9838 C   0  0  0  0  0  0
  -25.2552  -13.8171   20.5681 C   0  0  0  0  0  0
  -24.1822  -13.0438   20.9192 C   0  0  0  0  0  0
  -24.6390  -11.6908   20.8742 C   0  0  0  0  0  0
  -23.9059  -10.4295   21.0413 C   0  0  0  0  0  0
  -24.3612   -9.4210   21.9193 C   0  0  0  0  0  0
  -23.6290   -8.2245   22.0760 C   0  0  0  0  0  0
  -22.4275   -8.0279   21.3546 C   0  0  0  0  0  0
  -21.9909   -9.0249   20.4651 C   0  0  0  0  0  0
  -22.7230  -10.2132   20.3061 C   0  0  0  0  0  0
  -21.6852   -6.0736   22.5277 C   0  0  0  0  0  0
  -21.4015   -6.5640   23.8208 C   0  0  0  0  0  0
  -21.3660   -5.6796   24.9172 C   0  0  0  0  0  0
  -21.6045   -4.3056   24.7228 C   0  0  0  0  0  0
  -21.8819   -3.8149   23.4347 C   0  0  0  0  0  0
  -21.9193   -4.6966   22.3402 C   0  0  0  0  0  0
  -22.7847  -13.5234   21.1858 C   0  0  0  0  0  0
  -22.1660   -4.2151   21.0983 F   0  0  0  0  0  0
  -21.5629   -3.4542   25.7738 F   0  0  0  0  0  0
  -30.0040  -13.4296   20.4074 N   0  0  0  0  0  0
  -26.2965  -12.9346   20.3291 N   0  0  0  0  0  0
  -25.9315  -11.6507   20.5753 N   0  0  0  0  0  0
  -22.0489  -12.8213   22.0408 N   0  0  0  0  0  0
  -25.4262  -15.1891   20.4097 N   0  0  0  0  0  0
  -31.8067  -14.7942   20.1756 O   0  0  0  0  0  0
  -21.6636   -6.8876   21.4237 O   0  0  0  0  0  0
  -22.3537  -14.5545   20.6715 O   0  0  0  0  0  0
  -24.6248  -31.8616   23.2048 C   0  0  0  0  0  0
  -25.9104  -32.4787   23.8362 C   0  0  1  0  0  0
  -27.2195  -27.3326   20.1097 C   0  0  0  0  0  0
  -25.5927  -33.8586   24.2283 N   0  0  0  0  0  0
  -23.4166  -30.4873   21.5484 C   0  0  2  0  0  0
  -24.8597  -28.9466   20.1132 C   0  0  0  0  0  0
  -22.7463  -29.4634   22.4950 C   0  0  0  0  0  0
  -18.0276  -28.1377   22.8487 C   0  0  0  0  0  0
  -24.1486  -36.7294   23.2637 C   0  0  0  0  0  0
  -25.9572  -30.7993   21.3716 C   0  0  0  0  0  0
  -26.0310  -29.4287   20.7104 C   0  0  0  0  0  0
  -27.2163  -28.6355   20.6942 C   0  0  0  0  0  0
  -26.0181  -26.8976   19.5040 C   0  0  0  0  0  0
  -24.8540  -27.6845   19.5026 C   0  0  0  0  0  0
  -23.6273  -29.8251   20.1631 C   0  0  0  0  0  0
  -25.4109  -36.3079   24.0318 C   0  0  1  0  0  0
  -20.5879  -28.3684   23.1287 C   0  0  2  0  0  0
  -20.6767  -26.9412   22.5410 C   0  0  0  0  0  0
  -19.5746  -26.6386   21.5210 C   0  0  0  0  0  0
  -18.1924  -26.7929   22.1614 C   0  0  0  0  0  0
  -19.1535  -28.8847   23.2878 C   0  0  0  0  0  0
  -18.9460  -30.1451   23.8893 C   0  0  0  0  0  0
  -17.6462  -30.6588   24.0565 C   0  0  0  0  0  0
  -25.9045  -34.9450   23.5098 C   0  0  0  0  0  0
  -16.5347  -29.9087   23.6334 C   0  0  0  0  0  0
  -16.7269  -28.6501   23.0363 C   0  0  0  0  0  0
  -26.4492  -31.6608   25.0737 C   0  0  0  0  0  0
  -25.3735  -31.3727   26.1476 C   0  0  0  0  0  0
  -27.0357  -30.3037   24.6199 C   0  0  0  0  0  0
  -27.6044  -32.4354   25.7507 C   0  0  0  0  0  0
  -27.5568  -37.1790   24.8458 C   0  0  0  0  0  0
  -21.4175  -29.3046   22.3688 N   0  0  0  0  0  0
  -26.4280  -37.3775   23.9408 N   0  0  0  0  0  0
  -24.6846  -31.0660   22.0978 N   0  0  0  0  0  0
  -23.4193  -28.8169   23.3017 O   0  0  0  0  0  0
  -28.3490  -26.5015   20.1404 O   0  0  0  0  0  0
  -26.5630  -34.8914   22.4670 O   0  0  0  0  0  0
  -23.5421  -32.1397   23.7398 O   0  0  0  0  0  0
  -29.9120  -18.0160   18.7448 C   0  0  0  0  0  0
  -29.3568  -20.3249   18.1750 C   0  0  0  0  0  0
  -29.8021  -18.2991   20.1186 C   0  0  0  0  0  0
  -29.1942  -20.6958   19.5322 C   0  0  0  0  0  0
  -29.6990  -19.0179   17.7848 C   0  0  0  0  0  0
  -29.4443  -19.6524   20.5078 C   0  0  0  0  0  0
  -27.9111  -22.7885   18.9619 C   0  0  0  0  0  0
  -26.8663  -22.2180   18.3340 C   0  0  0  0  0  0
  -28.1650  -24.3064   18.8134 C   0  0  0  0  0  0
  -29.1889  -24.2695   21.0915 C   0  0  0  0  0  0
  -29.7574  -22.8977   20.5489 C   0  0  0  0  0  0
  -28.1703  -25.0284   20.1804 C   0  0  1  0  0  0
  -30.1644  -17.1453   21.1185 C   0  0  0  0  0  0
  -28.7929  -22.0656   19.7973 N   0  0  0  0  0  0
  -29.8237  -15.7136   20.7973 N   0  0  0  0  0  0
  -29.8685  -18.6412   16.1094 Cl  0  0  0  0  0  0
  -29.2709  -20.0148   22.1913 Cl  0  0  0  0  0  0
  -31.4757  -12.5380   19.1345 H   0  0  0  0  0  0
  -30.3810  -11.4113   19.8930 H   0  0  0  0  0  0
  -29.7670  -11.7440   17.4772 H   0  0  0  0  0  0
  -29.6357  -13.4671   17.7256 H   0  0  0  0  0  0
  -27.8710  -11.2833   18.8768 H   0  0  0  0  0  0
  -27.3681  -12.5521   17.7943 H   0  0  0  0  0  0
  -27.6606  -14.2462   19.5023 H   0  0  0  0  0  0
  -28.7135  -12.0732   21.3833 H   0  0  0  0  0  0
  -28.4427  -13.7366   21.8247 H   0  0  0  0  0  0
  -25.2758   -9.5689   22.4765 H   0  0  0  0  0  0
  -23.9997   -7.4643   22.7480 H   0  0  0  0  0  0
  -21.0843   -8.8775   19.8955 H   0  0  0  0  0  0
  -22.3694  -10.9677   19.6171 H   0  0  0  0  0  0
  -21.2008   -7.6146   23.9711 H   0  0  0  0  0  0
  -21.1478   -6.0527   25.9075 H   0  0  0  0  0  0
  -22.0599   -2.7613   23.2847 H   0  0  0  0  0  0
  -22.4098  -11.9863   22.4781 H   0  0  0  0  0  0
  -21.1115  -13.1248   22.2634 H   0  0  0  0  0  0
  -24.6572  -15.8408   20.5209 H   0  0  0  0  0  0
  -26.2680  -15.6303   20.0637 H   0  0  0  0  0  0
  -26.7173  -32.5454   23.1112 H   0  0  0  0  0  0
  -25.0070  -33.9738   25.0424 H   0  0  0  0  0  0
  -22.7079  -31.3065   21.4083 H   0  0  0  0  0  0
  -23.3742  -35.9632   23.3305 H   0  0  0  0  0  0
  -24.3562  -36.8933   22.2052 H   0  0  0  0  0  0
  -23.7262  -37.6494   23.6679 H   0  0  0  0  0  0
  -26.0886  -31.5665   20.6070 H   0  0  0  0  0  0
  -26.8373  -30.8431   22.0024 H   0  0  0  0  0  0
  -28.1182  -29.0026   21.1626 H   0  0  0  0  0  0
  -25.9428  -25.9289   19.0402 H   0  0  0  0  0  0
  -23.9532  -27.3036   19.0411 H   0  0  0  0  0  0
  -23.7430  -30.6028   19.4073 H   0  0  0  0  0  0
  -22.7462  -29.2538   19.8637 H   0  0  0  0  0  0
  -25.1293  -36.1907   25.0810 H   0  0  0  0  0  0
  -20.9967  -28.3265   24.1410 H   0  0  0  0  0  0
  -20.5673  -26.2296   23.3605 H   0  0  0  0  0  0
  -21.6634  -26.7446   22.1206 H   0  0  0  0  0  0
  -19.6917  -25.6299   21.1240 H   0  0  0  0  0  0
  -19.6693  -27.3186   20.6736 H   0  0  0  0  0  0
  -17.4199  -26.6684   21.4010 H   0  0  0  0  0  0
  -18.0313  -26.0052   22.8995 H   0  0  0  0  0  0
  -19.7936  -30.7259   24.2275 H   0  0  0  0  0  0
  -17.5023  -31.6268   24.5166 H   0  0  0  0  0  0
  -15.5351  -30.2997   23.7668 H   0  0  0  0  0  0
  -15.8658  -28.0824   22.7091 H   0  0  0  0  0  0
  -24.5922  -30.7056   25.7814 H   0  0  0  0  0  0
  -24.8899  -32.2879   26.4891 H   0  0  0  0  0  0
  -25.8072  -30.8925   27.0258 H   0  0  0  0  0  0
  -26.2940  -29.6759   24.1244 H   0  0  0  0  0  0
  -27.4090  -29.7315   25.4705 H   0  0  0  0  0  0
  -27.8786  -30.4330   23.9405 H   0  0  0  0  0  0
  -27.2660  -33.3684   26.2030 H   0  0  0  0  0  0
  -28.3879  -32.6886   25.0347 H   0  0  0  0  0  0
  -28.0688  -31.8521   26.5469 H   0  0  0  0  0  0
  -28.2579  -38.0097   24.7523 H   0  0  0  0  0  0
  -28.1084  -36.2628   24.6272 H   0  0  0  0  0  0
  -27.2292  -37.1430   25.8864 H   0  0  0  0  0  0
  -20.9343  -29.8781   21.6911 H   0  0  0  0  0  0
  -26.0154  -38.2842   24.1433 H   0  0  0  0  0  0
  -30.1935  -17.0258   18.4175 H   0  0  0  0  0  0
  -29.2135  -21.0592   17.3974 H   0  0  0  0  0  0
  -26.2025  -22.8012   17.7116 H   0  0  0  0  0  0
  -26.6447  -21.1642   18.4262 H   0  0  0  0  0  0
  -27.4281  -24.7391   18.1390 H   0  0  0  0  0  0
  -29.1233  -24.4567   18.3147 H   0  0  0  0  0  0
  -30.0330  -24.9237   21.3092 H   0  0  0  0  0  0
  -28.7107  -24.0921   22.0557 H   0  0  0  0  0  0
  -30.2067  -22.3440   21.3705 H   0  0  0  0  0  0
  -30.5795  -23.1190   19.8659 H   0  0  0  0  0  0
  -27.1971  -24.8314   20.6329 H   0  0  0  0  0  0
  -29.6837  -17.3548   22.0737 H   0  0  0  0  0  0
  -31.2358  -17.2172   21.3133 H   0  0  0  0  0  0
  -28.8580  -15.4706   20.9554 H   0  0  0  0  0  0
  1 25  1  0  0  0
  1 30  2  0  0  0
  1 85  1  0  0  0
  2  3  1  0  0  0
  2 25  1  0  0  0
  2 88  1  0  0  0
  2 89  1  0  0  0
  3  4  1  0  0  0
  3 90  1  0  0  0
  3 91  1  0  0  0
  4  5  1  0  0  0
  4 92  1  0  0  0
  4 93  1  0  0  0
  5  6  1  0  0  0
  5 26  1  0  0  0
  5 94  1  0  0  0
  6 25  1  0  0  0
  6 95  1  0  0  0
  6 96  1  0  0  0
  7  8  2  0  0  0
  7 26  1  0  0  0
  7 29  1  0  0  0
  8  9  1  0  0  0
  8 22  1  0  0  0
  9 10  1  0  0  0
  9 27  2  0  0  0
 10 11  2  0  0  0
 10 15  1  0  0  0
 11 12  1  0  0  0
 11 97  1  0  0  0
 12 13  2  0  0  0
 12 98  1  0  0  0
 13 14  1  0  0  0
 13 31  1  0  0  0
 14 15  2  0  0  0
 14 99  1  0  0  0
 15100  1  0  0  0
 16 17  2  0  0  0
 16 21  1  0  0  0
 16 31  1  0  0  0
 17 18  1  0  0  0
 17101  1  0  0  0
 18 19  2  0  0  0
 18102  1  0  0  0
 19 20  1  0  0  0
 19 24  1  0  0  0
 20 21  2  0  0  0
 20103  1  0  0  0
 21 23  1  0  0  0
 22 28  1  0  0  0
 22 32  2  0  0  0
 26 27  1  0  0  0
 28104  1  0  0  0
 28105  1  0  0  0
 29106  1  0  0  0
 29107  1  0  0  0
 33 34  1  0  0  0
 33 66  1  0  0  0
 33 70  2  0  0  0
 34 36  1  0  0  0
 34 59  1  0  0  0
 34108  1  0  0  0
 35 44  2  0  0  0
 35 45  1  0  0  0
 35 68  1  0  0  0
 36 56  1  0  0  0
 36109  1  0  0  0
 37 39  1  0  0  0
 37 47  1  0  0  0
 37 66  1  0  0  0
 37110  1  0  0  0
 38 43  2  0  0  0
 38 46  1  0  0  0
 38 47  1  0  0  0
 39 64  1  0  0  0
 39 67  2  0  0  0
 40 52  1  0  0  0
 40 53  2  0  0  0
 40 58  1  0  0  0
 41111  1  0  0  0
 41112  1  0  0  0
 41113  1  0  0  0
 41 48  1  0  0  0
 42 43  1  0  0  0
 42 66  1  0  0  0
 42114  1  0  0  0
 42115  1  0  0  0
 43 44  1  0  0  0
 44116  1  0  0  0
 45 46  2  0  0  0
 45117  1  0  0  0
 46118  1  0  0  0
 47119  1  0  0  0
 47120  1  0  0  0
 48 56  1  0  0  0
 48 65  1  0  0  0
 48121  1  0  0  0
 49 50  1  0  0  0
 49 53  1  0  0  0
 49 64  1  0  0  0
 49122  1  0  0  0
 50 51  1  0  0  0
 50123  1  0  0  0
 50124  1  0  0  0
 51 52  1  0  0  0
 51125  1  0  0  0
 51126  1  0  0  0
 52127  1  0  0  0
 52128  1  0  0  0
 53 54  1  0  0  0
 54 55  2  0  0  0
 54129  1  0  0  0
 55 57  1  0  0  0
 55130  1  0  0  0
 56 69  2  0  0  0
 57 58  2  0  0  0
 57131  1  0  0  0
 58132  1  0  0  0
 59 60  1  0  0  0
 59 61  1  0  0  0
 59 62  1  0  0  0
 60133  1  0  0  0
 60134  1  0  0  0
 60135  1  0  0  0
 61136  1  0  0  0
 61137  1  0  0  0
 61138  1  0  0  0
 62139  1  0  0  0
 62140  1  0  0  0
 62141  1  0  0  0
 63 65  1  0  0  0
 63142  1  0  0  0
 63143  1  0  0  0
 63144  1  0  0  0
 64145  1  0  0  0
 65146  1  0  0  0
 68 82  1  0  0  0
 71 73  2  0  0  0
 71 75  1  0  0  0
 71147  1  0  0  0
 72 74  1  0  0  0
 72 75  2  0  0  0
 72148  1  0  0  0
 73 76  1  0  0  0
 73 83  1  0  0  0
 74 76  2  0  0  0
 74 84  1  0  0  0
 75 86  1  0  0  0
 76 87  1  0  0  0
 77 78  2  0  0  0
 77 79  1  0  0  0
 77 84  1  0  0  0
 78149  1  0  0  0
 78150  1  0  0  0
 79 82  1  0  0  0
 79151  1  0  0  0
 79152  1  0  0  0
 80 81  1  0  0  0
 80 82  1  0  0  0
 80153  1  0  0  0
 80154  1  0  0  0
 81 84  1  0  0  0
 81155  1  0  0  0
 81156  1  0  0  0
 82157  1  0  0  0
 83 85  1  0  0  0
 83158  1  0  0  0
 83159  1  0  0  0
 85160  1  0  0  0
M  ISO  4   1 100  68 101  82 101  85 100
M  END
> <chiral flag>
0

> <version>
0

> <s_m_source_file>
/data/baiqing/PycharmProjects/Reinvent-master-3.2/result/LINK_invent/BTK/process_docking_weight1_custom_product_contain_oxygen_bond_distance_aromatic_linkinvent_7_9_3/rearranged_h_0049.sdf

> <i_m_source_file_index>
55

> <r_mmod_Potential_Energy-OPLS-2005>
60.6353645324707

> <r_mmod_Stretch_Energy-OPLS-2005>
83.3607406616211

> <r_mmod_Bend_Energy-OPLS-2005>
136.554885864258

> <r_mmod_Torsional_Energy-OPLS-2005>
247.301040649414

> <r_mmod_Improper_Torsional_Energy-OPLS-2005>
6.13714551925659

> <r_mmod_Van_der_Waal_Energy-OPLS-2005>
158.45539855957

> <r_mmod_Electrostatic_Energy-OPLS-2005>
-410.388458251953

> <r_mmod_Solvation_Energy-OPLS-2005>
-208.412750244141

> <b_mmod_Minimization_Converged-OPLS-2005>
0

> <r_mmod_RMS_Derivative-OPLS-2005>
1.62019550800323

$$$$
55
                    3D
 Structure written by MMmdl.
155163  0  0  1  0            999 V2000
  -30.6280  -14.7500   20.4516 C   0  0  0  0  0  0
  -30.4229  -12.4555   19.4821 C   0  0  0  0  0  0
  -29.5062  -12.4967   18.2410 C   0  0  0  0  0  0
  -28.0338  -12.3205   18.6568 C   0  0  0  0  0  0
  -27.6365  -13.2339   19.8473 C   0  0  2  0  0  0
  -28.6800  -13.1911   20.9849 C   0  0  0  0  0  0
  -25.2485  -13.8209   20.5703 C   0  0  0  0  0  0
  -24.1782  -13.0446   20.9213 C   0  0  0  0  0  0
  -24.6375  -11.6925   20.8750 C   0  0  0  0  0  0
  -23.9063  -10.4294   21.0406 C   0  0  0  0  0  0
  -24.3615   -9.4207   21.9182 C   0  0  0  0  0  0
  -23.6288   -8.2242   22.0753 C   0  0  0  0  0  0
  -22.4270   -8.0278   21.3544 C   0  0  0  0  0  0
  -21.9910   -9.0250   20.4643 C   0  0  0  0  0  0
  -22.7239  -10.2129   20.3053 C   0  0  0  0  0  0
  -21.6856   -6.0730   22.5275 C   0  0  0  0  0  0
  -21.4014   -6.5636   23.8207 C   0  0  0  0  0  0
  -21.3658   -5.6790   24.9170 C   0  0  0  0  0  0
  -21.6045   -4.3052   24.7225 C   0  0  0  0  0  0
  -21.8820   -3.8142   23.4347 C   0  0  0  0  0  0
  -21.9190   -4.6957   22.3400 C   0  0  0  0  0  0
  -22.7804  -13.5220   21.1873 C   0  0  0  0  0  0
  -22.1660   -4.2141   21.0978 F   0  0  0  0  0  0
  -21.5628   -3.4538   25.7740 F   0  0  0  0  0  0
  -29.9798  -13.5346   20.3985 N   0  0  0  0  0  0
  -26.2904  -12.9417   20.3274 N   0  0  0  0  0  0
  -25.9307  -11.6559   20.5766 N   0  0  0  0  0  0
  -22.0460  -12.8196   22.0425 N   0  0  0  0  0  0
  -25.4175  -15.1939   20.4144 N   0  0  0  0  0  0
  -31.8198  -14.7867   20.1417 O   0  0  0  0  0  0
  -21.6640   -6.8873   21.4237 O   0  0  0  0  0  0
  -22.3484  -14.5526   20.6724 O   0  0  0  0  0  0
  -24.6324  -31.8537   23.1972 C   0  0  0  0  0  0
  -25.9150  -32.4742   23.8318 C   0  0  1  0  0  0
  -27.2198  -27.2617   20.1208 C   0  0  0  0  0  0
  -25.5946  -33.8546   24.2253 N   0  0  0  0  0  0
  -23.4280  -30.4764   21.5402 C   0  0  2  0  0  0
  -24.8718  -28.9214   20.1064 C   0  0  0  0  0  0
  -22.7505  -29.4594   22.4903 C   0  0  0  0  0  0
  -18.0288  -28.1383   22.8481 C   0  0  0  0  0  0
  -24.1487  -36.7276   23.2641 C   0  0  0  0  0  0
  -25.9725  -30.7674   21.3743 C   0  0  0  0  0  0
  -26.0424  -29.3905   20.7136 C   0  0  0  0  0  0
  -27.2147  -28.5717   20.7102 C   0  0  0  0  0  0
  -26.0198  -26.8499   19.4998 C   0  0  0  0  0  0
  -24.8649  -27.6590   19.4924 C   0  0  0  0  0  0
  -23.6436  -29.8093   20.1559 C   0  0  0  0  0  0
  -25.4111  -36.3064   24.0334 C   0  0  1  0  0  0
  -20.5893  -28.3694   23.1266 C   0  0  2  0  0  0
  -20.6774  -26.9410   22.5406 C   0  0  0  0  0  0
  -19.5750  -26.6376   21.5215 C   0  0  0  0  0  0
  -18.1926  -26.7925   22.1618 C   0  0  0  0  0  0
  -19.1543  -28.8855   23.2864 C   0  0  0  0  0  0
  -18.9469  -30.1452   23.8888 C   0  0  0  0  0  0
  -17.6472  -30.6584   24.0562 C   0  0  0  0  0  0
  -25.9057  -34.9435   23.5093 C   0  0  0  0  0  0
  -16.5359  -29.9083   23.6337 C   0  0  0  0  0  0
  -16.7277  -28.6498   23.0361 C   0  0  0  0  0  0
  -26.4519  -31.6577   25.0713 C   0  0  0  0  0  0
  -25.3746  -31.3739   26.1439 C   0  0  0  0  0  0
  -27.0380  -30.2994   24.6212 C   0  0  0  0  0  0
  -27.6050  -32.4342   25.7495 C   0  0  0  0  0  0
  -27.5575  -37.1788   24.8467 C   0  0  0  0  0  0
  -21.4210  -29.3039   22.3654 N   0  0  0  0  0  0
  -26.4285  -37.3765   23.9415 N   0  0  0  0  0  0
  -24.6967  -31.0507   22.0938 N   0  0  0  0  0  0
  -23.4204  -28.8138   23.3004 O   0  0  0  0  0  0
  -28.3408  -26.4065   20.2071 O   0  0  0  0  0  0
  -26.5624  -34.8916   22.4659 O   0  0  0  0  0  0
  -23.5476  -32.1353   23.7276 O   0  0  0  0  0  0
  -31.1187  -20.1305   20.3423 C   0  0  0  0  0  0
  -31.6325  -17.7337   20.3359 C   0  0  0  0  0  0
  -29.7390  -19.8954   20.5155 C   0  0  0  0  0  0
  -30.2753  -17.3658   20.5238 C   0  0  0  0  0  0
  -32.0412  -19.0771   20.2493 C   0  0  0  0  0  0
  -29.3390  -18.4872   20.6137 C   0  0  0  0  0  0
  -28.8755  -21.1565   20.7485 C   0  0  0  0  0  0
  -28.3350  -23.7327   20.4860 C   0  0  0  0  0  0
  -29.6624  -22.4247   18.7633 C   0  0  0  0  0  0
  -28.4451  -25.0493   19.5657 C   0  0  0  0  0  0
  -29.8890  -15.9195   20.6416 N   0  0  0  0  0  0
  -28.9372  -22.3937   20.0589 N   0  0  0  0  0  0
  -28.0298  -21.0674   21.7755 N   0  3  0  0  0  0
  -27.7349  -23.8122   21.5643 O   0  0  0  0  0  0
  -33.3555  -19.3650   20.0943 F   0  0  0  0  0  0
  -28.0341  -18.1953   20.8353 F   0  0  0  0  0  0
  -31.4657  -12.5625   19.1790 H   0  0  0  0  0  0
  -30.3588  -11.4862   19.9789 H   0  0  0  0  0  0
  -29.7905  -11.7153   17.5352 H   0  0  0  0  0  0
  -29.6306  -13.4453   17.7171 H   0  0  0  0  0  0
  -27.8978  -11.2750   18.9355 H   0  0  0  0  0  0
  -27.3739  -12.4943   17.8064 H   0  0  0  0  0  0
  -27.6240  -14.2496   19.4513 H   0  0  0  0  0  0
  -28.7160  -12.2019   21.4437 H   0  0  0  0  0  0
  -28.4139  -13.8886   21.7807 H   0  0  0  0  0  0
  -25.2761   -9.5685   22.4759 H   0  0  0  0  0  0
  -23.9995   -7.4638   22.7478 H   0  0  0  0  0  0
  -21.0843   -8.8767   19.8951 H   0  0  0  0  0  0
  -22.3696  -10.9666   19.6160 H   0  0  0  0  0  0
  -21.2009   -7.6146   23.9710 H   0  0  0  0  0  0
  -21.1480   -6.0521   25.9073 H   0  0  0  0  0  0
  -22.0602   -2.7603   23.2850 H   0  0  0  0  0  0
  -22.4087  -11.9852   22.4795 H   0  0  0  0  0  0
  -21.1078  -13.1210   22.2654 H   0  0  0  0  0  0
  -24.6508  -15.8469   20.5359 H   0  0  0  0  0  0
  -26.2643  -15.6407   20.0874 H   0  0  0  0  0  0
  -26.7208  -32.5382   23.1050 H   0  0  0  0  0  0
  -25.0129  -33.9678   25.0424 H   0  0  0  0  0  0
  -22.7257  -31.2995   21.3933 H   0  0  0  0  0  0
  -23.3758  -35.9598   23.3303 H   0  0  0  0  0  0
  -24.3571  -36.8906   22.2055 H   0  0  0  0  0  0
  -23.7238  -37.6475   23.6668 H   0  0  0  0  0  0
  -26.1139  -31.5310   20.6082 H   0  0  0  0  0  0
  -26.8501  -30.8119   22.0081 H   0  0  0  0  0  0
  -28.1123  -28.9257   21.1974 H   0  0  0  0  0  0
  -25.9282  -25.8764   19.0455 H   0  0  0  0  0  0
  -23.9631  -27.2890   19.0244 H   0  0  0  0  0  0
  -23.7658  -30.5855   19.4000 H   0  0  0  0  0  0
  -22.7614  -29.2436   19.8512 H   0  0  0  0  0  0
  -25.1291  -36.1906   25.0828 H   0  0  0  0  0  0
  -20.9982  -28.3274   24.1390 H   0  0  0  0  0  0
  -20.5679  -26.2308   23.3613 H   0  0  0  0  0  0
  -21.6638  -26.7427   22.1196 H   0  0  0  0  0  0
  -19.6918  -25.6290   21.1242 H   0  0  0  0  0  0
  -19.6694  -27.3182   20.6745 H   0  0  0  0  0  0
  -17.4201  -26.6690   21.4014 H   0  0  0  0  0  0
  -18.0304  -26.0057   22.9001 H   0  0  0  0  0  0
  -19.7947  -30.7262   24.2256 H   0  0  0  0  0  0
  -17.5025  -31.6265   24.5161 H   0  0  0  0  0  0
  -15.5360  -30.2986   23.7663 H   0  0  0  0  0  0
  -15.8673  -28.0813   22.7096 H   0  0  0  0  0  0
  -24.5916  -30.7090   25.7782 H   0  0  0  0  0  0
  -24.8944  -32.2914   26.4844 H   0  0  0  0  0  0
  -25.8059  -30.8937   27.0232 H   0  0  0  0  0  0
  -26.2971  -29.6718   24.1245 H   0  0  0  0  0  0
  -27.4083  -29.7277   25.4734 H   0  0  0  0  0  0
  -27.8834  -30.4277   23.9448 H   0  0  0  0  0  0
  -27.2632  -33.3652   26.2030 H   0  0  0  0  0  0
  -28.3876  -32.6898   25.0342 H   0  0  0  0  0  0
  -28.0698  -31.8509   26.5454 H   0  0  0  0  0  0
  -28.2587  -38.0088   24.7507 H   0  0  0  0  0  0
  -28.1081  -36.2619   24.6302 H   0  0  0  0  0  0
  -27.2291  -37.1442   25.8871 H   0  0  0  0  0  0
  -20.9398  -29.8785   21.6876 H   0  0  0  0  0  0
  -26.0171  -38.2844   24.1413 H   0  0  0  0  0  0
  -31.5065  -21.1381   20.3203 H   0  0  0  0  0  0
  -32.4233  -17.0079   20.2710 H   0  0  0  0  0  0
  -29.8018  -21.4368   18.3236 H   0  0  0  0  0  0
  -30.6463  -22.8815   18.8772 H   0  0  0  0  0  0
  -29.1162  -22.9869   18.0057 H   0  0  0  0  0  0
  -27.7759  -24.9453   18.7142 H   0  0  0  0  0  0
  -29.4427  -25.0476   19.1296 H   0  0  0  0  0  0
  -28.9123  -15.7657   20.8399 H   0  0  0  0  0  0
  -27.8998  -20.1963   22.2675 H   0  0  0  0  0  0
  -27.5374  -21.8998   22.0756 H   0  0  0  0  0  0
  1 25  1  0  0  0
  1 30  2  0  0  0
  1 81  1  0  0  0
  2  3  1  0  0  0
  2 25  1  0  0  0
  2 87  1  0  0  0
  2 88  1  0  0  0
  3  4  1  0  0  0
  3 89  1  0  0  0
  3 90  1  0  0  0
  4  5  1  0  0  0
  4 91  1  0  0  0
  4 92  1  0  0  0
  5  6  1  0  0  0
  5 26  1  0  0  0
  5 93  1  0  0  0
  6 25  1  0  0  0
  6 94  1  0  0  0
  6 95  1  0  0  0
  7  8  2  0  0  0
  7 26  1  0  0  0
  7 29  1  0  0  0
  8  9  1  0  0  0
  8 22  1  0  0  0
  9 10  1  0  0  0
  9 27  2  0  0  0
 10 11  2  0  0  0
 10 15  1  0  0  0
 11 12  1  0  0  0
 11 96  1  0  0  0
 12 13  2  0  0  0
 12 97  1  0  0  0
 13 14  1  0  0  0
 13 31  1  0  0  0
 14 15  2  0  0  0
 14 98  1  0  0  0
 15 99  1  0  0  0
 16 17  2  0  0  0
 16 21  1  0  0  0
 16 31  1  0  0  0
 17 18  1  0  0  0
 17100  1  0  0  0
 18 19  2  0  0  0
 18101  1  0  0  0
 19 20  1  0  0  0
 19 24  1  0  0  0
 20 21  2  0  0  0
 20102  1  0  0  0
 21 23  1  0  0  0
 22 28  1  0  0  0
 22 32  2  0  0  0
 26 27  1  0  0  0
 28103  1  0  0  0
 28104  1  0  0  0
 29105  1  0  0  0
 29106  1  0  0  0
 33 34  1  0  0  0
 33 66  1  0  0  0
 33 70  2  0  0  0
 34 36  1  0  0  0
 34 59  1  0  0  0
 34107  1  0  0  0
 35 44  2  0  0  0
 35 45  1  0  0  0
 35 68  1  0  0  0
 36 56  1  0  0  0
 36108  1  0  0  0
 37 39  1  0  0  0
 37 47  1  0  0  0
 37 66  1  0  0  0
 37109  1  0  0  0
 38 43  2  0  0  0
 38 46  1  0  0  0
 38 47  1  0  0  0
 39 64  1  0  0  0
 39 67  2  0  0  0
 40 52  1  0  0  0
 40 53  2  0  0  0
 40 58  1  0  0  0
 41110  1  0  0  0
 41111  1  0  0  0
 41112  1  0  0  0
 41 48  1  0  0  0
 42 43  1  0  0  0
 42 66  1  0  0  0
 42113  1  0  0  0
 42114  1  0  0  0
 43 44  1  0  0  0
 44115  1  0  0  0
 45 46  2  0  0  0
 45116  1  0  0  0
 46117  1  0  0  0
 47118  1  0  0  0
 47119  1  0  0  0
 48 56  1  0  0  0
 48 65  1  0  0  0
 48120  1  0  0  0
 49 50  1  0  0  0
 49 53  1  0  0  0
 49 64  1  0  0  0
 49121  1  0  0  0
 50 51  1  0  0  0
 50122  1  0  0  0
 50123  1  0  0  0
 51 52  1  0  0  0
 51124  1  0  0  0
 51125  1  0  0  0
 52126  1  0  0  0
 52127  1  0  0  0
 53 54  1  0  0  0
 54 55  2  0  0  0
 54128  1  0  0  0
 55 57  1  0  0  0
 55129  1  0  0  0
 56 69  2  0  0  0
 57 58  2  0  0  0
 57130  1  0  0  0
 58131  1  0  0  0
 59 60  1  0  0  0
 59 61  1  0  0  0
 59 62  1  0  0  0
 60132  1  0  0  0
 60133  1  0  0  0
 60134  1  0  0  0
 61135  1  0  0  0
 61136  1  0  0  0
 61137  1  0  0  0
 62138  1  0  0  0
 62139  1  0  0  0
 62140  1  0  0  0
 63 65  1  0  0  0
 63141  1  0  0  0
 63142  1  0  0  0
 63143  1  0  0  0
 64144  1  0  0  0
 65145  1  0  0  0
 68 80  1  0  0  0
 71 73  2  0  0  0
 71 75  1  0  0  0
 71146  1  0  0  0
 72 74  1  0  0  0
 72 75  2  0  0  0
 72147  1  0  0  0
 73 76  1  0  0  0
 73 77  1  0  0  0
 74 76  2  0  0  0
 74 81  1  0  0  0
 75 85  1  0  0  0
 76 86  1  0  0  0
 77 82  1  0  0  0
 77 83  2  0  0  0
 78 80  1  0  0  0
 78 82  1  0  0  0
 78 84  2  0  0  0
 79 82  1  0  0  0
 79148  1  0  0  0
 79149  1  0  0  0
 79150  1  0  0  0
 80151  1  0  0  0
 80152  1  0  0  0
 81153  1  0  0  0
 83154  1  0  0  0
 83155  1  0  0  0
M  CHG  1  83   1
M  ISO  4   1 100  68 101  80 101  81 100
M  END
> <chiral flag>
0

> <version>
0

> <s_m_source_file>
/data/baiqing/PycharmProjects/Reinvent-master-3.2/result/LINK_invent/BTK/process_docking_weight1_custom_product_contain_oxygen_bond_distance_aromatic_linkinvent_7_9_3/rearranged_h_0049.sdf

> <i_m_source_file_index>
56

> <r_mmod_Potential_Energy-OPLS-2005>
-76.7395172119141

> <r_mmod_Stretch_Energy-OPLS-2005>
146.635406494141

> <r_mmod_Bend_Energy-OPLS-2005>
183.79426574707

> <r_mmod_Torsional_Energy-OPLS-2005>
225.511077880859

> <r_mmod_Improper_Torsional_Energy-OPLS-2005>
5.81167125701904

> <r_mmod_Van_der_Waal_Energy-OPLS-2005>
163.755523681641

> <r_mmod_Electrostatic_Energy-OPLS-2005>
-458.194671630859

> <r_mmod_Solvation_Energy-OPLS-2005>
-429.273529052734

> <b_mmod_Minimization_Converged-OPLS-2005>
0

> <r_mmod_RMS_Derivative-OPLS-2005>
0.985633194446564

$$$$
56
                    3D
 Structure written by MMmdl.
167176  0  0  1  0            999 V2000
  -29.9355  -15.1917   20.6195 C   0  0  0  0  0  0
  -30.3972  -12.8187   19.5963 C   0  0  0  0  0  0
  -29.5298  -12.6114   18.3209 C   0  0  0  0  0  0
  -28.0628  -12.2979   18.6847 C   0  0  0  0  0  0
  -27.5694  -13.2060   19.8367 C   0  0  2  0  0  0
  -28.5263  -13.1772   21.0289 C   0  0  0  0  0  0
  -25.2187  -13.8092   20.5583 C   0  0  0  0  0  0
  -24.1548  -13.0370   20.9232 C   0  0  0  0  0  0
  -24.6121  -11.6837   20.8740 C   0  0  0  0  0  0
  -23.8883  -10.4240   21.0448 C   0  0  0  0  0  0
  -24.3519   -9.4183   21.9204 C   0  0  0  0  0  0
  -23.6241   -8.2198   22.0756 C   0  0  0  0  0  0
  -22.4226   -8.0226   21.3545 C   0  0  0  0  0  0
  -21.9818   -9.0177   20.4650 C   0  0  0  0  0  0
  -22.7092  -10.2075   20.3072 C   0  0  0  0  0  0
  -21.6835   -6.0703   22.5286 C   0  0  0  0  0  0
  -21.4000   -6.5622   23.8214 C   0  0  0  0  0  0
  -21.3653   -5.6782   24.9180 C   0  0  0  0  0  0
  -21.6045   -4.3045   24.7236 C   0  0  0  0  0  0
  -21.8822   -3.8129   23.4361 C   0  0  0  0  0  0
  -21.9188   -4.6937   22.3413 C   0  0  0  0  0  0
  -22.7634  -13.5208   21.1945 C   0  0  0  0  0  0
  -22.1662   -4.2126   21.0990 F   0  0  0  0  0  0
  -21.5630   -3.4533   25.7752 F   0  0  0  0  0  0
  -29.7138  -13.8075   20.5139 N   0  0  0  0  0  0
  -26.2366  -12.9159   20.2879 N   0  0  0  0  0  0
  -25.8947  -11.6358   20.5524 N   0  0  0  0  0  0
  -22.0301  -12.8209   22.0514 N   0  0  0  0  0  0
  -25.3994  -15.1825   20.4057 N   0  0  0  0  0  0
  -31.1136  -15.4798   20.2993 O   0  0  0  0  0  0
  -21.6610   -6.8822   21.4238 O   0  0  0  0  0  0
  -22.3367  -14.5535   20.6795 O   0  0  0  0  0  0
  -24.6662  -31.9444   23.2136 C   0  0  0  0  0  0
  -25.9581  -32.5068   23.8529 C   0  0  1  0  0  0
  -26.2673  -27.1510   20.3631 C   0  0  0  0  0  0
  -25.6448  -33.8816   24.2533 N   0  0  0  0  0  0
  -23.4453  -30.6149   21.5810 C   0  0  2  0  0  0
  -24.7821  -29.2188   19.8921 C   0  0  0  0  0  0
  -23.0153  -29.5661   22.6246 C   0  0  0  0  0  0
  -18.5970  -27.8350   22.4272 C   0  0  0  0  0  0
  -24.1523  -36.7339   23.2603 C   0  0  0  0  0  0
  -25.9787  -30.8041   21.4094 C   0  0  0  0  0  0
  -25.8994  -29.4663   20.6952 C   0  0  0  0  0  0
  -26.7989  -28.3924   20.8494 C   0  0  0  0  0  0
  -25.8379  -27.1865   19.0670 C   0  0  0  0  0  0
  -24.8287  -28.1570   18.9551 C   0  0  0  0  0  0
  -23.5773  -30.0832   20.1132 C   0  0  0  0  0  0
  -25.4153  -36.3196   24.0319 C   0  0  1  0  0  0
  -21.2220  -28.1977   23.4856 C   0  0  2  0  0  0
  -22.2052  -26.6044   23.0340 C   0  0  0  0  0  0
  -20.5369  -25.4555   21.2226 C   0  0  0  0  0  0
  -18.9591  -26.5569   21.3197 C   0  0  0  0  0  0
  -19.5966  -28.5528   23.2529 C   0  0  0  0  0  0
  -19.1547  -29.7689   23.9173 C   0  0  0  0  0  0
  -17.8296  -30.2636   23.9505 C   0  0  0  0  0  0
  -25.9183  -34.9608   23.5127 C   0  0  0  0  0  0
  -16.8373  -29.4921   23.3385 C   0  0  0  0  0  0
  -17.2234  -28.3211   22.6084 C   0  0  0  0  0  0
  -26.4633  -31.6658   25.0876 C   0  0  0  0  0  0
  -25.3716  -31.3805   26.1455 C   0  0  0  0  0  0
  -27.0407  -30.3047   24.6353 C   0  0  0  0  0  0
  -27.6183  -32.4249   25.7796 C   0  0  0  0  0  0
  -27.5604  -37.1890   24.8467 C   0  0  0  0  0  0
  -21.7420  -29.4281   22.8976 N   0  0  0  0  0  0
  -26.4311  -37.3897   23.9420 N   0  0  0  0  0  0
  -24.7164  -31.1889   22.0830 N   0  0  0  0  0  0
  -23.8338  -28.9104   23.2560 O   0  0  0  0  0  0
  -25.0985  -26.6786   21.0685 O   0  0  0  0  0  0
  -26.5536  -34.9023   22.4565 O   0  0  0  0  0  0
  -23.5868  -32.2239   23.7598 O   0  0  0  0  0  0
  -26.3646  -19.2306   22.6408 C   0  0  0  0  0  0
  -25.3718  -20.8960   20.7345 C   0  0  0  0  0  0
  -26.9952  -18.8507   21.3710 C   0  0  0  0  0  0
  -24.7375  -21.2801   22.0021 C   0  0  0  0  0  0
  -25.3596  -20.3132   22.9364 C   0  0  0  0  0  0
  -26.3916  -19.8290   20.4499 C   0  0  0  0  0  0
  -20.1976  -25.8772   23.3266 C   0  0  0  0  0  0
  -21.5017  -27.4072   21.1447 C   0  0  0  0  0  0
  -21.3262  -24.2639   23.3079 C   0  0  0  0  0  0
  -23.2345  -24.7818   21.1339 C   0  0  0  0  0  0
  -23.3262  -26.4830   20.7799 C   0  0  2  0  0  0
  -25.1656  -21.5766   24.9289 C   0  0  0  0  0  0
  -28.3873  -17.7731   21.0304 C   0  0  0  0  0  0
  -23.2987  -22.3152   22.2771 C   0  0  0  0  0  0
  -28.7985  -16.1334   20.9522 N   0  0  0  0  0  0
  -22.8070  -23.9342   22.4497 N   0  3  2  0  0  0
  -24.9715  -20.3391   24.2527 O   0  0  0  0  0  0
  -26.8248  -19.7685   19.1689 F   0  0  0  0  0  0
  -31.3911  -13.1705   19.3159 H   0  0  0  0  0  0
  -30.5550  -11.8692   20.1105 H   0  0  0  0  0  0
  -29.9466  -11.8206   17.6957 H   0  0  0  0  0  0
  -29.5601  -13.5226   17.7215 H   0  0  0  0  0  0
  -28.0032  -11.2528   18.9909 H   0  0  0  0  0  0
  -27.4206  -12.3994   17.8094 H   0  0  0  0  0  0
  -27.5369  -14.2102   19.4141 H   0  0  0  0  0  0
  -28.7097  -12.1599   21.3789 H   0  0  0  0  0  0
  -28.1242  -13.7271   21.8820 H   0  0  0  0  0  0
  -25.2668   -9.5694   22.4763 H   0  0  0  0  0  0
  -23.9975   -7.4589   22.7463 H   0  0  0  0  0  0
  -21.0752   -8.8663   19.8957 H   0  0  0  0  0  0
  -22.3536  -10.9611   19.6185 H   0  0  0  0  0  0
  -21.1987   -7.6130   23.9708 H   0  0  0  0  0  0
  -21.1474   -6.0517   25.9081 H   0  0  0  0  0  0
  -22.0609   -2.7591   23.2867 H   0  0  0  0  0  0
  -22.3913  -11.9856   22.4876 H   0  0  0  0  0  0
  -21.0933  -13.1250   22.2758 H   0  0  0  0  0  0
  -24.6117  -15.8143   20.5002 H   0  0  0  0  0  0
  -26.1713  -15.5980   19.9019 H   0  0  0  0  0  0
  -26.7685  -32.5549   23.1275 H   0  0  0  0  0  0
  -25.0781  -33.9963   25.0806 H   0  0  0  0  0  0
  -22.6837  -31.3973   21.5572 H   0  0  0  0  0  0
  -23.3818  -35.9639   23.3271 H   0  0  0  0  0  0
  -24.3622  -36.8951   22.2017 H   0  0  0  0  0  0
  -23.7234  -37.6532   23.6603 H   0  0  0  0  0  0
  -26.2246  -31.5735   20.6763 H   0  0  0  0  0  0
  -26.8321  -30.7384   22.0726 H   0  0  0  0  0  0
  -27.5781  -28.4309   21.5979 H   0  0  0  0  0  0
  -25.7311  -26.2872   18.4760 H   0  0  0  0  0  0
  -24.0576  -28.0506   18.2044 H   0  0  0  0  0  0
  -23.6808  -30.9407   19.4473 H   0  0  0  0  0  0
  -22.6774  -29.5782   19.7744 H   0  0  0  0  0  0
  -25.1311  -36.2054   25.0807 H   0  0  0  0  0  0
  -21.3824  -28.3206   24.5585 H   0  0  0  0  0  0
  -22.3614  -26.1803   24.0360 H   0  0  0  0  0  0
  -23.2834  -26.6993   22.9691 H   0  0  0  0  0  0
  -20.1916  -24.4233   21.3102 H   0  0  0  0  0  0
  -20.8567  -25.3549   20.1788 H   0  0  0  0  0  0
  -18.8409  -27.0159   20.3375 H   0  0  0  0  0  0
  -18.1046  -25.8796   21.3585 H   0  0  0  0  0  0
  -19.8859  -30.3376   24.4762 H   0  0  0  0  0  0
  -17.5826  -31.1698   24.4870 H   0  0  0  0  0  0
  -15.8006  -29.7980   23.3766 H   0  0  0  0  0  0
  -16.4392  -27.7933   22.0831 H   0  0  0  0  0  0
  -24.5895  -30.7232   25.7637 H   0  0  0  0  0  0
  -24.8929  -32.2981   26.4883 H   0  0  0  0  0  0
  -25.7898  -30.8894   27.0251 H   0  0  0  0  0  0
  -26.3009  -29.6906   24.1220 H   0  0  0  0  0  0
  -27.3870  -29.7214   25.4896 H   0  0  0  0  0  0
  -27.9017  -30.4276   23.9777 H   0  0  0  0  0  0
  -27.2830  -33.3535   26.2430 H   0  0  0  0  0  0
  -28.4081  -32.6808   25.0720 H   0  0  0  0  0  0
  -28.0736  -31.8277   26.5708 H   0  0  0  0  0  0
  -28.2601  -38.0210   24.7561 H   0  0  0  0  0  0
  -28.1130  -36.2749   24.6246 H   0  0  0  0  0  0
  -27.2324  -37.1477   25.8869 H   0  0  0  0  0  0
  -21.0696  -30.0444   22.4625 H   0  0  0  0  0  0
  -26.0187  -38.2962   24.1457 H   0  0  0  0  0  0
  -26.6987  -18.6637   23.4980 H   0  0  0  0  0  0
  -25.0406  -21.4504   19.8686 H   0  0  0  0  0  0
  -19.1709  -25.4944   23.3167 H   0  0  0  0  0  0
  -20.2045  -26.2545   24.3570 H   0  0  0  0  0  0
  -21.3428  -28.4536   20.9563 H   0  0  0  0  0  0
  -21.0582  -27.3537   20.1409 H   0  0  0  0  0  0
  -20.6728  -23.4190   23.0849 H   0  0  0  0  0  0
  -21.5656  -24.0563   24.3518 H   0  0  0  0  0  0
  -24.2480  -24.4287   20.9438 H   0  0  0  0  0  0
  -22.6990  -24.3109   20.3110 H   0  0  0  0  0  0
  -23.2749  -26.4425   19.6962 H   0  0  0  0  0  0
  -24.2323  -22.1334   25.0036 H   0  0  0  0  0  0
  -25.9140  -22.2116   24.4512 H   0  0  0  0  0  0
  -25.5045  -21.3790   25.9461 H   0  0  0  0  0  0
  -29.1463  -18.1659   21.7072 H   0  0  0  0  0  0
  -28.7179  -18.1310   20.0549 H   0  0  0  0  0  0
  -22.8575  -21.8510   23.1581 H   0  0  0  0  0  0
  -22.6407  -21.9769   21.4767 H   0  0  0  0  0  0
  -27.9888  -15.5797   21.1920 H   0  0  0  0  0  0
  -23.4800  -24.2707   23.1224 H   0  0  0  0  0  0
  1 25  1  0  0  0
  1 30  2  0  0  0
  1 85  1  0  0  0
  2  3  1  0  0  0
  2 25  1  0  0  0
  2 89  1  0  0  0
  2 90  1  0  0  0
  3  4  1  0  0  0
  3 91  1  0  0  0
  3 92  1  0  0  0
  4  5  1  0  0  0
  4 93  1  0  0  0
  4 94  1  0  0  0
  5  6  1  0  0  0
  5 26  1  0  0  0
  5 95  1  0  0  0
  6 25  1  0  0  0
  6 96  1  0  0  0
  6 97  1  0  0  0
  7  8  2  0  0  0
  7 26  1  0  0  0
  7 29  1  0  0  0
  8  9  1  0  0  0
  8 22  1  0  0  0
  9 10  1  0  0  0
  9 27  2  0  0  0
 10 11  2  0  0  0
 10 15  1  0  0  0
 11 12  1  0  0  0
 11 98  1  0  0  0
 12 13  2  0  0  0
 12 99  1  0  0  0
 13 14  1  0  0  0
 13 31  1  0  0  0
 14 15  2  0  0  0
 14100  1  0  0  0
 15101  1  0  0  0
 16 17  2  0  0  0
 16 21  1  0  0  0
 16 31  1  0  0  0
 17 18  1  0  0  0
 17102  1  0  0  0
 18 19  2  0  0  0
 18103  1  0  0  0
 19 20  1  0  0  0
 19 24  1  0  0  0
 20 21  2  0  0  0
 20104  1  0  0  0
 21 23  1  0  0  0
 22 28  1  0  0  0
 22 32  2  0  0  0
 26 27  1  0  0  0
 28105  1  0  0  0
 28106  1  0  0  0
 29107  1  0  0  0
 29108  1  0  0  0
 33 34  1  0  0  0
 33 66  1  0  0  0
 33 70  2  0  0  0
 34 36  1  0  0  0
 34 59  1  0  0  0
 34109  1  0  0  0
 35 44  2  0  0  0
 35 45  1  0  0  0
 35 68  1  0  0  0
 36 56  1  0  0  0
 36110  1  0  0  0
 37 39  1  0  0  0
 37 47  1  0  0  0
 37 66  1  0  0  0
 37111  1  0  0  0
 38 43  2  0  0  0
 38 46  1  0  0  0
 38 47  1  0  0  0
 39 64  1  0  0  0
 39 67  2  0  0  0
 40 52  1  0  0  0
 40 53  2  0  0  0
 40 58  1  0  0  0
 41112  1  0  0  0
 41113  1  0  0  0
 41114  1  0  0  0
 41 48  1  0  0  0
 42 43  1  0  0  0
 42 66  1  0  0  0
 42115  1  0  0  0
 42116  1  0  0  0
 43 44  1  0  0  0
 44117  1  0  0  0
 45 46  2  0  0  0
 45118  1  0  0  0
 46119  1  0  0  0
 47120  1  0  0  0
 47121  1  0  0  0
 48 56  1  0  0  0
 48 65  1  0  0  0
 48122  1  0  0  0
 49 50  1  0  0  0
 49 53  1  0  0  0
 49 64  1  0  0  0
 49123  1  0  0  0
 50 51  1  0  0  0
 50124  1  0  0  0
 50125  1  0  0  0
 51 52  1  0  0  0
 51126  1  0  0  0
 51127  1  0  0  0
 52128  1  0  0  0
 52129  1  0  0  0
 53 54  1  0  0  0
 54 55  2  0  0  0
 54130  1  0  0  0
 55 57  1  0  0  0
 55131  1  0  0  0
 56 69  2  0  0  0
 57 58  2  0  0  0
 57132  1  0  0  0
 58133  1  0  0  0
 59 60  1  0  0  0
 59 61  1  0  0  0
 59 62  1  0  0  0
 60134  1  0  0  0
 60135  1  0  0  0
 60136  1  0  0  0
 61137  1  0  0  0
 61138  1  0  0  0
 61139  1  0  0  0
 62140  1  0  0  0
 62141  1  0  0  0
 62142  1  0  0  0
 63 65  1  0  0  0
 63143  1  0  0  0
 63144  1  0  0  0
 63145  1  0  0  0
 64146  1  0  0  0
 65147  1  0  0  0
 68 81  1  0  0  0
 71 73  2  0  0  0
 71 75  1  0  0  0
 71148  1  0  0  0
 72 74  1  0  0  0
 72 76  2  0  0  0
 72149  1  0  0  0
 73 76  1  0  0  0
 73 83  1  0  0  0
 74 75  2  0  0  0
 74 84  1  0  0  0
 75 87  1  0  0  0
 76 88  1  0  0  0
 77 78  1  0  0  0
 77 79  1  0  0  0
 77150  1  0  0  0
 77151  1  0  0  0
 78 81  1  0  0  0
 78152  1  0  0  0
 78153  1  0  0  0
 79 86  1  0  0  0
 79154  1  0  0  0
 79155  1  0  0  0
 80 81  1  0  0  0
 80 86  1  0  0  0
 80156  1  0  0  0
 80157  1  0  0  0
 81158  1  0  0  0
 82 87  1  0  0  0
 82159  1  0  0  0
 82160  1  0  0  0
 82161  1  0  0  0
 83 85  1  0  0  0
 83162  1  0  0  0
 83163  1  0  0  0
 84164  1  0  0  0
 84165  1  0  0  0
 84 86  1  0  0  0
 85166  1  0  0  0
 86167  1  0  0  0
M  CHG  1  86   1
M  ISO  4   1 100  68 101  81 101  85 100
M  END
> <chiral flag>
0

> <version>
0

> <s_m_source_file>
/data/baiqing/PycharmProjects/Reinvent-master-3.2/result/LINK_invent/BTK/process_docking_weight1_custom_product_contain_oxygen_bond_distance_aromatic_linkinvent_7_9_3/rearranged_h_0049.sdf

> <i_m_source_file_index>
57

> <r_mmod_Potential_Energy-OPLS-2005>
11813.6103515625

> <r_mmod_Stretch_Energy-OPLS-2005>
5936.10693359375

> <r_mmod_Bend_Energy-OPLS-2005>
1104.59399414062

> <r_mmod_Torsional_Energy-OPLS-2005>
558.190063476562

> <r_mmod_Improper_Torsional_Energy-OPLS-2005>
40.3647727966309

> <r_mmod_Van_der_Waal_Energy-OPLS-2005>
2102.04736328125

> <r_mmod_Electrostatic_Energy-OPLS-2005>
-331.384338378906

> <r_mmod_Solvation_Energy-OPLS-2005>
-420.9013671875

> <b_mmod_Minimization_Converged-OPLS-2005>
0

> <r_mmod_RMS_Derivative-OPLS-2005>
1.18260169029236

$$$$
57
                    3D
 Structure written by MMmdl.
180190  0  0  1  0            999 V2000
  -30.8227  -14.4682   20.5117 C   0  0  0  0  0  0
  -30.3903  -12.3097   19.4105 C   0  0  0  0  0  0
  -29.4636  -12.4648   18.1956 C   0  0  0  0  0  0
  -27.9973  -12.2932   18.6286 C   0  0  0  0  0  0
  -27.6330  -13.1732   19.8495 C   0  0  2  0  0  0
  -28.7032  -13.0842   20.9701 C   0  0  0  0  0  0
  -25.2526  -13.8027   20.5701 C   0  0  0  0  0  0
  -24.1777  -13.0395   20.9272 C   0  0  0  0  0  0
  -24.6295  -11.6838   20.8834 C   0  0  0  0  0  0
  -23.8970  -10.4238   21.0474 C   0  0  0  0  0  0
  -24.3556   -9.4142   21.9229 C   0  0  0  0  0  0
  -23.6242   -8.2181   22.0803 C   0  0  0  0  0  0
  -22.4220   -8.0234   21.3600 C   0  0  0  0  0  0
  -21.9847   -9.0182   20.4684 C   0  0  0  0  0  0
  -22.7158  -10.2065   20.3101 C   0  0  0  0  0  0
  -21.6817   -6.0669   22.5273 C   0  0  0  0  0  0
  -21.3982   -6.5595   23.8191 C   0  0  0  0  0  0
  -21.3667   -5.6783   24.9189 C   0  0  0  0  0  0
  -21.6057   -4.3040   24.7251 C   0  0  0  0  0  0
  -21.8821   -3.8103   23.4377 C   0  0  0  0  0  0
  -21.9171   -4.6901   22.3408 C   0  0  0  0  0  0
  -22.7797  -13.5236   21.1934 C   0  0  0  0  0  0
  -22.1648   -4.2084   21.1001 F   0  0  0  0  0  0
  -21.5655   -3.4546   25.7781 F   0  0  0  0  0  0
  -30.0236  -13.3621   20.3769 N   0  0  0  0  0  0
  -26.2900  -12.9104   20.3376 N   0  0  0  0  0  0
  -25.9195  -11.6309   20.5796 N   0  0  0  0  0  0
  -22.0416  -12.8218   22.0466 N   0  0  0  0  0  0
  -25.4262  -15.1742   20.3959 N   0  0  0  0  0  0
  -32.0137  -14.4155   20.2109 O   0  0  0  0  0  0
  -21.6626   -6.8816   21.4238 O   0  0  0  0  0  0
  -22.3500  -14.5562   20.6768 O   0  0  0  0  0  0
  -24.6073  -31.8672   23.2152 C   0  0  0  0  0  0
  -25.8975  -32.4823   23.8418 C   0  0  1  0  0  0
  -27.2400  -27.4624   20.0975 C   0  0  0  0  0  0
  -25.5858  -33.8630   24.2352 N   0  0  0  0  0  0
  -23.4006  -30.4885   21.5507 C   0  0  2  0  0  0
  -24.8566  -28.9649   20.1145 C   0  0  0  0  0  0
  -22.7417  -29.4588   22.4957 C   0  0  0  0  0  0
  -18.0243  -28.1381   22.8449 C   0  0  0  0  0  0
  -24.1507  -36.7332   23.2628 C   0  0  0  0  0  0
  -25.9289  -30.8357   21.3761 C   0  0  0  0  0  0
  -26.0087  -29.4707   20.7305 C   0  0  0  0  0  0
  -27.2006  -28.7145   20.7456 C   0  0  0  0  0  0
  -26.0906  -26.9856   19.4397 C   0  0  0  0  0  0
  -24.8857  -27.7132   19.4754 C   0  0  0  0  0  0
  -23.6170  -29.8285   20.1628 C   0  0  0  0  0  0
  -25.4109  -36.3115   24.0332 C   0  0  1  0  0  0
  -20.5831  -28.3657   23.1325 C   0  0  2  0  0  0
  -20.6738  -26.9390   22.5425 C   0  0  0  0  0  0
  -19.5744  -26.6386   21.5194 C   0  0  0  0  0  0
  -18.1906  -26.7919   22.1583 C   0  0  0  0  0  0
  -19.1490  -28.8831   23.2886 C   0  0  0  0  0  0
  -18.9419  -30.1433   23.8913 C   0  0  0  0  0  0
  -17.6427  -30.6581   24.0554 C   0  0  0  0  0  0
  -25.9030  -34.9461   23.5148 C   0  0  0  0  0  0
  -16.5314  -29.9083   23.6310 C   0  0  0  0  0  0
  -16.7226  -28.6493   23.0322 C   0  0  0  0  0  0
  -26.4459  -31.6576   25.0707 C   0  0  0  0  0  0
  -25.3743  -31.3612   26.1458 C   0  0  0  0  0  0
  -27.0284  -30.3014   24.6050 C   0  0  0  0  0  0
  -27.6064  -32.4283   25.7442 C   0  0  0  0  0  0
  -27.5589  -37.1796   24.8441 C   0  0  0  0  0  0
  -21.4134  -29.3014   22.3744 N   0  0  0  0  0  0
  -26.4301  -37.3781   23.9409 N   0  0  0  0  0  0
  -24.6630  -31.0790   22.1049 N   0  0  0  0  0  0
  -23.4197  -28.8093   23.2944 O   0  0  0  0  0  0
  -28.3825  -26.7042   20.0486 O   0  0  0  0  0  0
  -26.5611  -34.8894   22.4721 O   0  0  0  0  0  0
  -23.5276  -32.1386   23.7569 O   0  0  0  0  0  0
  -32.9526  -19.8054   19.8195 C   0  0  0  0  0  0
  -32.3432  -18.9240   20.7354 C   0  0  0  0  0  0
  -33.1628  -19.4007   18.4864 C   0  0  0  0  0  0
  -28.2917  -19.9332   20.5176 C   0  0  0  0  0  0
  -29.2069  -18.0517   18.6620 C   0  0  0  0  0  0
  -32.1739  -17.2327   18.9969 C   0  0  0  0  0  0
  -31.9360  -17.6307   20.3377 C   0  0  0  0  0  0
  -28.3888  -18.5806   20.9017 C   0  0  0  0  0  0
  -28.6410  -20.3546   19.2136 C   0  0  0  0  0  0
  -28.8633  -17.6299   19.9654 C   0  0  0  0  0  0
  -29.1190  -19.4021   18.2951 C   0  0  0  0  0  0
  -32.7739  -18.1128   18.0788 C   0  0  0  0  0  0
  -28.8372  -23.6851   20.3248 C   0  0  0  0  0  0
  -26.2800  -23.0591   21.5267 C   0  0  0  0  0  0
  -26.7789  -24.4870   21.7287 C   0  0  0  0  0  0
  -26.5845  -22.6460   20.0780 C   0  0  0  0  0  0
  -28.2921  -24.6214   21.4353 C   0  0  2  0  0  0
  -27.9573  -18.1940   22.3071 C   0  0  0  0  0  0
  -28.4843  -21.8008   18.7487 C   0  0  0  0  0  0
  -31.2261  -16.7289   21.3679 C   0  0  0  0  0  0
  -29.0188  -16.1503   20.2977 C   0  0  0  0  0  0
  -28.7759  -26.0894   21.2819 C   0  0  0  0  0  0
  -28.0177  -22.7544   19.7687 N   0  0  0  0  0  0
  -30.3019  -15.6806   20.8567 N   0  0  0  0  0  0
  -30.0248  -23.7863   20.0011 O   0  0  0  0  0  0
  -29.4912  -19.7748   17.0464 F   0  0  0  0  0  0
  -33.0163  -17.6096   16.4487 Cl  0  0  0  0  0  0
  -31.4290  -12.3618   19.0764 H   0  0  0  0  0  0
  -30.2667  -11.3202   19.8556 H   0  0  0  0  0  0
  -29.7202  -11.7284   17.4339 H   0  0  0  0  0  0
  -29.6044  -13.4431   17.7362 H   0  0  0  0  0  0
  -27.8473  -11.2421   18.8738 H   0  0  0  0  0  0
  -27.3269  -12.5019   17.7948 H   0  0  0  0  0  0
  -27.5889  -14.1723   19.4500 H   0  0  0  0  0  0
  -28.6986  -12.0863   21.4130 H   0  0  0  0  0  0
  -28.4747  -13.7730   21.7842 H   0  0  0  0  0  0
  -25.2692   -9.5598   22.4812 H   0  0  0  0  0  0
  -23.9939   -7.4543   22.7502 H   0  0  0  0  0  0
  -21.0802   -8.8636   19.8973 H   0  0  0  0  0  0
  -22.3603  -10.9590   19.6204 H   0  0  0  0  0  0
  -21.1973   -7.6101   23.9645 H   0  0  0  0  0  0
  -21.1527   -6.0566   25.9085 H   0  0  0  0  0  0
  -22.0619   -2.7553   23.2907 H   0  0  0  0  0  0
  -22.3989  -11.9828   22.4781 H   0  0  0  0  0  0
  -21.1013  -13.1197   22.2709 H   0  0  0  0  0  0
  -24.6412  -15.8110   20.4812 H   0  0  0  0  0  0
  -26.2563  -15.6093   20.0166 H   0  0  0  0  0  0
  -26.7044  -32.5593   23.1196 H   0  0  0  0  0  0
  -24.9989  -33.9804   25.0483 H   0  0  0  0  0  0
  -22.6858  -31.3016   21.4111 H   0  0  0  0  0  0
  -23.3736  -35.9696   23.3285 H   0  0  0  0  0  0
  -24.3580  -36.8965   22.2037 H   0  0  0  0  0  0
  -23.7305  -37.6550   23.6669 H   0  0  0  0  0  0
  -26.0404  -31.5949   20.6027 H   0  0  0  0  0  0
  -26.8163  -30.8945   21.9947 H   0  0  0  0  0  0
  -28.0875  -29.0864   21.2390 H   0  0  0  0  0  0
  -26.1203  -26.0341   18.9288 H   0  0  0  0  0  0
  -24.0041  -27.3197   18.9890 H   0  0  0  0  0  0
  -23.7362  -30.6090   19.4088 H   0  0  0  0  0  0
  -22.7472  -29.2466   19.8582 H   0  0  0  0  0  0
  -25.1289  -36.1984   25.0824 H   0  0  0  0  0  0
  -20.9906  -28.3230   24.1458 H   0  0  0  0  0  0
  -20.5602  -26.2223   23.3578 H   0  0  0  0  0  0
  -21.6611  -26.7447   22.1239 H   0  0  0  0  0  0
  -19.6927  -25.6290   21.1247 H   0  0  0  0  0  0
  -19.6745  -27.3178   20.6713 H   0  0  0  0  0  0
  -17.4183  -26.6558   21.4007 H   0  0  0  0  0  0
  -18.0373  -26.0106   22.9030 H   0  0  0  0  0  0
  -19.7900  -30.7218   24.2320 H   0  0  0  0  0  0
  -17.4981  -31.6272   24.5145 H   0  0  0  0  0  0
  -15.5303  -30.2992   23.7637 H   0  0  0  0  0  0
  -15.8602  -28.0837   22.7048 H   0  0  0  0  0  0
  -24.5954  -30.6943   25.7746 H   0  0  0  0  0  0
  -24.8872  -32.2732   26.4933 H   0  0  0  0  0  0
  -25.8083  -30.8741   27.0203 H   0  0  0  0  0  0
  -26.2795  -29.6747   24.1194 H   0  0  0  0  0  0
  -27.4162  -29.7263   25.4468 H   0  0  0  0  0  0
  -27.8600  -30.4294   23.9103 H   0  0  0  0  0  0
  -27.2727  -33.3586   26.2045 H   0  0  0  0  0  0
  -28.3845  -32.6833   25.0235 H   0  0  0  0  0  0
  -28.0792  -31.8392   26.5320 H   0  0  0  0  0  0
  -28.2568  -38.0130   24.7542 H   0  0  0  0  0  0
  -28.1135  -36.2657   24.6228 H   0  0  0  0  0  0
  -27.2305  -37.1400   25.8841 H   0  0  0  0  0  0
  -20.9296  -29.8781   21.7020 H   0  0  0  0  0  0
  -26.0185  -38.2861   24.1422 H   0  0  0  0  0  0
  -33.2502  -20.7969   20.1323 H   0  0  0  0  0  0
  -32.1683  -19.2547   21.7497 H   0  0  0  0  0  0
  -33.6162  -20.0756   17.7735 H   0  0  0  0  0  0
  -27.9229  -20.6464   21.2368 H   0  0  0  0  0  0
  -29.5743  -17.3480   17.9293 H   0  0  0  0  0  0
  -31.8658  -16.2670   18.6273 H   0  0  0  0  0  0
  -25.2097  -22.9992   21.7242 H   0  0  0  0  0  0
  -26.7690  -22.3963   22.2418 H   0  0  0  0  0  0
  -26.5603  -24.8340   22.7394 H   0  0  0  0  0  0
  -26.1940  -25.1258   21.0799 H   0  0  0  0  0  0
  -26.0472  -23.2873   19.3790 H   0  0  0  0  0  0
  -26.2077  -21.6387   19.8864 H   0  0  0  0  0  0
  -28.7686  -24.2465   22.3411 H   0  0  0  0  0  0
  -28.1224  -19.0222   22.9974 H   0  0  0  0  0  0
  -28.5043  -17.3380   22.6994 H   0  0  0  0  0  0
  -26.8948  -17.9514   22.3152 H   0  0  0  0  0  0
  -27.7643  -21.7997   17.9293 H   0  0  0  0  0  0
  -29.4213  -22.1198   18.2928 H   0  0  0  0  0  0
  -30.6763  -17.3651   22.0580 H   0  0  0  0  0  0
  -31.9999  -16.2790   21.9942 H   0  0  0  0  0  0
  -28.9175  -15.6770   19.3247 H   0  0  0  0  0  0
  -28.1957  -15.8305   20.9328 H   0  0  0  0  0  0
  -29.8653  -26.1178   21.3228 H   0  0  0  0  0  0
  -28.4487  -26.6707   22.1463 H   0  0  0  0  0  0
  1 25  1  0  0  0
  1 30  2  0  0  0
  1 94  1  0  0  0
  2  3  1  0  0  0
  2 25  1  0  0  0
  2 98  1  0  0  0
  2 99  1  0  0  0
  3  4  1  0  0  0
  3100  1  0  0  0
  3101  1  0  0  0
  4  5  1  0  0  0
  4102  1  0  0  0
  4103  1  0  0  0
  5  6  1  0  0  0
  5 26  1  0  0  0
  5104  1  0  0  0
  6 25  1  0  0  0
  6105  1  0  0  0
  6106  1  0  0  0
  7  8  2  0  0  0
  7 26  1  0  0  0
  7 29  1  0  0  0
  8  9  1  0  0  0
  8 22  1  0  0  0
  9 10  1  0  0  0
  9 27  2  0  0  0
 10 11  2  0  0  0
 10 15  1  0  0  0
 11 12  1  0  0  0
 11107  1  0  0  0
 12 13  2  0  0  0
 12108  1  0  0  0
 13 14  1  0  0  0
 13 31  1  0  0  0
 14 15  2  0  0  0
 14109  1  0  0  0
 15110  1  0  0  0
 16 17  2  0  0  0
 16 21  1  0  0  0
 16 31  1  0  0  0
 17 18  1  0  0  0
 17111  1  0  0  0
 18 19  2  0  0  0
 18112  1  0  0  0
 19 20  1  0  0  0
 19 24  1  0  0  0
 20 21  2  0  0  0
 20113  1  0  0  0
 21 23  1  0  0  0
 22 28  1  0  0  0
 22 32  2  0  0  0
 26 27  1  0  0  0
 28114  1  0  0  0
 28115  1  0  0  0
 29116  1  0  0  0
 29117  1  0  0  0
 33 34  1  0  0  0
 33 66  1  0  0  0
 33 70  2  0  0  0
 34 36  1  0  0  0
 34 59  1  0  0  0
 34118  1  0  0  0
 35 44  2  0  0  0
 35 45  1  0  0  0
 35 68  1  0  0  0
 36 56  1  0  0  0
 36119  1  0  0  0
 37 39  1  0  0  0
 37 47  1  0  0  0
 37 66  1  0  0  0
 37120  1  0  0  0
 38 43  2  0  0  0
 38 46  1  0  0  0
 38 47  1  0  0  0
 39 64  1  0  0  0
 39 67  2  0  0  0
 40 52  1  0  0  0
 40 53  2  0  0  0
 40 58  1  0  0  0
 41121  1  0  0  0
 41122  1  0  0  0
 41123  1  0  0  0
 41 48  1  0  0  0
 42 43  1  0  0  0
 42 66  1  0  0  0
 42124  1  0  0  0
 42125  1  0  0  0
 43 44  1  0  0  0
 44126  1  0  0  0
 45 46  2  0  0  0
 45127  1  0  0  0
 46128  1  0  0  0
 47129  1  0  0  0
 47130  1  0  0  0
 48 56  1  0  0  0
 48 65  1  0  0  0
 48131  1  0  0  0
 49 50  1  0  0  0
 49 53  1  0  0  0
 49 64  1  0  0  0
 49132  1  0  0  0
 50 51  1  0  0  0
 50133  1  0  0  0
 50134  1  0  0  0
 51 52  1  0  0  0
 51135  1  0  0  0
 51136  1  0  0  0
 52137  1  0  0  0
 52138  1  0  0  0
 53 54  1  0  0  0
 54 55  2  0  0  0
 54139  1  0  0  0
 55 57  1  0  0  0
 55140  1  0  0  0
 56 69  2  0  0  0
 57 58  2  0  0  0
 57141  1  0  0  0
 58142  1  0  0  0
 59 60  1  0  0  0
 59 61  1  0  0  0
 59 62  1  0  0  0
 60143  1  0  0  0
 60144  1  0  0  0
 60145  1  0  0  0
 61146  1  0  0  0
 61147  1  0  0  0
 61148  1  0  0  0
 62149  1  0  0  0
 62150  1  0  0  0
 62151  1  0  0  0
 63 65  1  0  0  0
 63152  1  0  0  0
 63153  1  0  0  0
 63154  1  0  0  0
 64155  1  0  0  0
 65156  1  0  0  0
 68 92  1  0  0  0
 71 72  2  0  0  0
 71 73  1  0  0  0
 71157  1  0  0  0
 72 77  1  0  0  0
 72158  1  0  0  0
 73 82  2  0  0  0
 73159  1  0  0  0
 74 78  2  0  0  0
 74 79  1  0  0  0
 74160  1  0  0  0
 75 80  2  0  0  0
 75 81  1  0  0  0
 75161  1  0  0  0
 76 77  2  0  0  0
 76 82  1  0  0  0
 76162  1  0  0  0
 77 90  1  0  0  0
 78 80  1  0  0  0
 78 88  1  0  0  0
 79 81  2  0  0  0
 79 89  1  0  0  0
 80 91  1  0  0  0
 81 96  1  0  0  0
 82 97  1  0  0  0
 83 87  1  0  0  0
 83 93  1  0  0  0
 83 95  2  0  0  0
 84 85  1  0  0  0
 84 86  1  0  0  0
 84163  1  0  0  0
 84164  1  0  0  0
 85 87  1  0  0  0
 85165  1  0  0  0
 85166  1  0  0  0
 86 93  1  0  0  0
 86167  1  0  0  0
 86168  1  0  0  0
 87 92  1  0  0  0
 87169  1  0  0  0
 88170  1  0  0  0
 88171  1  0  0  0
 88172  1  0  0  0
 89 93  1  0  0  0
 89173  1  0  0  0
 89174  1  0  0  0
 90 94  1  0  0  0
 90175  1  0  0  0
 90176  1  0  0  0
 91 94  1  0  0  0
 91177  1  0  0  0
 91178  1  0  0  0
 92179  1  0  0  0
 92180  1  0  0  0
M  ISO  4   1 100  68 101  92 101  94 100
M  END
> <chiral flag>
0

> <version>
0

> <s_m_source_file>
/data/baiqing/PycharmProjects/Reinvent-master-3.2/result/LINK_invent/BTK/process_docking_weight1_custom_product_contain_oxygen_bond_distance_aromatic_linkinvent_7_9_3/rearranged_h_0049.sdf

> <i_m_source_file_index>
58

> <r_mmod_Potential_Energy-OPLS-2005>
162.163681030273

> <r_mmod_Stretch_Energy-OPLS-2005>
45.8543510437012

> <r_mmod_Bend_Energy-OPLS-2005>
131.058380126953

> <r_mmod_Torsional_Energy-OPLS-2005>
288.738189697266

> <r_mmod_Improper_Torsional_Energy-OPLS-2005>
4.25773763656616

> <r_mmod_Van_der_Waal_Energy-OPLS-2005>
191.212554931641

> <r_mmod_Electrostatic_Energy-OPLS-2005>
-320.058074951172

> <r_mmod_Solvation_Energy-OPLS-2005>
-211.976486206055

> <b_mmod_Minimization_Converged-OPLS-2005>
0

> <r_mmod_RMS_Derivative-OPLS-2005>
5.12021255493164

$$$$
58
                    3D
 Structure written by MMmdl.
161170  0  0  1  0            999 V2000
  -30.6158  -14.6482   20.5018 C   0  0  0  0  0  0
  -30.4459  -12.4056   19.4381 C   0  0  0  0  0  0
  -29.5065  -12.5453   18.2192 C   0  0  0  0  0  0
  -28.0319  -12.3627   18.6333 C   0  0  0  0  0  0
  -27.6581  -13.2114   19.8782 C   0  0  2  0  0  0
  -28.7140  -13.0492   20.9976 C   0  0  0  0  0  0
  -25.2562  -13.8145   20.5702 C   0  0  0  0  0  0
  -24.1831  -13.0409   20.9210 C   0  0  0  0  0  0
  -24.6391  -11.6882   20.8746 C   0  0  0  0  0  0
  -23.9046  -10.4271   21.0389 C   0  0  0  0  0  0
  -24.3590   -9.4195   21.9169 C   0  0  0  0  0  0
  -23.6267   -8.2234   22.0742 C   0  0  0  0  0  0
  -22.4259   -8.0261   21.3526 C   0  0  0  0  0  0
  -21.9886   -9.0241   20.4654 C   0  0  0  0  0  0
  -22.7206  -10.2123   20.3057 C   0  0  0  0  0  0
  -21.6845   -6.0734   22.5266 C   0  0  0  0  0  0
  -21.4006   -6.5633   23.8200 C   0  0  0  0  0  0
  -21.3650   -5.6787   24.9160 C   0  0  0  0  0  0
  -21.6038   -4.3054   24.7214 C   0  0  0  0  0  0
  -21.8824   -3.8153   23.4335 C   0  0  0  0  0  0
  -21.9195   -4.6968   22.3391 C   0  0  0  0  0  0
  -22.7846  -13.5218   21.1853 C   0  0  0  0  0  0
  -22.1663   -4.2162   21.0973 F   0  0  0  0  0  0
  -21.5641   -3.4538   25.7724 F   0  0  0  0  0  0
  -30.0231  -13.4125   20.4296 N   0  0  0  0  0  0
  -26.3016  -12.9317   20.3404 N   0  0  0  0  0  0
  -25.9331  -11.6471   20.5804 N   0  0  0  0  0  0
  -22.0480  -12.8223   22.0414 N   0  0  0  0  0  0
  -25.4215  -15.1870   20.4040 N   0  0  0  0  0  0
  -31.7753  -14.8328   20.1262 O   0  0  0  0  0  0
  -21.6619   -6.8870   21.4223 O   0  0  0  0  0  0
  -22.3551  -14.5523   20.6697 O   0  0  0  0  0  0
  -24.6234  -31.8569   23.2052 C   0  0  0  0  0  0
  -25.9108  -32.4745   23.8353 C   0  0  1  0  0  0
  -27.2327  -27.3146   20.1208 C   0  0  0  0  0  0
  -25.5952  -33.8551   24.2289 N   0  0  0  0  0  0
  -23.4173  -30.4805   21.5422 C   0  0  2  0  0  0
  -24.8696  -28.9360   20.1074 C   0  0  0  0  0  0
  -22.7445  -29.4591   22.4909 C   0  0  0  0  0  0
  -18.0275  -28.1380   22.8496 C   0  0  0  0  0  0
  -24.1483  -36.7233   23.2648 C   0  0  0  0  0  0
  -25.9571  -30.7853   21.3825 C   0  0  0  0  0  0
  -26.0323  -29.4134   20.7226 C   0  0  0  0  0  0
  -27.2093  -28.6104   20.7253 C   0  0  0  0  0  0
  -26.0434  -26.8834   19.4884 C   0  0  0  0  0  0
  -24.8782  -27.6784   19.4832 C   0  0  0  0  0  0
  -23.6372  -29.8166   20.1560 C   0  0  0  0  0  0
  -25.4112  -36.3034   24.0335 C   0  0  1  0  0  0
  -20.5876  -28.3664   23.1300 C   0  0  2  0  0  0
  -20.6752  -26.9382   22.5437 C   0  0  0  0  0  0
  -19.5742  -26.6376   21.5220 C   0  0  0  0  0  0
  -18.1912  -26.7934   22.1610 C   0  0  0  0  0  0
  -19.1530  -28.8841   23.2904 C   0  0  0  0  0  0
  -18.9454  -30.1447   23.8913 C   0  0  0  0  0  0
  -17.6455  -30.6585   24.0566 C   0  0  0  0  0  0
  -25.9045  -34.9420   23.5096 C   0  0  0  0  0  0
  -16.5346  -29.9082   23.6342 C   0  0  0  0  0  0
  -16.7263  -28.6501   23.0365 C   0  0  0  0  0  0
  -26.4541  -31.6546   25.0704 C   0  0  0  0  0  0
  -25.3801  -31.3646   26.1442 C   0  0  0  0  0  0
  -27.0409  -30.2977   24.6154 C   0  0  0  0  0  0
  -27.6121  -32.4278   25.7445 C   0  0  0  0  0  0
  -27.5571  -37.1763   24.8477 C   0  0  0  0  0  0
  -21.4157  -29.3016   22.3664 N   0  0  0  0  0  0
  -26.4270  -37.3748   23.9440 N   0  0  0  0  0  0
  -24.6829  -31.0570   22.1006 N   0  0  0  0  0  0
  -23.4175  -28.8151   23.3001 O   0  0  0  0  0  0
  -28.3819  -26.5118   20.2049 O   0  0  0  0  0  0
  -26.5587  -34.8891   22.4641 O   0  0  0  0  0  0
  -23.5409  -32.1389   23.7388 O   0  0  0  0  0  0
  -30.2408  -19.3799   21.6343 C   0  0  0  0  0  0
  -29.2913  -20.0142   20.7839 C   0  0  0  0  0  0
  -28.7105  -19.1769   19.7843 C   0  0  0  0  0  0
  -29.8380  -17.1227   20.6797 C   0  0  0  0  0  0
  -30.5053  -17.9761   21.5975 C   0  0  0  0  0  0
  -28.9774  -17.7649   19.7446 C   0  0  0  0  0  0
  -28.3256  -23.9149   20.5437 C   0  0  0  0  0  0
  -30.8341  -23.9698   19.2451 C   0  0  0  0  0  0
  -29.9308  -25.1680   18.9019 C   0  0  0  0  0  0
  -30.0339  -22.6562   19.2845 C   0  0  0  0  0  0
  -28.5377  -25.1700   19.5857 C   0  0  2  0  0  0
  -27.7036  -19.7602   18.8044 C   0  0  0  0  0  0
  -28.7567  -21.4677   21.1354 C   0  0  0  0  0  0
  -28.9867  -22.7157   20.3078 N   0  0  0  0  0  0
  -29.7766  -15.6690   20.8494 N   0  0  0  0  0  0
  -27.5291  -24.0288   21.4804 O   0  0  0  0  0  0
  -31.5663  -17.3044   22.7846 Cl  0  0  0  0  0  0
  -28.1626  -16.7770   18.5772 Cl  0  0  0  0  0  0
  -31.4860  -12.5390   19.1390 H   0  0  0  0  0  0
  -30.3828  -11.4031   19.8623 H   0  0  0  0  0  0
  -29.7734  -11.8280   17.4428 H   0  0  0  0  0  0
  -29.6329  -13.5347   17.7753 H   0  0  0  0  0  0
  -27.8771  -11.3038   18.8441 H   0  0  0  0  0  0
  -27.3707  -12.6088   17.8011 H   0  0  0  0  0  0
  -27.6758  -14.2499   19.5565 H   0  0  0  0  0  0
  -28.7366  -12.0164   21.3498 H   0  0  0  0  0  0
  -28.4707  -13.6545   21.8719 H   0  0  0  0  0  0
  -25.2725   -9.5678   22.4752 H   0  0  0  0  0  0
  -23.9982   -7.4622   22.7444 H   0  0  0  0  0  0
  -21.0821   -8.8742   19.8969 H   0  0  0  0  0  0
  -22.3633  -10.9657   19.6183 H   0  0  0  0  0  0
  -21.1983   -7.6134   23.9710 H   0  0  0  0  0  0
  -21.1468   -6.0515   25.9066 H   0  0  0  0  0  0
  -22.0621   -2.7617   23.2827 H   0  0  0  0  0  0
  -22.4071  -11.9835   22.4734 H   0  0  0  0  0  0
  -21.1116  -13.1296   22.2651 H   0  0  0  0  0  0
  -24.6303  -15.8170   20.4827 H   0  0  0  0  0  0
  -26.2276  -15.6189   19.9697 H   0  0  0  0  0  0
  -26.7146  -32.5426   23.1073 H   0  0  0  0  0  0
  -25.0209  -33.9721   25.0507 H   0  0  0  0  0  0
  -22.7106  -31.3009   21.3976 H   0  0  0  0  0  0
  -23.3780  -35.9525   23.3262 H   0  0  0  0  0  0
  -24.3577  -36.8902   22.2072 H   0  0  0  0  0  0
  -23.7189  -37.6392   23.6705 H   0  0  0  0  0  0
  -26.0964  -31.5571   20.6252 H   0  0  0  0  0  0
  -26.8320  -30.8261   22.0183 H   0  0  0  0  0  0
  -28.0983  -28.9684   21.2267 H   0  0  0  0  0  0
  -25.9740  -25.9194   19.0124 H   0  0  0  0  0  0
  -23.9878  -27.3084   18.9958 H   0  0  0  0  0  0
  -23.7613  -30.5968   19.4045 H   0  0  0  0  0  0
  -22.7599  -29.2475   19.8436 H   0  0  0  0  0  0
  -25.1294  -36.1845   25.0822 H   0  0  0  0  0  0
  -20.9985  -28.3246   24.1418 H   0  0  0  0  0  0
  -20.5607  -26.2279   23.3643 H   0  0  0  0  0  0
  -21.6625  -26.7387   22.1252 H   0  0  0  0  0  0
  -19.6893  -25.6281   21.1260 H   0  0  0  0  0  0
  -19.6715  -27.3188   20.6752 H   0  0  0  0  0  0
  -17.4203  -26.6743   21.3983 H   0  0  0  0  0  0
  -18.0276  -26.0042   22.8963 H   0  0  0  0  0  0
  -19.7920  -30.7265   24.2295 H   0  0  0  0  0  0
  -17.4996  -31.6271   24.5148 H   0  0  0  0  0  0
  -15.5341  -30.2986   23.7646 H   0  0  0  0  0  0
  -15.8669  -28.0812   22.7084 H   0  0  0  0  0  0
  -24.6055  -30.6899   25.7768 H   0  0  0  0  0  0
  -24.8930  -32.2799   26.4815 H   0  0  0  0  0  0
  -25.8192  -30.8886   27.0227 H   0  0  0  0  0  0
  -26.2985  -29.6674   24.1249 H   0  0  0  0  0  0
  -27.4198  -29.7264   25.4638 H   0  0  0  0  0  0
  -27.8813  -30.4260   23.9330 H   0  0  0  0  0  0
  -27.2769  -33.3618   26.1961 H   0  0  0  0  0  0
  -28.3961  -32.6752   25.0271 H   0  0  0  0  0  0
  -28.0755  -31.8426   26.5399 H   0  0  0  0  0  0
  -28.2563  -38.0081   24.7534 H   0  0  0  0  0  0
  -28.1084  -36.2609   24.6276 H   0  0  0  0  0  0
  -27.2296  -37.1369   25.8880 H   0  0  0  0  0  0
  -20.9311  -29.8721   21.6873 H   0  0  0  0  0  0
  -26.0126  -38.2792   24.1508 H   0  0  0  0  0  0
  -30.7157  -19.9620   22.4118 H   0  0  0  0  0  0
  -31.2990  -24.1357   20.2188 H   0  0  0  0  0  0
  -31.6519  -23.9017   18.5265 H   0  0  0  0  0  0
  -29.7862  -25.1920   17.8207 H   0  0  0  0  0  0
  -30.4623  -26.0890   19.1452 H   0  0  0  0  0  0
  -30.7143  -21.8253   19.4712 H   0  0  0  0  0  0
  -29.5659  -22.4677   18.3182 H   0  0  0  0  0  0
  -27.8253  -25.0414   18.7748 H   0  0  0  0  0  0
  -27.7993  -20.8382   18.6976 H   0  0  0  0  0  0
  -26.6907  -19.5405   19.1403 H   0  0  0  0  0  0
  -27.8321  -19.3376   17.8077 H   0  0  0  0  0  0
  -29.0829  -21.6980   22.1514 H   0  0  0  0  0  0
  -27.6747  -21.3561   21.2287 H   0  0  0  0  0  0
  -28.8506  -15.3335   21.0534 H   0  0  0  0  0  0
  1 25  1  0  0  0
  1 30  2  0  0  0
  1 85  1  0  0  0
  2  3  1  0  0  0
  2 25  1  0  0  0
  2 89  1  0  0  0
  2 90  1  0  0  0
  3  4  1  0  0  0
  3 91  1  0  0  0
  3 92  1  0  0  0
  4  5  1  0  0  0
  4 93  1  0  0  0
  4 94  1  0  0  0
  5  6  1  0  0  0
  5 26  1  0  0  0
  5 95  1  0  0  0
  6 25  1  0  0  0
  6 96  1  0  0  0
  6 97  1  0  0  0
  7  8  2  0  0  0
  7 26  1  0  0  0
  7 29  1  0  0  0
  8  9  1  0  0  0
  8 22  1  0  0  0
  9 10  1  0  0  0
  9 27  2  0  0  0
 10 11  2  0  0  0
 10 15  1  0  0  0
 11 12  1  0  0  0
 11 98  1  0  0  0
 12 13  2  0  0  0
 12 99  1  0  0  0
 13 14  1  0  0  0
 13 31  1  0  0  0
 14 15  2  0  0  0
 14100  1  0  0  0
 15101  1  0  0  0
 16 17  2  0  0  0
 16 21  1  0  0  0
 16 31  1  0  0  0
 17 18  1  0  0  0
 17102  1  0  0  0
 18 19  2  0  0  0
 18103  1  0  0  0
 19 20  1  0  0  0
 19 24  1  0  0  0
 20 21  2  0  0  0
 20104  1  0  0  0
 21 23  1  0  0  0
 22 28  1  0  0  0
 22 32  2  0  0  0
 26 27  1  0  0  0
 28105  1  0  0  0
 28106  1  0  0  0
 29107  1  0  0  0
 29108  1  0  0  0
 33 34  1  0  0  0
 33 66  1  0  0  0
 33 70  2  0  0  0
 34 36  1  0  0  0
 34 59  1  0  0  0
 34109  1  0  0  0
 35 44  2  0  0  0
 35 45  1  0  0  0
 35 68  1  0  0  0
 36 56  1  0  0  0
 36110  1  0  0  0
 37 39  1  0  0  0
 37 47  1  0  0  0
 37 66  1  0  0  0
 37111  1  0  0  0
 38 43  2  0  0  0
 38 46  1  0  0  0
 38 47  1  0  0  0
 39 64  1  0  0  0
 39 67  2  0  0  0
 40 52  1  0  0  0
 40 53  2  0  0  0
 40 58  1  0  0  0
 41112  1  0  0  0
 41113  1  0  0  0
 41114  1  0  0  0
 41 48  1  0  0  0
 42 43  1  0  0  0
 42 66  1  0  0  0
 42115  1  0  0  0
 42116  1  0  0  0
 43 44  1  0  0  0
 44117  1  0  0  0
 45 46  2  0  0  0
 45118  1  0  0  0
 46119  1  0  0  0
 47120  1  0  0  0
 47121  1  0  0  0
 48 56  1  0  0  0
 48 65  1  0  0  0
 48122  1  0  0  0
 49 50  1  0  0  0
 49 53  1  0  0  0
 49 64  1  0  0  0
 49123  1  0  0  0
 50 51  1  0  0  0
 50124  1  0  0  0
 50125  1  0  0  0
 51 52  1  0  0  0
 51126  1  0  0  0
 51127  1  0  0  0
 52128  1  0  0  0
 52129  1  0  0  0
 53 54  1  0  0  0
 54 55  2  0  0  0
 54130  1  0  0  0
 55 57  1  0  0  0
 55131  1  0  0  0
 56 69  2  0  0  0
 57 58  2  0  0  0
 57132  1  0  0  0
 58133  1  0  0  0
 59 60  1  0  0  0
 59 61  1  0  0  0
 59 62  1  0  0  0
 60134  1  0  0  0
 60135  1  0  0  0
 60136  1  0  0  0
 61137  1  0  0  0
 61138  1  0  0  0
 61139  1  0  0  0
 62140  1  0  0  0
 62141  1  0  0  0
 62142  1  0  0  0
 63 65  1  0  0  0
 63143  1  0  0  0
 63144  1  0  0  0
 63145  1  0  0  0
 64146  1  0  0  0
 65147  1  0  0  0
 68 81  1  0  0  0
 71 72  2  0  0  0
 71 75  1  0  0  0
 71148  1  0  0  0
 72 73  1  0  0  0
 72 83  1  0  0  0
 73 76  2  0  0  0
 73 82  1  0  0  0
 74 75  2  0  0  0
 74 76  1  0  0  0
 74 85  1  0  0  0
 75 87  1  0  0  0
 76 88  1  0  0  0
 77 81  1  0  0  0
 77 84  1  0  0  0
 77 86  2  0  0  0
 78 79  1  0  0  0
 78 80  1  0  0  0
 78149  1  0  0  0
 78150  1  0  0  0
 79 81  1  0  0  0
 79151  1  0  0  0
 79152  1  0  0  0
 80 84  1  0  0  0
 80153  1  0  0  0
 80154  1  0  0  0
 81155  1  0  0  0
 82156  1  0  0  0
 82157  1  0  0  0
 82158  1  0  0  0
 83 84  1  0  0  0
 83159  1  0  0  0
 83160  1  0  0  0
 85161  1  0  0  0
M  ISO  4   1 100  68 101  81 101  85 100
M  END
> <chiral flag>
0

> <version>
0

> <s_m_source_file>
/data/baiqing/PycharmProjects/Reinvent-master-3.2/result/LINK_invent/BTK/process_docking_weight1_custom_product_contain_oxygen_bond_distance_aromatic_linkinvent_7_9_3/rearranged_h_0049.sdf

> <i_m_source_file_index>
59

> <r_mmod_Potential_Energy-OPLS-2005>
120.252952575684

> <r_mmod_Stretch_Energy-OPLS-2005>
90.5664978027344

> <r_mmod_Bend_Energy-OPLS-2005>
158.037933349609

> <r_mmod_Torsional_Energy-OPLS-2005>
283.516723632812

> <r_mmod_Improper_Torsional_Energy-OPLS-2005>
9.40570163726807

> <r_mmod_Van_der_Waal_Energy-OPLS-2005>
147.50602722168

> <r_mmod_Electrostatic_Energy-OPLS-2005>
-389.701232910156

> <r_mmod_Solvation_Energy-OPLS-2005>
-228.371688842773

> <b_mmod_Minimization_Converged-OPLS-2005>
0

> <r_mmod_RMS_Derivative-OPLS-2005>
2.83415532112122

$$$$
59
                    3D
 Structure written by MMmdl.
161169  0  0  1  0            999 V2000
  -30.6921  -14.4674   20.5365 C   0  0  0  0  0  0
  -30.4272  -12.2969   19.4139 C   0  0  0  0  0  0
  -29.4914  -12.4914   18.2021 C   0  0  0  0  0  0
  -28.0134  -12.3631   18.6197 C   0  0  0  0  0  0
  -27.6637  -13.1967   19.8819 C   0  0  2  0  0  0
  -28.7119  -12.9721   20.9952 C   0  0  0  0  0  0
  -25.2605  -13.8132   20.5704 C   0  0  0  0  0  0
  -24.1844  -13.0421   20.9190 C   0  0  0  0  0  0
  -24.6388  -11.6888   20.8748 C   0  0  0  0  0  0
  -23.9050  -10.4282   21.0419 C   0  0  0  0  0  0
  -24.3602   -9.4195   21.9192 C   0  0  0  0  0  0
  -23.6288   -8.2229   22.0749 C   0  0  0  0  0  0
  -22.4265   -8.0273   21.3547 C   0  0  0  0  0  0
  -21.9901   -9.0251   20.4654 C   0  0  0  0  0  0
  -22.7228  -10.2133   20.3071 C   0  0  0  0  0  0
  -21.6844   -6.0743   22.5289 C   0  0  0  0  0  0
  -21.4008   -6.5642   23.8225 C   0  0  0  0  0  0
  -21.3653   -5.6782   24.9180 C   0  0  0  0  0  0
  -21.6044   -4.3051   24.7219 C   0  0  0  0  0  0
  -21.8817   -3.8150   23.4334 C   0  0  0  0  0  0
  -21.9191   -4.6973   22.3405 C   0  0  0  0  0  0
  -22.7870  -13.5244   21.1846 C   0  0  0  0  0  0
  -22.1656   -4.2169   21.0979 F   0  0  0  0  0  0
  -21.5629   -3.4530   25.7725 F   0  0  0  0  0  0
  -30.0415  -13.2772   20.4386 N   0  0  0  0  0  0
  -26.3039  -12.9280   20.3425 N   0  0  0  0  0  0
  -25.9315  -11.6449   20.5793 N   0  0  0  0  0  0
  -22.0476  -12.8267   22.0399 N   0  0  0  0  0  0
  -25.4319  -15.1858   20.4117 N   0  0  0  0  0  0
  -31.8347  -14.6489   20.1036 O   0  0  0  0  0  0
  -21.6617   -6.8880   21.4252 O   0  0  0  0  0  0
  -22.3585  -14.5561   20.6699 O   0  0  0  0  0  0
  -24.6110  -31.8699   23.2124 C   0  0  0  0  0  0
  -25.9016  -32.4839   23.8409 C   0  0  1  0  0  0
  -27.2426  -27.4573   20.0968 C   0  0  0  0  0  0
  -25.5893  -33.8634   24.2341 N   0  0  0  0  0  0
  -23.4009  -30.4910   21.5514 C   0  0  2  0  0  0
  -24.8520  -28.9582   20.1169 C   0  0  0  0  0  0
  -22.7405  -29.4652   22.5005 C   0  0  0  0  0  0
  -18.0269  -28.1377   22.8489 C   0  0  0  0  0  0
  -24.1492  -36.7323   23.2636 C   0  0  0  0  0  0
  -25.9270  -30.8395   21.3661 C   0  0  0  0  0  0
  -26.0076  -29.4723   20.7208 C   0  0  0  0  0  0
  -27.2057  -28.7246   20.7200 C   0  0  0  0  0  0
  -26.0790  -26.9564   19.4807 C   0  0  0  0  0  0
  -24.8803  -27.6958   19.4971 C   0  0  0  0  0  0
  -23.6111  -29.8210   20.1664 C   0  0  0  0  0  0
  -25.4107  -36.3123   24.0343 C   0  0  1  0  0  0
  -20.5857  -28.3657   23.1334 C   0  0  2  0  0  0
  -20.6758  -26.9390   22.5440 C   0  0  0  0  0  0
  -19.5749  -26.6382   21.5218 C   0  0  0  0  0  0
  -18.1918  -26.7932   22.1605 C   0  0  0  0  0  0
  -19.1519  -28.8832   23.2908 C   0  0  0  0  0  0
  -18.9447  -30.1441   23.8917 C   0  0  0  0  0  0
  -17.6447  -30.6584   24.0561 C   0  0  0  0  0  0
  -25.9032  -34.9484   23.5139 C   0  0  0  0  0  0
  -16.5340  -29.9084   23.6323 C   0  0  0  0  0  0
  -16.7259  -28.6502   23.0344 C   0  0  0  0  0  0
  -26.4459  -31.6610   25.0724 C   0  0  0  0  0  0
  -25.3746  -31.3749   26.1502 C   0  0  0  0  0  0
  -27.0248  -30.3039   24.6085 C   0  0  0  0  0  0
  -27.6067  -32.4316   25.7450 C   0  0  0  0  0  0
  -27.5602  -37.1792   24.8446 C   0  0  0  0  0  0
  -21.4132  -29.3023   22.3741 N   0  0  0  0  0  0
  -26.4293  -37.3807   23.9427 N   0  0  0  0  0  0
  -24.6642  -31.0807   22.1025 N   0  0  0  0  0  0
  -23.4178  -28.8199   23.3044 O   0  0  0  0  0  0
  -28.3818  -26.6906   20.0550 O   0  0  0  0  0  0
  -26.5586  -34.8929   22.4696 O   0  0  0  0  0  0
  -23.5304  -32.1442   23.7524 O   0  0  0  0  0  0
  -30.2036  -19.6194   20.0006 C   0  0  0  0  0  0
  -30.0094  -18.6716   18.9872 C   0  0  0  0  0  0
  -30.3343  -19.2259   21.3480 C   0  0  0  0  0  0
  -29.9304  -17.3018   19.2940 C   0  0  0  0  0  0
  -30.3074  -17.8347   21.6663 C   0  0  0  0  0  0
  -30.0931  -16.8673   20.6407 C   0  0  0  0  0  0
  -29.4011  -23.8145   21.7351 C   0  0  0  0  0  0
  -29.7123  -25.0192   21.2109 C   0  0  0  0  0  0
  -30.3078  -22.6812   21.6149 C   0  0  0  0  0  0
  -29.6433  -16.3458   18.1470 C   0  0  0  0  0  0
  -30.5144  -17.3778   23.1081 C   0  0  0  0  0  0
  -30.5356  -20.3104   22.4191 C   0  0  0  0  0  0
  -28.8546  -26.2685   21.3311 C   0  0  0  0  0  0
  -29.9410  -15.4878   20.9848 N   0  0  0  0  0  0
  -29.8202  -21.5743   22.1943 N   0  0  0  0  0  0
  -31.4149  -22.7110   21.0732 O   0  0  0  0  0  0
  -31.4684  -12.4028   19.1034 H   0  0  0  0  0  0
  -30.3340  -11.2849   19.8113 H   0  0  0  0  0  0
  -29.7231  -11.7583   17.4281 H   0  0  0  0  0  0
  -29.6616  -13.4677   17.7481 H   0  0  0  0  0  0
  -27.8208  -11.3067   18.8108 H   0  0  0  0  0  0
  -27.3617  -12.6445   17.7923 H   0  0  0  0  0  0
  -27.7031  -14.2447   19.5966 H   0  0  0  0  0  0
  -28.6912  -11.9329   21.3261 H   0  0  0  0  0  0
  -28.4831  -13.5664   21.8809 H   0  0  0  0  0  0
  -25.2748   -9.5674   22.4764 H   0  0  0  0  0  0
  -24.0003   -7.4613   22.7453 H   0  0  0  0  0  0
  -21.0834   -8.8787   19.8965 H   0  0  0  0  0  0
  -22.3690  -10.9682   19.6186 H   0  0  0  0  0  0
  -21.1996   -7.6145   23.9744 H   0  0  0  0  0  0
  -21.1474   -6.0499   25.9088 H   0  0  0  0  0  0
  -22.0600   -2.7614   23.2821 H   0  0  0  0  0  0
  -22.4033  -11.9924   22.4834 H   0  0  0  0  0  0
  -21.1115  -13.1364   22.2586 H   0  0  0  0  0  0
  -24.6632  -15.8371   20.5260 H   0  0  0  0  0  0
  -26.2867  -15.6325   20.1061 H   0  0  0  0  0  0
  -26.7092  -32.5569   23.1182 H   0  0  0  0  0  0
  -25.0061  -33.9806   25.0498 H   0  0  0  0  0  0
  -22.6880  -31.3062   21.4118 H   0  0  0  0  0  0
  -23.3761  -35.9647   23.3277 H   0  0  0  0  0  0
  -24.3597  -36.8950   22.2055 H   0  0  0  0  0  0
  -23.7225  -37.6519   23.6650 H   0  0  0  0  0  0
  -26.0347  -31.6032   20.5942 H   0  0  0  0  0  0
  -26.8167  -30.8978   21.9811 H   0  0  0  0  0  0
  -28.0977  -29.1219   21.1846 H   0  0  0  0  0  0
  -26.1013  -25.9890   18.9991 H   0  0  0  0  0  0
  -23.9930  -27.2933   19.0274 H   0  0  0  0  0  0
  -23.7151  -30.5946   19.4048 H   0  0  0  0  0  0
  -22.7380  -29.2354   19.8738 H   0  0  0  0  0  0
  -25.1274  -36.1993   25.0834 H   0  0  0  0  0  0
  -20.9943  -28.3228   24.1457 H   0  0  0  0  0  0
  -20.5647  -26.2262   23.3626 H   0  0  0  0  0  0
  -21.6635  -26.7435   22.1249 H   0  0  0  0  0  0
  -19.6913  -25.6299   21.1239 H   0  0  0  0  0  0
  -19.6712  -27.3201   20.6758 H   0  0  0  0  0  0
  -17.4207  -26.6709   21.3979 H   0  0  0  0  0  0
  -18.0285  -26.0062   22.8982 H   0  0  0  0  0  0
  -19.7920  -30.7244   24.2304 H   0  0  0  0  0  0
  -17.5005  -31.6263   24.5161 H   0  0  0  0  0  0
  -15.5343  -30.2990   23.7639 H   0  0  0  0  0  0
  -15.8657  -28.0827   22.7045 H   0  0  0  0  0  0
  -24.5915  -30.7078   25.7885 H   0  0  0  0  0  0
  -24.8936  -32.2914   26.4929 H   0  0  0  0  0  0
  -25.8121  -30.8962   27.0271 H   0  0  0  0  0  0
  -26.2757  -29.6836   24.1149 H   0  0  0  0  0  0
  -27.4012  -29.7252   25.4531 H   0  0  0  0  0  0
  -27.8611  -30.4339   23.9213 H   0  0  0  0  0  0
  -27.2712  -33.3602   26.2082 H   0  0  0  0  0  0
  -28.3826  -32.6904   25.0231 H   0  0  0  0  0  0
  -28.0796  -31.8410   26.5307 H   0  0  0  0  0  0
  -28.2597  -38.0114   24.7544 H   0  0  0  0  0  0
  -28.1115  -36.2650   24.6180 H   0  0  0  0  0  0
  -27.2339  -37.1353   25.8852 H   0  0  0  0  0  0
  -20.9291  -29.8737   21.6959 H   0  0  0  0  0  0
  -26.0188  -38.2881   24.1465 H   0  0  0  0  0  0
  -30.2527  -20.6617   19.7229 H   0  0  0  0  0  0
  -29.9012  -19.0119   17.9662 H   0  0  0  0  0  0
  -28.4649  -23.7006   22.2640 H   0  0  0  0  0  0
  -30.6387  -25.1475   20.6677 H   0  0  0  0  0  0
  -30.5113  -15.7243   17.9275 H   0  0  0  0  0  0
  -29.3867  -16.8828   17.2328 H   0  0  0  0  0  0
  -28.7982  -15.7040   18.3822 H   0  0  0  0  0  0
  -31.2946  -17.9615   23.5960 H   0  0  0  0  0  0
  -30.8355  -16.3396   23.1811 H   0  0  0  0  0  0
  -29.5912  -17.4870   23.6773 H   0  0  0  0  0  0
  -31.6061  -20.4953   22.5284 H   0  0  0  0  0  0
  -30.1936  -19.9501   23.3886 H   0  0  0  0  0  0
  -29.4523  -27.0619   21.7812 H   0  0  0  0  0  0
  -28.0206  -26.0697   22.0078 H   0  0  0  0  0  0
  -29.0706  -15.2335   21.4251 H   0  0  0  0  0  0
  -28.9044  -21.6453   22.6160 H   0  0  0  0  0  0
  1 25  1  0  0  0
  1 30  2  0  0  0
  1 84  1  0  0  0
  2  3  1  0  0  0
  2 25  1  0  0  0
  2 87  1  0  0  0
  2 88  1  0  0  0
  3  4  1  0  0  0
  3 89  1  0  0  0
  3 90  1  0  0  0
  4  5  1  0  0  0
  4 91  1  0  0  0
  4 92  1  0  0  0
  5  6  1  0  0  0
  5 26  1  0  0  0
  5 93  1  0  0  0
  6 25  1  0  0  0
  6 94  1  0  0  0
  6 95  1  0  0  0
  7  8  2  0  0  0
  7 26  1  0  0  0
  7 29  1  0  0  0
  8  9  1  0  0  0
  8 22  1  0  0  0
  9 10  1  0  0  0
  9 27  2  0  0  0
 10 11  2  0  0  0
 10 15  1  0  0  0
 11 12  1  0  0  0
 11 96  1  0  0  0
 12 13  2  0  0  0
 12 97  1  0  0  0
 13 14  1  0  0  0
 13 31  1  0  0  0
 14 15  2  0  0  0
 14 98  1  0  0  0
 15 99  1  0  0  0
 16 17  2  0  0  0
 16 21  1  0  0  0
 16 31  1  0  0  0
 17 18  1  0  0  0
 17100  1  0  0  0
 18 19  2  0  0  0
 18101  1  0  0  0
 19 20  1  0  0  0
 19 24  1  0  0  0
 20 21  2  0  0  0
 20102  1  0  0  0
 21 23  1  0  0  0
 22 28  1  0  0  0
 22 32  2  0  0  0
 26 27  1  0  0  0
 28103  1  0  0  0
 28104  1  0  0  0
 29105  1  0  0  0
 29106  1  0  0  0
 33 34  1  0  0  0
 33 66  1  0  0  0
 33 70  2  0  0  0
 34 36  1  0  0  0
 34 59  1  0  0  0
 34107  1  0  0  0
 35 44  2  0  0  0
 35 45  1  0  0  0
 35 68  1  0  0  0
 36 56  1  0  0  0
 36108  1  0  0  0
 37 39  1  0  0  0
 37 47  1  0  0  0
 37 66  1  0  0  0
 37109  1  0  0  0
 38 43  2  0  0  0
 38 46  1  0  0  0
 38 47  1  0  0  0
 39 64  1  0  0  0
 39 67  2  0  0  0
 40 52  1  0  0  0
 40 53  2  0  0  0
 40 58  1  0  0  0
 41110  1  0  0  0
 41111  1  0  0  0
 41112  1  0  0  0
 41 48  1  0  0  0
 42 43  1  0  0  0
 42 66  1  0  0  0
 42113  1  0  0  0
 42114  1  0  0  0
 43 44  1  0  0  0
 44115  1  0  0  0
 45 46  2  0  0  0
 45116  1  0  0  0
 46117  1  0  0  0
 47118  1  0  0  0
 47119  1  0  0  0
 48 56  1  0  0  0
 48 65  1  0  0  0
 48120  1  0  0  0
 49 50  1  0  0  0
 49 53  1  0  0  0
 49 64  1  0  0  0
 49121  1  0  0  0
 50 51  1  0  0  0
 50122  1  0  0  0
 50123  1  0  0  0
 51 52  1  0  0  0
 51124  1  0  0  0
 51125  1  0  0  0
 52126  1  0  0  0
 52127  1  0  0  0
 53 54  1  0  0  0
 54 55  2  0  0  0
 54128  1  0  0  0
 55 57  1  0  0  0
 55129  1  0  0  0
 56 69  2  0  0  0
 57 58  2  0  0  0
 57130  1  0  0  0
 58131  1  0  0  0
 59 60  1  0  0  0
 59 61  1  0  0  0
 59 62  1  0  0  0
 60132  1  0  0  0
 60133  1  0  0  0
 60134  1  0  0  0
 61135  1  0  0  0
 61136  1  0  0  0
 61137  1  0  0  0
 62138  1  0  0  0
 62139  1  0  0  0
 62140  1  0  0  0
 63 65  1  0  0  0
 63141  1  0  0  0
 63142  1  0  0  0
 63143  1  0  0  0
 64144  1  0  0  0
 65145  1  0  0  0
 68 83  1  0  0  0
 71 72  2  0  0  0
 71 73  1  0  0  0
 71146  1  0  0  0
 72 74  1  0  0  0
 72147  1  0  0  0
 73 75  2  0  0  0
 73 82  1  0  0  0
 74 76  2  0  0  0
 74 80  1  0  0  0
 75 76  1  0  0  0
 75 81  1  0  0  0
 76 84  1  0  0  0
 77 78  2  0  0  0
 77 79  1  0  0  0
 77148  1  0  0  0
 78 83  1  0  0  0
 78149  1  0  0  0
 79 85  1  0  0  0
 79 86  2  0  0  0
 80150  1  0  0  0
 80151  1  0  0  0
 80152  1  0  0  0
 81153  1  0  0  0
 81154  1  0  0  0
 81155  1  0  0  0
 82 85  1  0  0  0
 82156  1  0  0  0
 82157  1  0  0  0
 83158  1  0  0  0
 83159  1  0  0  0
 84160  1  0  0  0
 85161  1  0  0  0
M  ISO  4   1 100  68 101  83 101  84 100
M  END
> <chiral flag>
0

> <version>
0

> <s_m_source_file>
/data/baiqing/PycharmProjects/Reinvent-master-3.2/result/LINK_invent/BTK/process_docking_weight1_custom_product_contain_oxygen_bond_distance_aromatic_linkinvent_7_9_3/rearranged_h_0049.sdf

> <i_m_source_file_index>
60

> <r_mmod_Potential_Energy-OPLS-2005>
-195.888565063477

> <r_mmod_Stretch_Energy-OPLS-2005>
37.2759323120117

> <r_mmod_Bend_Energy-OPLS-2005>
89.7324295043945

> <r_mmod_Torsional_Energy-OPLS-2005>
249.243103027344

> <r_mmod_Improper_Torsional_Energy-OPLS-2005>
4.86606979370117

> <r_mmod_Van_der_Waal_Energy-OPLS-2005>
158.419616699219

> <r_mmod_Electrostatic_Energy-OPLS-2005>
-505.726165771484

> <r_mmod_Solvation_Energy-OPLS-2005>
-241.384857177734

> <b_mmod_Minimization_Converged-OPLS-2005>
0

> <r_mmod_RMS_Derivative-OPLS-2005>
1.60544872283936

$$$$
60
                    3D
 Structure written by MMmdl.
173182  0  0  1  0            999 V2000
  -30.7103  -14.5683   20.4592 C   0  0  0  0  0  0
  -30.4270  -12.3062   19.4835 C   0  0  0  0  0  0
  -29.5050  -12.3433   18.2449 C   0  0  0  0  0  0
  -28.0132  -12.3229   18.6482 C   0  0  0  0  0  0
  -27.6549  -13.2082   19.8764 C   0  0  2  0  0  0
  -28.7161  -13.0811   20.9916 C   0  0  0  0  0  0
  -25.2576  -13.8112   20.5708 C   0  0  0  0  0  0
  -24.1817  -13.0396   20.9217 C   0  0  0  0  0  0
  -24.6391  -11.6892   20.8847 C   0  0  0  0  0  0
  -23.9075  -10.4252   21.0511 C   0  0  0  0  0  0
  -24.3613   -9.4147   21.9278 C   0  0  0  0  0  0
  -23.6275   -8.2174   22.0801 C   0  0  0  0  0  0
  -22.4269   -8.0237   21.3549 C   0  0  0  0  0  0
  -21.9915   -9.0241   20.4683 C   0  0  0  0  0  0
  -22.7250  -10.2124   20.3155 C   0  0  0  0  0  0
  -21.6805   -6.0690   22.5281 C   0  0  0  0  0  0
  -21.3954   -6.5615   23.8202 C   0  0  0  0  0  0
  -21.3688   -5.6791   24.9183 C   0  0  0  0  0  0
  -21.6074   -4.3054   24.7244 C   0  0  0  0  0  0
  -21.8812   -3.8118   23.4373 C   0  0  0  0  0  0
  -21.9174   -4.6919   22.3417 C   0  0  0  0  0  0
  -22.7852  -13.5241   21.1787 C   0  0  0  0  0  0
  -22.1623   -4.2098   21.0990 F   0  0  0  0  0  0
  -21.5693   -3.4570   25.7777 F   0  0  0  0  0  0
  -30.0238  -13.3835   20.3992 N   0  0  0  0  0  0
  -26.3060  -12.9277   20.3578 N   0  0  0  0  0  0
  -25.9360  -11.6447   20.6053 N   0  0  0  0  0  0
  -22.0488  -12.8244   22.0367 N   0  0  0  0  0  0
  -25.4252  -15.1763   20.3847 N   0  0  0  0  0  0
  -31.9207  -14.6194   20.2287 O   0  0  0  0  0  0
  -21.6599   -6.8845   21.4245 O   0  0  0  0  0  0
  -22.3551  -14.5509   20.6611 O   0  0  0  0  0  0
  -24.6238  -31.8669   23.2100 C   0  0  0  0  0  0
  -25.9068  -32.4836   23.8432 C   0  0  1  0  0  0
  -27.2259  -27.3397   20.0588 C   0  0  0  0  0  0
  -25.5920  -33.8644   24.2326 N   0  0  0  0  0  0
  -23.4160  -30.4964   21.5541 C   0  0  2  0  0  0
  -24.8536  -28.9555   20.1211 C   0  0  0  0  0  0
  -22.7442  -29.4653   22.4906 C   0  0  0  0  0  0
  -18.0321  -28.1321   22.8571 C   0  0  0  0  0  0
  -24.1440  -36.7204   23.2635 C   0  0  0  0  0  0
  -25.9596  -30.7837   21.3898 C   0  0  0  0  0  0
  -26.0295  -29.4150   20.7259 C   0  0  0  0  0  0
  -27.2157  -28.6218   20.6879 C   0  0  0  0  0  0
  -25.9926  -26.9020   19.5031 C   0  0  0  0  0  0
  -24.8374  -27.6999   19.5034 C   0  0  0  0  0  0
  -23.6292  -29.8447   20.1682 C   0  0  0  0  0  0
  -25.4084  -36.3076   24.0326 C   0  0  1  0  0  0
  -20.5912  -28.3664   23.1229 C   0  0  2  0  0  0
  -20.6813  -26.9380   22.5374 C   0  0  0  0  0  0
  -19.5762  -26.6348   21.5207 C   0  0  0  0  0  0
  -18.1963  -26.7890   22.1666 C   0  0  0  0  0  0
  -19.1583  -28.8812   23.2941 C   0  0  0  0  0  0
  -18.9520  -30.1431   23.8932 C   0  0  0  0  0  0
  -17.6530  -30.6567   24.0564 C   0  0  0  0  0  0
  -25.9052  -34.9466   23.5093 C   0  0  0  0  0  0
  -16.5413  -29.9067   23.6331 C   0  0  0  0  0  0
  -16.7339  -28.6457   23.0413 C   0  0  0  0  0  0
  -26.4462  -31.6651   25.0821 C   0  0  0  0  0  0
  -25.3668  -31.3778   26.1531 C   0  0  0  0  0  0
  -27.0295  -30.3074   24.6265 C   0  0  0  0  0  0
  -27.6015  -32.4398   25.7604 C   0  0  0  0  0  0
  -27.5523  -37.1737   24.8486 C   0  0  0  0  0  0
  -21.4152  -29.3063   22.3623 N   0  0  0  0  0  0
  -26.4248  -37.3758   23.9435 N   0  0  0  0  0  0
  -24.6858  -31.0636   22.1081 N   0  0  0  0  0  0
  -23.4207  -28.8170   23.2933 O   0  0  0  0  0  0
  -28.3546  -26.4994   19.9914 O   0  0  0  0  0  0
  -26.5603  -34.8907   22.4630 O   0  0  0  0  0  0
  -23.5392  -32.1483   23.7418 O   0  0  0  0  0  0
  -31.5379  -19.0330   20.7999 C   0  0  0  0  0  0
  -31.4416  -17.6251   20.8403 C   0  0  0  0  0  0
  -29.1379  -19.2402   20.9495 C   0  0  0  0  0  0
  -30.3905  -19.8602   20.7011 C   0  0  0  0  0  0
  -29.0481  -17.8297   21.1201 C   0  0  0  0  0  0
  -30.1750  -16.9982   20.8830 C   0  0  0  0  0  0
  -29.9200  -21.7660   17.8392 C   0  0  0  0  0  0
  -28.6638  -24.4089   18.8202 C   0  0  0  0  0  0
  -30.5899  -20.7467   17.2086 C   0  0  0  0  0  0
  -29.0707  -22.7244   17.0002 C   0  0  0  0  0  0
  -28.0321  -23.5381   17.7613 C   0  0  0  0  0  0
  -29.6381  -23.5824   19.7019 C   0  0  0  0  0  0
  -27.7171  -17.2144   21.5156 C   0  0  0  0  0  0
  -31.4399  -19.6461   17.8164 C   0  0  0  0  0  0
  -30.4836  -20.5234   15.6955 C   0  0  0  0  0  0
  -29.5236  -15.9361   18.8909 C   0  0  0  0  0  0
  -30.5961  -21.3758   20.3759 C   0  0  0  0  0  0
  -28.2793  -25.6501   18.8265 N   0  0  0  0  0  0
  -29.9572  -15.6987   20.2800 N   0  0  0  0  0  0
  -29.7429  -22.0906   19.3525 N   0  3  2  0  0  0
  -31.4762  -12.3771   19.1890 H   0  0  0  0  0  0
  -30.3217  -11.3469   19.9941 H   0  0  0  0  0  0
  -29.7034  -11.4565   17.6427 H   0  0  0  0  0  0
  -29.7443  -13.1705   17.5840 H   0  0  0  0  0  0
  -27.7734  -11.2849   18.8835 H   0  0  0  0  0  0
  -27.3826  -12.5815   17.8005 H   0  0  0  0  0  0
  -27.6498  -14.2405   19.5413 H   0  0  0  0  0  0
  -28.7183  -12.0619   21.3853 H   0  0  0  0  0  0
  -28.5046  -13.7325   21.8414 H   0  0  0  0  0  0
  -25.2761   -9.5549   22.4872 H   0  0  0  0  0  0
  -23.9952   -7.4526   22.7525 H   0  0  0  0  0  0
  -21.0845   -8.8766   19.8977 H   0  0  0  0  0  0
  -22.3734  -10.9672   19.6273 H   0  0  0  0  0  0
  -21.1848   -7.6114   23.9673 H   0  0  0  0  0  0
  -21.1558   -6.0538   25.9083 H   0  0  0  0  0  0
  -22.0560   -2.7586   23.2892 H   0  0  0  0  0  0
  -22.4057  -11.9872   22.4674 H   0  0  0  0  0  0
  -21.1208  -13.1421   22.2718 H   0  0  0  0  0  0
  -24.6760  -15.8518   20.4718 H   0  0  0  0  0  0
  -26.2907  -15.5833   20.0547 H   0  0  0  0  0  0
  -26.7128  -32.5505   23.1167 H   0  0  0  0  0  0
  -25.0221  -33.9879   25.0579 H   0  0  0  0  0  0
  -22.7091  -31.3181   21.4270 H   0  0  0  0  0  0
  -23.3771  -35.9463   23.3390 H   0  0  0  0  0  0
  -24.3512  -36.8743   22.2029 H   0  0  0  0  0  0
  -23.7128  -37.6383   23.6636 H   0  0  0  0  0  0
  -26.1000  -31.5510   20.6286 H   0  0  0  0  0  0
  -26.8343  -30.8224   22.0265 H   0  0  0  0  0  0
  -28.1223  -28.9883   21.1497 H   0  0  0  0  0  0
  -25.8903  -25.9291   19.0447 H   0  0  0  0  0  0
  -23.9279  -27.3469   19.0309 H   0  0  0  0  0  0
  -23.7525  -30.6380   19.4301 H   0  0  0  0  0  0
  -22.7428  -29.2864   19.8641 H   0  0  0  0  0  0
  -25.1249  -36.1898   25.0813 H   0  0  0  0  0  0
  -21.0128  -28.3263   24.1284 H   0  0  0  0  0  0
  -20.5641  -26.2309   23.3620 H   0  0  0  0  0  0
  -21.6672  -26.7333   22.1160 H   0  0  0  0  0  0
  -19.6897  -25.6238   21.1289 H   0  0  0  0  0  0
  -19.6648  -27.3102   20.6696 H   0  0  0  0  0  0
  -17.4192  -26.6699   21.4102 H   0  0  0  0  0  0
  -18.0372  -25.9944   22.8983 H   0  0  0  0  0  0
  -19.7993  -30.7286   24.2246 H   0  0  0  0  0  0
  -17.5082  -31.6253   24.5139 H   0  0  0  0  0  0
  -15.5417  -30.3011   23.7566 H   0  0  0  0  0  0
  -15.8761  -28.0786   22.7094 H   0  0  0  0  0  0
  -24.5852  -30.7127   25.7827 H   0  0  0  0  0  0
  -24.8856  -32.2960   26.4910 H   0  0  0  0  0  0
  -25.7920  -30.8983   27.0365 H   0  0  0  0  0  0
  -26.2833  -29.6919   24.1245 H   0  0  0  0  0  0
  -27.3971  -29.7239   25.4712 H   0  0  0  0  0  0
  -27.8717  -30.4416   23.9488 H   0  0  0  0  0  0
  -27.2603  -33.3712   26.2125 H   0  0  0  0  0  0
  -28.3821  -32.6940   25.0435 H   0  0  0  0  0  0
  -28.0703  -31.8620   26.5583 H   0  0  0  0  0  0
  -28.2538  -38.0027   24.7513 H   0  0  0  0  0  0
  -28.1022  -36.2555   24.6364 H   0  0  0  0  0  0
  -27.2262  -37.1403   25.8894 H   0  0  0  0  0  0
  -20.9274  -29.8876   21.6946 H   0  0  0  0  0  0
  -26.0151  -38.2800   24.1560 H   0  0  0  0  0  0
  -32.5196  -19.4644   20.6747 H   0  0  0  0  0  0
  -32.3500  -17.0596   20.6903 H   0  0  0  0  0  0
  -28.2262  -19.8176   20.9676 H   0  0  0  0  0  0
  -28.5223  -22.1421   16.2608 H   0  0  0  0  0  0
  -29.7363  -23.3851   16.4433 H   0  0  0  0  0  0
  -27.4621  -24.1459   17.0569 H   0  0  0  0  0  0
  -27.3108  -22.8700   18.2306 H   0  0  0  0  0  0
  -29.2768  -23.6973   20.7216 H   0  0  0  0  0  0
  -30.6292  -24.0429   19.6604 H   0  0  0  0  0  0
  -27.3419  -17.6877   22.4225 H   0  0  0  0  0  0
  -27.8154  -16.1542   21.7512 H   0  0  0  0  0  0
  -26.9688  -17.3379   20.7359 H   0  0  0  0  0  0
  -32.2501  -20.0416   18.4297 H   0  0  0  0  0  0
  -31.9277  -19.0381   17.0557 H   0  0  0  0  0  0
  -30.8284  -18.9254   18.3534 H   0  0  0  0  0  0
  -30.1697  -21.3872   15.1153 H   0  0  0  0  0  0
  -29.7774  -19.7162   15.4799 H   0  0  0  0  0  0
  -31.4491  -20.2493   15.2702 H   0  0  0  0  0  0
  -30.2862  -16.5036   18.3527 H   0  0  0  0  0  0
  -28.6025  -16.5147   18.8553 H   0  0  0  0  0  0
  -29.3366  -15.0477   18.3064 H   0  0  0  0  0  0
  -31.6288  -21.5236   20.0569 H   0  0  0  0  0  0
  -30.5165  -21.8952   21.3292 H   0  0  0  0  0  0
  -28.8191  -21.7678   19.5781 H   0  0  0  0  0  0
  1 25  1  0  0  0
  1 30  2  0  0  0
  1 89  1  0  0  0
  2  3  1  0  0  0
  2 25  1  0  0  0
  2 91  1  0  0  0
  2 92  1  0  0  0
  3  4  1  0  0  0
  3 93  1  0  0  0
  3 94  1  0  0  0
  4  5  1  0  0  0
  4 95  1  0  0  0
  4 96  1  0  0  0
  5  6  1  0  0  0
  5 26  1  0  0  0
  5 97  1  0  0  0
  6 25  1  0  0  0
  6 98  1  0  0  0
  6 99  1  0  0  0
  7  8  2  0  0  0
  7 26  1  0  0  0
  7 29  1  0  0  0
  8  9  1  0  0  0
  8 22  1  0  0  0
  9 10  1  0  0  0
  9 27  2  0  0  0
 10 11  2  0  0  0
 10 15  1  0  0  0
 11 12  1  0  0  0
 11100  1  0  0  0
 12 13  2  0  0  0
 12101  1  0  0  0
 13 14  1  0  0  0
 13 31  1  0  0  0
 14 15  2  0  0  0
 14102  1  0  0  0
 15103  1  0  0  0
 16 17  2  0  0  0
 16 21  1  0  0  0
 16 31  1  0  0  0
 17 18  1  0  0  0
 17104  1  0  0  0
 18 19  2  0  0  0
 18105  1  0  0  0
 19 20  1  0  0  0
 19 24  1  0  0  0
 20 21  2  0  0  0
 20106  1  0  0  0
 21 23  1  0  0  0
 22 28  1  0  0  0
 22 32  2  0  0  0
 26 27  1  0  0  0
 28107  1  0  0  0
 28108  1  0  0  0
 29109  1  0  0  0
 29110  1  0  0  0
 33 34  1  0  0  0
 33 66  1  0  0  0
 33 70  2  0  0  0
 34 36  1  0  0  0
 34 59  1  0  0  0
 34111  1  0  0  0
 35 44  2  0  0  0
 35 45  1  0  0  0
 35 68  1  0  0  0
 36 56  1  0  0  0
 36112  1  0  0  0
 37 39  1  0  0  0
 37 47  1  0  0  0
 37 66  1  0  0  0
 37113  1  0  0  0
 38 43  2  0  0  0
 38 46  1  0  0  0
 38 47  1  0  0  0
 39 64  1  0  0  0
 39 67  2  0  0  0
 40 52  1  0  0  0
 40 53  2  0  0  0
 40 58  1  0  0  0
 41114  1  0  0  0
 41115  1  0  0  0
 41116  1  0  0  0
 41 48  1  0  0  0
 42 43  1  0  0  0
 42 66  1  0  0  0
 42117  1  0  0  0
 42118  1  0  0  0
 43 44  1  0  0  0
 44119  1  0  0  0
 45 46  2  0  0  0
 45120  1  0  0  0
 46121  1  0  0  0
 47122  1  0  0  0
 47123  1  0  0  0
 48 56  1  0  0  0
 48 65  1  0  0  0
 48124  1  0  0  0
 49 50  1  0  0  0
 49 53  1  0  0  0
 49 64  1  0  0  0
 49125  1  0  0  0
 50 51  1  0  0  0
 50126  1  0  0  0
 50127  1  0  0  0
 51 52  1  0  0  0
 51128  1  0  0  0
 51129  1  0  0  0
 52130  1  0  0  0
 52131  1  0  0  0
 53 54  1  0  0  0
 54 55  2  0  0  0
 54132  1  0  0  0
 55 57  1  0  0  0
 55133  1  0  0  0
 56 69  2  0  0  0
 57 58  2  0  0  0
 57134  1  0  0  0
 58135  1  0  0  0
 59 60  1  0  0  0
 59 61  1  0  0  0
 59 62  1  0  0  0
 60136  1  0  0  0
 60137  1  0  0  0
 60138  1  0  0  0
 61139  1  0  0  0
 61140  1  0  0  0
 61141  1  0  0  0
 62142  1  0  0  0
 62143  1  0  0  0
 62144  1  0  0  0
 63 65  1  0  0  0
 63145  1  0  0  0
 63146  1  0  0  0
 63147  1  0  0  0
 64148  1  0  0  0
 65149  1  0  0  0
 68 88  1  0  0  0
 71 72  2  0  0  0
 71 74  1  0  0  0
 71150  1  0  0  0
 72 76  1  0  0  0
 72151  1  0  0  0
 73 74  2  0  0  0
 73 75  1  0  0  0
 73152  1  0  0  0
 74 87  1  0  0  0
 75 76  2  0  0  0
 75 83  1  0  0  0
 76 89  1  0  0  0
 77 79  2  0  0  0
 77 80  1  0  0  0
 77 90  1  0  0  0
 78 81  1  0  0  0
 78 82  1  0  0  0
 78 88  2  0  0  0
 79 84  1  0  0  0
 79 85  1  0  0  0
 80 81  1  0  0  0
 80153  1  0  0  0
 80154  1  0  0  0
 81155  1  0  0  0
 81156  1  0  0  0
 82 90  1  0  0  0
 82157  1  0  0  0
 82158  1  0  0  0
 83159  1  0  0  0
 83160  1  0  0  0
 83161  1  0  0  0
 84162  1  0  0  0
 84163  1  0  0  0
 84164  1  0  0  0
 85165  1  0  0  0
 85166  1  0  0  0
 85167  1  0  0  0
 86 89  1  0  0  0
 86168  1  0  0  0
 86169  1  0  0  0
 86170  1  0  0  0
 87171  1  0  0  0
 87172  1  0  0  0
 87 90  1  0  0  0
 90173  1  0  0  0
M  CHG  1  90   1
M  ISO  4   1 100  68 101  88 101  89 100
M  END
> <chiral flag>
0

> <version>
0

> <s_m_source_file>
/data/baiqing/PycharmProjects/Reinvent-master-3.2/result/LINK_invent/BTK/process_docking_weight1_custom_product_contain_oxygen_bond_distance_aromatic_linkinvent_7_9_3/rearranged_h_0049.sdf

> <i_m_source_file_index>
61

> <r_mmod_Potential_Energy-OPLS-2005>
215.60986328125

> <r_mmod_Stretch_Energy-OPLS-2005>
82.0220031738281

> <r_mmod_Bend_Energy-OPLS-2005>
217.852920532227

> <r_mmod_Torsional_Energy-OPLS-2005>
394.373962402344

> <r_mmod_Improper_Torsional_Energy-OPLS-2005>
23.7758178710938

> <r_mmod_Van_der_Waal_Energy-OPLS-2005>
191.259643554688

> <r_mmod_Electrostatic_Energy-OPLS-2005>
-294.371612548828

> <r_mmod_Solvation_Energy-OPLS-2005>
-446.345703125

> <b_mmod_Minimization_Converged-OPLS-2005>
0

> <r_mmod_RMS_Derivative-OPLS-2005>
8.13148975372314

$$$$
61
                    3D
 Structure written by MMmdl.
157165  0  0  1  0            999 V2000
  -30.7836  -14.5503   20.4860 C   0  0  0  0  0  0
  -30.3985  -12.3340   19.4575 C   0  0  0  0  0  0
  -29.4940  -12.4837   18.2216 C   0  0  0  0  0  0
  -28.0200  -12.3540   18.6381 C   0  0  0  0  0  0
  -27.6591  -13.2338   19.8669 C   0  0  2  0  0  0
  -28.7119  -13.1456   20.9980 C   0  0  0  0  0  0
  -25.2615  -13.8216   20.5728 C   0  0  0  0  0  0
  -24.1877  -13.0476   20.9198 C   0  0  0  0  0  0
  -24.6457  -11.6949   20.8769 C   0  0  0  0  0  0
  -23.9123  -10.4317   21.0433 C   0  0  0  0  0  0
  -24.3661   -9.4221   21.9212 C   0  0  0  0  0  0
  -23.6314   -8.2270   22.0782 C   0  0  0  0  0  0
  -22.4298   -8.0320   21.3559 C   0  0  0  0  0  0
  -21.9943   -9.0308   20.4667 C   0  0  0  0  0  0
  -22.7292  -10.2172   20.3079 C   0  0  0  0  0  0
  -21.6869   -6.0756   22.5277 C   0  0  0  0  0  0
  -21.4009   -6.5652   23.8205 C   0  0  0  0  0  0
  -21.3649   -5.6807   24.9168 C   0  0  0  0  0  0
  -21.6048   -4.3070   24.7225 C   0  0  0  0  0  0
  -21.8814   -3.8162   23.4342 C   0  0  0  0  0  0
  -21.9187   -4.6980   22.3398 C   0  0  0  0  0  0
  -22.7881  -13.5265   21.1797 C   0  0  0  0  0  0
  -22.1669   -4.2164   21.0976 F   0  0  0  0  0  0
  -21.5621   -3.4549   25.7733 F   0  0  0  0  0  0
  -30.0314  -13.4087   20.4015 N   0  0  0  0  0  0
  -26.3071  -12.9433   20.3407 N   0  0  0  0  0  0
  -25.9407  -11.6575   20.5853 N   0  0  0  0  0  0
  -22.0509  -12.8283   22.0355 N   0  0  0  0  0  0
  -25.4332  -15.1922   20.4096 N   0  0  0  0  0  0
  -31.9520  -14.5661   20.1018 O   0  0  0  0  0  0
  -21.6650   -6.8916   21.4252 O   0  0  0  0  0  0
  -22.3570  -14.5571   20.6632 O   0  0  0  0  0  0
  -24.6184  -31.8607   23.2075 C   0  0  0  0  0  0
  -25.9060  -32.4736   23.8361 C   0  0  1  0  0  0
  -27.2383  -27.4087   20.0435 C   0  0  0  0  0  0
  -25.5893  -33.8532   24.2253 N   0  0  0  0  0  0
  -23.4086  -30.4835   21.5474 C   0  0  2  0  0  0
  -24.8603  -28.9533   20.0921 C   0  0  0  0  0  0
  -22.7481  -29.4585   22.4998 C   0  0  0  0  0  0
  -18.0281  -28.1379   22.8512 C   0  0  0  0  0  0
  -24.1481  -36.7320   23.2640 C   0  0  0  0  0  0
  -25.9401  -30.8153   21.3670 C   0  0  0  0  0  0
  -26.0142  -29.4514   20.7031 C   0  0  0  0  0  0
  -27.2047  -28.6746   20.6855 C   0  0  0  0  0  0
  -26.0632  -26.9414   19.4193 C   0  0  0  0  0  0
  -24.8825  -27.7090   19.4413 C   0  0  0  0  0  0
  -23.6178  -29.8147   20.1604 C   0  0  0  0  0  0
  -25.4094  -36.3051   24.0326 C   0  0  1  0  0  0
  -20.5878  -28.3676   23.1281 C   0  0  2  0  0  0
  -20.6770  -26.9391   22.5425 C   0  0  0  0  0  0
  -19.5743  -26.6388   21.5234 C   0  0  0  0  0  0
  -18.1930  -26.7941   22.1656 C   0  0  0  0  0  0
  -19.1520  -28.8865   23.2926 C   0  0  0  0  0  0
  -18.9447  -30.1450   23.8956 C   0  0  0  0  0  0
  -17.6429  -30.6598   24.0554 C   0  0  0  0  0  0
  -25.9007  -34.9409   23.5108 C   0  0  0  0  0  0
  -16.5329  -29.9075   23.6309 C   0  0  0  0  0  0
  -16.7250  -28.6483   23.0363 C   0  0  0  0  0  0
  -26.4515  -31.6543   25.0724 C   0  0  0  0  0  0
  -25.3859  -31.3613   26.1534 C   0  0  0  0  0  0
  -27.0302  -30.2978   24.6069 C   0  0  0  0  0  0
  -27.6056  -32.4309   25.7518 C   0  0  0  0  0  0
  -27.5563  -37.1758   24.8434 C   0  0  0  0  0  0
  -21.4209  -29.3022   22.3714 N   0  0  0  0  0  0
  -26.4263  -37.3749   23.9394 N   0  0  0  0  0  0
  -24.6742  -31.0659   22.1022 N   0  0  0  0  0  0
  -23.4240  -28.8077   23.3020 O   0  0  0  0  0  0
  -28.3516  -26.5961   20.1714 O   0  0  0  0  0  0
  -26.5533  -34.8871   22.4628 O   0  0  0  0  0  0
  -23.5346  -32.1418   23.7400 O   0  0  0  0  0  0
  -30.9759  -19.5394   21.1960 C   0  0  0  0  0  0
  -30.4253  -20.8323   21.0404 C   0  0  0  0  0  0
  -29.0965  -18.5889   20.0025 C   0  0  0  0  0  0
  -30.3122  -18.3919   20.6938 C   0  0  0  0  0  0
  -28.5424  -19.8838   19.8251 C   0  0  0  0  0  0
  -29.1927  -21.0363   20.3703 C   0  0  0  0  0  0
  -28.3540  -24.7424   18.3919 C   0  0  0  0  0  0
  -28.1408  -23.4690   18.8170 C   0  0  0  0  0  0
  -27.2367  -19.9679   19.0612 C   0  0  0  0  0  0
  -30.9902  -17.0099   20.8147 C   0  0  0  0  0  0
  -29.0025  -25.9634   19.0495 C   0  0  0  0  0  0
  -30.2014  -15.7368   20.8089 N   0  0  0  0  0  0
  -27.1010  -22.5647   21.0658 O   0  0  0  0  0  0
  -29.3875  -23.6226   21.1711 O   0  0  0  0  0  0
  -28.4441  -22.7325   20.4735 S   0  0  0  0  0  0
  -31.4491  -12.3522   19.1685 H   0  0  0  0  0  0
  -30.2365  -11.3575   19.9192 H   0  0  0  0  0  0
  -29.7364  -11.7221   17.4795 H   0  0  0  0  0  0
  -29.6683  -13.4495   17.7417 H   0  0  0  0  0  0
  -27.8383  -11.3015   18.8595 H   0  0  0  0  0  0
  -27.3671  -12.5969   17.7990 H   0  0  0  0  0  0
  -27.6681  -14.2645   19.5154 H   0  0  0  0  0  0
  -28.7037  -12.1602   21.4675 H   0  0  0  0  0  0
  -28.4868  -13.8613   21.7931 H   0  0  0  0  0  0
  -25.2809   -9.5670   22.4795 H   0  0  0  0  0  0
  -24.0011   -7.4650   22.7498 H   0  0  0  0  0  0
  -21.0876   -8.8835   19.8979 H   0  0  0  0  0  0
  -22.3767  -10.9724   19.6190 H   0  0  0  0  0  0
  -21.2012   -7.6163   23.9710 H   0  0  0  0  0  0
  -21.1472   -6.0539   25.9065 H   0  0  0  0  0  0
  -22.0602   -2.7629   23.2830 H   0  0  0  0  0  0
  -22.4130  -11.9974   22.4778 H   0  0  0  0  0  0
  -21.1117  -13.1309   22.2523 H   0  0  0  0  0  0
  -24.6673  -15.8513   20.4973 H   0  0  0  0  0  0
  -26.2920  -15.6258   20.0953 H   0  0  0  0  0  0
  -26.7067  -32.5448   23.1048 H   0  0  0  0  0  0
  -25.0035  -33.9602   25.0402 H   0  0  0  0  0  0
  -22.7079  -31.3107   21.4024 H   0  0  0  0  0  0
  -23.3705  -35.9677   23.3247 H   0  0  0  0  0  0
  -24.3627  -36.9056   22.2078 H   0  0  0  0  0  0
  -23.7290  -37.6524   23.6714 H   0  0  0  0  0  0
  -26.0421  -31.5876   20.6041 H   0  0  0  0  0  0
  -26.8355  -30.8712   21.9761 H   0  0  0  0  0  0
  -28.0871  -29.0340   21.1884 H   0  0  0  0  0  0
  -26.0321  -25.9700   18.9417 H   0  0  0  0  0  0
  -23.9929  -27.3342   18.9507 H   0  0  0  0  0  0
  -23.6999  -30.5902   19.3985 H   0  0  0  0  0  0
  -22.7547  -29.2092   19.8734 H   0  0  0  0  0  0
  -25.1273  -36.1885   25.0818 H   0  0  0  0  0  0
  -20.9960  -28.3197   24.1375 H   0  0  0  0  0  0
  -20.5726  -26.2280   23.3636 H   0  0  0  0  0  0
  -21.6654  -26.7466   22.1188 H   0  0  0  0  0  0
  -19.6950  -25.6334   21.1188 H   0  0  0  0  0  0
  -19.6648  -27.3267   20.6800 H   0  0  0  0  0  0
  -17.4223  -26.6713   21.3997 H   0  0  0  0  0  0
  -18.0297  -26.0083   22.9031 H   0  0  0  0  0  0
  -19.7891  -30.7270   24.2409 H   0  0  0  0  0  0
  -17.4932  -31.6252   24.5163 H   0  0  0  0  0  0
  -15.5332  -30.2977   23.7579 H   0  0  0  0  0  0
  -15.8650  -28.0758   22.7082 H   0  0  0  0  0  0
  -24.6056  -30.6902   25.7900 H   0  0  0  0  0  0
  -24.9039  -32.2746   26.5013 H   0  0  0  0  0  0
  -25.8331  -30.8824   27.0268 H   0  0  0  0  0  0
  -26.2747  -29.6807   24.1169 H   0  0  0  0  0  0
  -27.4113  -29.7155   25.4465 H   0  0  0  0  0  0
  -27.8594  -30.4263   23.9119 H   0  0  0  0  0  0
  -27.2596  -33.3593   26.2067 H   0  0  0  0  0  0
  -28.3883  -32.6928   25.0391 H   0  0  0  0  0  0
  -28.0723  -31.8495   26.5473 H   0  0  0  0  0  0
  -28.2472  -38.0139   24.7515 H   0  0  0  0  0  0
  -28.1150  -36.2649   24.6179 H   0  0  0  0  0  0
  -27.2276  -37.1377   25.8837 H   0  0  0  0  0  0
  -20.9476  -29.8739   21.6828 H   0  0  0  0  0  0
  -26.0154  -38.2807   24.1484 H   0  0  0  0  0  0
  -31.9214  -19.4357   21.7142 H   0  0  0  0  0  0
  -30.9447  -21.6749   21.4783 H   0  0  0  0  0  0
  -28.5874  -17.7277   19.5973 H   0  0  0  0  0  0
  -28.0419  -24.9390   17.3745 H   0  0  0  0  0  0
  -27.7183  -22.7757   18.1143 H   0  0  0  0  0  0
  -27.0997  -19.1025   18.4104 H   0  0  0  0  0  0
  -27.2165  -20.8242   18.4030 H   0  0  0  0  0  0
  -26.3972  -20.0353   19.7519 H   0  0  0  0  0  0
  -31.6580  -17.0056   21.6799 H   0  0  0  0  0  0
  -31.6587  -17.0113   19.9497 H   0  0  0  0  0  0
  -29.2134  -26.7072   18.2744 H   0  0  0  0  0  0
  -29.9822  -25.6299   19.3935 H   0  0  0  0  0  0
  -29.2340  -15.7649   21.0884 H   0  0  0  0  0  0
  1 25  1  0  0  0
  1 30  2  0  0  0
  1 82  1  0  0  0
  2  3  1  0  0  0
  2 25  1  0  0  0
  2 86  1  0  0  0
  2 87  1  0  0  0
  3  4  1  0  0  0
  3 88  1  0  0  0
  3 89  1  0  0  0
  4  5  1  0  0  0
  4 90  1  0  0  0
  4 91  1  0  0  0
  5  6  1  0  0  0
  5 26  1  0  0  0
  5 92  1  0  0  0
  6 25  1  0  0  0
  6 93  1  0  0  0
  6 94  1  0  0  0
  7  8  2  0  0  0
  7 26  1  0  0  0
  7 29  1  0  0  0
  8  9  1  0  0  0
  8 22  1  0  0  0
  9 10  1  0  0  0
  9 27  2  0  0  0
 10 11  2  0  0  0
 10 15  1  0  0  0
 11 12  1  0  0  0
 11 95  1  0  0  0
 12 13  2  0  0  0
 12 96  1  0  0  0
 13 14  1  0  0  0
 13 31  1  0  0  0
 14 15  2  0  0  0
 14 97  1  0  0  0
 15 98  1  0  0  0
 16 17  2  0  0  0
 16 21  1  0  0  0
 16 31  1  0  0  0
 17 18  1  0  0  0
 17 99  1  0  0  0
 18 19  2  0  0  0
 18100  1  0  0  0
 19 20  1  0  0  0
 19 24  1  0  0  0
 20 21  2  0  0  0
 20101  1  0  0  0
 21 23  1  0  0  0
 22 28  1  0  0  0
 22 32  2  0  0  0
 26 27  1  0  0  0
 28102  1  0  0  0
 28103  1  0  0  0
 29104  1  0  0  0
 29105  1  0  0  0
 33 34  1  0  0  0
 33 66  1  0  0  0
 33 70  2  0  0  0
 34 36  1  0  0  0
 34 59  1  0  0  0
 34106  1  0  0  0
 35 44  2  0  0  0
 35 45  1  0  0  0
 35 68  1  0  0  0
 36 56  1  0  0  0
 36107  1  0  0  0
 37 39  1  0  0  0
 37 47  1  0  0  0
 37 66  1  0  0  0
 37108  1  0  0  0
 38 43  2  0  0  0
 38 46  1  0  0  0
 38 47  1  0  0  0
 39 64  1  0  0  0
 39 67  2  0  0  0
 40 52  1  0  0  0
 40 53  2  0  0  0
 40 58  1  0  0  0
 41109  1  0  0  0
 41110  1  0  0  0
 41111  1  0  0  0
 41 48  1  0  0  0
 42 43  1  0  0  0
 42 66  1  0  0  0
 42112  1  0  0  0
 42113  1  0  0  0
 43 44  1  0  0  0
 44114  1  0  0  0
 45 46  2  0  0  0
 45115  1  0  0  0
 46116  1  0  0  0
 47117  1  0  0  0
 47118  1  0  0  0
 48 56  1  0  0  0
 48 65  1  0  0  0
 48119  1  0  0  0
 49 50  1  0  0  0
 49 53  1  0  0  0
 49 64  1  0  0  0
 49120  1  0  0  0
 50 51  1  0  0  0
 50121  1  0  0  0
 50122  1  0  0  0
 51 52  1  0  0  0
 51123  1  0  0  0
 51124  1  0  0  0
 52125  1  0  0  0
 52126  1  0  0  0
 53 54  1  0  0  0
 54 55  2  0  0  0
 54127  1  0  0  0
 55 57  1  0  0  0
 55128  1  0  0  0
 56 69  2  0  0  0
 57 58  2  0  0  0
 57129  1  0  0  0
 58130  1  0  0  0
 59 60  1  0  0  0
 59 61  1  0  0  0
 59 62  1  0  0  0
 60131  1  0  0  0
 60132  1  0  0  0
 60133  1  0  0  0
 61134  1  0  0  0
 61135  1  0  0  0
 61136  1  0  0  0
 62137  1  0  0  0
 62138  1  0  0  0
 62139  1  0  0  0
 63 65  1  0  0  0
 63140  1  0  0  0
 63141  1  0  0  0
 63142  1  0  0  0
 64143  1  0  0  0
 65144  1  0  0  0
 68 81  1  0  0  0
 71 72  2  0  0  0
 71 74  1  0  0  0
 71145  1  0  0  0
 72 76  1  0  0  0
 72146  1  0  0  0
 73 74  2  0  0  0
 73 75  1  0  0  0
 73147  1  0  0  0
 74 80  1  0  0  0
 75 76  2  0  0  0
 75 79  1  0  0  0
 76 85  1  0  0  0
 77 78  2  0  0  0
 77 81  1  0  0  0
 77148  1  0  0  0
 78149  1  0  0  0
 78 85  1  0  0  0
 79150  1  0  0  0
 79151  1  0  0  0
 79152  1  0  0  0
 80 82  1  0  0  0
 80153  1  0  0  0
 80154  1  0  0  0
 81155  1  0  0  0
 81156  1  0  0  0
 82157  1  0  0  0
 83 85  2  0  0  0
 84 85  2  0  0  0
M  ISO  4   1 100  68 101  81 101  82 100
M  END
> <chiral flag>
0

> <version>
0

> <s_m_source_file>
/data/baiqing/PycharmProjects/Reinvent-master-3.2/result/LINK_invent/BTK/process_docking_weight1_custom_product_contain_oxygen_bond_distance_aromatic_linkinvent_7_9_3/rearranged_h_0049.sdf

> <i_m_source_file_index>
62

> <r_mmod_Potential_Energy-OPLS-2005>
-8.62768650054932

> <r_mmod_Stretch_Energy-OPLS-2005>
54.3065376281738

> <r_mmod_Bend_Energy-OPLS-2005>
166.894287109375

> <r_mmod_Torsional_Energy-OPLS-2005>
206.900253295898

> <r_mmod_Improper_Torsional_Energy-OPLS-2005>
5.99608659744263

> <r_mmod_Van_der_Waal_Energy-OPLS-2005>
137.479263305664

> <r_mmod_Electrostatic_Energy-OPLS-2005>
-359.494079589844

> <r_mmod_Solvation_Energy-OPLS-2005>
-257.376007080078

> <b_mmod_Minimization_Converged-OPLS-2005>
0

> <r_mmod_RMS_Derivative-OPLS-2005>
8.38070011138916

$$$$
62
                    3D
 Structure written by MMmdl.
167175  0  0  1  0            999 V2000
  -30.2657  -15.3629   20.3564 C   0  0  0  0  0  0
  -30.4324  -12.8715   19.5558 C   0  0  0  0  0  0
  -29.5415  -12.5944   18.3141 C   0  0  0  0  0  0
  -28.1009  -12.2856   18.7471 C   0  0  0  0  0  0
  -27.6045  -13.2710   19.8298 C   0  0  2  0  0  0
  -28.6141  -13.4688   20.9805 C   0  0  0  0  0  0
  -25.2404  -13.8258   20.5851 C   0  0  0  0  0  0
  -24.1743  -13.0439   20.9277 C   0  0  0  0  0  0
  -24.6389  -11.6935   20.8742 C   0  0  0  0  0  0
  -23.9105  -10.4294   21.0382 C   0  0  0  0  0  0
  -24.3646   -9.4209   21.9168 C   0  0  0  0  0  0
  -23.6311   -8.2254   22.0763 C   0  0  0  0  0  0
  -22.4296   -8.0299   21.3549 C   0  0  0  0  0  0
  -21.9925   -9.0279   20.4655 C   0  0  0  0  0  0
  -22.7269  -10.2145   20.3047 C   0  0  0  0  0  0
  -21.6867   -6.0748   22.5287 C   0  0  0  0  0  0
  -21.4004   -6.5646   23.8212 C   0  0  0  0  0  0
  -21.3642   -5.6797   24.9168 C   0  0  0  0  0  0
  -21.6042   -4.3063   24.7221 C   0  0  0  0  0  0
  -21.8833   -3.8166   23.4343 C   0  0  0  0  0  0
  -21.9206   -4.6980   22.3398 C   0  0  0  0  0  0
  -22.7770  -13.5198   21.1923 C   0  0  0  0  0  0
  -22.1690   -4.2175   21.0971 F   0  0  0  0  0  0
  -21.5620   -3.4541   25.7722 F   0  0  0  0  0  0
  -29.8303  -14.0017   20.3713 N   0  0  0  0  0  0
  -26.2767  -12.9502   20.3191 N   0  0  0  0  0  0
  -25.9305  -11.6608   20.5667 N   0  0  0  0  0  0
  -22.0413  -12.8191   22.0461 N   0  0  0  0  0  0
  -25.4154  -15.2019   20.4611 N   0  0  0  0  0  0
  -31.4601  -15.4388   20.0058 O   0  0  0  0  0  0
  -21.6672   -6.8892   21.4253 O   0  0  0  0  0  0
  -22.3443  -14.5500   20.6762 O   0  0  0  0  0  0
  -24.6106  -31.8419   23.2025 C   0  0  0  0  0  0
  -25.8993  -32.4645   23.8339 C   0  0  1  0  0  0
  -27.7525  -27.0197   19.8571 C   0  0  0  0  0  0
  -25.5863  -33.8521   24.2223 N   0  0  0  0  0  0
  -23.4006  -30.4099   21.5658 C   0  0  2  0  0  0
  -24.6775  -28.5473   20.2926 C   0  0  0  0  0  0
  -22.7207  -29.4443   22.5442 C   0  0  0  0  0  0
  -18.0212  -28.1372   22.8568 C   0  0  0  0  0  0
  -24.1504  -36.7295   23.2633 C   0  0  0  0  0  0
  -25.9419  -30.5923   21.5110 C   0  0  0  0  0  0
  -26.0182  -29.1192   21.1085 C   0  0  0  0  0  0
  -27.5396  -28.3725   20.9539 C   0  0  0  0  0  0
  -26.3338  -26.4172   18.9384 C   0  0  0  0  0  0
  -24.7799  -27.2083   19.1971 C   0  0  0  0  0  0
  -23.5733  -29.6000   20.2410 C   0  0  0  0  0  0
  -25.4133  -36.3052   24.0306 C   0  0  1  0  0  0
  -20.5703  -28.3619   23.1519 C   0  0  2  0  0  0
  -20.6686  -26.9418   22.5490 C   0  0  0  0  0  0
  -19.5705  -26.6499   21.5230 C   0  0  0  0  0  0
  -18.1948  -26.7891   22.1777 C   0  0  0  0  0  0
  -19.1407  -28.8827   23.3002 C   0  0  0  0  0  0
  -18.9339  -30.1470   23.8935 C   0  0  0  0  0  0
  -17.6363  -30.6649   24.0508 C   0  0  0  0  0  0
  -25.9054  -34.9398   23.5075 C   0  0  0  0  0  0
  -16.5266  -29.9120   23.6265 C   0  0  0  0  0  0
  -16.7206  -28.6508   23.0381 C   0  0  0  0  0  0
  -26.4485  -31.6568   25.0769 C   0  0  0  0  0  0
  -25.3715  -31.3778   26.1471 C   0  0  0  0  0  0
  -27.0382  -30.2933   24.6467 C   0  0  0  0  0  0
  -27.6026  -32.4392   25.7517 C   0  0  0  0  0  0
  -27.5585  -37.1765   24.8446 C   0  0  0  0  0  0
  -21.3969  -29.3043   22.4088 N   0  0  0  0  0  0
  -26.4297  -37.3737   23.9399 N   0  0  0  0  0  0
  -24.6653  -30.9858   22.1353 N   0  0  0  0  0  0
  -23.3884  -28.8072   23.3609 O   0  0  0  0  0  0
  -28.9608  -26.4778   19.7594 O   0  0  0  0  0  0
  -26.5623  -34.8855   22.4645 O   0  0  0  0  0  0
  -23.5260  -32.1646   23.7097 O   0  0  0  0  0  0
  -27.6746  -19.2712   18.4449 C   0  0  0  0  0  0
  -27.4764  -20.4904   19.1546 C   0  0  0  0  0  0
  -28.3684  -18.1315   18.9471 C   0  0  0  0  0  0
  -28.0075  -20.7353   20.4410 C   0  0  0  0  0  0
  -28.7751  -19.4532   20.9200 C   0  0  0  0  0  0
  -28.9579  -18.0620   20.2332 C   0  0  0  0  0  0
  -27.6949  -22.2525   21.1642 C   0  0  0  0  0  0
  -26.5679  -28.7857   18.7680 C   0  0  0  0  0  0
  -29.5697  -19.6113   22.1979 C   0  0  0  0  0  0
  -25.9250  -26.7227   21.1354 C   0  0  0  0  0  0
  -29.9458  -27.8193   17.9951 C   0  0  0  0  0  0
  -26.7571  -25.0438   21.4477 C   0  0  0  0  0  0
  -29.2112  -29.0835   18.5097 C   0  0  0  0  0  0
  -29.3871  -26.4419   18.4115 C   0  0  0  0  0  0
  -29.4267  -16.5612   20.7208 N   0  0  0  0  0  0
  -27.0454  -23.5318   20.7203 N   0  0  0  0  0  0
  -27.7709  -29.1622   18.1975 N   0  0  0  0  0  0
  -28.0975  -22.3065   22.3248 O   0  0  0  0  0  0
  -25.7222  -29.3729   18.0610 O   0  0  0  0  0  0
  -31.4420  -13.1105   19.2182 H   0  0  0  0  0  0
  -30.5345  -11.9718   20.1657 H   0  0  0  0  0  0
  -29.9444  -11.7668   17.7294 H   0  0  0  0  0  0
  -29.5513  -13.4678   17.6564 H   0  0  0  0  0  0
  -28.0893  -11.2722   19.1538 H   0  0  0  0  0  0
  -27.4325  -12.2779   17.8870 H   0  0  0  0  0  0
  -27.5173  -14.2299   19.3121 H   0  0  0  0  0  0
  -28.8046  -12.5544   21.5461 H   0  0  0  0  0  0
  -28.2246  -14.2056   21.6851 H   0  0  0  0  0  0
  -25.2784   -9.5716   22.4744 H   0  0  0  0  0  0
  -24.0037   -7.4652   22.7480 H   0  0  0  0  0  0
  -21.0846   -8.8804   19.8969 H   0  0  0  0  0  0
  -22.3711  -10.9702   19.6177 H   0  0  0  0  0  0
  -21.1992   -7.6158   23.9707 H   0  0  0  0  0  0
  -21.1436   -6.0526   25.9056 H   0  0  0  0  0  0
  -22.0625   -2.7643   23.2838 H   0  0  0  0  0  0
  -22.4017  -11.9850   22.4853 H   0  0  0  0  0  0
  -21.1015  -13.1220   22.2614 H   0  0  0  0  0  0
  -24.6738  -15.8546   20.6815 H   0  0  0  0  0  0
  -26.2861  -15.6674   20.2398 H   0  0  0  0  0  0
  -26.7010  -32.5283   23.1030 H   0  0  0  0  0  0
  -25.0054  -33.9773   25.0386 H   0  0  0  0  0  0
  -22.7123  -31.2327   21.3653 H   0  0  0  0  0  0
  -23.3752  -35.9620   23.3264 H   0  0  0  0  0  0
  -24.3633  -36.8958   22.2046 H   0  0  0  0  0  0
  -23.7235  -37.6484   23.6701 H   0  0  0  0  0  0
  -26.0554  -31.1876   20.6054 H   0  0  0  0  0  0
  -26.8331  -30.7692   22.0949 H   0  0  0  0  0  0
  -28.3886  -28.7872   21.4742 H   0  0  0  0  0  0
  -26.4159  -25.5830   18.2536 H   0  0  0  0  0  0
  -23.9289  -26.9116   18.6016 H   0  0  0  0  0  0
  -23.8036  -30.2942   19.4324 H   0  0  0  0  0  0
  -22.6388  -29.1165   19.9535 H   0  0  0  0  0  0
  -25.1306  -36.1933   25.0786 H   0  0  0  0  0  0
  -20.9687  -28.3113   24.1670 H   0  0  0  0  0  0
  -20.5525  -26.2233   23.3614 H   0  0  0  0  0  0
  -21.6591  -26.7519   22.1334 H   0  0  0  0  0  0
  -19.6855  -25.6459   21.1163 H   0  0  0  0  0  0
  -19.6568  -27.3459   20.6872 H   0  0  0  0  0  0
  -17.4123  -26.6342   21.4347 H   0  0  0  0  0  0
  -18.0612  -26.0140   22.9313 H   0  0  0  0  0  0
  -19.7823  -30.7275   24.2270 H   0  0  0  0  0  0
  -17.4923  -31.6382   24.4992 H   0  0  0  0  0  0
  -15.5265  -30.3057   23.7514 H   0  0  0  0  0  0
  -15.8592  -28.0838   22.7116 H   0  0  0  0  0  0
  -24.5847  -30.7188   25.7783 H   0  0  0  0  0  0
  -24.8962  -32.2965   26.4901 H   0  0  0  0  0  0
  -25.7987  -30.8923   27.0239 H   0  0  0  0  0  0
  -26.2977  -29.6539   24.1620 H   0  0  0  0  0  0
  -27.4049  -29.7364   25.5099 H   0  0  0  0  0  0
  -27.8901  -30.4111   23.9768 H   0  0  0  0  0  0
  -27.2599  -33.3675   26.2107 H   0  0  0  0  0  0
  -28.3807  -32.6973   25.0328 H   0  0  0  0  0  0
  -28.0728  -31.8532   26.5417 H   0  0  0  0  0  0
  -28.2551  -38.0111   24.7533 H   0  0  0  0  0  0
  -28.1144  -36.2632   24.6250 H   0  0  0  0  0  0
  -27.2316  -37.1357   25.8851 H   0  0  0  0  0  0
  -20.9314  -29.8797   21.7210 H   0  0  0  0  0  0
  -26.0192  -38.2805   24.1437 H   0  0  0  0  0  0
  -27.2297  -19.1959   17.4593 H   0  0  0  0  0  0
  -26.8958  -21.2678   18.6746 H   0  0  0  0  0  0
  -28.3934  -17.2583   18.3151 H   0  0  0  0  0  0
  -28.9509  -19.9289   23.0325 H   0  0  0  0  0  0
  -30.3304  -20.3772   22.0359 H   0  0  0  0  0  0
  -30.0882  -18.6873   22.4572 H   0  0  0  0  0  0
  -24.8940  -26.3626   21.2662 H   0  0  0  0  0  0
  -25.9539  -27.0994   22.1729 H   0  0  0  0  0  0
  -30.9783  -27.8914   18.3378 H   0  0  0  0  0  0
  -30.0077  -27.8514   16.9078 H   0  0  0  0  0  0
  -26.3230  -24.7370   22.4036 H   0  0  0  0  0  0
  -27.7623  -25.3247   21.7739 H   0  0  0  0  0  0
  -29.6843  -29.9438   18.0332 H   0  0  0  0  0  0
  -29.4196  -29.2520   19.5613 H   0  0  0  0  0  0
  -30.1685  -25.6874   18.3285 H   0  0  0  0  0  0
  -28.5947  -26.1263   17.7311 H   0  0  0  0  0  0
  -28.7240  -16.2100   21.3564 H   0  0  0  0  0  0
  -26.7682  -23.5040   19.7482 H   0  0  0  0  0  0
  -27.5981  -29.7157   17.3727 H   0  0  0  0  0  0
  1 25  1  0  0  0
  1 30  2  0  0  0
  1 85  1  0  0  0
  2  3  1  0  0  0
  2 25  1  0  0  0
  2 90  1  0  0  0
  2 91  1  0  0  0
  3  4  1  0  0  0
  3 92  1  0  0  0
  3 93  1  0  0  0
  4  5  1  0  0  0
  4 94  1  0  0  0
  4 95  1  0  0  0
  5  6  1  0  0  0
  5 26  1  0  0  0
  5 96  1  0  0  0
  6 25  1  0  0  0
  6 97  1  0  0  0
  6 98  1  0  0  0
  7  8  2  0  0  0
  7 26  1  0  0  0
  7 29  1  0  0  0
  8  9  1  0  0  0
  8 22  1  0  0  0
  9 10  1  0  0  0
  9 27  2  0  0  0
 10 11  2  0  0  0
 10 15  1  0  0  0
 11 12  1  0  0  0
 11 99  1  0  0  0
 12 13  2  0  0  0
 12100  1  0  0  0
 13 14  1  0  0  0
 13 31  1  0  0  0
 14 15  2  0  0  0
 14101  1  0  0  0
 15102  1  0  0  0
 16 17  2  0  0  0
 16 21  1  0  0  0
 16 31  1  0  0  0
 17 18  1  0  0  0
 17103  1  0  0  0
 18 19  2  0  0  0
 18104  1  0  0  0
 19 20  1  0  0  0
 19 24  1  0  0  0
 20 21  2  0  0  0
 20105  1  0  0  0
 21 23  1  0  0  0
 22 28  1  0  0  0
 22 32  2  0  0  0
 26 27  1  0  0  0
 28106  1  0  0  0
 28107  1  0  0  0
 29108  1  0  0  0
 29109  1  0  0  0
 33 34  1  0  0  0
 33 66  1  0  0  0
 33 70  2  0  0  0
 34 36  1  0  0  0
 34 59  1  0  0  0
 34110  1  0  0  0
 35 44  2  0  0  0
 35 45  1  0  0  0
 35 68  1  0  0  0
 36 56  1  0  0  0
 36111  1  0  0  0
 37 39  1  0  0  0
 37 47  1  0  0  0
 37 66  1  0  0  0
 37112  1  0  0  0
 38 43  2  0  0  0
 38 46  1  0  0  0
 38 47  1  0  0  0
 39 64  1  0  0  0
 39 67  2  0  0  0
 40 52  1  0  0  0
 40 53  2  0  0  0
 40 58  1  0  0  0
 41113  1  0  0  0
 41114  1  0  0  0
 41115  1  0  0  0
 41 48  1  0  0  0
 42 43  1  0  0  0
 42 66  1  0  0  0
 42116  1  0  0  0
 42117  1  0  0  0
 43 44  1  0  0  0
 44118  1  0  0  0
 45 46  2  0  0  0
 45119  1  0  0  0
 46120  1  0  0  0
 47121  1  0  0  0
 47122  1  0  0  0
 48 56  1  0  0  0
 48 65  1  0  0  0
 48123  1  0  0  0
 49 50  1  0  0  0
 49 53  1  0  0  0
 49 64  1  0  0  0
 49124  1  0  0  0
 50 51  1  0  0  0
 50125  1  0  0  0
 50126  1  0  0  0
 51 52  1  0  0  0
 51127  1  0  0  0
 51128  1  0  0  0
 52129  1  0  0  0
 52130  1  0  0  0
 53 54  1  0  0  0
 54 55  2  0  0  0
 54131  1  0  0  0
 55 57  1  0  0  0
 55132  1  0  0  0
 56 69  2  0  0  0
 57 58  2  0  0  0
 57133  1  0  0  0
 58134  1  0  0  0
 59 60  1  0  0  0
 59 61  1  0  0  0
 59 62  1  0  0  0
 60135  1  0  0  0
 60136  1  0  0  0
 60137  1  0  0  0
 61138  1  0  0  0
 61139  1  0  0  0
 61140  1  0  0  0
 62141  1  0  0  0
 62142  1  0  0  0
 62143  1  0  0  0
 63 65  1  0  0  0
 63144  1  0  0  0
 63145  1  0  0  0
 63146  1  0  0  0
 64147  1  0  0  0
 65148  1  0  0  0
 68 84  1  0  0  0
 71 72  2  0  0  0
 71 73  1  0  0  0
 71149  1  0  0  0
 72 74  1  0  0  0
 72150  1  0  0  0
 73 76  2  0  0  0
 73151  1  0  0  0
 74 75  2  0  0  0
 74 77  1  0  0  0
 75 76  1  0  0  0
 75 79  1  0  0  0
 76 85  1  0  0  0
 77 86  1  0  0  0
 77 88  2  0  0  0
 78 80  1  0  0  0
 78 87  1  0  0  0
 78 89  2  0  0  0
 79152  1  0  0  0
 79153  1  0  0  0
 79154  1  0  0  0
 80 82  1  0  0  0
 80155  1  0  0  0
 80156  1  0  0  0
 81 83  1  0  0  0
 81 84  1  0  0  0
 81157  1  0  0  0
 81158  1  0  0  0
 82 86  1  0  0  0
 82159  1  0  0  0
 82160  1  0  0  0
 83 87  1  0  0  0
 83161  1  0  0  0
 83162  1  0  0  0
 84163  1  0  0  0
 84164  1  0  0  0
 85165  1  0  0  0
 86166  1  0  0  0
 87167  1  0  0  0
M  ISO  4   1 100  68 101  84 101  85 100
M  END
> <chiral flag>
0

> <version>
0

> <s_m_source_file>
/data/baiqing/PycharmProjects/Reinvent-master-3.2/result/LINK_invent/BTK/process_docking_weight1_custom_product_contain_oxygen_bond_distance_aromatic_linkinvent_7_9_3/rearranged_h_0049.sdf

> <i_m_source_file_index>
63

> <r_mmod_Potential_Energy-OPLS-2005>
9117.4580078125

> <r_mmod_Stretch_Energy-OPLS-2005>
5813.9375

> <r_mmod_Bend_Energy-OPLS-2005>
611.910888671875

> <r_mmod_Torsional_Energy-OPLS-2005>
324.616851806641

> <r_mmod_Improper_Torsional_Energy-OPLS-2005>
15.7571773529053

> <r_mmod_Van_der_Waal_Energy-OPLS-2005>
2399.29809570312

> <r_mmod_Electrostatic_Energy-OPLS-2005>
-467.113739013672

> <r_mmod_Solvation_Energy-OPLS-2005>
-249.73210144043

> <b_mmod_Minimization_Converged-OPLS-2005>
0

> <r_mmod_RMS_Derivative-OPLS-2005>
9.69398307800293

$$$$
63
                    3D
 Structure written by MMmdl.
157165  0  0  1  0            999 V2000
  -30.6615  -14.5443   20.5585 C   0  0  0  0  0  0
  -30.4330  -12.3521   19.4222 C   0  0  0  0  0  0
  -29.4966  -12.5046   18.2049 C   0  0  0  0  0  0
  -28.0196  -12.3510   18.6222 C   0  0  0  0  0  0
  -27.6557  -13.2072   19.8647 C   0  0  2  0  0  0
  -28.7003  -13.0170   20.9858 C   0  0  0  0  0  0
  -25.2574  -13.8155   20.5673 C   0  0  0  0  0  0
  -24.1832  -13.0432   20.9182 C   0  0  0  0  0  0
  -24.6387  -11.6900   20.8736 C   0  0  0  0  0  0
  -23.9056  -10.4288   21.0407 C   0  0  0  0  0  0
  -24.3611   -9.4204   21.9185 C   0  0  0  0  0  0
  -23.6288   -8.2240   22.0754 C   0  0  0  0  0  0
  -22.4270   -8.0278   21.3544 C   0  0  0  0  0  0
  -21.9903   -9.0252   20.4647 C   0  0  0  0  0  0
  -22.7230  -10.2131   20.3056 C   0  0  0  0  0  0
  -21.6851   -6.0734   22.5280 C   0  0  0  0  0  0
  -21.4013   -6.5639   23.8213 C   0  0  0  0  0  0
  -21.3659   -5.6792   24.9176 C   0  0  0  0  0  0
  -21.6044   -4.3055   24.7226 C   0  0  0  0  0  0
  -21.8820   -3.8146   23.4348 C   0  0  0  0  0  0
  -21.9192   -4.6962   22.3403 C   0  0  0  0  0  0
  -22.7857  -13.5233   21.1851 C   0  0  0  0  0  0
  -22.1661   -4.2148   21.0981 F   0  0  0  0  0  0
  -21.5629   -3.4539   25.7739 F   0  0  0  0  0  0
  -30.0191  -13.3489   20.4231 N   0  0  0  0  0  0
  -26.2995  -12.9320   20.3319 N   0  0  0  0  0  0
  -25.9310  -11.6483   20.5750 N   0  0  0  0  0  0
  -22.0498  -12.8227   22.0408 N   0  0  0  0  0  0
  -25.4298  -15.1875   20.4085 N   0  0  0  0  0  0
  -31.8167  -14.7241   20.1638 O   0  0  0  0  0  0
  -21.6636   -6.8875   21.4240 O   0  0  0  0  0  0
  -22.3544  -14.5543   20.6703 O   0  0  0  0  0  0
  -24.6190  -31.8649   23.2065 C   0  0  0  0  0  0
  -25.9067  -32.4805   23.8376 C   0  0  1  0  0  0
  -27.2303  -27.3873   20.1107 C   0  0  0  0  0  0
  -25.5909  -33.8603   24.2308 N   0  0  0  0  0  0
  -23.4092  -30.4874   21.5486 C   0  0  2  0  0  0
  -24.8557  -28.9425   20.1215 C   0  0  0  0  0  0
  -22.7430  -29.4649   22.4981 C   0  0  0  0  0  0
  -18.0274  -28.1378   22.8492 C   0  0  0  0  0  0
  -24.1489  -36.7309   23.2639 C   0  0  0  0  0  0
  -25.9424  -30.8162   21.3662 C   0  0  0  0  0  0
  -26.0199  -29.4447   20.7179 C   0  0  0  0  0  0
  -27.2132  -28.6767   20.7045 C   0  0  0  0  0  0
  -26.0480  -26.9093   19.5108 C   0  0  0  0  0  0
  -24.8665  -27.6753   19.5142 C   0  0  0  0  0  0
  -23.6208  -29.8166   20.1656 C   0  0  0  0  0  0
  -25.4110  -36.3101   24.0334 C   0  0  1  0  0  0
  -20.5867  -28.3673   23.1307 C   0  0  2  0  0  0
  -20.6767  -26.9406   22.5416 C   0  0  0  0  0  0
  -19.5746  -26.6386   21.5213 C   0  0  0  0  0  0
  -18.1922  -26.7924   22.1624 C   0  0  0  0  0  0
  -19.1524  -28.8842   23.2896 C   0  0  0  0  0  0
  -18.9453  -30.1446   23.8909 C   0  0  0  0  0  0
  -17.6456  -30.6587   24.0565 C   0  0  0  0  0  0
  -25.9041  -34.9467   23.5121 C   0  0  0  0  0  0
  -16.5346  -29.9089   23.6327 C   0  0  0  0  0  0
  -16.7263  -28.6503   23.0352 C   0  0  0  0  0  0
  -26.4481  -31.6590   25.0715 C   0  0  0  0  0  0
  -25.3737  -31.3701   26.1457 C   0  0  0  0  0  0
  -27.0314  -30.3027   24.6109 C   0  0  0  0  0  0
  -27.6054  -32.4313   25.7480 C   0  0  0  0  0  0
  -27.5580  -37.1808   24.8465 C   0  0  0  0  0  0
  -21.4154  -29.3037   22.3714 N   0  0  0  0  0  0
  -26.4294  -37.3787   23.9407 N   0  0  0  0  0  0
  -24.6753  -31.0715   22.0984 N   0  0  0  0  0  0
  -23.4182  -28.8193   23.3041 O   0  0  0  0  0  0
  -28.3836  -26.6220   20.0480 O   0  0  0  0  0  0
  -26.5608  -34.8926   22.4685 O   0  0  0  0  0  0
  -23.5372  -32.1423   23.7433 O   0  0  0  0  0  0
  -30.8649  -18.1720   19.3506 C   0  0  0  0  0  0
  -30.8075  -19.3172   18.5322 C   0  0  0  0  0  0
  -29.3070  -19.2325   20.8909 C   0  0  0  0  0  0
  -30.1265  -18.1138   20.5478 C   0  0  0  0  0  0
  -29.2284  -20.3974   20.0648 C   0  0  0  0  0  0
  -30.0035  -20.4219   18.8800 C   0  0  0  0  0  0
  -28.2863  -24.0676   20.1663 C   0  0  0  0  0  0
  -29.6255  -22.9226   21.9119 C   0  0  0  0  0  0
  -30.3188  -16.9054   21.4932 C   0  0  0  0  0  0
  -28.2326  -21.5472   20.3837 C   0  0  0  0  0  0
  -28.4631  -25.4439   20.9008 C   0  0  0  0  0  0
  -29.9020  -15.5610   21.0315 N   0  0  0  0  0  0
  -28.7439  -22.9064   20.7423 N   0  0  0  0  0  0
  -27.6610  -24.0504   19.1021 O   0  0  0  0  0  0
  -29.9652  -21.7776   17.8099 Cl  0  0  0  0  0  0
  -31.4733  -12.4781   19.1168 H   0  0  0  0  0  0
  -30.3630  -11.3467   19.8401 H   0  0  0  0  0  0
  -29.7474  -11.7665   17.4418 H   0  0  0  0  0  0
  -29.6474  -13.4825   17.7450 H   0  0  0  0  0  0
  -27.8461  -11.2961   18.8384 H   0  0  0  0  0  0
  -27.3637  -12.6003   17.7873 H   0  0  0  0  0  0
  -27.6888  -14.2495   19.5468 H   0  0  0  0  0  0
  -28.6978  -11.9843   21.3376 H   0  0  0  0  0  0
  -28.4544  -13.6231   21.8589 H   0  0  0  0  0  0
  -25.2757   -9.5682   22.4756 H   0  0  0  0  0  0
  -23.9999   -7.4631   22.7472 H   0  0  0  0  0  0
  -21.0835   -8.8769   19.8953 H   0  0  0  0  0  0
  -22.3689  -10.9670   19.6164 H   0  0  0  0  0  0
  -21.2004   -7.6147   23.9716 H   0  0  0  0  0  0
  -21.1480   -6.0523   25.9079 H   0  0  0  0  0  0
  -22.0600   -2.7608   23.2849 H   0  0  0  0  0  0
  -22.4109  -11.9882   22.4790 H   0  0  0  0  0  0
  -21.1120  -13.1258   22.2621 H   0  0  0  0  0  0
  -24.6624  -15.8421   20.5158 H   0  0  0  0  0  0
  -26.2788  -15.6267   20.0750 H   0  0  0  0  0  0
  -26.7136  -32.5507   23.1136 H   0  0  0  0  0  0
  -25.0057  -33.9759   25.0452 H   0  0  0  0  0  0
  -22.6999  -31.3051   21.4058 H   0  0  0  0  0  0
  -23.3745  -35.9648   23.3313 H   0  0  0  0  0  0
  -24.3579  -36.8914   22.2051 H   0  0  0  0  0  0
  -23.7250  -37.6519   23.6649 H   0  0  0  0  0  0
  -26.0588  -31.5779   20.5941 H   0  0  0  0  0  0
  -26.8289  -30.8724   21.9864 H   0  0  0  0  0  0
  -28.1162  -29.0660   21.1540 H   0  0  0  0  0  0
  -26.0358  -25.9450   19.0256 H   0  0  0  0  0  0
  -23.9736  -27.2839   19.0465 H   0  0  0  0  0  0
  -23.7350  -30.5901   19.4050 H   0  0  0  0  0  0
  -22.7428  -29.2403   19.8681 H   0  0  0  0  0  0
  -25.1287  -36.1965   25.0827 H   0  0  0  0  0  0
  -20.9954  -28.3244   24.1430 H   0  0  0  0  0  0
  -20.5676  -26.2281   23.3606 H   0  0  0  0  0  0
  -21.6637  -26.7454   22.1205 H   0  0  0  0  0  0
  -19.6913  -25.6301   21.1236 H   0  0  0  0  0  0
  -19.6684  -27.3204   20.6748 H   0  0  0  0  0  0
  -17.4194  -26.6673   21.4025 H   0  0  0  0  0  0
  -18.0323  -26.0061   22.9015 H   0  0  0  0  0  0
  -19.7931  -30.7253   24.2288 H   0  0  0  0  0  0
  -17.5015  -31.6269   24.5162 H   0  0  0  0  0  0
  -15.5348  -30.2997   23.7645 H   0  0  0  0  0  0
  -15.8661  -28.0827   22.7065 H   0  0  0  0  0  0
  -24.5912  -30.7048   25.7790 H   0  0  0  0  0  0
  -24.8924  -32.2856   26.4909 H   0  0  0  0  0  0
  -25.8083  -30.8867   27.0215 H   0  0  0  0  0  0
  -26.2865  -29.6781   24.1164 H   0  0  0  0  0  0
  -27.4075  -29.7270   25.4577 H   0  0  0  0  0  0
  -27.8705  -30.4333   23.9270 H   0  0  0  0  0  0
  -27.2674  -33.3606   26.2077 H   0  0  0  0  0  0
  -28.3854  -32.6883   25.0300 H   0  0  0  0  0  0
  -28.0734  -31.8423   26.5378 H   0  0  0  0  0  0
  -28.2605  -38.0098   24.7507 H   0  0  0  0  0  0
  -28.1068  -36.2630   24.6300 H   0  0  0  0  0  0
  -27.2297  -37.1471   25.8869 H   0  0  0  0  0  0
  -20.9323  -29.8756   21.6928 H   0  0  0  0  0  0
  -26.0183  -38.2867   24.1401 H   0  0  0  0  0  0
  -31.5055  -17.3472   19.0704 H   0  0  0  0  0  0
  -31.3892  -19.3489   17.6220 H   0  0  0  0  0  0
  -28.7278  -19.1964   21.8031 H   0  0  0  0  0  0
  -29.1556  -23.4377   22.7508 H   0  0  0  0  0  0
  -30.5660  -23.4231   21.6784 H   0  0  0  0  0  0
  -29.8745  -21.9178   22.2541 H   0  0  0  0  0  0
  -29.7811  -17.1061   22.4206 H   0  0  0  0  0  0
  -31.3720  -16.8709   21.7779 H   0  0  0  0  0  0
  -27.5956  -21.2241   21.2080 H   0  0  0  0  0  0
  -27.5543  -21.6084   19.5315 H   0  0  0  0  0  0
  -29.4446  -25.4826   21.3709 H   0  0  0  0  0  0
  -27.7331  -25.5035   21.7096 H   0  0  0  0  0  0
  -28.9475  -15.3127   21.2407 H   0  0  0  0  0  0
  1 25  1  0  0  0
  1 30  2  0  0  0
  1 82  1  0  0  0
  2  3  1  0  0  0
  2 25  1  0  0  0
  2 86  1  0  0  0
  2 87  1  0  0  0
  3  4  1  0  0  0
  3 88  1  0  0  0
  3 89  1  0  0  0
  4  5  1  0  0  0
  4 90  1  0  0  0
  4 91  1  0  0  0
  5  6  1  0  0  0
  5 26  1  0  0  0
  5 92  1  0  0  0
  6 25  1  0  0  0
  6 93  1  0  0  0
  6 94  1  0  0  0
  7  8  2  0  0  0
  7 26  1  0  0  0
  7 29  1  0  0  0
  8  9  1  0  0  0
  8 22  1  0  0  0
  9 10  1  0  0  0
  9 27  2  0  0  0
 10 11  2  0  0  0
 10 15  1  0  0  0
 11 12  1  0  0  0
 11 95  1  0  0  0
 12 13  2  0  0  0
 12 96  1  0  0  0
 13 14  1  0  0  0
 13 31  1  0  0  0
 14 15  2  0  0  0
 14 97  1  0  0  0
 15 98  1  0  0  0
 16 17  2  0  0  0
 16 21  1  0  0  0
 16 31  1  0  0  0
 17 18  1  0  0  0
 17 99  1  0  0  0
 18 19  2  0  0  0
 18100  1  0  0  0
 19 20  1  0  0  0
 19 24  1  0  0  0
 20 21  2  0  0  0
 20101  1  0  0  0
 21 23  1  0  0  0
 22 28  1  0  0  0
 22 32  2  0  0  0
 26 27  1  0  0  0
 28102  1  0  0  0
 28103  1  0  0  0
 29104  1  0  0  0
 29105  1  0  0  0
 33 34  1  0  0  0
 33 66  1  0  0  0
 33 70  2  0  0  0
 34 36  1  0  0  0
 34 59  1  0  0  0
 34106  1  0  0  0
 35 44  2  0  0  0
 35 45  1  0  0  0
 35 68  1  0  0  0
 36 56  1  0  0  0
 36107  1  0  0  0
 37 39  1  0  0  0
 37 47  1  0  0  0
 37 66  1  0  0  0
 37108  1  0  0  0
 38 43  2  0  0  0
 38 46  1  0  0  0
 38 47  1  0  0  0
 39 64  1  0  0  0
 39 67  2  0  0  0
 40 52  1  0  0  0
 40 53  2  0  0  0
 40 58  1  0  0  0
 41109  1  0  0  0
 41110  1  0  0  0
 41111  1  0  0  0
 41 48  1  0  0  0
 42 43  1  0  0  0
 42 66  1  0  0  0
 42112  1  0  0  0
 42113  1  0  0  0
 43 44  1  0  0  0
 44114  1  0  0  0
 45 46  2  0  0  0
 45115  1  0  0  0
 46116  1  0  0  0
 47117  1  0  0  0
 47118  1  0  0  0
 48 56  1  0  0  0
 48 65  1  0  0  0
 48119  1  0  0  0
 49 50  1  0  0  0
 49 53  1  0  0  0
 49 64  1  0  0  0
 49120  1  0  0  0
 50 51  1  0  0  0
 50121  1  0  0  0
 50122  1  0  0  0
 51 52  1  0  0  0
 51123  1  0  0  0
 51124  1  0  0  0
 52125  1  0  0  0
 52126  1  0  0  0
 53 54  1  0  0  0
 54 55  2  0  0  0
 54127  1  0  0  0
 55 57  1  0  0  0
 55128  1  0  0  0
 56 69  2  0  0  0
 57 58  2  0  0  0
 57129  1  0  0  0
 58130  1  0  0  0
 59 60  1  0  0  0
 59 61  1  0  0  0
 59 62  1  0  0  0
 60131  1  0  0  0
 60132  1  0  0  0
 60133  1  0  0  0
 61134  1  0  0  0
 61135  1  0  0  0
 61136  1  0  0  0
 62137  1  0  0  0
 62138  1  0  0  0
 62139  1  0  0  0
 63 65  1  0  0  0
 63140  1  0  0  0
 63141  1  0  0  0
 63142  1  0  0  0
 64143  1  0  0  0
 65144  1  0  0  0
 68 81  1  0  0  0
 71 72  2  0  0  0
 71 74  1  0  0  0
 71145  1  0  0  0
 72 76  1  0  0  0
 72146  1  0  0  0
 73 74  2  0  0  0
 73 75  1  0  0  0
 73147  1  0  0  0
 74 79  1  0  0  0
 75 76  2  0  0  0
 75 80  1  0  0  0
 76 85  1  0  0  0
 77 81  1  0  0  0
 77 83  1  0  0  0
 77 84  2  0  0  0
 78 83  1  0  0  0
 78148  1  0  0  0
 78149  1  0  0  0
 78150  1  0  0  0
 79 82  1  0  0  0
 79151  1  0  0  0
 79152  1  0  0  0
 80 83  1  0  0  0
 80153  1  0  0  0
 80154  1  0  0  0
 81155  1  0  0  0
 81156  1  0  0  0
 82157  1  0  0  0
M  ISO  4   1 100  68 101  81 101  82 100
M  END
> <chiral flag>
0

> <version>
0

> <s_m_source_file>
/data/baiqing/PycharmProjects/Reinvent-master-3.2/result/LINK_invent/BTK/process_docking_weight1_custom_product_contain_oxygen_bond_distance_aromatic_linkinvent_7_9_3/rearranged_h_0049.sdf

> <i_m_source_file_index>
64

> <r_mmod_Potential_Energy-OPLS-2005>
-32.8085556030273

> <r_mmod_Stretch_Energy-OPLS-2005>
54.9209785461426

> <r_mmod_Bend_Energy-OPLS-2005>
111.819747924805

> <r_mmod_Torsional_Energy-OPLS-2005>
244.785583496094

> <r_mmod_Improper_Torsional_Energy-OPLS-2005>
4.63857555389404

> <r_mmod_Van_der_Waal_Energy-OPLS-2005>
143.171417236328

> <r_mmod_Electrostatic_Energy-OPLS-2005>
-381.316680908203

> <r_mmod_Solvation_Energy-OPLS-2005>
-233.035522460938

> <b_mmod_Minimization_Converged-OPLS-2005>
0

> <r_mmod_RMS_Derivative-OPLS-2005>
0.302566289901733

$$$$
64
                    3D
 Structure written by MMmdl.
164173  0  0  1  0            999 V2000
  -30.7178  -14.4314   20.6243 C   0  0  0  0  0  0
  -30.4270  -12.3085   19.3998 C   0  0  0  0  0  0
  -29.4823  -12.5153   18.1981 C   0  0  0  0  0  0
  -28.0087  -12.3656   18.6225 C   0  0  0  0  0  0
  -27.6650  -13.2000   19.8845 C   0  0  2  0  0  0
  -28.7109  -12.9501   20.9954 C   0  0  0  0  0  0
  -25.2603  -13.8151   20.5716 C   0  0  0  0  0  0
  -24.1832  -13.0429   20.9186 C   0  0  0  0  0  0
  -24.6370  -11.6900   20.8749 C   0  0  0  0  0  0
  -23.9029  -10.4283   21.0407 C   0  0  0  0  0  0
  -24.3595   -9.4197   21.9174 C   0  0  0  0  0  0
  -23.6281   -8.2230   22.0742 C   0  0  0  0  0  0
  -22.4258   -8.0277   21.3548 C   0  0  0  0  0  0
  -21.9882   -9.0242   20.4652 C   0  0  0  0  0  0
  -22.7209  -10.2124   20.3052 C   0  0  0  0  0  0
  -21.6855   -6.0734   22.5286 C   0  0  0  0  0  0
  -21.4015   -6.5638   23.8213 C   0  0  0  0  0  0
  -21.3656   -5.6792   24.9175 C   0  0  0  0  0  0
  -21.6044   -4.3051   24.7226 C   0  0  0  0  0  0
  -21.8821   -3.8146   23.4338 C   0  0  0  0  0  0
  -21.9187   -4.6964   22.3398 C   0  0  0  0  0  0
  -22.7855  -13.5235   21.1850 C   0  0  0  0  0  0
  -22.1654   -4.2156   21.0972 F   0  0  0  0  0  0
  -21.5620   -3.4529   25.7728 F   0  0  0  0  0  0
  -30.0434  -13.2653   20.4477 N   0  0  0  0  0  0
  -26.3038  -12.9305   20.3448 N   0  0  0  0  0  0
  -25.9295  -11.6474   20.5804 N   0  0  0  0  0  0
  -22.0445  -12.8194   22.0343 N   0  0  0  0  0  0
  -25.4359  -15.1862   20.4136 N   0  0  0  0  0  0
  -31.8084  -14.6689   20.0954 O   0  0  0  0  0  0
  -21.6626   -6.8881   21.4252 O   0  0  0  0  0  0
  -22.3563  -14.5565   20.6737 O   0  0  0  0  0  0
  -24.6144  -31.8684   23.2093 C   0  0  0  0  0  0
  -25.9042  -32.4825   23.8386 C   0  0  1  0  0  0
  -27.2317  -27.4210   20.0990 C   0  0  0  0  0  0
  -25.5908  -33.8619   24.2325 N   0  0  0  0  0  0
  -23.4019  -30.4913   21.5514 C   0  0  2  0  0  0
  -24.8463  -28.9570   20.1161 C   0  0  0  0  0  0
  -22.7405  -29.4661   22.4999 C   0  0  0  0  0  0
  -18.0273  -28.1373   22.8495 C   0  0  0  0  0  0
  -24.1483  -36.7309   23.2634 C   0  0  0  0  0  0
  -25.9308  -30.8311   21.3624 C   0  0  0  0  0  0
  -26.0086  -29.4643   20.7100 C   0  0  0  0  0  0
  -27.2034  -28.7064   20.6929 C   0  0  0  0  0  0
  -26.0483  -26.9385   19.4918 C   0  0  0  0  0  0
  -24.8626  -27.6938   19.5031 C   0  0  0  0  0  0
  -23.6098  -29.8242   20.1659 C   0  0  0  0  0  0
  -25.4107  -36.3114   24.0337 C   0  0  1  0  0  0
  -20.5860  -28.3665   23.1324 C   0  0  2  0  0  0
  -20.6769  -26.9410   22.5413 C   0  0  0  0  0  0
  -19.5753  -26.6392   21.5203 C   0  0  0  0  0  0
  -18.1930  -26.7921   22.1615 C   0  0  0  0  0  0
  -19.1524  -28.8834   23.2908 C   0  0  0  0  0  0
  -18.9449  -30.1438   23.8920 C   0  0  0  0  0  0
  -17.6455  -30.6585   24.0566 C   0  0  0  0  0  0
  -25.9038  -34.9483   23.5132 C   0  0  0  0  0  0
  -16.5344  -29.9085   23.6326 C   0  0  0  0  0  0
  -16.7265  -28.6498   23.0351 C   0  0  0  0  0  0
  -26.4486  -31.6588   25.0700 C   0  0  0  0  0  0
  -25.3755  -31.3671   26.1445 C   0  0  0  0  0  0
  -27.0294  -30.3030   24.6039 C   0  0  0  0  0  0
  -27.6070  -32.4276   25.7470 C   0  0  0  0  0  0
  -27.5579  -37.1811   24.8468 C   0  0  0  0  0  0
  -21.4127  -29.3040   22.3737 N   0  0  0  0  0  0
  -26.4291  -37.3803   23.9415 N   0  0  0  0  0  0
  -24.6677  -31.0773   22.1005 N   0  0  0  0  0  0
  -23.4184  -28.8212   23.3049 O   0  0  0  0  0  0
  -28.4049  -26.6839   20.1256 O   0  0  0  0  0  0
  -26.5590  -34.8940   22.4687 O   0  0  0  0  0  0
  -23.5340  -32.1437   23.7487 O   0  0  0  0  0  0
  -28.0310  -17.3632   22.0440 C   0  0  0  0  0  0
  -26.9349  -18.2398   21.9561 C   0  0  0  0  0  0
  -29.4254  -19.0142   20.9205 C   0  0  0  0  0  0
  -29.2804  -17.7297   21.5029 C   0  0  0  0  0  0
  -28.3253  -19.9087   20.8225 C   0  0  0  0  0  0
  -27.0681  -19.4940   21.3315 C   0  0  0  0  0  0
  -29.9707  -23.2347   20.6110 C   0  0  0  0  0  0
  -31.1876  -22.7383   20.8962 C   0  0  0  0  0  0
  -29.7328  -24.6284   19.9946 C   0  0  0  0  0  0
  -27.7107  -24.7149   21.4469 C   0  0  0  0  0  0
  -27.5061  -23.1956   21.3266 C   0  0  0  0  0  0
  -28.3251  -25.2407   20.1448 C   0  0  1  0  0  0
  -30.4583  -16.7521   21.5504 C   0  0  0  0  0  0
  -28.4940  -21.2519   20.0917 C   0  0  0  0  0  0
  -30.0658  -15.3545   21.3466 N   0  0  0  0  0  0
  -28.7433  -22.4324   20.9804 N   0  3  1  0  0  0
  -25.6578  -20.4802   21.1873 Cl  0  0  0  0  0  0
  -31.4661  -12.4281   19.0858 H   0  0  0  0  0  0
  -30.3501  -11.2890   19.7797 H   0  0  0  0  0  0
  -29.7154  -11.8035   17.4058 H   0  0  0  0  0  0
  -29.6396  -13.5070   17.7706 H   0  0  0  0  0  0
  -27.8249  -11.3087   18.8175 H   0  0  0  0  0  0
  -27.3477  -12.6399   17.7996 H   0  0  0  0  0  0
  -27.7176  -14.2511   19.6001 H   0  0  0  0  0  0
  -28.6933  -11.9034   21.3016 H   0  0  0  0  0  0
  -28.4685  -13.5112   21.8985 H   0  0  0  0  0  0
  -25.2739   -9.5670   22.4746 H   0  0  0  0  0  0
  -23.9999   -7.4598   22.7425 H   0  0  0  0  0  0
  -21.0814   -8.8747   19.8956 H   0  0  0  0  0  0
  -22.3671  -10.9666   19.6164 H   0  0  0  0  0  0
  -21.2009   -7.6147   23.9733 H   0  0  0  0  0  0
  -21.1480   -6.0504   25.9088 H   0  0  0  0  0  0
  -22.0597   -2.7610   23.2819 H   0  0  0  0  0  0
  -22.4001  -11.9787   22.4654 H   0  0  0  0  0  0
  -21.1051  -13.1222   22.2510 H   0  0  0  0  0  0
  -24.6749  -15.8455   20.5300 H   0  0  0  0  0  0
  -26.2972  -15.6244   20.1103 H   0  0  0  0  0  0
  -26.7103  -32.5546   23.1144 H   0  0  0  0  0  0
  -25.0097  -33.9783   25.0497 H   0  0  0  0  0  0
  -22.6907  -31.3080   21.4131 H   0  0  0  0  0  0
  -23.3751  -35.9639   23.3308 H   0  0  0  0  0  0
  -24.3578  -36.8903   22.2046 H   0  0  0  0  0  0
  -23.7223  -37.6514   23.6635 H   0  0  0  0  0  0
  -26.0383  -31.5961   20.5922 H   0  0  0  0  0  0
  -26.8205  -30.8864   21.9782 H   0  0  0  0  0  0
  -28.0995  -29.0962   21.1545 H   0  0  0  0  0  0
  -26.0126  -25.9813   18.9959 H   0  0  0  0  0  0
  -23.9710  -27.2976   19.0350 H   0  0  0  0  0  0
  -23.7221  -30.5997   19.4075 H   0  0  0  0  0  0
  -22.7329  -29.2458   19.8667 H   0  0  0  0  0  0
  -25.1283  -36.1984   25.0829 H   0  0  0  0  0  0
  -20.9948  -28.3224   24.1445 H   0  0  0  0  0  0
  -20.5674  -26.2273   23.3591 H   0  0  0  0  0  0
  -21.6644  -26.7464   22.1213 H   0  0  0  0  0  0
  -19.6928  -25.6310   21.1215 H   0  0  0  0  0  0
  -19.6691  -27.3213   20.6743 H   0  0  0  0  0  0
  -17.4201  -26.6664   21.4014 H   0  0  0  0  0  0
  -18.0356  -26.0047   22.9001 H   0  0  0  0  0  0
  -19.7929  -30.7247   24.2298 H   0  0  0  0  0  0
  -17.5014  -31.6272   24.5157 H   0  0  0  0  0  0
  -15.5347  -30.3002   23.7633 H   0  0  0  0  0  0
  -15.8658  -28.0823   22.7060 H   0  0  0  0  0  0
  -24.5967  -30.6974   25.7789 H   0  0  0  0  0  0
  -24.8914  -32.2810   26.4890 H   0  0  0  0  0  0
  -25.8133  -30.8863   27.0200 H   0  0  0  0  0  0
  -26.2832  -29.6828   24.1056 H   0  0  0  0  0  0
  -27.4034  -29.7224   25.4483 H   0  0  0  0  0  0
  -27.8688  -30.4356   23.9205 H   0  0  0  0  0  0
  -27.2716  -33.3574   26.2074 H   0  0  0  0  0  0
  -28.3888  -32.6811   25.0297 H   0  0  0  0  0  0
  -28.0727  -31.8362   26.5365 H   0  0  0  0  0  0
  -28.2606  -38.0100   24.7534 H   0  0  0  0  0  0
  -28.1063  -36.2640   24.6280 H   0  0  0  0  0  0
  -27.2302  -37.1446   25.8869 H   0  0  0  0  0  0
  -20.9275  -29.8758   21.6958 H   0  0  0  0  0  0
  -26.0180  -38.2878   24.1430 H   0  0  0  0  0  0
  -27.8951  -16.4024   22.5203 H   0  0  0  0  0  0
  -25.9770  -17.9392   22.3560 H   0  0  0  0  0  0
  -30.3847  -19.2990   20.5098 H   0  0  0  0  0  0
  -32.0813  -23.3023   20.6712 H   0  0  0  0  0  0
  -31.3229  -21.7687   21.3560 H   0  0  0  0  0  0
  -30.0133  -24.5988   18.9412 H   0  0  0  0  0  0
  -30.4494  -25.2991   20.4712 H   0  0  0  0  0  0
  -28.3497  -24.9590   22.2967 H   0  0  0  0  0  0
  -26.7473  -25.1866   21.6401 H   0  0  0  0  0  0
  -26.7352  -23.0305   20.5747 H   0  0  0  0  0  0
  -27.1023  -22.8028   22.2599 H   0  0  0  0  0  0
  -27.7490  -24.8820   19.2932 H   0  0  0  0  0  0
  -30.9381  -16.8353   22.5268 H   0  0  0  0  0  0
  -31.2048  -17.0489   20.8108 H   0  0  0  0  0  0
  -27.6494  -21.4207   19.4236 H   0  0  0  0  0  0
  -29.3386  -21.1348   19.4126 H   0  0  0  0  0  0
  -29.1758  -15.0697   21.7238 H   0  0  0  0  0  0
  -28.9776  -21.9931   21.8582 H   0  0  0  0  0  0
  1 25  1  0  0  0
  1 30  2  0  0  0
  1 85  1  0  0  0
  2  3  1  0  0  0
  2 25  1  0  0  0
  2 88  1  0  0  0
  2 89  1  0  0  0
  3  4  1  0  0  0
  3 90  1  0  0  0
  3 91  1  0  0  0
  4  5  1  0  0  0
  4 92  1  0  0  0
  4 93  1  0  0  0
  5  6  1  0  0  0
  5 26  1  0  0  0
  5 94  1  0  0  0
  6 25  1  0  0  0
  6 95  1  0  0  0
  6 96  1  0  0  0
  7  8  2  0  0  0
  7 26  1  0  0  0
  7 29  1  0  0  0
  8  9  1  0  0  0
  8 22  1  0  0  0
  9 10  1  0  0  0
  9 27  2  0  0  0
 10 11  2  0  0  0
 10 15  1  0  0  0
 11 12  1  0  0  0
 11 97  1  0  0  0
 12 13  2  0  0  0
 12 98  1  0  0  0
 13 14  1  0  0  0
 13 31  1  0  0  0
 14 15  2  0  0  0
 14 99  1  0  0  0
 15100  1  0  0  0
 16 17  2  0  0  0
 16 21  1  0  0  0
 16 31  1  0  0  0
 17 18  1  0  0  0
 17101  1  0  0  0
 18 19  2  0  0  0
 18102  1  0  0  0
 19 20  1  0  0  0
 19 24  1  0  0  0
 20 21  2  0  0  0
 20103  1  0  0  0
 21 23  1  0  0  0
 22 28  1  0  0  0
 22 32  2  0  0  0
 26 27  1  0  0  0
 28104  1  0  0  0
 28105  1  0  0  0
 29106  1  0  0  0
 29107  1  0  0  0
 33 34  1  0  0  0
 33 66  1  0  0  0
 33 70  2  0  0  0
 34 36  1  0  0  0
 34 59  1  0  0  0
 34108  1  0  0  0
 35 44  2  0  0  0
 35 45  1  0  0  0
 35 68  1  0  0  0
 36 56  1  0  0  0
 36109  1  0  0  0
 37 39  1  0  0  0
 37 47  1  0  0  0
 37 66  1  0  0  0
 37110  1  0  0  0
 38 43  2  0  0  0
 38 46  1  0  0  0
 38 47  1  0  0  0
 39 64  1  0  0  0
 39 67  2  0  0  0
 40 52  1  0  0  0
 40 53  2  0  0  0
 40 58  1  0  0  0
 41111  1  0  0  0
 41112  1  0  0  0
 41113  1  0  0  0
 41 48  1  0  0  0
 42 43  1  0  0  0
 42 66  1  0  0  0
 42114  1  0  0  0
 42115  1  0  0  0
 43 44  1  0  0  0
 44116  1  0  0  0
 45 46  2  0  0  0
 45117  1  0  0  0
 46118  1  0  0  0
 47119  1  0  0  0
 47120  1  0  0  0
 48 56  1  0  0  0
 48 65  1  0  0  0
 48121  1  0  0  0
 49 50  1  0  0  0
 49 53  1  0  0  0
 49 64  1  0  0  0
 49122  1  0  0  0
 50 51  1  0  0  0
 50123  1  0  0  0
 50124  1  0  0  0
 51 52  1  0  0  0
 51125  1  0  0  0
 51126  1  0  0  0
 52127  1  0  0  0
 52128  1  0  0  0
 53 54  1  0  0  0
 54 55  2  0  0  0
 54129  1  0  0  0
 55 57  1  0  0  0
 55130  1  0  0  0
 56 69  2  0  0  0
 57 58  2  0  0  0
 57131  1  0  0  0
 58132  1  0  0  0
 59 60  1  0  0  0
 59 61  1  0  0  0
 59 62  1  0  0  0
 60133  1  0  0  0
 60134  1  0  0  0
 60135  1  0  0  0
 61136  1  0  0  0
 61137  1  0  0  0
 61138  1  0  0  0
 62139  1  0  0  0
 62140  1  0  0  0
 62141  1  0  0  0
 63 65  1  0  0  0
 63142  1  0  0  0
 63143  1  0  0  0
 63144  1  0  0  0
 64145  1  0  0  0
 65146  1  0  0  0
 68 82  1  0  0  0
 71 72  2  0  0  0
 71 74  1  0  0  0
 71147  1  0  0  0
 72 76  1  0  0  0
 72148  1  0  0  0
 73 74  2  0  0  0
 73 75  1  0  0  0
 73149  1  0  0  0
 74 83  1  0  0  0
 75 76  2  0  0  0
 75 84  1  0  0  0
 76 87  1  0  0  0
 77 78  2  0  0  0
 77 79  1  0  0  0
 77 86  1  0  0  0
 78150  1  0  0  0
 78151  1  0  0  0
 79 82  1  0  0  0
 79152  1  0  0  0
 79153  1  0  0  0
 80 81  1  0  0  0
 80 82  1  0  0  0
 80154  1  0  0  0
 80155  1  0  0  0
 81 86  1  0  0  0
 81156  1  0  0  0
 81157  1  0  0  0
 82158  1  0  0  0
 83 85  1  0  0  0
 83159  1  0  0  0
 83160  1  0  0  0
 84161  1  0  0  0
 84162  1  0  0  0
 84 86  1  0  0  0
 85163  1  0  0  0
 86164  1  0  0  0
M  CHG  1  86   1
M  ISO  4   1 100  68 101  82 101  85 100
M  END
> <chiral flag>
0

> <version>
0

> <s_m_source_file>
/data/baiqing/PycharmProjects/Reinvent-master-3.2/result/LINK_invent/BTK/process_docking_weight1_custom_product_contain_oxygen_bond_distance_aromatic_linkinvent_7_9_3/rearranged_h_0049.sdf

> <i_m_source_file_index>
65

> <r_mmod_Potential_Energy-OPLS-2005>
-229.33122253418

> <r_mmod_Stretch_Energy-OPLS-2005>
41.9631576538086

> <r_mmod_Bend_Energy-OPLS-2005>
115.913314819336

> <r_mmod_Torsional_Energy-OPLS-2005>
215.952697753906

> <r_mmod_Improper_Torsional_Energy-OPLS-2005>
2.55486249923706

> <r_mmod_Van_der_Waal_Energy-OPLS-2005>
156.691192626953

> <r_mmod_Electrostatic_Energy-OPLS-2005>
-339.701629638672

> <r_mmod_Solvation_Energy-OPLS-2005>
-433.630462646484

> <b_mmod_Minimization_Converged-OPLS-2005>
0

> <r_mmod_RMS_Derivative-OPLS-2005>
2.09846973419189

$$$$
65
                    3D
 Structure written by MMmdl.
167176  0  0  1  0            999 V2000
  -30.7466  -14.4514   20.5854 C   0  0  0  0  0  0
  -30.4146  -12.2919   19.4466 C   0  0  0  0  0  0
  -29.5093  -12.5212   18.2216 C   0  0  0  0  0  0
  -28.0248  -12.3856   18.6163 C   0  0  0  0  0  0
  -27.6640  -13.2217   19.8754 C   0  0  2  0  0  0
  -28.7019  -13.0095   21.0045 C   0  0  0  0  0  0
  -25.2548  -13.8193   20.5744 C   0  0  0  0  0  0
  -24.1818  -13.0423   20.9195 C   0  0  0  0  0  0
  -24.6371  -11.6899   20.8676 C   0  0  0  0  0  0
  -23.9034  -10.4268   21.0355 C   0  0  0  0  0  0
  -24.3578   -9.4178   21.9136 C   0  0  0  0  0  0
  -23.6257   -8.2216   22.0710 C   0  0  0  0  0  0
  -22.4243   -8.0238   21.3532 C   0  0  0  0  0  0
  -21.9873   -9.0217   20.4640 C   0  0  0  0  0  0
  -22.7195  -10.2096   20.3019 C   0  0  0  0  0  0
  -21.6838   -6.0684   22.5270 C   0  0  0  0  0  0
  -21.4021   -6.5589   23.8214 C   0  0  0  0  0  0
  -21.3673   -5.6738   24.9180 C   0  0  0  0  0  0
  -21.6049   -4.3004   24.7225 C   0  0  0  0  0  0
  -21.8810   -3.8095   23.4346 C   0  0  0  0  0  0
  -21.9188   -4.6910   22.3407 C   0  0  0  0  0  0
  -22.7839  -13.5200   21.1883 C   0  0  0  0  0  0
  -22.1648   -4.2096   21.0985 F   0  0  0  0  0  0
  -21.5636   -3.4486   25.7741 F   0  0  0  0  0  0
  -30.0435  -13.2896   20.4659 N   0  0  0  0  0  0
  -26.3020  -12.9393   20.3347 N   0  0  0  0  0  0
  -25.9302  -11.6522   20.5670 N   0  0  0  0  0  0
  -22.0480  -12.8232   22.0470 N   0  0  0  0  0  0
  -25.4208  -15.1909   20.4217 N   0  0  0  0  0  0
  -31.8466  -14.5980   20.0534 O   0  0  0  0  0  0
  -21.6602   -6.8830   21.4228 O   0  0  0  0  0  0
  -22.3500  -14.5500   20.6710 O   0  0  0  0  0  0
  -24.6125  -31.8666   23.2093 C   0  0  0  0  0  0
  -25.9027  -32.4805   23.8366 C   0  0  1  0  0  0
  -27.2256  -27.4116   20.0680 C   0  0  0  0  0  0
  -25.5892  -33.8605   24.2276 N   0  0  0  0  0  0
  -23.3994  -30.4918   21.5503 C   0  0  2  0  0  0
  -24.8441  -28.9545   20.1114 C   0  0  0  0  0  0
  -22.7372  -29.4651   22.4982 C   0  0  0  0  0  0
  -18.0260  -28.1392   22.8471 C   0  0  0  0  0  0
  -24.1487  -36.7268   23.2645 C   0  0  0  0  0  0
  -25.9365  -30.8112   21.3804 C   0  0  0  0  0  0
  -26.0043  -29.4484   20.7196 C   0  0  0  0  0  0
  -27.1939  -28.6763   20.7064 C   0  0  0  0  0  0
  -26.0382  -26.9392   19.4619 C   0  0  0  0  0  0
  -24.8567  -27.6988   19.4856 C   0  0  0  0  0  0
  -23.6063  -29.8227   20.1655 C   0  0  0  0  0  0
  -25.4117  -36.3099   24.0339 C   0  0  1  0  0  0
  -20.5831  -28.3647   23.1338 C   0  0  2  0  0  0
  -20.6717  -26.9366   22.5480 C   0  0  0  0  0  0
  -19.5755  -26.6368   21.5205 C   0  0  0  0  0  0
  -18.1897  -26.7959   22.1553 C   0  0  0  0  0  0
  -19.1500  -28.8838   23.2899 C   0  0  0  0  0  0
  -18.9447  -30.1432   23.8920 C   0  0  0  0  0  0
  -17.6461  -30.6595   24.0551 C   0  0  0  0  0  0
  -25.9037  -34.9475   23.5107 C   0  0  0  0  0  0
  -16.5341  -29.9094   23.6344 C   0  0  0  0  0  0
  -16.7250  -28.6508   23.0358 C   0  0  0  0  0  0
  -26.4460  -31.6627   25.0724 C   0  0  0  0  0  0
  -25.3705  -31.3873   26.1494 C   0  0  0  0  0  0
  -27.0175  -30.3001   24.6198 C   0  0  0  0  0  0
  -27.6093  -32.4338   25.7397 C   0  0  0  0  0  0
  -27.5620  -37.1731   24.8428 C   0  0  0  0  0  0
  -21.4100  -29.3001   22.3730 N   0  0  0  0  0  0
  -26.4283  -37.3803   23.9453 N   0  0  0  0  0  0
  -24.6660  -31.0731   22.1026 N   0  0  0  0  0  0
  -23.4142  -28.8193   23.3016 O   0  0  0  0  0  0
  -28.3992  -26.6750   20.0635 O   0  0  0  0  0  0
  -26.5596  -34.8934   22.4661 O   0  0  0  0  0  0
  -23.5317  -32.1461   23.7473 O   0  0  0  0  0  0
  -31.3939  -17.4783   20.4571 C   0  0  0  0  0  0
  -31.4531  -18.8717   20.2314 C   0  0  0  0  0  0
  -30.4107  -19.7274   20.6955 C   0  0  0  0  0  0
  -29.3409  -19.1331   21.4278 C   0  0  0  0  0  0
  -30.2875  -16.8724   21.0901 C   0  0  0  0  0  0
  -29.2639  -17.7168   21.5773 C   0  0  0  0  0  0
  -29.1510  -23.3271   20.2292 C   0  0  0  0  0  0
  -27.3498  -21.9650   18.4165 C   0  0  0  0  0  0
  -27.5265  -23.4686   18.2201 C   0  0  0  0  0  0
  -28.7011  -21.3421   18.7745 C   0  0  0  0  0  0
  -28.0826  -24.1814   19.4763 C   0  0  2  0  0  0
  -32.6797  -19.3912   19.4922 C   0  0  0  0  0  0
  -28.2865  -20.0082   22.0994 C   0  0  0  0  0  0
  -30.5067  -21.2660   20.4974 C   0  0  0  0  0  0
  -28.5740  -25.6212   19.0912 C   0  0  0  0  0  0
  -29.3615  -22.0107   19.9092 N   0  0  0  0  0  0
  -30.1491  -15.4475   21.2712 N   0  0  0  0  0  0
  -29.7927  -23.8825   21.1269 O   0  0  0  0  0  0
  -27.9029  -16.9859   22.3615 Cl  0  0  0  0  0  0
  -31.4656  -12.3394   19.1633 H   0  0  0  0  0  0
  -30.2632  -11.2862   19.8444 H   0  0  0  0  0  0
  -29.7546  -11.8100   17.4326 H   0  0  0  0  0  0
  -29.6979  -13.5140   17.8089 H   0  0  0  0  0  0
  -27.8263  -11.3294   18.8013 H   0  0  0  0  0  0
  -27.3905  -12.6737   17.7766 H   0  0  0  0  0  0
  -27.7045  -14.2716   19.5770 H   0  0  0  0  0  0
  -28.6668  -11.9742   21.3484 H   0  0  0  0  0  0
  -28.4586  -13.6149   21.8778 H   0  0  0  0  0  0
  -25.2721   -9.5625   22.4716 H   0  0  0  0  0  0
  -23.9952   -7.4577   22.7410 H   0  0  0  0  0  0
  -21.0808   -8.8715   19.8972 H   0  0  0  0  0  0
  -22.3625  -10.9609   19.6116 H   0  0  0  0  0  0
  -21.2017   -7.6086   23.9700 H   0  0  0  0  0  0
  -21.1521   -6.0471   25.9086 H   0  0  0  0  0  0
  -22.0589   -2.7548   23.2855 H   0  0  0  0  0  0
  -22.4053  -11.9910   22.4948 H   0  0  0  0  0  0
  -21.1112  -13.1333   22.2657 H   0  0  0  0  0  0
  -24.6745  -15.8490   20.6211 H   0  0  0  0  0  0
  -26.2805  -15.6448   20.1427 H   0  0  0  0  0  0
  -26.7077  -32.5493   23.1090 H   0  0  0  0  0  0
  -25.0044  -33.9768   25.0424 H   0  0  0  0  0  0
  -22.6887  -31.3098   21.4104 H   0  0  0  0  0  0
  -23.3794  -35.9546   23.3278 H   0  0  0  0  0  0
  -24.3586  -36.8903   22.2064 H   0  0  0  0  0  0
  -23.7168  -37.6437   23.6668 H   0  0  0  0  0  0
  -26.0773  -31.5834   20.6230 H   0  0  0  0  0  0
  -26.8147  -30.8448   22.0140 H   0  0  0  0  0  0
  -28.0890  -29.0460   21.1846 H   0  0  0  0  0  0
  -25.9983  -25.9800   18.9717 H   0  0  0  0  0  0
  -23.9607  -27.3110   19.0181 H   0  0  0  0  0  0
  -23.7111  -30.5947   19.4031 H   0  0  0  0  0  0
  -22.7306  -29.2385   19.8743 H   0  0  0  0  0  0
  -25.1278  -36.1946   25.0828 H   0  0  0  0  0  0
  -20.9918  -28.3252   24.1461 H   0  0  0  0  0  0
  -20.5521  -26.2255   23.3671 H   0  0  0  0  0  0
  -21.6618  -26.7376   22.1364 H   0  0  0  0  0  0
  -19.6902  -25.6266   21.1255 H   0  0  0  0  0  0
  -19.6771  -27.3156   20.6719 H   0  0  0  0  0  0
  -17.4204  -26.6789   21.3894 H   0  0  0  0  0  0
  -18.0224  -26.0081   22.8927 H   0  0  0  0  0  0
  -19.7928  -30.7216   24.2332 H   0  0  0  0  0  0
  -17.5034  -31.6290   24.5132 H   0  0  0  0  0  0
  -15.5348  -30.2998   23.7684 H   0  0  0  0  0  0
  -15.8639  -28.0824   22.7097 H   0  0  0  0  0  0
  -24.5935  -30.7092   25.7947 H   0  0  0  0  0  0
  -24.8805  -32.3060   26.4724 H   0  0  0  0  0  0
  -25.8074  -30.9295   27.0371 H   0  0  0  0  0  0
  -26.2674  -29.6831   24.1236 H   0  0  0  0  0  0
  -27.3790  -29.7231   25.4715 H   0  0  0  0  0  0
  -27.8626  -30.4179   23.9410 H   0  0  0  0  0  0
  -27.2778  -33.3648   26.1993 H   0  0  0  0  0  0
  -28.3830  -32.6870   25.0135 H   0  0  0  0  0  0
  -28.0830  -31.8439   26.5251 H   0  0  0  0  0  0
  -28.2607  -38.0070   24.7585 H   0  0  0  0  0  0
  -28.1133  -36.2608   24.6060 H   0  0  0  0  0  0
  -27.2386  -37.1210   25.8843 H   0  0  0  0  0  0
  -20.9242  -29.8700   21.6956 H   0  0  0  0  0  0
  -26.0170  -38.2849   24.1587 H   0  0  0  0  0  0
  -32.2289  -16.8864   20.1183 H   0  0  0  0  0  0
  -26.9545  -21.5046   17.5088 H   0  0  0  0  0  0
  -26.6248  -21.7656   19.2073 H   0  0  0  0  0  0
  -26.5688  -23.9104   17.9427 H   0  0  0  0  0  0
  -28.1957  -23.6370   17.3739 H   0  0  0  0  0  0
  -29.3708  -21.4056   17.9157 H   0  0  0  0  0  0
  -28.5551  -20.2776   18.9584 H   0  0  0  0  0  0
  -27.2484  -24.2815   20.1701 H   0  0  0  0  0  0
  -33.4601  -18.6304   19.4439 H   0  0  0  0  0  0
  -33.1240  -20.2473   19.9957 H   0  0  0  0  0  0
  -32.4290  -19.6675   18.4676 H   0  0  0  0  0  0
  -28.6942  -20.9748   22.3955 H   0  0  0  0  0  0
  -27.9155  -19.5585   23.0201 H   0  0  0  0  0  0
  -27.4395  -20.1709   21.4342 H   0  0  0  0  0  0
  -31.3468  -21.5293   19.8561 H   0  0  0  0  0  0
  -30.7610  -21.6611   21.4821 H   0  0  0  0  0  0
  -28.1259  -25.9359   18.1477 H   0  0  0  0  0  0
  -29.6390  -25.5837   18.8594 H   0  0  0  0  0  0
  -29.3310  -15.1728   21.7929 H   0  0  0  0  0  0
  1 25  1  0  0  0
  1 30  2  0  0  0
  1 87  1  0  0  0
  2  3  1  0  0  0
  2 25  1  0  0  0
  2 90  1  0  0  0
  2 91  1  0  0  0
  3  4  1  0  0  0
  3 92  1  0  0  0
  3 93  1  0  0  0
  4  5  1  0  0  0
  4 94  1  0  0  0
  4 95  1  0  0  0
  5  6  1  0  0  0
  5 26  1  0  0  0
  5 96  1  0  0  0
  6 25  1  0  0  0
  6 97  1  0  0  0
  6 98  1  0  0  0
  7  8  2  0  0  0
  7 26  1  0  0  0
  7 29  1  0  0  0
  8  9  1  0  0  0
  8 22  1  0  0  0
  9 10  1  0  0  0
  9 27  2  0  0  0
 10 11  2  0  0  0
 10 15  1  0  0  0
 11 12  1  0  0  0
 11 99  1  0  0  0
 12 13  2  0  0  0
 12100  1  0  0  0
 13 14  1  0  0  0
 13 31  1  0  0  0
 14 15  2  0  0  0
 14101  1  0  0  0
 15102  1  0  0  0
 16 17  2  0  0  0
 16 21  1  0  0  0
 16 31  1  0  0  0
 17 18  1  0  0  0
 17103  1  0  0  0
 18 19  2  0  0  0
 18104  1  0  0  0
 19 20  1  0  0  0
 19 24  1  0  0  0
 20 21  2  0  0  0
 20105  1  0  0  0
 21 23  1  0  0  0
 22 28  1  0  0  0
 22 32  2  0  0  0
 26 27  1  0  0  0
 28106  1  0  0  0
 28107  1  0  0  0
 29108  1  0  0  0
 29109  1  0  0  0
 33 34  1  0  0  0
 33 66  1  0  0  0
 33 70  2  0  0  0
 34 36  1  0  0  0
 34 59  1  0  0  0
 34110  1  0  0  0
 35 44  2  0  0  0
 35 45  1  0  0  0
 35 68  1  0  0  0
 36 56  1  0  0  0
 36111  1  0  0  0
 37 39  1  0  0  0
 37 47  1  0  0  0
 37 66  1  0  0  0
 37112  1  0  0  0
 38 43  2  0  0  0
 38 46  1  0  0  0
 38 47  1  0  0  0
 39 64  1  0  0  0
 39 67  2  0  0  0
 40 52  1  0  0  0
 40 53  2  0  0  0
 40 58  1  0  0  0
 41113  1  0  0  0
 41114  1  0  0  0
 41115  1  0  0  0
 41 48  1  0  0  0
 42 43  1  0  0  0
 42 66  1  0  0  0
 42116  1  0  0  0
 42117  1  0  0  0
 43 44  1  0  0  0
 44118  1  0  0  0
 45 46  2  0  0  0
 45119  1  0  0  0
 46120  1  0  0  0
 47121  1  0  0  0
 47122  1  0  0  0
 48 56  1  0  0  0
 48 65  1  0  0  0
 48123  1  0  0  0
 49 50  1  0  0  0
 49 53  1  0  0  0
 49 64  1  0  0  0
 49124  1  0  0  0
 50 51  1  0  0  0
 50125  1  0  0  0
 50126  1  0  0  0
 51 52  1  0  0  0
 51127  1  0  0  0
 51128  1  0  0  0
 52129  1  0  0  0
 52130  1  0  0  0
 53 54  1  0  0  0
 54 55  2  0  0  0
 54131  1  0  0  0
 55 57  1  0  0  0
 55132  1  0  0  0
 56 69  2  0  0  0
 57 58  2  0  0  0
 57133  1  0  0  0
 58134  1  0  0  0
 59 60  1  0  0  0
 59 61  1  0  0  0
 59 62  1  0  0  0
 60135  1  0  0  0
 60136  1  0  0  0
 60137  1  0  0  0
 61138  1  0  0  0
 61139  1  0  0  0
 61140  1  0  0  0
 62141  1  0  0  0
 62142  1  0  0  0
 62143  1  0  0  0
 63 65  1  0  0  0
 63144  1  0  0  0
 63145  1  0  0  0
 63146  1  0  0  0
 64147  1  0  0  0
 65148  1  0  0  0
 68 85  1  0  0  0
 71 72  2  0  0  0
 71 75  1  0  0  0
 71149  1  0  0  0
 72 73  1  0  0  0
 72 82  1  0  0  0
 73 74  2  0  0  0
 73 84  1  0  0  0
 74 76  1  0  0  0
 74 83  1  0  0  0
 75 76  2  0  0  0
 75 87  1  0  0  0
 76 89  1  0  0  0
 77 81  1  0  0  0
 77 86  1  0  0  0
 77 88  2  0  0  0
 78 79  1  0  0  0
 78 80  1  0  0  0
 78150  1  0  0  0
 78151  1  0  0  0
 79 81  1  0  0  0
 79152  1  0  0  0
 79153  1  0  0  0
 80 86  1  0  0  0
 80154  1  0  0  0
 80155  1  0  0  0
 81 85  1  0  0  0
 81156  1  0  0  0
 82157  1  0  0  0
 82158  1  0  0  0
 82159  1  0  0  0
 83160  1  0  0  0
 83161  1  0  0  0
 83162  1  0  0  0
 84 86  1  0  0  0
 84163  1  0  0  0
 84164  1  0  0  0
 85165  1  0  0  0
 85166  1  0  0  0
 87167  1  0  0  0
M  ISO  4   1 100  68 101  85 101  87 100
M  END
> <chiral flag>
0

> <version>
0

> <s_m_source_file>
/data/baiqing/PycharmProjects/Reinvent-master-3.2/result/LINK_invent/BTK/process_docking_weight1_custom_product_contain_oxygen_bond_distance_aromatic_linkinvent_7_9_3/rearranged_h_0049.sdf

> <i_m_source_file_index>
66

> <r_mmod_Potential_Energy-OPLS-2005>
-5.2940149307251

> <r_mmod_Stretch_Energy-OPLS-2005>
53.7993240356445

> <r_mmod_Bend_Energy-OPLS-2005>
123.627914428711

> <r_mmod_Torsional_Energy-OPLS-2005>
227.686752319336

> <r_mmod_Improper_Torsional_Energy-OPLS-2005>
3.59772682189941

> <r_mmod_Van_der_Waal_Energy-OPLS-2005>
176.989135742188

> <r_mmod_Electrostatic_Energy-OPLS-2005>
-390.933959960938

> <r_mmod_Solvation_Energy-OPLS-2005>
-214.963134765625

> <b_mmod_Minimization_Converged-OPLS-2005>
0

> <r_mmod_RMS_Derivative-OPLS-2005>
4.74823379516602

$$$$
66
                    3D
 Structure written by MMmdl.
172181  0  0  1  0            999 V2000
  -30.6460  -14.6397   20.4686 C   0  0  0  0  0  0
  -30.4523  -12.3913   19.4412 C   0  0  0  0  0  0
  -29.5245  -12.5107   18.2141 C   0  0  0  0  0  0
  -28.0473  -12.3426   18.6244 C   0  0  0  0  0  0
  -27.6586  -13.2178   19.8450 C   0  0  2  0  0  0
  -28.7076  -13.1050   20.9741 C   0  0  0  0  0  0
  -25.2642  -13.8167   20.5622 C   0  0  0  0  0  0
  -24.1888  -13.0411   20.9154 C   0  0  0  0  0  0
  -24.6451  -11.6913   20.8668 C   0  0  0  0  0  0
  -23.9096  -10.4279   21.0392 C   0  0  0  0  0  0
  -24.3649   -9.4218   21.9174 C   0  0  0  0  0  0
  -23.6297   -8.2258   22.0788 C   0  0  0  0  0  0
  -22.4284   -8.0286   21.3557 C   0  0  0  0  0  0
  -21.9910   -9.0264   20.4677 C   0  0  0  0  0  0
  -22.7269  -10.2133   20.3060 C   0  0  0  0  0  0
  -21.6865   -6.0719   22.5268 C   0  0  0  0  0  0
  -21.4015   -6.5624   23.8190 C   0  0  0  0  0  0
  -21.3654   -5.6798   24.9145 C   0  0  0  0  0  0
  -21.6063   -4.3050   24.7223 C   0  0  0  0  0  0
  -21.8831   -3.8131   23.4329 C   0  0  0  0  0  0
  -21.9208   -4.6942   22.3386 C   0  0  0  0  0  0
  -22.7925  -13.5252   21.1781 C   0  0  0  0  0  0
  -22.1683   -4.2134   21.0959 F   0  0  0  0  0  0
  -21.5635   -3.4546   25.7718 F   0  0  0  0  0  0
  -30.0235  -13.4250   20.3958 N   0  0  0  0  0  0
  -26.3060  -12.9322   20.3215 N   0  0  0  0  0  0
  -25.9375  -11.6490   20.5633 N   0  0  0  0  0  0
  -22.0540  -12.8240   22.0351 N   0  0  0  0  0  0
  -25.4322  -15.1876   20.4012 N   0  0  0  0  0  0
  -31.8436  -14.7861   20.2200 O   0  0  0  0  0  0
  -21.6661   -6.8875   21.4232 O   0  0  0  0  0  0
  -22.3614  -14.5523   20.6592 O   0  0  0  0  0  0
  -24.6329  -31.8724   23.2125 C   0  0  0  0  0  0
  -25.9257  -32.4828   23.8415 C   0  0  1  0  0  0
  -27.1683  -27.3457   20.0262 C   0  0  0  0  0  0
  -25.6107  -33.8609   24.2401 N   0  0  0  0  0  0
  -23.4104  -30.5188   21.5552 C   0  0  2  0  0  0
  -24.8385  -28.9998   20.0843 C   0  0  0  0  0  0
  -22.7438  -29.4804   22.4935 C   0  0  0  0  0  0
  -18.0319  -28.1385   22.8457 C   0  0  0  0  0  0
  -24.1510  -36.7237   23.2620 C   0  0  0  0  0  0
  -25.9524  -30.8068   21.3705 C   0  0  0  0  0  0
  -26.0155  -29.4415   20.7006 C   0  0  0  0  0  0
  -27.1893  -28.6223   20.6749 C   0  0  0  0  0  0
  -25.9630  -26.9932   19.3655 C   0  0  0  0  0  0
  -24.8124  -27.7809   19.4094 C   0  0  0  0  0  0
  -23.6169  -29.8878   20.1584 C   0  0  0  0  0  0
  -25.4130  -36.3066   24.0338 C   0  0  1  0  0  0
  -20.5933  -28.3789   23.1192 C   0  0  2  0  0  0
  -20.6826  -26.9540   22.5307 C   0  0  0  0  0  0
  -19.5787  -26.6424   21.5126 C   0  0  0  0  0  0
  -18.1996  -26.7935   22.1591 C   0  0  0  0  0  0
  -19.1569  -28.8879   23.2830 C   0  0  0  0  0  0
  -18.9500  -30.1484   23.8872 C   0  0  0  0  0  0
  -17.6498  -30.6586   24.0606 C   0  0  0  0  0  0
  -25.9081  -34.9462   23.5139 C   0  0  0  0  0  0
  -16.5400  -29.9088   23.6344 C   0  0  0  0  0  0
  -16.7302  -28.6494   23.0361 C   0  0  0  0  0  0
  -26.4618  -31.6518   25.0722 C   0  0  0  0  0  0
  -25.3880  -31.3527   26.1438 C   0  0  0  0  0  0
  -27.0416  -30.2985   24.6011 C   0  0  0  0  0  0
  -27.6254  -32.4117   25.7507 C   0  0  0  0  0  0
  -27.5568  -37.1784   24.8489 C   0  0  0  0  0  0
  -21.4186  -29.3162   22.3603 N   0  0  0  0  0  0
  -26.4271  -37.3781   23.9454 N   0  0  0  0  0  0
  -24.6862  -31.0821   22.1034 N   0  0  0  0  0  0
  -23.4202  -28.8298   23.2968 O   0  0  0  0  0  0
  -28.2461  -26.4366   20.0484 O   0  0  0  0  0  0
  -26.5563  -34.8914   22.4657 O   0  0  0  0  0  0
  -23.5536  -32.1469   23.7582 O   0  0  0  0  0  0
  -31.9310  -18.4857   20.2882 C   0  0  0  0  0  0
  -32.5095  -19.6765   19.8045 C   0  0  0  0  0  0
  -29.7479  -19.3146   19.6484 C   0  0  0  0  0  0
  -30.5391  -18.2810   20.2503 C   0  0  0  0  0  0
  -31.7245  -20.7297   19.2684 C   0  0  0  0  0  0
  -30.3111  -20.5440   19.1553 C   0  0  0  0  0  0
  -26.9418  -24.3986   20.6946 C   0  0  0  0  0  0
  -26.2434  -23.1815   20.0688 C   0  0  0  0  0  0
  -29.0555  -23.9456   19.4904 C   0  0  0  0  0  0
  -27.9296  -25.0280   19.6938 C   0  0  2  0  0  0
  -27.0761  -22.4498   18.9829 C   0  0  2  0  0  0
  -26.4959  -21.0295   18.7841 C   0  0  0  0  0  0
  -33.8590  -22.2412   19.3330 C   0  0  0  0  0  0
  -29.9382  -17.1070   21.0789 C   0  0  0  0  0  0
  -29.4230  -21.6162   18.4415 C   0  0  0  0  0  0
  -32.3991  -22.0672   18.8957 C   0  0  0  0  0  0
  -29.8028  -15.6961   20.6083 N   0  0  0  0  0  0
  -28.5492  -22.5099   19.3014 N   0  3  1  0  0  0
  -31.7478  -23.0459   19.5140 F   0  0  0  0  0  0
  -32.3580  -22.2769   17.5786 F   0  0  0  0  0  0
  -31.4965  -12.5082   19.1445 H   0  0  0  0  0  0
  -30.3807  -11.3975   19.8864 H   0  0  0  0  0  0
  -29.7963  -11.7684   17.4634 H   0  0  0  0  0  0
  -29.6689  -13.4843   17.7416 H   0  0  0  0  0  0
  -27.8908  -11.2893   18.8623 H   0  0  0  0  0  0
  -27.4015  -12.5654   17.7763 H   0  0  0  0  0  0
  -27.6606  -14.2444   19.4817 H   0  0  0  0  0  0
  -28.7178  -12.1033   21.4058 H   0  0  0  0  0  0
  -28.4587  -13.7816   21.7938 H   0  0  0  0  0  0
  -25.2805   -9.5671   22.4748 H   0  0  0  0  0  0
  -24.0015   -7.4662   22.7519 H   0  0  0  0  0  0
  -21.0848   -8.8763   19.8986 H   0  0  0  0  0  0
  -22.3725  -10.9656   19.6160 H   0  0  0  0  0  0
  -21.1985   -7.6142   23.9669 H   0  0  0  0  0  0
  -21.1488   -6.0528   25.9054 H   0  0  0  0  0  0
  -22.0610   -2.7602   23.2832 H   0  0  0  0  0  0
  -22.4129  -11.9927   22.4792 H   0  0  0  0  0  0
  -21.1145  -13.1274   22.2438 H   0  0  0  0  0  0
  -24.6598  -15.8343   20.5244 H   0  0  0  0  0  0
  -26.2523  -15.6297   20.0052 H   0  0  0  0  0  0
  -26.7354  -32.5518   23.1190 H   0  0  0  0  0  0
  -25.0544  -33.9744   25.0745 H   0  0  0  0  0  0
  -22.7024  -31.3445   21.4354 H   0  0  0  0  0  0
  -23.3800  -35.9535   23.3296 H   0  0  0  0  0  0
  -24.3599  -36.8833   22.2011 H   0  0  0  0  0  0
  -23.7194  -37.6430   23.6615 H   0  0  0  0  0  0
  -26.0615  -31.5729   20.6027 H   0  0  0  0  0  0
  -26.8465  -30.8618   21.9789 H   0  0  0  0  0  0
  -28.0925  -28.9632   21.1626 H   0  0  0  0  0  0
  -25.8151  -26.0850   18.8062 H   0  0  0  0  0  0
  -23.9161  -27.4463   18.9042 H   0  0  0  0  0  0
  -23.7494  -30.6822   19.4224 H   0  0  0  0  0  0
  -22.7189  -29.3508   19.8501 H   0  0  0  0  0  0
  -25.1291  -36.1899   25.0802 H   0  0  0  0  0  0
  -21.0044  -28.3396   24.1305 H   0  0  0  0  0  0
  -20.5705  -26.2465   23.3545 H   0  0  0  0  0  0
  -21.6702  -26.7561   22.1126 H   0  0  0  0  0  0
  -19.6999  -25.6297   21.1215 H   0  0  0  0  0  0
  -19.6671  -27.3179   20.6596 H   0  0  0  0  0  0
  -17.4246  -26.6678   21.4022 H   0  0  0  0  0  0
  -18.0503  -26.0053   22.8952 H   0  0  0  0  0  0
  -19.7983  -30.7329   24.2223 H   0  0  0  0  0  0
  -17.5054  -31.6240   24.5256 H   0  0  0  0  0  0
  -15.5403  -30.3004   23.7611 H   0  0  0  0  0  0
  -15.8721  -28.0776   22.7100 H   0  0  0  0  0  0
  -24.6243  -30.6646   25.7744 H   0  0  0  0  0  0
  -24.8816  -32.2585   26.4758 H   0  0  0  0  0  0
  -25.8245  -30.8811   27.0256 H   0  0  0  0  0  0
  -26.2864  -29.6697   24.1244 H   0  0  0  0  0  0
  -27.4460  -29.7220   25.4335 H   0  0  0  0  0  0
  -27.8617  -30.4354   23.8972 H   0  0  0  0  0  0
  -27.3079  -33.3533   26.2001 H   0  0  0  0  0  0
  -28.4171  -32.6417   25.0359 H   0  0  0  0  0  0
  -28.0827  -31.8213   26.5466 H   0  0  0  0  0  0
  -28.2589  -38.0082   24.7595 H   0  0  0  0  0  0
  -28.1071  -36.2616   24.6278 H   0  0  0  0  0  0
  -27.2312  -37.1403   25.8900 H   0  0  0  0  0  0
  -20.9353  -29.8949   21.6870 H   0  0  0  0  0  0
  -26.0156  -38.2858   24.1455 H   0  0  0  0  0  0
  -32.5667  -17.7500   20.7620 H   0  0  0  0  0  0
  -33.5815  -19.7771   19.9135 H   0  0  0  0  0  0
  -28.6779  -19.1858   19.6080 H   0  0  0  0  0  0
  -27.5108  -24.0812   21.5686 H   0  0  0  0  0  0
  -26.1915  -25.0863   21.0848 H   0  0  0  0  0  0
  -25.3053  -23.5080   19.6131 H   0  0  0  0  0  0
  -25.9542  -22.4990   20.8692 H   0  0  0  0  0  0
  -29.7195  -23.9475   20.3542 H   0  0  0  0  0  0
  -29.6548  -24.2615   18.6370 H   0  0  0  0  0  0
  -27.5057  -25.0597   18.6926 H   0  0  0  0  0  0
  -26.9115  -22.9791   18.0411 H   0  0  0  0  0  0
  -26.8223  -20.3232   19.5446 H   0  0  0  0  0  0
  -26.7253  -20.6116   17.8011 H   0  0  0  0  0  0
  -25.4090  -21.0656   18.8512 H   0  0  0  0  0  0
  -33.9956  -22.0161   20.3882 H   0  0  0  0  0  0
  -34.1894  -23.2689   19.1872 H   0  0  0  0  0  0
  -34.5313  -21.6162   18.7540 H   0  0  0  0  0  0
  -28.9238  -17.4229   21.3254 H   0  0  0  0  0  0
  -30.4454  -17.0945   22.0439 H   0  0  0  0  0  0
  -28.8443  -21.0778   17.6974 H   0  0  0  0  0  0
  -30.0325  -22.2447   17.7996 H   0  0  0  0  0  0
  -28.8455  -15.3870   20.6183 H   0  0  0  0  0  0
  -28.6067  -22.0728   20.2073 H   0  0  0  0  0  0
  1 25  1  0  0  0
  1 30  2  0  0  0
  1 87  1  0  0  0
  2  3  1  0  0  0
  2 25  1  0  0  0
  2 91  1  0  0  0
  2 92  1  0  0  0
  3  4  1  0  0  0
  3 93  1  0  0  0
  3 94  1  0  0  0
  4  5  1  0  0  0
  4 95  1  0  0  0
  4 96  1  0  0  0
  5  6  1  0  0  0
  5 26  1  0  0  0
  5 97  1  0  0  0
  6 25  1  0  0  0
  6 98  1  0  0  0
  6 99  1  0  0  0
  7  8  2  0  0  0
  7 26  1  0  0  0
  7 29  1  0  0  0
  8  9  1  0  0  0
  8 22  1  0  0  0
  9 10  1  0  0  0
  9 27  2  0  0  0
 10 11  2  0  0  0
 10 15  1  0  0  0
 11 12  1  0  0  0
 11100  1  0  0  0
 12 13  2  0  0  0
 12101  1  0  0  0
 13 14  1  0  0  0
 13 31  1  0  0  0
 14 15  2  0  0  0
 14102  1  0  0  0
 15103  1  0  0  0
 16 17  2  0  0  0
 16 21  1  0  0  0
 16 31  1  0  0  0
 17 18  1  0  0  0
 17104  1  0  0  0
 18 19  2  0  0  0
 18105  1  0  0  0
 19 20  1  0  0  0
 19 24  1  0  0  0
 20 21  2  0  0  0
 20106  1  0  0  0
 21 23  1  0  0  0
 22 28  1  0  0  0
 22 32  2  0  0  0
 26 27  1  0  0  0
 28107  1  0  0  0
 28108  1  0  0  0
 29109  1  0  0  0
 29110  1  0  0  0
 33 34  1  0  0  0
 33 66  1  0  0  0
 33 70  2  0  0  0
 34 36  1  0  0  0
 34 59  1  0  0  0
 34111  1  0  0  0
 35 44  2  0  0  0
 35 45  1  0  0  0
 35 68  1  0  0  0
 36 56  1  0  0  0
 36112  1  0  0  0
 37 39  1  0  0  0
 37 47  1  0  0  0
 37 66  1  0  0  0
 37113  1  0  0  0
 38 43  2  0  0  0
 38 46  1  0  0  0
 38 47  1  0  0  0
 39 64  1  0  0  0
 39 67  2  0  0  0
 40 52  1  0  0  0
 40 53  2  0  0  0
 40 58  1  0  0  0
 41114  1  0  0  0
 41115  1  0  0  0
 41116  1  0  0  0
 41 48  1  0  0  0
 42 43  1  0  0  0
 42 66  1  0  0  0
 42117  1  0  0  0
 42118  1  0  0  0
 43 44  1  0  0  0
 44119  1  0  0  0
 45 46  2  0  0  0
 45120  1  0  0  0
 46121  1  0  0  0
 47122  1  0  0  0
 47123  1  0  0  0
 48 56  1  0  0  0
 48 65  1  0  0  0
 48124  1  0  0  0
 49 50  1  0  0  0
 49 53  1  0  0  0
 49 64  1  0  0  0
 49125  1  0  0  0
 50 51  1  0  0  0
 50126  1  0  0  0
 50127  1  0  0  0
 51 52  1  0  0  0
 51128  1  0  0  0
 51129  1  0  0  0
 52130  1  0  0  0
 52131  1  0  0  0
 53 54  1  0  0  0
 54 55  2  0  0  0
 54132  1  0  0  0
 55 57  1  0  0  0
 55133  1  0  0  0
 56 69  2  0  0  0
 57 58  2  0  0  0
 57134  1  0  0  0
 58135  1  0  0  0
 59 60  1  0  0  0
 59 61  1  0  0  0
 59 62  1  0  0  0
 60136  1  0  0  0
 60137  1  0  0  0
 60138  1  0  0  0
 61139  1  0  0  0
 61140  1  0  0  0
 61141  1  0  0  0
 62142  1  0  0  0
 62143  1  0  0  0
 62144  1  0  0  0
 63 65  1  0  0  0
 63145  1  0  0  0
 63146  1  0  0  0
 63147  1  0  0  0
 64148  1  0  0  0
 65149  1  0  0  0
 68 80  1  0  0  0
 71 72  2  0  0  0
 71 74  1  0  0  0
 71150  1  0  0  0
 72 75  1  0  0  0
 72151  1  0  0  0
 73 74  2  0  0  0
 73 76  1  0  0  0
 73152  1  0  0  0
 74 84  1  0  0  0
 75 76  2  0  0  0
 75 86  1  0  0  0
 76 85  1  0  0  0
 77 78  1  0  0  0
 77 80  1  0  0  0
 77153  1  0  0  0
 77154  1  0  0  0
 78 81  1  0  0  0
 78155  1  0  0  0
 78156  1  0  0  0
 79 80  1  0  0  0
 79 88  1  0  0  0
 79157  1  0  0  0
 79158  1  0  0  0
 80159  1  0  0  0
 81 82  1  0  0  0
 81 88  1  0  0  0
 81160  1  0  0  0
 82161  1  0  0  0
 82162  1  0  0  0
 82163  1  0  0  0
 83164  1  0  0  0
 83165  1  0  0  0
 83166  1  0  0  0
 83 86  1  0  0  0
 84 87  1  0  0  0
 84167  1  0  0  0
 84168  1  0  0  0
 85169  1  0  0  0
 85170  1  0  0  0
 85 88  1  0  0  0
 86 89  1  0  0  0
 86 90  1  0  0  0
 87171  1  0  0  0
 88172  1  0  0  0
M  CHG  1  88   1
M  ISO  4   1 100  68 101  80 101  87 100
M  END
> <chiral flag>
0

> <version>
0

> <s_m_source_file>
/data/baiqing/PycharmProjects/Reinvent-master-3.2/result/LINK_invent/BTK/process_docking_weight1_custom_product_contain_oxygen_bond_distance_aromatic_linkinvent_7_9_3/rearranged_h_0049.sdf

> <i_m_source_file_index>
67

> <r_mmod_Potential_Energy-OPLS-2005>
54.1858139038086

> <r_mmod_Stretch_Energy-OPLS-2005>
81.9871139526367

> <r_mmod_Bend_Energy-OPLS-2005>
177.496780395508

> <r_mmod_Torsional_Energy-OPLS-2005>
274.672668457031

> <r_mmod_Improper_Torsional_Energy-OPLS-2005>
7.70086145401001

> <r_mmod_Van_der_Waal_Energy-OPLS-2005>
180.19987487793

> <r_mmod_Electrostatic_Energy-OPLS-2005>
-319.479187011719

> <r_mmod_Solvation_Energy-OPLS-2005>
-409.804626464844

> <b_mmod_Minimization_Converged-OPLS-2005>
0

> <r_mmod_RMS_Derivative-OPLS-2005>
8.54690265655518

$$$$
67
                    3D
 Structure written by MMmdl.
158167  0  0  1  0            999 V2000
  -30.5044  -15.0325   20.3942 C   0  0  0  0  0  0
  -30.4295  -12.6348   19.4968 C   0  0  0  0  0  0
  -29.5158  -12.5455   18.2529 C   0  0  0  0  0  0
  -28.0500  -12.3250   18.6700 C   0  0  0  0  0  0
  -27.6209  -13.2580   19.8326 C   0  0  2  0  0  0
  -28.6666  -13.3170   20.9664 C   0  0  0  0  0  0
  -25.2451  -13.8235   20.5796 C   0  0  0  0  0  0
  -24.1781  -13.0447   20.9285 C   0  0  0  0  0  0
  -24.6404  -11.6928   20.8741 C   0  0  0  0  0  0
  -23.9073  -10.4315   21.0407 C   0  0  0  0  0  0
  -24.3616   -9.4240   21.9204 C   0  0  0  0  0  0
  -23.6301   -8.2263   22.0774 C   0  0  0  0  0  0
  -22.4290   -8.0292   21.3552 C   0  0  0  0  0  0
  -21.9920   -9.0263   20.4659 C   0  0  0  0  0  0
  -22.7221  -10.2160   20.3079 C   0  0  0  0  0  0
  -21.6875   -6.0728   22.5283 C   0  0  0  0  0  0
  -21.4016   -6.5634   23.8205 C   0  0  0  0  0  0
  -21.3671   -5.6796   24.9168 C   0  0  0  0  0  0
  -21.6048   -4.3058   24.7235 C   0  0  0  0  0  0
  -21.8826   -3.8148   23.4361 C   0  0  0  0  0  0
  -21.9213   -4.6961   22.3415 C   0  0  0  0  0  0
  -22.7805  -13.5219   21.1925 C   0  0  0  0  0  0
  -22.1682   -4.2144   21.0994 F   0  0  0  0  0  0
  -21.5633   -3.4542   25.7754 F   0  0  0  0  0  0
  -29.9264  -13.7538   20.3544 N   0  0  0  0  0  0
  -26.2852  -12.9471   20.3248 N   0  0  0  0  0  0
  -25.9331  -11.6587   20.5713 N   0  0  0  0  0  0
  -22.0498  -12.8147   22.0461 N   0  0  0  0  0  0
  -25.4152  -15.1952   20.4259 N   0  0  0  0  0  0
  -31.7151  -15.0833   20.1503 O   0  0  0  0  0  0
  -21.6654   -6.8877   21.4246 O   0  0  0  0  0  0
  -22.3462  -14.5520   20.6778 O   0  0  0  0  0  0
  -24.6515  -31.8355   23.1810 C   0  0  0  0  0  0
  -25.9259  -32.4652   23.8216 C   0  0  1  0  0  0
  -27.2220  -27.0589   20.1479 C   0  0  0  0  0  0
  -25.5974  -33.8456   24.2133 N   0  0  0  0  0  0
  -23.4592  -30.4538   21.5292 C   0  0  2  0  0  0
  -24.9093  -28.8649   20.1069 C   0  0  0  0  0  0
  -22.7601  -29.4507   22.4810 C   0  0  0  0  0  0
  -18.0314  -28.1387   22.8492 C   0  0  0  0  0  0
  -24.1507  -36.7225   23.2642 C   0  0  0  0  0  0
  -26.0195  -30.6831   21.3914 C   0  0  0  0  0  0
  -26.0875  -29.2859   20.7319 C   0  0  0  0  0  0
  -27.2390  -28.4001   20.7384 C   0  0  0  0  0  0
  -26.0164  -26.7644   19.4721 C   0  0  0  0  0  0
  -24.8897  -27.6200   19.4597 C   0  0  0  0  0  0
  -23.6899  -29.7778   20.1510 C   0  0  0  0  0  0
  -25.4149  -36.3011   24.0308 C   0  0  1  0  0  0
  -20.5936  -28.3733   23.1224 C   0  0  2  0  0  0
  -20.6813  -26.9429   22.5408 C   0  0  0  0  0  0
  -19.5785  -26.6376   21.5222 C   0  0  0  0  0  0
  -18.1957  -26.7923   22.1614 C   0  0  0  0  0  0
  -19.1575  -28.8879   23.2862 C   0  0  0  0  0  0
  -18.9481  -30.1475   23.8888 C   0  0  0  0  0  0
  -17.6483  -30.6591   24.0555 C   0  0  0  0  0  0
  -25.9095  -34.9378   23.5030 C   0  0  0  0  0  0
  -16.5374  -29.9079   23.6336 C   0  0  0  0  0  0
  -16.7309  -28.6491   23.0375 C   0  0  0  0  0  0
  -26.4536  -31.6557   25.0697 C   0  0  0  0  0  0
  -25.3683  -31.3761   26.1365 C   0  0  0  0  0  0
  -27.0417  -30.2943   24.6356 C   0  0  0  0  0  0
  -27.6080  -32.4330   25.7490 C   0  0  0  0  0  0
  -27.5582  -37.1786   24.8466 C   0  0  0  0  0  0
  -21.4284  -29.3037   22.3561 N   0  0  0  0  0  0
  -26.4292  -37.3744   23.9415 N   0  0  0  0  0  0
  -24.7311  -31.0137   22.0878 N   0  0  0  0  0  0
  -23.4208  -28.8072   23.3011 O   0  0  0  0  0  0
  -28.2624  -26.0371   20.2720 O   0  0  0  0  0  0
  -26.5683  -34.8884   22.4611 O   0  0  0  0  0  0
  -23.5627  -32.1244   23.7001 O   0  0  0  0  0  0
  -28.0578  -18.3181   19.0635 C   0  0  0  0  0  0
  -26.1799  -19.4540   20.0534 C   0  0  0  0  0  0
  -28.9295  -18.9942   19.9455 C   0  0  0  0  0  0
  -28.4440  -20.3638   20.4609 C   0  0  0  0  0  0
  -26.6786  -18.5524   19.1077 C   0  0  0  0  0  0
  -27.0420  -20.3149   20.7620 C   0  0  0  0  0  0
  -28.4948  -23.1423   20.5762 C   0  0  0  0  0  0
  -29.4487  -23.1509   17.8951 C   0  0  0  0  0  0
  -29.3904  -24.5136   18.6221 C   0  0  0  0  0  0
  -29.6904  -21.9255   18.8259 C   0  0  0  0  0  0
  -28.2804  -24.5528   19.6845 C   0  0  2  0  0  0
  -29.9724  -17.8274   20.5361 C   0  0  0  0  0  0
  -28.8267  -21.8368   20.0202 N   0  0  0  0  0  0
  -29.7114  -16.2304   20.5081 N   0  0  0  0  0  0
  -28.4112  -23.2782   21.8001 O   0  0  0  0  0  0
  -25.6043  -17.6036   18.1438 Cl  0  0  0  0  0  0
  -26.2434  -21.3461   21.8981 Cl  0  0  0  0  0  0
  -31.4610  -12.7979   19.1835 H   0  0  0  0  0  0
  -30.4278  -11.6873   20.0398 H   0  0  0  0  0  0
  -29.8440  -11.7439   17.5876 H   0  0  0  0  0  0
  -29.5931  -13.4671   17.6770 H   0  0  0  0  0  0
  -27.9478  -11.2819   18.9707 H   0  0  0  0  0  0
  -27.3889  -12.4622   17.8127 H   0  0  0  0  0  0
  -27.5674  -14.2535   19.3910 H   0  0  0  0  0  0
  -28.7803  -12.3476   21.4550 H   0  0  0  0  0  0
  -28.3560  -14.0190   21.7430 H   0  0  0  0  0  0
  -25.2784   -9.5700   22.4741 H   0  0  0  0  0  0
  -24.0054   -7.4645   22.7468 H   0  0  0  0  0  0
  -21.0887   -8.8750   19.8919 H   0  0  0  0  0  0
  -22.3712  -10.9683   19.6172 H   0  0  0  0  0  0
  -21.1980   -7.6140   23.9688 H   0  0  0  0  0  0
  -21.1480   -6.0534   25.9062 H   0  0  0  0  0  0
  -22.0596   -2.7611   23.2852 H   0  0  0  0  0  0
  -22.4147  -11.9742   22.4686 H   0  0  0  0  0  0
  -21.1130  -13.1131   22.2754 H   0  0  0  0  0  0
  -24.6360  -15.8391   20.4894 H   0  0  0  0  0  0
  -26.2313  -15.6103   19.9960 H   0  0  0  0  0  0
  -26.7306  -32.5225   23.0920 H   0  0  0  0  0  0
  -25.0130  -33.9569   25.0290 H   0  0  0  0  0  0
  -22.7658  -31.2838   21.3704 H   0  0  0  0  0  0
  -23.3772  -35.9545   23.3278 H   0  0  0  0  0  0
  -24.3585  -36.8886   22.2057 H   0  0  0  0  0  0
  -23.7234  -37.6408   23.6685 H   0  0  0  0  0  0
  -26.1904  -31.4333   20.6167 H   0  0  0  0  0  0
  -26.8829  -30.7276   22.0453 H   0  0  0  0  0  0
  -28.1321  -28.7230   21.2552 H   0  0  0  0  0  0
  -25.8838  -25.8182   18.9739 H   0  0  0  0  0  0
  -23.9859  -27.2905   18.9671 H   0  0  0  0  0  0
  -23.8353  -30.5503   19.3956 H   0  0  0  0  0  0
  -22.7994  -29.2309   19.8373 H   0  0  0  0  0  0
  -25.1344  -36.1816   25.0797 H   0  0  0  0  0  0
  -21.0060  -28.3327   24.1343 H   0  0  0  0  0  0
  -20.5721  -26.2349   23.3643 H   0  0  0  0  0  0
  -21.6682  -26.7445   22.1208 H   0  0  0  0  0  0
  -19.6973  -25.6285   21.1280 H   0  0  0  0  0  0
  -19.6733  -27.3158   20.6734 H   0  0  0  0  0  0
  -17.4256  -26.6703   21.3993 H   0  0  0  0  0  0
  -18.0350  -26.0056   22.8999 H   0  0  0  0  0  0
  -19.7956  -30.7301   24.2264 H   0  0  0  0  0  0
  -17.5022  -31.6279   24.5136 H   0  0  0  0  0  0
  -15.5365  -30.2980   23.7661 H   0  0  0  0  0  0
  -15.8703  -28.0794   22.7116 H   0  0  0  0  0  0
  -24.5920  -30.7053   25.7653 H   0  0  0  0  0  0
  -24.8796  -32.2935   26.4655 H   0  0  0  0  0  0
  -25.7926  -30.9023   27.0226 H   0  0  0  0  0  0
  -26.3046  -29.6647   24.1356 H   0  0  0  0  0  0
  -27.3971  -29.7287   25.4977 H   0  0  0  0  0  0
  -27.8979  -30.4149   23.9717 H   0  0  0  0  0  0
  -27.2696  -33.3679   26.1966 H   0  0  0  0  0  0
  -28.3936  -32.6804   25.0336 H   0  0  0  0  0  0
  -28.0674  -31.8501   26.5489 H   0  0  0  0  0  0
  -28.2599  -38.0084   24.7536 H   0  0  0  0  0  0
  -28.1084  -36.2624   24.6276 H   0  0  0  0  0  0
  -27.2301  -37.1409   25.8865 H   0  0  0  0  0  0
  -20.9492  -29.8730   21.6710 H   0  0  0  0  0  0
  -26.0142  -38.2805   24.1420 H   0  0  0  0  0  0
  -28.3931  -17.4455   18.5224 H   0  0  0  0  0  0
  -25.1135  -19.5160   20.2109 H   0  0  0  0  0  0
  -30.2394  -23.1876   17.1442 H   0  0  0  0  0  0
  -28.5192  -23.0057   17.3429 H   0  0  0  0  0  0
  -29.2382  -25.3091   17.8906 H   0  0  0  0  0  0
  -30.3505  -24.7191   19.0979 H   0  0  0  0  0  0
  -30.7294  -21.9282   19.1599 H   0  0  0  0  0  0
  -29.5786  -21.0212   18.2284 H   0  0  0  0  0  0
  -27.3394  -24.3787   19.1698 H   0  0  0  0  0  0
  -30.1381  -18.0840   21.5828 H   0  0  0  0  0  0
  -30.9382  -17.9890   20.0529 H   0  0  0  0  0  0
  -28.7406  -16.0105   20.6699 H   0  0  0  0  0  0
  1 25  1  0  0  0
  1 30  2  0  0  0
  1 84  1  0  0  0
  2  3  1  0  0  0
  2 25  1  0  0  0
  2 88  1  0  0  0
  2 89  1  0  0  0
  3  4  1  0  0  0
  3 90  1  0  0  0
  3 91  1  0  0  0
  4  5  1  0  0  0
  4 92  1  0  0  0
  4 93  1  0  0  0
  5  6  1  0  0  0
  5 26  1  0  0  0
  5 94  1  0  0  0
  6 25  1  0  0  0
  6 95  1  0  0  0
  6 96  1  0  0  0
  7  8  2  0  0  0
  7 26  1  0  0  0
  7 29  1  0  0  0
  8  9  1  0  0  0
  8 22  1  0  0  0
  9 10  1  0  0  0
  9 27  2  0  0  0
 10 11  2  0  0  0
 10 15  1  0  0  0
 11 12  1  0  0  0
 11 97  1  0  0  0
 12 13  2  0  0  0
 12 98  1  0  0  0
 13 14  1  0  0  0
 13 31  1  0  0  0
 14 15  2  0  0  0
 14 99  1  0  0  0
 15100  1  0  0  0
 16 17  2  0  0  0
 16 21  1  0  0  0
 16 31  1  0  0  0
 17 18  1  0  0  0
 17101  1  0  0  0
 18 19  2  0  0  0
 18102  1  0  0  0
 19 20  1  0  0  0
 19 24  1  0  0  0
 20 21  2  0  0  0
 20103  1  0  0  0
 21 23  1  0  0  0
 22 28  1  0  0  0
 22 32  2  0  0  0
 26 27  1  0  0  0
 28104  1  0  0  0
 28105  1  0  0  0
 29106  1  0  0  0
 29107  1  0  0  0
 33 34  1  0  0  0
 33 66  1  0  0  0
 33 70  2  0  0  0
 34 36  1  0  0  0
 34 59  1  0  0  0
 34108  1  0  0  0
 35 44  2  0  0  0
 35 45  1  0  0  0
 35 68  1  0  0  0
 36 56  1  0  0  0
 36109  1  0  0  0
 37 39  1  0  0  0
 37 47  1  0  0  0
 37 66  1  0  0  0
 37110  1  0  0  0
 38 43  2  0  0  0
 38 46  1  0  0  0
 38 47  1  0  0  0
 39 64  1  0  0  0
 39 67  2  0  0  0
 40 52  1  0  0  0
 40 53  2  0  0  0
 40 58  1  0  0  0
 41111  1  0  0  0
 41112  1  0  0  0
 41113  1  0  0  0
 41 48  1  0  0  0
 42 43  1  0  0  0
 42 66  1  0  0  0
 42114  1  0  0  0
 42115  1  0  0  0
 43 44  1  0  0  0
 44116  1  0  0  0
 45 46  2  0  0  0
 45117  1  0  0  0
 46118  1  0  0  0
 47119  1  0  0  0
 47120  1  0  0  0
 48 56  1  0  0  0
 48 65  1  0  0  0
 48121  1  0  0  0
 49 50  1  0  0  0
 49 53  1  0  0  0
 49 64  1  0  0  0
 49122  1  0  0  0
 50 51  1  0  0  0
 50123  1  0  0  0
 50124  1  0  0  0
 51 52  1  0  0  0
 51125  1  0  0  0
 51126  1  0  0  0
 52127  1  0  0  0
 52128  1  0  0  0
 53 54  1  0  0  0
 54 55  2  0  0  0
 54129  1  0  0  0
 55 57  1  0  0  0
 55130  1  0  0  0
 56 69  2  0  0  0
 57 58  2  0  0  0
 57131  1  0  0  0
 58132  1  0  0  0
 59 60  1  0  0  0
 59 61  1  0  0  0
 59 62  1  0  0  0
 60133  1  0  0  0
 60134  1  0  0  0
 60135  1  0  0  0
 61136  1  0  0  0
 61137  1  0  0  0
 61138  1  0  0  0
 62139  1  0  0  0
 62140  1  0  0  0
 62141  1  0  0  0
 63 65  1  0  0  0
 63142  1  0  0  0
 63143  1  0  0  0
 63144  1  0  0  0
 64145  1  0  0  0
 65146  1  0  0  0
 68 81  1  0  0  0
 71 73  2  0  0  0
 71 75  1  0  0  0
 71147  1  0  0  0
 72 75  2  0  0  0
 72 76  1  0  0  0
 72148  1  0  0  0
 73 74  1  0  0  0
 73 82  1  0  0  0
 74 76  2  0  0  0
 74 83  1  0  0  0
 75 86  1  0  0  0
 76 87  1  0  0  0
 77 81  1  0  0  0
 77 83  1  0  0  0
 77 85  2  0  0  0
 78 79  1  0  0  0
 78 80  1  0  0  0
 78149  1  0  0  0
 78150  1  0  0  0
 79 81  1  0  0  0
 79151  1  0  0  0
 79152  1  0  0  0
 80 83  1  0  0  0
 80153  1  0  0  0
 80154  1  0  0  0
 81155  1  0  0  0
 82 84  1  0  0  0
 82156  1  0  0  0
 82157  1  0  0  0
 84158  1  0  0  0
M  ISO  4   1 100  68 101  81 101  84 100
M  END
> <chiral flag>
0

> <version>
0

> <s_m_source_file>
/data/baiqing/PycharmProjects/Reinvent-master-3.2/result/LINK_invent/BTK/process_docking_weight1_custom_product_contain_oxygen_bond_distance_aromatic_linkinvent_7_9_3/rearranged_h_0049.sdf

> <i_m_source_file_index>
68

> <r_mmod_Potential_Energy-OPLS-2005>
996.992797851562

> <r_mmod_Stretch_Energy-OPLS-2005>
381.522430419922

> <r_mmod_Bend_Energy-OPLS-2005>
328.013061523438

> <r_mmod_Torsional_Energy-OPLS-2005>
457.530853271484

> <r_mmod_Improper_Torsional_Energy-OPLS-2005>
24.7973899841309

> <r_mmod_Van_der_Waal_Energy-OPLS-2005>
138.508926391602

> <r_mmod_Electrostatic_Energy-OPLS-2005>
-361.865600585938

> <r_mmod_Solvation_Energy-OPLS-2005>
-233.142852783203

> <b_mmod_Minimization_Converged-OPLS-2005>
0

> <r_mmod_RMS_Derivative-OPLS-2005>
4.46128511428833

$$$$
68
                    3D
 Structure written by MMmdl.
154162  0  0  1  0            999 V2000
  -30.6113  -14.7552   20.4778 C   0  0  0  0  0  0
  -30.4349  -12.4677   19.4683 C   0  0  0  0  0  0
  -29.5083  -12.5112   18.2337 C   0  0  0  0  0  0
  -28.0365  -12.3283   18.6523 C   0  0  0  0  0  0
  -27.6405  -13.2323   19.8501 C   0  0  2  0  0  0
  -28.6870  -13.1696   20.9830 C   0  0  0  0  0  0
  -25.2498  -13.8203   20.5682 C   0  0  0  0  0  0
  -24.1798  -13.0444   20.9216 C   0  0  0  0  0  0
  -24.6402  -11.6923   20.8767 C   0  0  0  0  0  0
  -23.9086  -10.4296   21.0423 C   0  0  0  0  0  0
  -24.3633   -9.4203   21.9194 C   0  0  0  0  0  0
  -23.6301   -8.2243   22.0760 C   0  0  0  0  0  0
  -22.4279   -8.0290   21.3552 C   0  0  0  0  0  0
  -21.9926   -9.0265   20.4651 C   0  0  0  0  0  0
  -22.7265  -10.2142   20.3066 C   0  0  0  0  0  0
  -21.6850   -6.0751   22.5283 C   0  0  0  0  0  0
  -21.4010   -6.5648   23.8218 C   0  0  0  0  0  0
  -21.3658   -5.6791   24.9175 C   0  0  0  0  0  0
  -21.6046   -4.3059   24.7219 C   0  0  0  0  0  0
  -21.8817   -3.8157   23.4334 C   0  0  0  0  0  0
  -21.9189   -4.6978   22.3396 C   0  0  0  0  0  0
  -22.7816  -13.5223   21.1870 C   0  0  0  0  0  0
  -22.1657   -4.2167   21.0973 F   0  0  0  0  0  0
  -21.5629   -3.4537   25.7727 F   0  0  0  0  0  0
  -29.9834  -13.5308   20.3953 N   0  0  0  0  0  0
  -26.2932  -12.9413   20.3289 N   0  0  0  0  0  0
  -25.9332  -11.6558   20.5771 N   0  0  0  0  0  0
  -22.0465  -12.8207   22.0425 N   0  0  0  0  0  0
  -25.4173  -15.1928   20.4067 N   0  0  0  0  0  0
  -31.8088  -14.8432   20.1920 O   0  0  0  0  0  0
  -21.6638   -6.8892   21.4244 O   0  0  0  0  0  0
  -22.3495  -14.5526   20.6717 O   0  0  0  0  0  0
  -24.6308  -31.8538   23.1963 C   0  0  0  0  0  0
  -25.9128  -32.4748   23.8314 C   0  0  1  0  0  0
  -27.2276  -27.2610   20.1472 C   0  0  0  0  0  0
  -25.5928  -33.8545   24.2247 N   0  0  0  0  0  0
  -23.4282  -30.4747   21.5394 C   0  0  2  0  0  0
  -24.8771  -28.9098   20.1216 C   0  0  0  0  0  0
  -22.7497  -29.4598   22.4909 C   0  0  0  0  0  0
  -18.0293  -28.1382   22.8475 C   0  0  0  0  0  0
  -24.1495  -36.7272   23.2644 C   0  0  0  0  0  0
  -25.9735  -30.7681   21.3747 C   0  0  0  0  0  0
  -26.0482  -29.3857   20.7274 C   0  0  0  0  0  0
  -27.2287  -28.5753   20.7237 C   0  0  0  0  0  0
  -26.0359  -26.8408   19.5258 C   0  0  0  0  0  0
  -24.8756  -27.6438   19.5119 C   0  0  0  0  0  0
  -23.6489  -29.7997   20.1591 C   0  0  0  0  0  0
  -25.4110  -36.3055   24.0335 C   0  0  1  0  0  0
  -20.5898  -28.3678   23.1271 C   0  0  2  0  0  0
  -20.6780  -26.9394   22.5412 C   0  0  0  0  0  0
  -19.5763  -26.6371   21.5211 C   0  0  0  0  0  0
  -18.1940  -26.7933   22.1610 C   0  0  0  0  0  0
  -19.1547  -28.8842   23.2874 C   0  0  0  0  0  0
  -18.9479  -30.1452   23.8877 C   0  0  0  0  0  0
  -17.6476  -30.6579   24.0556 C   0  0  0  0  0  0
  -25.9037  -34.9429   23.5083 C   0  0  0  0  0  0
  -16.5362  -29.9078   23.6337 C   0  0  0  0  0  0
  -16.7278  -28.6505   23.0336 C   0  0  0  0  0  0
  -26.4497  -31.6571   25.0700 C   0  0  0  0  0  0
  -25.3731  -31.3739   26.1433 C   0  0  0  0  0  0
  -27.0335  -30.2986   24.6178 C   0  0  0  0  0  0
  -27.6050  -32.4308   25.7481 C   0  0  0  0  0  0
  -27.5577  -37.1786   24.8467 C   0  0  0  0  0  0
  -21.4200  -29.3042   22.3663 N   0  0  0  0  0  0
  -26.4282  -37.3754   23.9415 N   0  0  0  0  0  0
  -24.6963  -31.0503   22.0936 N   0  0  0  0  0  0
  -23.4203  -28.8151   23.3015 O   0  0  0  0  0  0
  -28.3418  -26.3989   20.0837 O   0  0  0  0  0  0
  -26.5619  -34.8913   22.4661 O   0  0  0  0  0  0
  -23.5459  -32.1358   23.7264 O   0  0  0  0  0  0
  -30.8421  -20.0557   21.5013 C   0  0  0  0  0  0
  -31.3446  -17.6466   21.5575 C   0  0  0  0  0  0
  -29.6867  -19.8698   20.7075 C   0  0  0  0  0  0
  -30.1775  -17.3296   20.8290 C   0  0  0  0  0  0
  -31.6610  -18.9775   21.8960 C   0  0  0  0  0  0
  -29.3597  -18.4701   20.4138 C   0  0  0  0  0  0
  -28.2202  -23.6885   20.2765 C   0  0  0  0  0  0
  -30.5605  -23.0188   20.3984 C   0  0  0  0  0  0
  -28.8130  -21.1385   20.2149 C   0  0  0  0  0  0
  -28.4141  -25.1559   20.9228 C   0  0  0  0  0  0
  -29.8235  -15.8936   20.6226 N   0  0  0  0  0  0
  -29.1438  -22.6423   20.4112 N   0  0  0  0  0  0
  -27.1277  -23.4607   19.7483 O   0  0  0  0  0  0
  -33.0782  -19.2964   22.8284 Cl  0  0  0  0  0  0
  -27.9119  -18.1312   19.5340 Cl  0  0  0  0  0  0
  -31.4744  -12.6001   19.1627 H   0  0  0  0  0  0
  -30.3878  -11.4918   19.9544 H   0  0  0  0  0  0
  -29.7930  -11.7378   17.5196 H   0  0  0  0  0  0
  -29.6273  -13.4653   17.7179 H   0  0  0  0  0  0
  -27.9001  -11.2803   18.9221 H   0  0  0  0  0  0
  -27.3742  -12.5118   17.8055 H   0  0  0  0  0  0
  -27.6323  -14.2527   19.4670 H   0  0  0  0  0  0
  -28.7272  -12.1703   21.4179 H   0  0  0  0  0  0
  -28.4210  -13.8463   21.7969 H   0  0  0  0  0  0
  -25.2779   -9.5665   22.4767 H   0  0  0  0  0  0
  -24.0006   -7.4625   22.7473 H   0  0  0  0  0  0
  -21.0862   -8.8795   19.8943 H   0  0  0  0  0  0
  -22.3740  -10.9685   19.6171 H   0  0  0  0  0  0
  -21.2004   -7.6156   23.9728 H   0  0  0  0  0  0
  -21.1482   -6.0521   25.9080 H   0  0  0  0  0  0
  -22.0598   -2.7620   23.2825 H   0  0  0  0  0  0
  -22.4082  -11.9860   22.4795 H   0  0  0  0  0  0
  -21.1092  -13.1239   22.2658 H   0  0  0  0  0  0
  -24.6428  -15.8397   20.5065 H   0  0  0  0  0  0
  -26.2518  -15.6343   20.0436 H   0  0  0  0  0  0
  -26.7191  -32.5389   23.1050 H   0  0  0  0  0  0
  -25.0105  -33.9685   25.0418 H   0  0  0  0  0  0
  -22.7252  -31.2966   21.3874 H   0  0  0  0  0  0
  -23.3761  -35.9600   23.3285 H   0  0  0  0  0  0
  -24.3600  -36.8907   22.2064 H   0  0  0  0  0  0
  -23.7248  -37.6469   23.6671 H   0  0  0  0  0  0
  -26.1101  -31.5257   20.6015 H   0  0  0  0  0  0
  -26.8517  -30.8211   22.0059 H   0  0  0  0  0  0
  -28.1328  -28.9467   21.1832 H   0  0  0  0  0  0
  -26.0045  -25.8709   19.0498 H   0  0  0  0  0  0
  -23.9788  -27.2726   19.0346 H   0  0  0  0  0  0
  -23.7792  -30.5717   19.4002 H   0  0  0  0  0  0
  -22.7671  -29.2348   19.8498 H   0  0  0  0  0  0
  -25.1300  -36.1890   25.0830 H   0  0  0  0  0  0
  -20.9972  -28.3244   24.1398 H   0  0  0  0  0  0
  -20.5664  -26.2285   23.3612 H   0  0  0  0  0  0
  -21.6653  -26.7414   22.1213 H   0  0  0  0  0  0
  -19.6927  -25.6282   21.1236 H   0  0  0  0  0  0
  -19.6712  -27.3181   20.6742 H   0  0  0  0  0  0
  -17.4215  -26.6661   21.4012 H   0  0  0  0  0  0
  -18.0332  -26.0083   22.9010 H   0  0  0  0  0  0
  -19.7955  -30.7271   24.2221 H   0  0  0  0  0  0
  -17.5038  -31.6261   24.5158 H   0  0  0  0  0  0
  -15.5364  -30.2974   23.7684 H   0  0  0  0  0  0
  -15.8677  -28.0830   22.7037 H   0  0  0  0  0  0
  -24.5912  -30.7066   25.7792 H   0  0  0  0  0  0
  -24.8925  -32.2923   26.4810 H   0  0  0  0  0  0
  -25.8067  -30.8971   27.0233 H   0  0  0  0  0  0
  -26.2913  -29.6735   24.1202 H   0  0  0  0  0  0
  -27.4035  -29.7236   25.4675 H   0  0  0  0  0  0
  -27.8777  -30.4271   23.9403 H   0  0  0  0  0  0
  -27.2651  -33.3631   26.2006 H   0  0  0  0  0  0
  -28.3889  -32.6820   25.0323 H   0  0  0  0  0  0
  -28.0669  -31.8456   26.5445 H   0  0  0  0  0  0
  -28.2575  -38.0100   24.7506 H   0  0  0  0  0  0
  -28.1088  -36.2623   24.6282 H   0  0  0  0  0  0
  -27.2302  -37.1422   25.8875 H   0  0  0  0  0  0
  -20.9367  -29.8773   21.6886 H   0  0  0  0  0  0
  -26.0155  -38.2825   24.1423 H   0  0  0  0  0  0
  -31.1341  -21.0358   21.8359 H   0  0  0  0  0  0
  -31.9999  -16.8639   21.9093 H   0  0  0  0  0  0
  -30.7405  -23.9145   19.8008 H   0  0  0  0  0  0
  -31.1790  -22.2439   19.9455 H   0  0  0  0  0  0
  -30.9213  -23.2183   21.4074 H   0  0  0  0  0  0
  -27.8218  -20.9862   20.6447 H   0  0  0  0  0  0
  -28.6728  -21.0055   19.1418 H   0  0  0  0  0  0
  -29.3681  -25.1820   21.4470 H   0  0  0  0  0  0
  -27.6668  -25.2443   21.7123 H   0  0  0  0  0  0
  -28.8330  -15.7102   20.5985 H   0  0  0  0  0  0
  1 25  1  0  0  0
  1 30  2  0  0  0
  1 81  1  0  0  0
  2  3  1  0  0  0
  2 25  1  0  0  0
  2 86  1  0  0  0
  2 87  1  0  0  0
  3  4  1  0  0  0
  3 88  1  0  0  0
  3 89  1  0  0  0
  4  5  1  0  0  0
  4 90  1  0  0  0
  4 91  1  0  0  0
  5  6  1  0  0  0
  5 26  1  0  0  0
  5 92  1  0  0  0
  6 25  1  0  0  0
  6 93  1  0  0  0
  6 94  1  0  0  0
  7  8  2  0  0  0
  7 26  1  0  0  0
  7 29  1  0  0  0
  8  9  1  0  0  0
  8 22  1  0  0  0
  9 10  1  0  0  0
  9 27  2  0  0  0
 10 11  2  0  0  0
 10 15  1  0  0  0
 11 12  1  0  0  0
 11 95  1  0  0  0
 12 13  2  0  0  0
 12 96  1  0  0  0
 13 14  1  0  0  0
 13 31  1  0  0  0
 14 15  2  0  0  0
 14 97  1  0  0  0
 15 98  1  0  0  0
 16 17  2  0  0  0
 16 21  1  0  0  0
 16 31  1  0  0  0
 17 18  1  0  0  0
 17 99  1  0  0  0
 18 19  2  0  0  0
 18100  1  0  0  0
 19 20  1  0  0  0
 19 24  1  0  0  0
 20 21  2  0  0  0
 20101  1  0  0  0
 21 23  1  0  0  0
 22 28  1  0  0  0
 22 32  2  0  0  0
 26 27  1  0  0  0
 28102  1  0  0  0
 28103  1  0  0  0
 29104  1  0  0  0
 29105  1  0  0  0
 33 34  1  0  0  0
 33 66  1  0  0  0
 33 70  2  0  0  0
 34 36  1  0  0  0
 34 59  1  0  0  0
 34106  1  0  0  0
 35 44  2  0  0  0
 35 45  1  0  0  0
 35 68  1  0  0  0
 36 56  1  0  0  0
 36107  1  0  0  0
 37 39  1  0  0  0
 37 47  1  0  0  0
 37 66  1  0  0  0
 37108  1  0  0  0
 38 43  2  0  0  0
 38 46  1  0  0  0
 38 47  1  0  0  0
 39 64  1  0  0  0
 39 67  2  0  0  0
 40 52  1  0  0  0
 40 53  2  0  0  0
 40 58  1  0  0  0
 41109  1  0  0  0
 41110  1  0  0  0
 41111  1  0  0  0
 41 48  1  0  0  0
 42 43  1  0  0  0
 42 66  1  0  0  0
 42112  1  0  0  0
 42113  1  0  0  0
 43 44  1  0  0  0
 44114  1  0  0  0
 45 46  2  0  0  0
 45115  1  0  0  0
 46116  1  0  0  0
 47117  1  0  0  0
 47118  1  0  0  0
 48 56  1  0  0  0
 48 65  1  0  0  0
 48119  1  0  0  0
 49 50  1  0  0  0
 49 53  1  0  0  0
 49 64  1  0  0  0
 49120  1  0  0  0
 50 51  1  0  0  0
 50121  1  0  0  0
 50122  1  0  0  0
 51 52  1  0  0  0
 51123  1  0  0  0
 51124  1  0  0  0
 52125  1  0  0  0
 52126  1  0  0  0
 53 54  1  0  0  0
 54 55  2  0  0  0
 54127  1  0  0  0
 55 57  1  0  0  0
 55128  1  0  0  0
 56 69  2  0  0  0
 57 58  2  0  0  0
 57129  1  0  0  0
 58130  1  0  0  0
 59 60  1  0  0  0
 59 61  1  0  0  0
 59 62  1  0  0  0
 60131  1  0  0  0
 60132  1  0  0  0
 60133  1  0  0  0
 61134  1  0  0  0
 61135  1  0  0  0
 61136  1  0  0  0
 62137  1  0  0  0
 62138  1  0  0  0
 62139  1  0  0  0
 63 65  1  0  0  0
 63140  1  0  0  0
 63141  1  0  0  0
 63142  1  0  0  0
 64143  1  0  0  0
 65144  1  0  0  0
 68 80  1  0  0  0
 71 73  2  0  0  0
 71 75  1  0  0  0
 71145  1  0  0  0
 72 74  1  0  0  0
 72 75  2  0  0  0
 72146  1  0  0  0
 73 76  1  0  0  0
 73 79  1  0  0  0
 74 76  2  0  0  0
 74 81  1  0  0  0
 75 84  1  0  0  0
 76 85  1  0  0  0
 77 80  1  0  0  0
 77 82  1  0  0  0
 77 83  2  0  0  0
 78 82  1  0  0  0
 78147  1  0  0  0
 78148  1  0  0  0
 78149  1  0  0  0
 79 82  1  0  0  0
 79150  1  0  0  0
 79151  1  0  0  0
 80152  1  0  0  0
 80153  1  0  0  0
 81154  1  0  0  0
M  ISO  4   1 100  68 101  80 101  81 100
M  END
> <chiral flag>
0

> <version>
0

> <s_m_source_file>
/data/baiqing/PycharmProjects/Reinvent-master-3.2/result/LINK_invent/BTK/process_docking_weight1_custom_product_contain_oxygen_bond_distance_aromatic_linkinvent_7_9_3/rearranged_h_0049.sdf

> <i_m_source_file_index>
69

> <r_mmod_Potential_Energy-OPLS-2005>
204.383239746094

> <r_mmod_Stretch_Energy-OPLS-2005>
141.040924072266

> <r_mmod_Bend_Energy-OPLS-2005>
178.307083129883

> <r_mmod_Torsional_Energy-OPLS-2005>
266.687194824219

> <r_mmod_Improper_Torsional_Energy-OPLS-2005>
8.52119827270508

> <r_mmod_Van_der_Waal_Energy-OPLS-2005>
133.69255065918

> <r_mmod_Electrostatic_Energy-OPLS-2005>
-377.472045898438

> <r_mmod_Solvation_Energy-OPLS-2005>
-230.209259033203

> <b_mmod_Minimization_Converged-OPLS-2005>
0

> <r_mmod_RMS_Derivative-OPLS-2005>
1.68692314624786

$$$$
69
                    3D
 Structure written by MMmdl.
157165  0  0  1  0            999 V2000
  -30.6575  -14.5309   20.5237 C   0  0  0  0  0  0
  -30.4295  -12.3234   19.4467 C   0  0  0  0  0  0
  -29.5035  -12.4880   18.2215 C   0  0  0  0  0  0
  -28.0225  -12.3547   18.6286 C   0  0  0  0  0  0
  -27.6603  -13.2093   19.8727 C   0  0  2  0  0  0
  -28.6988  -13.0154   21.0008 C   0  0  0  0  0  0
  -25.2580  -13.8174   20.5670 C   0  0  0  0  0  0
  -24.1834  -13.0445   20.9172 C   0  0  0  0  0  0
  -24.6397  -11.6916   20.8740 C   0  0  0  0  0  0
  -23.9070  -10.4298   21.0407 C   0  0  0  0  0  0
  -24.3619   -9.4213   21.9184 C   0  0  0  0  0  0
  -23.6292   -8.2249   22.0756 C   0  0  0  0  0  0
  -22.4272   -8.0287   21.3549 C   0  0  0  0  0  0
  -21.9913   -9.0261   20.4649 C   0  0  0  0  0  0
  -22.7245  -10.2139   20.3058 C   0  0  0  0  0  0
  -21.6852   -6.0739   22.5278 C   0  0  0  0  0  0
  -21.4014   -6.5641   23.8212 C   0  0  0  0  0  0
  -21.3658   -5.6792   24.9173 C   0  0  0  0  0  0
  -21.6045   -4.3055   24.7222 C   0  0  0  0  0  0
  -21.8820   -3.8149   23.4342 C   0  0  0  0  0  0
  -21.9190   -4.6967   22.3399 C   0  0  0  0  0  0
  -22.7857  -13.5239   21.1836 C   0  0  0  0  0  0
  -22.1659   -4.2153   21.0977 F   0  0  0  0  0  0
  -21.5627   -3.4538   25.7736 F   0  0  0  0  0  0
  -30.0283  -13.3237   20.4507 N   0  0  0  0  0  0
  -26.3013  -12.9346   20.3346 N   0  0  0  0  0  0
  -25.9322  -11.6507   20.5773 N   0  0  0  0  0  0
  -22.0501  -12.8233   22.0394 N   0  0  0  0  0  0
  -25.4319  -15.1895   20.4082 N   0  0  0  0  0  0
  -31.8053  -14.7075   20.1030 O   0  0  0  0  0  0
  -21.6639   -6.8884   21.4241 O   0  0  0  0  0  0
  -22.3541  -14.5544   20.6685 O   0  0  0  0  0  0
  -24.6172  -31.8645   23.2073 C   0  0  0  0  0  0
  -25.9053  -32.4803   23.8375 C   0  0  1  0  0  0
  -27.2340  -27.3966   20.0998 C   0  0  0  0  0  0
  -25.5896  -33.8600   24.2305 N   0  0  0  0  0  0
  -23.4071  -30.4880   21.5476 C   0  0  2  0  0  0
  -24.8528  -28.9475   20.1124 C   0  0  0  0  0  0
  -22.7425  -29.4640   22.4967 C   0  0  0  0  0  0
  -18.0274  -28.1380   22.8487 C   0  0  0  0  0  0
  -24.1485  -36.7311   23.2637 C   0  0  0  0  0  0
  -25.9389  -30.8177   21.3670 C   0  0  0  0  0  0
  -26.0135  -29.4486   20.7138 C   0  0  0  0  0  0
  -27.2021  -28.6789   20.7063 C   0  0  0  0  0  0
  -26.0489  -26.9160   19.4958 C   0  0  0  0  0  0
  -24.8669  -27.6821   19.5018 C   0  0  0  0  0  0
  -23.6177  -29.8200   20.1619 C   0  0  0  0  0  0
  -25.4108  -36.3100   24.0334 C   0  0  1  0  0  0
  -20.5867  -28.3667   23.1308 C   0  0  2  0  0  0
  -20.6763  -26.9400   22.5415 C   0  0  0  0  0  0
  -19.5747  -26.6386   21.5207 C   0  0  0  0  0  0
  -18.1923  -26.7927   22.1619 C   0  0  0  0  0  0
  -19.1523  -28.8839   23.2893 C   0  0  0  0  0  0
  -18.9454  -30.1443   23.8908 C   0  0  0  0  0  0
  -17.6457  -30.6583   24.0567 C   0  0  0  0  0  0
  -25.9040  -34.9465   23.5122 C   0  0  0  0  0  0
  -16.5349  -29.9088   23.6327 C   0  0  0  0  0  0
  -16.7264  -28.6506   23.0347 C   0  0  0  0  0  0
  -26.4473  -31.6600   25.0719 C   0  0  0  0  0  0
  -25.3731  -31.3717   26.1467 C   0  0  0  0  0  0
  -27.0314  -30.3041   24.6122 C   0  0  0  0  0  0
  -27.6042  -32.4326   25.7478 C   0  0  0  0  0  0
  -27.5584  -37.1802   24.8459 C   0  0  0  0  0  0
  -21.4150  -29.3030   22.3712 N   0  0  0  0  0  0
  -26.4293  -37.3787   23.9412 N   0  0  0  0  0  0
  -24.6725  -31.0721   22.0986 N   0  0  0  0  0  0
  -23.4184  -28.8181   23.3018 O   0  0  0  0  0  0
  -28.4108  -26.6617   20.1378 O   0  0  0  0  0  0
  -26.5609  -34.8922   22.4690 O   0  0  0  0  0  0
  -23.5359  -32.1410   23.7455 O   0  0  0  0  0  0
  -29.4754  -19.4279   19.1570 C   0  0  0  0  0  0
  -29.6397  -18.2756   18.3714 C   0  0  0  0  0  0
  -29.4573  -19.3451   20.5651 C   0  0  0  0  0  0
  -29.6433  -18.0597   21.1802 C   0  0  0  0  0  0
  -29.8170  -16.8806   20.3813 C   0  0  0  0  0  0
  -29.7922  -17.0141   18.9691 C   0  0  0  0  0  0
  -28.9150  -23.0875   20.7547 C   0  0  0  0  0  0
  -29.6555  -17.9476   22.7005 C   0  0  0  0  0  0
  -29.2736  -20.6494   21.3814 C   0  0  0  0  0  0
  -27.9146  -24.1308   20.1828 C   0  0  0  0  0  0
  -28.5189  -25.3853   19.4617 C   0  0  0  0  0  0
  -29.9019  -15.5639   20.9694 N   0  0  0  0  0  0
  -28.5802  -21.7755   20.7078 N   0  0  0  0  0  0
  -29.9648  -23.4695   21.2742 O   0  0  0  0  0  0
  -29.8680  -15.9291   18.1618 F   0  0  0  0  0  0
  -31.4740  -12.4290   19.1478 H   0  0  0  0  0  0
  -30.3396  -11.3193   19.8641 H   0  0  0  0  0  0
  -29.7487  -11.7433   17.4630 H   0  0  0  0  0  0
  -29.6712  -13.4598   17.7569 H   0  0  0  0  0  0
  -27.8332  -11.3014   18.8376 H   0  0  0  0  0  0
  -27.3760  -12.6173   17.7901 H   0  0  0  0  0  0
  -27.6981  -14.2525   19.5573 H   0  0  0  0  0  0
  -28.6806  -11.9872   21.3640 H   0  0  0  0  0  0
  -28.4562  -13.6353   21.8652 H   0  0  0  0  0  0
  -25.2766   -9.5678   22.4756 H   0  0  0  0  0  0
  -23.9996   -7.4639   22.7476 H   0  0  0  0  0  0
  -21.0845   -8.8788   19.8953 H   0  0  0  0  0  0
  -22.3714  -10.9677   19.6164 H   0  0  0  0  0  0
  -21.2014   -7.6151   23.9717 H   0  0  0  0  0  0
  -21.1476   -6.0523   25.9075 H   0  0  0  0  0  0
  -22.0602   -2.7613   23.2842 H   0  0  0  0  0  0
  -22.4110  -11.9887   22.4772 H   0  0  0  0  0  0
  -21.1123  -13.1263   22.2608 H   0  0  0  0  0  0
  -24.6684  -15.8482   20.5166 H   0  0  0  0  0  0
  -26.2878  -15.6253   20.0881 H   0  0  0  0  0  0
  -26.7116  -32.5506   23.1126 H   0  0  0  0  0  0
  -25.0019  -33.9753   25.0431 H   0  0  0  0  0  0
  -22.6971  -31.3049   21.4064 H   0  0  0  0  0  0
  -23.3742  -35.9650   23.3302 H   0  0  0  0  0  0
  -24.3571  -36.8934   22.2051 H   0  0  0  0  0  0
  -23.7244  -37.6517   23.6660 H   0  0  0  0  0  0
  -26.0559  -31.5822   20.5979 H   0  0  0  0  0  0
  -26.8250  -30.8701   21.9881 H   0  0  0  0  0  0
  -28.0966  -29.0610   21.1780 H   0  0  0  0  0  0
  -26.0108  -25.9443   19.0268 H   0  0  0  0  0  0
  -23.9729  -27.2894   19.0372 H   0  0  0  0  0  0
  -23.7277  -30.5946   19.4019 H   0  0  0  0  0  0
  -22.7413  -29.2413   19.8656 H   0  0  0  0  0  0
  -25.1280  -36.1959   25.0825 H   0  0  0  0  0  0
  -20.9950  -28.3241   24.1434 H   0  0  0  0  0  0
  -20.5667  -26.2273   23.3606 H   0  0  0  0  0  0
  -21.6634  -26.7444   22.1208 H   0  0  0  0  0  0
  -19.6914  -25.6299   21.1229 H   0  0  0  0  0  0
  -19.6695  -27.3204   20.6743 H   0  0  0  0  0  0
  -17.4193  -26.6668   21.4022 H   0  0  0  0  0  0
  -18.0326  -26.0068   22.9012 H   0  0  0  0  0  0
  -19.7932  -30.7248   24.2287 H   0  0  0  0  0  0
  -17.5017  -31.6266   24.5166 H   0  0  0  0  0  0
  -15.5351  -30.2995   23.7648 H   0  0  0  0  0  0
  -15.8662  -28.0835   22.7054 H   0  0  0  0  0  0
  -24.5894  -30.7077   25.7799 H   0  0  0  0  0  0
  -24.8930  -32.2876   26.4923 H   0  0  0  0  0  0
  -25.8071  -30.8873   27.0223 H   0  0  0  0  0  0
  -26.2870  -29.6790   24.1176 H   0  0  0  0  0  0
  -27.4076  -29.7294   25.4594 H   0  0  0  0  0  0
  -27.8705  -30.4352   23.9285 H   0  0  0  0  0  0
  -27.2663  -33.3621   26.2073 H   0  0  0  0  0  0
  -28.3841  -32.6900   25.0297 H   0  0  0  0  0  0
  -28.0725  -31.8441   26.5381 H   0  0  0  0  0  0
  -28.2585  -38.0112   24.7525 H   0  0  0  0  0  0
  -28.1095  -36.2645   24.6258 H   0  0  0  0  0  0
  -27.2306  -37.1423   25.8861 H   0  0  0  0  0  0
  -20.9315  -29.8762   21.6941 H   0  0  0  0  0  0
  -26.0183  -38.2864   24.1421 H   0  0  0  0  0  0
  -29.3616  -20.3815   18.6608 H   0  0  0  0  0  0
  -29.6307  -18.3551   17.2944 H   0  0  0  0  0  0
  -30.2034  -18.7747   23.1513 H   0  0  0  0  0  0
  -30.1394  -17.0355   23.0487 H   0  0  0  0  0  0
  -28.6374  -17.9578   23.0894 H   0  0  0  0  0  0
  -30.2611  -20.9614   21.7245 H   0  0  0  0  0  0
  -28.6982  -20.4270   22.2809 H   0  0  0  0  0  0
  -27.2612  -24.4550   20.9922 H   0  0  0  0  0  0
  -27.2663  -23.6146   19.4743 H   0  0  0  0  0  0
  -28.1106  -25.4699   18.4535 H   0  0  0  0  0  0
  -29.5839  -25.2212   19.2936 H   0  0  0  0  0  0
  -29.0991  -15.2921   21.5143 H   0  0  0  0  0  0
  -27.7016  -21.5440   20.2643 H   0  0  0  0  0  0
  1 25  1  0  0  0
  1 30  2  0  0  0
  1 82  1  0  0  0
  2  3  1  0  0  0
  2 25  1  0  0  0
  2 86  1  0  0  0
  2 87  1  0  0  0
  3  4  1  0  0  0
  3 88  1  0  0  0
  3 89  1  0  0  0
  4  5  1  0  0  0
  4 90  1  0  0  0
  4 91  1  0  0  0
  5  6  1  0  0  0
  5 26  1  0  0  0
  5 92  1  0  0  0
  6 25  1  0  0  0
  6 93  1  0  0  0
  6 94  1  0  0  0
  7  8  2  0  0  0
  7 26  1  0  0  0
  7 29  1  0  0  0
  8  9  1  0  0  0
  8 22  1  0  0  0
  9 10  1  0  0  0
  9 27  2  0  0  0
 10 11  2  0  0  0
 10 15  1  0  0  0
 11 12  1  0  0  0
 11 95  1  0  0  0
 12 13  2  0  0  0
 12 96  1  0  0  0
 13 14  1  0  0  0
 13 31  1  0  0  0
 14 15  2  0  0  0
 14 97  1  0  0  0
 15 98  1  0  0  0
 16 17  2  0  0  0
 16 21  1  0  0  0
 16 31  1  0  0  0
 17 18  1  0  0  0
 17 99  1  0  0  0
 18 19  2  0  0  0
 18100  1  0  0  0
 19 20  1  0  0  0
 19 24  1  0  0  0
 20 21  2  0  0  0
 20101  1  0  0  0
 21 23  1  0  0  0
 22 28  1  0  0  0
 22 32  2  0  0  0
 26 27  1  0  0  0
 28102  1  0  0  0
 28103  1  0  0  0
 29104  1  0  0  0
 29105  1  0  0  0
 33 34  1  0  0  0
 33 66  1  0  0  0
 33 70  2  0  0  0
 34 36  1  0  0  0
 34 59  1  0  0  0
 34106  1  0  0  0
 35 44  2  0  0  0
 35 45  1  0  0  0
 35 68  1  0  0  0
 36 56  1  0  0  0
 36107  1  0  0  0
 37 39  1  0  0  0
 37 47  1  0  0  0
 37 66  1  0  0  0
 37108  1  0  0  0
 38 43  2  0  0  0
 38 46  1  0  0  0
 38 47  1  0  0  0
 39 64  1  0  0  0
 39 67  2  0  0  0
 40 52  1  0  0  0
 40 53  2  0  0  0
 40 58  1  0  0  0
 41109  1  0  0  0
 41110  1  0  0  0
 41111  1  0  0  0
 41 48  1  0  0  0
 42 43  1  0  0  0
 42 66  1  0  0  0
 42112  1  0  0  0
 42113  1  0  0  0
 43 44  1  0  0  0
 44114  1  0  0  0
 45 46  2  0  0  0
 45115  1  0  0  0
 46116  1  0  0  0
 47117  1  0  0  0
 47118  1  0  0  0
 48 56  1  0  0  0
 48 65  1  0  0  0
 48119  1  0  0  0
 49 50  1  0  0  0
 49 53  1  0  0  0
 49 64  1  0  0  0
 49120  1  0  0  0
 50 51  1  0  0  0
 50121  1  0  0  0
 50122  1  0  0  0
 51 52  1  0  0  0
 51123  1  0  0  0
 51124  1  0  0  0
 52125  1  0  0  0
 52126  1  0  0  0
 53 54  1  0  0  0
 54 55  2  0  0  0
 54127  1  0  0  0
 55 57  1  0  0  0
 55128  1  0  0  0
 56 69  2  0  0  0
 57 58  2  0  0  0
 57129  1  0  0  0
 58130  1  0  0  0
 59 60  1  0  0  0
 59 61  1  0  0  0
 59 62  1  0  0  0
 60131  1  0  0  0
 60132  1  0  0  0
 60133  1  0  0  0
 61134  1  0  0  0
 61135  1  0  0  0
 61136  1  0  0  0
 62137  1  0  0  0
 62138  1  0  0  0
 62139  1  0  0  0
 63 65  1  0  0  0
 63140  1  0  0  0
 63141  1  0  0  0
 63142  1  0  0  0
 64143  1  0  0  0
 65144  1  0  0  0
 68 81  1  0  0  0
 71 72  2  0  0  0
 71 73  1  0  0  0
 71145  1  0  0  0
 72 76  1  0  0  0
 72146  1  0  0  0
 73 74  2  0  0  0
 73 79  1  0  0  0
 74 75  1  0  0  0
 74 78  1  0  0  0
 75 76  2  0  0  0
 75 82  1  0  0  0
 76 85  1  0  0  0
 77 80  1  0  0  0
 77 83  1  0  0  0
 77 84  2  0  0  0
 78147  1  0  0  0
 78148  1  0  0  0
 78149  1  0  0  0
 79 83  1  0  0  0
 79150  1  0  0  0
 79151  1  0  0  0
 80 81  1  0  0  0
 80152  1  0  0  0
 80153  1  0  0  0
 81154  1  0  0  0
 81155  1  0  0  0
 82156  1  0  0  0
 83157  1  0  0  0
M  ISO  4   1 100  68 101  81 101  82 100
M  END
> <chiral flag>
0

> <version>
0

> <s_m_source_file>
/data/baiqing/PycharmProjects/Reinvent-master-3.2/result/LINK_invent/BTK/process_docking_weight1_custom_product_contain_oxygen_bond_distance_aromatic_linkinvent_7_9_3/rearranged_h_0049.sdf

> <i_m_source_file_index>
70

> <r_mmod_Potential_Energy-OPLS-2005>
-148.234237670898

> <r_mmod_Stretch_Energy-OPLS-2005>
50.839672088623

> <r_mmod_Bend_Energy-OPLS-2005>
110.042579650879

> <r_mmod_Torsional_Energy-OPLS-2005>
226.430511474609

> <r_mmod_Improper_Torsional_Energy-OPLS-2005>
5.23755025863647

> <r_mmod_Van_der_Waal_Energy-OPLS-2005>
155.724105834961

> <r_mmod_Electrostatic_Energy-OPLS-2005>
-472.698028564453

> <r_mmod_Solvation_Energy-OPLS-2005>
-244.661544799805

> <b_mmod_Minimization_Converged-OPLS-2005>
0

> <r_mmod_RMS_Derivative-OPLS-2005>
0.894227802753448

$$$$
70
                    3D
 Structure written by MMmdl.
167176  0  0  1  0            999 V2000
  -30.6831  -14.5364   20.5750 C   0  0  0  0  0  0
  -30.4376  -12.3476   19.4420 C   0  0  0  0  0  0
  -29.4985  -12.4793   18.2220 C   0  0  0  0  0  0
  -28.0198  -12.3308   18.6312 C   0  0  0  0  0  0
  -27.6561  -13.2030   19.8603 C   0  0  2  0  0  0
  -28.6953  -13.0365   20.9913 C   0  0  0  0  0  0
  -25.2593  -13.8175   20.5612 C   0  0  0  0  0  0
  -24.1827  -13.0463   20.9101 C   0  0  0  0  0  0
  -24.6357  -11.6922   20.8678 C   0  0  0  0  0  0
  -23.9051  -10.4296   21.0377 C   0  0  0  0  0  0
  -24.3603   -9.4211   21.9161 C   0  0  0  0  0  0
  -23.6272   -8.2259   22.0750 C   0  0  0  0  0  0
  -22.4259   -8.0309   21.3522 C   0  0  0  0  0  0
  -21.9902   -9.0260   20.4615 C   0  0  0  0  0  0
  -22.7236  -10.2134   20.3009 C   0  0  0  0  0  0
  -21.6851   -6.0768   22.5266 C   0  0  0  0  0  0
  -21.4032   -6.5697   23.8196 C   0  0  0  0  0  0
  -21.3644   -5.6854   24.9178 C   0  0  0  0  0  0
  -21.6014   -4.3115   24.7235 C   0  0  0  0  0  0
  -21.8809   -3.8195   23.4384 C   0  0  0  0  0  0
  -21.9180   -4.6993   22.3415 C   0  0  0  0  0  0
  -22.7879  -13.5333   21.1773 C   0  0  0  0  0  0
  -22.1618   -4.2151   21.1005 F   0  0  0  0  0  0
  -21.5603   -3.4599   25.7753 F   0  0  0  0  0  0
  -30.0239  -13.3505   20.4388 N   0  0  0  0  0  0
  -26.2993  -12.9318   20.3261 N   0  0  0  0  0  0
  -25.9303  -11.6502   20.5764 N   0  0  0  0  0  0
  -22.0355  -12.8250   22.0160 N   0  0  0  0  0  0
  -25.4360  -15.1893   20.4041 N   0  0  0  0  0  0
  -31.8230  -14.7169   20.1397 O   0  0  0  0  0  0
  -21.6637   -6.8897   21.4230 O   0  0  0  0  0  0
  -22.3665  -14.5721   20.6742 O   0  0  0  0  0  0
  -24.6188  -31.8596   23.2027 C   0  0  0  0  0  0
  -25.9035  -32.4835   23.8327 C   0  0  1  0  0  0
  -27.2499  -27.3633   20.1403 C   0  0  0  0  0  0
  -25.5772  -33.8636   24.2211 N   0  0  0  0  0  0
  -23.4152  -30.4797   21.5432 C   0  0  2  0  0  0
  -24.8671  -28.9283   20.1294 C   0  0  0  0  0  0
  -22.7456  -29.4616   22.4970 C   0  0  0  0  0  0
  -18.0278  -28.1310   22.8524 C   0  0  0  0  0  0
  -24.1415  -36.7421   23.2650 C   0  0  0  0  0  0
  -25.9510  -30.8151   21.3616 C   0  0  0  0  0  0
  -26.0315  -29.4424   20.7108 C   0  0  0  0  0  0
  -27.2227  -28.6731   20.6951 C   0  0  0  0  0  0
  -26.0529  -26.8738   19.5692 C   0  0  0  0  0  0
  -24.8773  -27.6469   19.5527 C   0  0  0  0  0  0
  -23.6341  -29.8000   20.1653 C   0  0  0  0  0  0
  -25.4045  -36.3152   24.0293 C   0  0  1  0  0  0
  -20.5881  -28.3624   23.1288 C   0  0  2  0  0  0
  -20.6744  -26.9344   22.5411 C   0  0  0  0  0  0
  -19.5720  -26.6348   21.5187 C   0  0  0  0  0  0
  -18.1912  -26.7860   22.1632 C   0  0  0  0  0  0
  -19.1538  -28.8782   23.2904 C   0  0  0  0  0  0
  -18.9449  -30.1388   23.8905 C   0  0  0  0  0  0
  -17.6447  -30.6530   24.0549 C   0  0  0  0  0  0
  -25.8978  -34.9508   23.5073 C   0  0  0  0  0  0
  -16.5340  -29.9023   23.6315 C   0  0  0  0  0  0
  -16.7267  -28.6433   23.0368 C   0  0  0  0  0  0
  -26.4451  -31.6698   25.0717 C   0  0  0  0  0  0
  -25.3711  -31.3859   26.1469 C   0  0  0  0  0  0
  -27.0367  -30.3131   24.6235 C   0  0  0  0  0  0
  -27.5964  -32.4548   25.7460 C   0  0  0  0  0  0
  -27.5527  -37.1846   24.8415 C   0  0  0  0  0  0
  -21.4185  -29.3025   22.3736 N   0  0  0  0  0  0
  -26.4234  -37.3837   23.9364 N   0  0  0  0  0  0
  -24.6811  -31.0657   22.0953 N   0  0  0  0  0  0
  -23.4208  -28.8165   23.3030 O   0  0  0  0  0  0
  -28.4468  -26.6547   20.1826 O   0  0  0  0  0  0
  -26.5657  -34.8973   22.4704 O   0  0  0  0  0  0
  -23.5358  -32.1337   23.7369 O   0  0  0  0  0  0
  -28.0830  -17.5432   22.1660 C   0  0  0  0  0  0
  -27.1411  -18.4517   22.6723 C   0  0  0  0  0  0
  -29.5034  -19.4191   21.5414 C   0  0  0  0  0  0
  -29.2858  -18.0065   21.5974 C   0  0  0  0  0  0
  -27.3663  -19.8452   22.6375 C   0  0  0  0  0  0
  -28.5501  -20.3695   22.0359 C   0  0  0  0  0  0
  -28.1342  -22.2977   19.5650 C   0  0  0  0  0  0
  -27.2076  -21.3380   19.3826 C   0  0  0  0  0  0
  -28.7700  -23.1403   18.4675 C   0  0  0  0  0  0
  -28.4268  -24.6438   18.6041 C   0  0  0  0  0  0
  -28.1191  -24.2160   21.1374 C   0  0  0  0  0  0
  -28.6361  -25.2066   20.0309 C   0  0  2  0  0  0
  -26.3061  -20.7003   23.3183 C   0  0  0  0  0  0
  -30.3448  -16.9974   21.0830 C   0  0  0  0  0  0
  -28.8722  -21.9046   22.0653 C   0  0  0  0  0  0
  -29.9556  -15.5660   21.0649 N   0  0  0  0  0  0
  -28.6246  -22.8140   20.8755 N   0  3  2  0  0  0
  -31.4734  -12.4822   19.1213 H   0  0  0  0  0  0
  -30.3953  -11.3498   19.8765 H   0  0  0  0  0  0
  -29.7541  -11.7348   17.4657 H   0  0  0  0  0  0
  -29.6516  -13.4557   17.7632 H   0  0  0  0  0  0
  -27.8302  -11.2782   18.8526 H   0  0  0  0  0  0
  -27.3666  -12.5810   17.7940 H   0  0  0  0  0  0
  -27.6894  -14.2383   19.5148 H   0  0  0  0  0  0
  -28.6936  -12.0165   21.3778 H   0  0  0  0  0  0
  -28.4395  -13.6743   21.8389 H   0  0  0  0  0  0
  -25.2760   -9.5668   22.4737 H   0  0  0  0  0  0
  -23.9956   -7.4625   22.7497 H   0  0  0  0  0  0
  -21.0864   -8.8767   19.8869 H   0  0  0  0  0  0
  -22.3734  -10.9665   19.6095 H   0  0  0  0  0  0
  -21.2040   -7.6229   23.9689 H   0  0  0  0  0  0
  -21.1480   -6.0610   25.9064 H   0  0  0  0  0  0
  -22.0609   -2.7646   23.2883 H   0  0  0  0  0  0
  -22.3692  -11.9626   22.4163 H   0  0  0  0  0  0
  -21.1049  -13.1404   22.2413 H   0  0  0  0  0  0
  -24.6795  -15.8515   20.5355 H   0  0  0  0  0  0
  -26.2847  -15.6280   20.0713 H   0  0  0  0  0  0
  -26.7118  -32.5561   23.1079 H   0  0  0  0  0  0
  -24.9639  -33.9713   25.0160 H   0  0  0  0  0  0
  -22.7122  -31.2996   21.3871 H   0  0  0  0  0  0
  -23.3623  -35.9813   23.3333 H   0  0  0  0  0  0
  -24.3488  -36.9084   22.2067 H   0  0  0  0  0  0
  -23.7216  -37.6622   23.6733 H   0  0  0  0  0  0
  -26.0693  -31.5803   20.5948 H   0  0  0  0  0  0
  -26.8341  -30.8702   21.9903 H   0  0  0  0  0  0
  -28.1267  -29.0811   21.1270 H   0  0  0  0  0  0
  -25.9865  -25.8869   19.1522 H   0  0  0  0  0  0
  -23.9756  -27.2262   19.1281 H   0  0  0  0  0  0
  -23.7524  -30.5594   19.3909 H   0  0  0  0  0  0
  -22.7638  -29.2090   19.8773 H   0  0  0  0  0  0
  -25.1238  -36.2003   25.0798 H   0  0  0  0  0  0
  -20.9958  -28.3130   24.1398 H   0  0  0  0  0  0
  -20.5484  -26.2250   23.3619 H   0  0  0  0  0  0
  -21.6620  -26.7255   22.1276 H   0  0  0  0  0  0
  -19.6838  -25.6257   21.1204 H   0  0  0  0  0  0
  -19.6610  -27.3166   20.6720 H   0  0  0  0  0  0
  -17.4156  -26.6607   21.4066 H   0  0  0  0  0  0
  -18.0327  -25.9958   22.9001 H   0  0  0  0  0  0
  -19.7924  -30.7222   24.2267 H   0  0  0  0  0  0
  -17.4992  -31.6214   24.5146 H   0  0  0  0  0  0
  -15.5337  -30.2928   23.7591 H   0  0  0  0  0  0
  -15.8684  -28.0731   22.7075 H   0  0  0  0  0  0
  -24.5775  -30.7330   25.7794 H   0  0  0  0  0  0
  -24.9027  -32.3077   26.4977 H   0  0  0  0  0  0
  -25.8004  -30.8934   27.0209 H   0  0  0  0  0  0
  -26.2949  -29.6777   24.1362 H   0  0  0  0  0  0
  -27.4167  -29.7496   25.4775 H   0  0  0  0  0  0
  -27.8779  -30.4442   23.9410 H   0  0  0  0  0  0
  -27.2439  -33.3794   26.2065 H   0  0  0  0  0  0
  -28.3678  -32.7268   25.0241 H   0  0  0  0  0  0
  -28.0769  -31.8745   26.5338 H   0  0  0  0  0  0
  -28.2556  -38.0128   24.7436 H   0  0  0  0  0  0
  -28.0987  -36.2653   24.6250 H   0  0  0  0  0  0
  -27.2280  -37.1566   25.8830 H   0  0  0  0  0  0
  -20.9317  -29.8888   21.7103 H   0  0  0  0  0  0
  -26.0122  -38.2925   24.1355 H   0  0  0  0  0  0
  -27.8628  -16.4883   22.2458 H   0  0  0  0  0  0
  -26.2335  -18.0596   23.1142 H   0  0  0  0  0  0
  -30.4467  -19.7794   21.1499 H   0  0  0  0  0  0
  -26.8960  -21.0746   18.3818 H   0  0  0  0  0  0
  -26.7408  -20.8050   20.1940 H   0  0  0  0  0  0
  -28.4264  -22.7772   17.4959 H   0  0  0  0  0  0
  -29.8519  -22.9951   18.4833 H   0  0  0  0  0  0
  -27.4014  -24.7587   18.2816 H   0  0  0  0  0  0
  -29.0255  -25.2183   17.8954 H   0  0  0  0  0  0
  -27.0292  -24.2227   21.1674 H   0  0  0  0  0  0
  -28.4673  -24.5692   22.1051 H   0  0  0  0  0  0
  -29.7166  -25.1722   20.1739 H   0  0  0  0  0  0
  -26.4399  -21.7732   23.2122 H   0  0  0  0  0  0
  -26.2757  -20.4688   24.3865 H   0  0  0  0  0  0
  -25.3218  -20.4614   22.9169 H   0  0  0  0  0  0
  -30.6288  -17.2937   20.0725 H   0  0  0  0  0  0
  -31.2436  -17.1014   21.6925 H   0  0  0  0  0  0
  -29.9441  -21.9730   22.2385 H   0  0  0  0  0  0
  -28.4594  -22.3603   22.9634 H   0  0  0  0  0  0
  -29.0129  -15.3457   21.3460 H   0  0  0  0  0  0
  -29.5981  -23.0048   20.6910 H   0  0  0  0  0  0
  1 25  1  0  0  0
  1 30  2  0  0  0
  1 86  1  0  0  0
  2  3  1  0  0  0
  2 25  1  0  0  0
  2 88  1  0  0  0
  2 89  1  0  0  0
  3  4  1  0  0  0
  3 90  1  0  0  0
  3 91  1  0  0  0
  4  5  1  0  0  0
  4 92  1  0  0  0
  4 93  1  0  0  0
  5  6  1  0  0  0
  5 26  1  0  0  0
  5 94  1  0  0  0
  6 25  1  0  0  0
  6 95  1  0  0  0
  6 96  1  0  0  0
  7  8  2  0  0  0
  7 26  1  0  0  0
  7 29  1  0  0  0
  8  9  1  0  0  0
  8 22  1  0  0  0
  9 10  1  0  0  0
  9 27  2  0  0  0
 10 11  2  0  0  0
 10 15  1  0  0  0
 11 12  1  0  0  0
 11 97  1  0  0  0
 12 13  2  0  0  0
 12 98  1  0  0  0
 13 14  1  0  0  0
 13 31  1  0  0  0
 14 15  2  0  0  0
 14 99  1  0  0  0
 15100  1  0  0  0
 16 17  2  0  0  0
 16 21  1  0  0  0
 16 31  1  0  0  0
 17 18  1  0  0  0
 17101  1  0  0  0
 18 19  2  0  0  0
 18102  1  0  0  0
 19 20  1  0  0  0
 19 24  1  0  0  0
 20 21  2  0  0  0
 20103  1  0  0  0
 21 23  1  0  0  0
 22 28  1  0  0  0
 22 32  2  0  0  0
 26 27  1  0  0  0
 28104  1  0  0  0
 28105  1  0  0  0
 29106  1  0  0  0
 29107  1  0  0  0
 33 34  1  0  0  0
 33 66  1  0  0  0
 33 70  2  0  0  0
 34 36  1  0  0  0
 34 59  1  0  0  0
 34108  1  0  0  0
 35 44  2  0  0  0
 35 45  1  0  0  0
 35 68  1  0  0  0
 36 56  1  0  0  0
 36109  1  0  0  0
 37 39  1  0  0  0
 37 47  1  0  0  0
 37 66  1  0  0  0
 37110  1  0  0  0
 38 43  2  0  0  0
 38 46  1  0  0  0
 38 47  1  0  0  0
 39 64  1  0  0  0
 39 67  2  0  0  0
 40 52  1  0  0  0
 40 53  2  0  0  0
 40 58  1  0  0  0
 41111  1  0  0  0
 41112  1  0  0  0
 41113  1  0  0  0
 41 48  1  0  0  0
 42 43  1  0  0  0
 42 66  1  0  0  0
 42114  1  0  0  0
 42115  1  0  0  0
 43 44  1  0  0  0
 44116  1  0  0  0
 45 46  2  0  0  0
 45117  1  0  0  0
 46118  1  0  0  0
 47119  1  0  0  0
 47120  1  0  0  0
 48 56  1  0  0  0
 48 65  1  0  0  0
 48121  1  0  0  0
 49 50  1  0  0  0
 49 53  1  0  0  0
 49 64  1  0  0  0
 49122  1  0  0  0
 50 51  1  0  0  0
 50123  1  0  0  0
 50124  1  0  0  0
 51 52  1  0  0  0
 51125  1  0  0  0
 51126  1  0  0  0
 52127  1  0  0  0
 52128  1  0  0  0
 53 54  1  0  0  0
 54 55  2  0  0  0
 54129  1  0  0  0
 55 57  1  0  0  0
 55130  1  0  0  0
 56 69  2  0  0  0
 57 58  2  0  0  0
 57131  1  0  0  0
 58132  1  0  0  0
 59 60  1  0  0  0
 59 61  1  0  0  0
 59 62  1  0  0  0
 60133  1  0  0  0
 60134  1  0  0  0
 60135  1  0  0  0
 61136  1  0  0  0
 61137  1  0  0  0
 61138  1  0  0  0
 62139  1  0  0  0
 62140  1  0  0  0
 62141  1  0  0  0
 63 65  1  0  0  0
 63142  1  0  0  0
 63143  1  0  0  0
 63144  1  0  0  0
 64145  1  0  0  0
 65146  1  0  0  0
 68 82  1  0  0  0
 71 72  2  0  0  0
 71 74  1  0  0  0
 71147  1  0  0  0
 72 75  1  0  0  0
 72148  1  0  0  0
 73 74  2  0  0  0
 73 76  1  0  0  0
 73149  1  0  0  0
 74 84  1  0  0  0
 75 76  2  0  0  0
 75 83  1  0  0  0
 76 85  1  0  0  0
 77 78  2  0  0  0
 77 79  1  0  0  0
 77 87  1  0  0  0
 78150  1  0  0  0
 78151  1  0  0  0
 79 80  1  0  0  0
 79152  1  0  0  0
 79153  1  0  0  0
 80 82  1  0  0  0
 80154  1  0  0  0
 80155  1  0  0  0
 81 82  1  0  0  0
 81 87  1  0  0  0
 81156  1  0  0  0
 81157  1  0  0  0
 82158  1  0  0  0
 83159  1  0  0  0
 83160  1  0  0  0
 83161  1  0  0  0
 84 86  1  0  0  0
 84162  1  0  0  0
 84163  1  0  0  0
 85164  1  0  0  0
 85165  1  0  0  0
 85 87  1  0  0  0
 86166  1  0  0  0
 87167  1  0  0  0
M  CHG  1  87   1
M  ISO  4   1 100  68 101  82 101  86 100
M  END
> <chiral flag>
0

> <version>
0

> <s_m_source_file>
/data/baiqing/PycharmProjects/Reinvent-master-3.2/result/LINK_invent/BTK/process_docking_weight1_custom_product_contain_oxygen_bond_distance_aromatic_linkinvent_7_9_3/rearranged_h_0049.sdf

> <i_m_source_file_index>
71

> <r_mmod_Potential_Energy-OPLS-2005>
-97.5633163452148

> <r_mmod_Stretch_Energy-OPLS-2005>
63.0389976501465

> <r_mmod_Bend_Energy-OPLS-2005>
189.164825439453

> <r_mmod_Torsional_Energy-OPLS-2005>
208.750183105469

> <r_mmod_Improper_Torsional_Energy-OPLS-2005>
4.32661247253418

> <r_mmod_Van_der_Waal_Energy-OPLS-2005>
146.983428955078

> <r_mmod_Electrostatic_Energy-OPLS-2005>
-315.497497558594

> <r_mmod_Solvation_Energy-OPLS-2005>
-420.938140869141

> <b_mmod_Minimization_Converged-OPLS-2005>
0

> <r_mmod_RMS_Derivative-OPLS-2005>
6.40334892272949

$$$$
71
                    3D
 Structure written by MMmdl.
160169  0  0  1  0            999 V2000
  -30.6703  -14.6399   20.4885 C   0  0  0  0  0  0
  -30.4085  -12.3930   19.4623 C   0  0  0  0  0  0
  -29.4914  -12.4986   18.2258 C   0  0  0  0  0  0
  -28.0160  -12.3455   18.6406 C   0  0  0  0  0  0
  -27.6385  -13.2320   19.8590 C   0  0  2  0  0  0
  -28.6842  -13.1382   20.9925 C   0  0  0  0  0  0
  -25.2441  -13.8183   20.5700 C   0  0  0  0  0  0
  -24.1748  -13.0438   20.9237 C   0  0  0  0  0  0
  -24.6360  -11.6922   20.8778 C   0  0  0  0  0  0
  -23.9045  -10.4293   21.0429 C   0  0  0  0  0  0
  -24.3602   -9.4200   21.9192 C   0  0  0  0  0  0
  -23.6281   -8.2232   22.0742 C   0  0  0  0  0  0
  -22.4267   -8.0262   21.3534 C   0  0  0  0  0  0
  -21.9907   -9.0235   20.4635 C   0  0  0  0  0  0
  -22.7223  -10.2128   20.3062 C   0  0  0  0  0  0
  -21.6845   -6.0726   22.5279 C   0  0  0  0  0  0
  -21.4008   -6.5632   23.8212 C   0  0  0  0  0  0
  -21.3665   -5.6791   24.9179 C   0  0  0  0  0  0
  -21.6051   -4.3050   24.7233 C   0  0  0  0  0  0
  -21.8805   -3.8138   23.4354 C   0  0  0  0  0  0
  -21.9183   -4.6953   22.3406 C   0  0  0  0  0  0
  -22.7768  -13.5204   21.1886 C   0  0  0  0  0  0
  -22.1633   -4.2139   21.0978 F   0  0  0  0  0  0
  -21.5653   -3.4529   25.7746 F   0  0  0  0  0  0
  -29.9926  -13.4517   20.4078 N   0  0  0  0  0  0
  -26.2895  -12.9418   20.3335 N   0  0  0  0  0  0
  -25.9297  -11.6559   20.5820 N   0  0  0  0  0  0
  -22.0426  -12.8186   22.0461 N   0  0  0  0  0  0
  -25.4091  -15.1903   20.4022 N   0  0  0  0  0  0
  -31.8563  -14.7004   20.1546 O   0  0  0  0  0  0
  -21.6631   -6.8861   21.4233 O   0  0  0  0  0  0
  -22.3433  -14.5503   20.6743 O   0  0  0  0  0  0
  -24.6226  -31.8600   23.2015 C   0  0  0  0  0  0
  -25.9084  -32.4769   23.8346 C   0  0  1  0  0  0
  -27.2210  -27.3311   20.1292 C   0  0  0  0  0  0
  -25.5915  -33.8571   24.2278 N   0  0  0  0  0  0
  -23.4171  -30.4803   21.5432 C   0  0  2  0  0  0
  -24.8651  -28.9325   20.1101 C   0  0  0  0  0  0
  -22.7457  -29.4615   22.4940 C   0  0  0  0  0  0
  -18.0290  -28.1364   22.8487 C   0  0  0  0  0  0
  -24.1498  -36.7295   23.2639 C   0  0  0  0  0  0
  -25.9552  -30.7935   21.3717 C   0  0  0  0  0  0
  -26.0302  -29.4213   20.7158 C   0  0  0  0  0  0
  -27.2148  -28.6312   20.7145 C   0  0  0  0  0  0
  -26.0449  -26.8879   19.4933 C   0  0  0  0  0  0
  -24.8728  -27.6708   19.4899 C   0  0  0  0  0  0
  -23.6314  -29.8099   20.1589 C   0  0  0  0  0  0
  -25.4120  -36.3084   24.0331 C   0  0  1  0  0  0
  -20.5886  -28.3671   23.1286 C   0  0  2  0  0  0
  -20.6780  -26.9396   22.5407 C   0  0  0  0  0  0
  -19.5761  -26.6372   21.5207 C   0  0  0  0  0  0
  -18.1938  -26.7911   22.1616 C   0  0  0  0  0  0
  -19.1542  -28.8833   23.2884 C   0  0  0  0  0  0
  -18.9465  -30.1439   23.8894 C   0  0  0  0  0  0
  -17.6466  -30.6575   24.0553 C   0  0  0  0  0  0
  -25.9049  -34.9448   23.5105 C   0  0  0  0  0  0
  -16.5358  -29.9070   23.6322 C   0  0  0  0  0  0
  -16.7278  -28.6483   23.0352 C   0  0  0  0  0  0
  -26.4486  -31.6565   25.0702 C   0  0  0  0  0  0
  -25.3729  -31.3685   26.1434 C   0  0  0  0  0  0
  -27.0316  -30.2988   24.6135 C   0  0  0  0  0  0
  -27.6048  -32.4301   25.7472 C   0  0  0  0  0  0
  -27.5592  -37.1797   24.8462 C   0  0  0  0  0  0
  -21.4174  -29.3029   22.3678 N   0  0  0  0  0  0
  -26.4301  -37.3775   23.9407 N   0  0  0  0  0  0
  -24.6830  -31.0619   22.0958 N   0  0  0  0  0  0
  -23.4182  -28.8169   23.3031 O   0  0  0  0  0  0
  -28.3336  -26.4871   20.1572 O   0  0  0  0  0  0
  -26.5627  -34.8916   22.4676 O   0  0  0  0  0  0
  -23.5397  -32.1403   23.7348 O   0  0  0  0  0  0
  -30.6904  -19.6970   20.2856 C   0  0  0  0  0  0
  -28.6211  -18.8373   21.1328 C   0  0  0  0  0  0
  -29.9321  -18.5596   20.6748 C   0  0  0  0  0  0
  -28.9346  -21.3317   20.9372 C   0  0  0  0  0  0
  -30.2227  -21.0377   20.4075 C   0  0  0  0  0  0
  -28.1343  -20.1801   21.2545 C   0  0  0  0  0  0
  -28.3002  -22.9725   22.6596 C   0  0  0  0  0  0
  -28.9929  -22.4174   23.6695 C   0  0  0  0  0  0
  -27.1898  -23.9771   22.9342 C   0  0  0  0  0  0
  -27.2717  -25.2779   22.1138 C   0  0  0  0  0  0
  -28.3512  -23.7869   20.3123 C   0  0  0  0  0  0
  -28.3155  -25.2445   20.9729 C   0  0  1  0  0  0
  -30.6464  -17.1541   20.6604 C   0  0  0  0  0  0
  -28.5348  -22.6744   21.3136 N   0  0  0  0  0  0
  -29.9800  -15.8045   20.7352 N   0  0  0  0  0  0
  -31.3261  -22.3100   20.0091 Cl  0  0  0  0  0  0
  -26.5192  -20.3788   21.8453 Cl  0  0  0  0  0  0
  -31.4540  -12.4809   19.1613 H   0  0  0  0  0  0
  -30.3098  -11.4104   19.9272 H   0  0  0  0  0  0
  -29.7548  -11.7364   17.4911 H   0  0  0  0  0  0
  -29.6368  -13.4625   17.7345 H   0  0  0  0  0  0
  -27.8502  -11.2954   18.8810 H   0  0  0  0  0  0
  -27.3606  -12.5656   17.7972 H   0  0  0  0  0  0
  -27.6439  -14.2604   19.5000 H   0  0  0  0  0  0
  -28.6904  -12.1420   21.4359 H   0  0  0  0  0  0
  -28.4395  -13.8265   21.8037 H   0  0  0  0  0  0
  -25.2743   -9.5668   22.4771 H   0  0  0  0  0  0
  -23.9982   -7.4618   22.7456 H   0  0  0  0  0  0
  -21.0851   -8.8752   19.8937 H   0  0  0  0  0  0
  -22.3678  -10.9656   19.6182 H   0  0  0  0  0  0
  -21.1983   -7.6142   23.9710 H   0  0  0  0  0  0
  -21.1508   -6.0526   25.9084 H   0  0  0  0  0  0
  -22.0582   -2.7600   23.2856 H   0  0  0  0  0  0
  -22.4053  -11.9857   22.4846 H   0  0  0  0  0  0
  -21.1041  -13.1190   22.2694 H   0  0  0  0  0  0
  -24.6368  -15.8388   20.5093 H   0  0  0  0  0  0
  -26.2423  -15.6244   20.0273 H   0  0  0  0  0  0
  -26.7144  -32.5440   23.1089 H   0  0  0  0  0  0
  -25.0047  -33.9725   25.0415 H   0  0  0  0  0  0
  -22.7103  -31.2998   21.3966 H   0  0  0  0  0  0
  -23.3762  -35.9622   23.3291 H   0  0  0  0  0  0
  -24.3597  -36.8927   22.2055 H   0  0  0  0  0  0
  -23.7244  -37.6491   23.6668 H   0  0  0  0  0  0
  -26.0897  -31.5579   20.6055 H   0  0  0  0  0  0
  -26.8341  -30.8383   22.0029 H   0  0  0  0  0  0
  -28.1108  -28.9996   21.1929 H   0  0  0  0  0  0
  -26.0290  -25.9157   19.0216 H   0  0  0  0  0  0
  -23.9795  -27.2898   19.0138 H   0  0  0  0  0  0
  -23.7457  -30.5850   19.3996 H   0  0  0  0  0  0
  -22.7518  -29.2356   19.8606 H   0  0  0  0  0  0
  -25.1300  -36.1939   25.0824 H   0  0  0  0  0  0
  -20.9987  -28.3243   24.1404 H   0  0  0  0  0  0
  -20.5683  -26.2278   23.3602 H   0  0  0  0  0  0
  -21.6647  -26.7425   22.1198 H   0  0  0  0  0  0
  -19.6922  -25.6284   21.1238 H   0  0  0  0  0  0
  -19.6702  -27.3181   20.6736 H   0  0  0  0  0  0
  -17.4213  -26.6669   21.4018 H   0  0  0  0  0  0
  -18.0334  -26.0044   22.9000 H   0  0  0  0  0  0
  -19.7944  -30.7255   24.2258 H   0  0  0  0  0  0
  -17.5022  -31.6258   24.5146 H   0  0  0  0  0  0
  -15.5358  -30.2969   23.7638 H   0  0  0  0  0  0
  -15.8684  -28.0797   22.7067 H   0  0  0  0  0  0
  -24.5906  -30.7036   25.7766 H   0  0  0  0  0  0
  -24.8915  -32.2833   26.4891 H   0  0  0  0  0  0
  -25.8064  -30.8842   27.0190 H   0  0  0  0  0  0
  -26.2870  -29.6743   24.1181 H   0  0  0  0  0  0
  -27.4047  -29.7240   25.4625 H   0  0  0  0  0  0
  -27.8736  -30.4288   23.9328 H   0  0  0  0  0  0
  -27.2657  -33.3597   26.2056 H   0  0  0  0  0  0
  -28.3845  -32.6859   25.0285 H   0  0  0  0  0  0
  -28.0722  -31.8411   26.5375 H   0  0  0  0  0  0
  -28.2584  -38.0120   24.7530 H   0  0  0  0  0  0
  -28.1114  -36.2644   24.6261 H   0  0  0  0  0  0
  -27.2311  -37.1414   25.8867 H   0  0  0  0  0  0
  -20.9343  -29.8746   21.6893 H   0  0  0  0  0  0
  -26.0185  -38.2852   24.1404 H   0  0  0  0  0  0
  -31.6995  -19.5469   19.9291 H   0  0  0  0  0  0
  -27.9881  -18.0199   21.4457 H   0  0  0  0  0  0
  -28.7803  -22.6748   24.6980 H   0  0  0  0  0  0
  -29.7888  -21.7060   23.4998 H   0  0  0  0  0  0
  -27.1546  -24.2204   23.9973 H   0  0  0  0  0  0
  -26.2447  -23.4753   22.7187 H   0  0  0  0  0  0
  -27.4943  -26.1138   22.7787 H   0  0  0  0  0  0
  -26.2725  -25.4653   21.7231 H   0  0  0  0  0  0
  -29.1392  -23.7517   19.5622 H   0  0  0  0  0  0
  -27.4175  -23.6175   19.7750 H   0  0  0  0  0  0
  -29.2831  -25.3155   21.4737 H   0  0  0  0  0  0
  -31.3561  -17.1782   21.4887 H   0  0  0  0  0  0
  -31.2657  -17.1546   19.7611 H   0  0  0  0  0  0
  -28.9939  -15.7564   20.9384 H   0  0  0  0  0  0
  1 25  1  0  0  0
  1 30  2  0  0  0
  1 85  1  0  0  0
  2  3  1  0  0  0
  2 25  1  0  0  0
  2 88  1  0  0  0
  2 89  1  0  0  0
  3  4  1  0  0  0
  3 90  1  0  0  0
  3 91  1  0  0  0
  4  5  1  0  0  0
  4 92  1  0  0  0
  4 93  1  0  0  0
  5  6  1  0  0  0
  5 26  1  0  0  0
  5 94  1  0  0  0
  6 25  1  0  0  0
  6 95  1  0  0  0
  6 96  1  0  0  0
  7  8  2  0  0  0
  7 26  1  0  0  0
  7 29  1  0  0  0
  8  9  1  0  0  0
  8 22  1  0  0  0
  9 10  1  0  0  0
  9 27  2  0  0  0
 10 11  2  0  0  0
 10 15  1  0  0  0
 11 12  1  0  0  0
 11 97  1  0  0  0
 12 13  2  0  0  0
 12 98  1  0  0  0
 13 14  1  0  0  0
 13 31  1  0  0  0
 14 15  2  0  0  0
 14 99  1  0  0  0
 15100  1  0  0  0
 16 17  2  0  0  0
 16 21  1  0  0  0
 16 31  1  0  0  0
 17 18  1  0  0  0
 17101  1  0  0  0
 18 19  2  0  0  0
 18102  1  0  0  0
 19 20  1  0  0  0
 19 24  1  0  0  0
 20 21  2  0  0  0
 20103  1  0  0  0
 21 23  1  0  0  0
 22 28  1  0  0  0
 22 32  2  0  0  0
 26 27  1  0  0  0
 28104  1  0  0  0
 28105  1  0  0  0
 29106  1  0  0  0
 29107  1  0  0  0
 33 34  1  0  0  0
 33 66  1  0  0  0
 33 70  2  0  0  0
 34 36  1  0  0  0
 34 59  1  0  0  0
 34108  1  0  0  0
 35 44  2  0  0  0
 35 45  1  0  0  0
 35 68  1  0  0  0
 36 56  1  0  0  0
 36109  1  0  0  0
 37 39  1  0  0  0
 37 47  1  0  0  0
 37 66  1  0  0  0
 37110  1  0  0  0
 38 43  2  0  0  0
 38 46  1  0  0  0
 38 47  1  0  0  0
 39 64  1  0  0  0
 39 67  2  0  0  0
 40 52  1  0  0  0
 40 53  2  0  0  0
 40 58  1  0  0  0
 41111  1  0  0  0
 41112  1  0  0  0
 41113  1  0  0  0
 41 48  1  0  0  0
 42 43  1  0  0  0
 42 66  1  0  0  0
 42114  1  0  0  0
 42115  1  0  0  0
 43 44  1  0  0  0
 44116  1  0  0  0
 45 46  2  0  0  0
 45117  1  0  0  0
 46118  1  0  0  0
 47119  1  0  0  0
 47120  1  0  0  0
 48 56  1  0  0  0
 48 65  1  0  0  0
 48121  1  0  0  0
 49 50  1  0  0  0
 49 53  1  0  0  0
 49 64  1  0  0  0
 49122  1  0  0  0
 50 51  1  0  0  0
 50123  1  0  0  0
 50124  1  0  0  0
 51 52  1  0  0  0
 51125  1  0  0  0
 51126  1  0  0  0
 52127  1  0  0  0
 52128  1  0  0  0
 53 54  1  0  0  0
 54 55  2  0  0  0
 54129  1  0  0  0
 55 57  1  0  0  0
 55130  1  0  0  0
 56 69  2  0  0  0
 57 58  2  0  0  0
 57131  1  0  0  0
 58132  1  0  0  0
 59 60  1  0  0  0
 59 61  1  0  0  0
 59 62  1  0  0  0
 60133  1  0  0  0
 60134  1  0  0  0
 60135  1  0  0  0
 61136  1  0  0  0
 61137  1  0  0  0
 61138  1  0  0  0
 62139  1  0  0  0
 62140  1  0  0  0
 62141  1  0  0  0
 63 65  1  0  0  0
 63142  1  0  0  0
 63143  1  0  0  0
 63144  1  0  0  0
 64145  1  0  0  0
 65146  1  0  0  0
 68 82  1  0  0  0
 71 73  2  0  0  0
 71 75  1  0  0  0
 71147  1  0  0  0
 72 73  1  0  0  0
 72 76  2  0  0  0
 72148  1  0  0  0
 73 83  1  0  0  0
 74 75  2  0  0  0
 74 76  1  0  0  0
 74 84  1  0  0  0
 75 86  1  0  0  0
 76 87  1  0  0  0
 77 78  2  0  0  0
 77 79  1  0  0  0
 77 84  1  0  0  0
 78149  1  0  0  0
 78150  1  0  0  0
 79 80  1  0  0  0
 79151  1  0  0  0
 79152  1  0  0  0
 80 82  1  0  0  0
 80153  1  0  0  0
 80154  1  0  0  0
 81 82  1  0  0  0
 81 84  1  0  0  0
 81155  1  0  0  0
 81156  1  0  0  0
 82157  1  0  0  0
 83 85  1  0  0  0
 83158  1  0  0  0
 83159  1  0  0  0
 85160  1  0  0  0
M  ISO  4   1 100  68 101  82 101  85 100
M  END
> <chiral flag>
0

> <version>
0

> <s_m_source_file>
/data/baiqing/PycharmProjects/Reinvent-master-3.2/result/LINK_invent/BTK/process_docking_weight1_custom_product_contain_oxygen_bond_distance_aromatic_linkinvent_7_9_3/rearranged_h_0049.sdf

> <i_m_source_file_index>
72

> <r_mmod_Potential_Energy-OPLS-2005>
149.638626098633

> <r_mmod_Stretch_Energy-OPLS-2005>
85.7139205932617

> <r_mmod_Bend_Energy-OPLS-2005>
167.907135009766

> <r_mmod_Torsional_Energy-OPLS-2005>
286.727355957031

> <r_mmod_Improper_Torsional_Energy-OPLS-2005>
6.08994054794312

> <r_mmod_Van_der_Waal_Energy-OPLS-2005>
150.789093017578

> <r_mmod_Electrostatic_Energy-OPLS-2005>
-391.813415527344

> <r_mmod_Solvation_Energy-OPLS-2005>
-205.396057128906

> <b_mmod_Minimization_Converged-OPLS-2005>
0

> <r_mmod_RMS_Derivative-OPLS-2005>
1.95542359352112

$$$$
72
                    3D
 Structure written by MMmdl.
154162  0  0  1  0            999 V2000
  -30.6319  -14.6430   20.4978 C   0  0  0  0  0  0
  -30.4375  -12.3915   19.4592 C   0  0  0  0  0  0
  -29.5088  -12.5046   18.2296 C   0  0  0  0  0  0
  -28.0326  -12.3426   18.6424 C   0  0  0  0  0  0
  -27.6542  -13.2175   19.8673 C   0  0  2  0  0  0
  -28.6993  -13.0798   20.9986 C   0  0  0  0  0  0
  -25.2550  -13.8169   20.5672 C   0  0  0  0  0  0
  -24.1820  -13.0435   20.9176 C   0  0  0  0  0  0
  -24.6394  -11.6911   20.8740 C   0  0  0  0  0  0
  -23.9063  -10.4298   21.0410 C   0  0  0  0  0  0
  -24.3616   -9.4211   21.9182 C   0  0  0  0  0  0
  -23.6293   -8.2244   22.0751 C   0  0  0  0  0  0
  -22.4272   -8.0282   21.3546 C   0  0  0  0  0  0
  -21.9913   -9.0255   20.4643 C   0  0  0  0  0  0
  -22.7239  -10.2137   20.3056 C   0  0  0  0  0  0
  -21.6853   -6.0734   22.5277 C   0  0  0  0  0  0
  -21.4016   -6.5640   23.8211 C   0  0  0  0  0  0
  -21.3660   -5.6792   24.9174 C   0  0  0  0  0  0
  -21.6047   -4.3054   24.7226 C   0  0  0  0  0  0
  -21.8818   -3.8147   23.4346 C   0  0  0  0  0  0
  -21.9197   -4.6962   22.3402 C   0  0  0  0  0  0
  -22.7846  -13.5228   21.1853 C   0  0  0  0  0  0
  -22.1658   -4.2151   21.0975 F   0  0  0  0  0  0
  -21.5636   -3.4533   25.7736 F   0  0  0  0  0  0
  -30.0170  -13.4175   20.4355 N   0  0  0  0  0  0
  -26.2991  -12.9357   20.3341 N   0  0  0  0  0  0
  -25.9331  -11.6512   20.5781 N   0  0  0  0  0  0
  -22.0494  -12.8217   22.0414 N   0  0  0  0  0  0
  -25.4244  -15.1881   20.4040 N   0  0  0  0  0  0
  -31.7886  -14.7959   20.0951 O   0  0  0  0  0  0
  -21.6641   -6.8876   21.4237 O   0  0  0  0  0  0
  -22.3526  -14.5543   20.6717 O   0  0  0  0  0  0
  -24.6261  -31.8595   23.2025 C   0  0  0  0  0  0
  -25.9104  -32.4777   23.8348 C   0  0  1  0  0  0
  -27.2272  -27.3213   20.1047 C   0  0  0  0  0  0
  -25.5925  -33.8575   24.2275 N   0  0  0  0  0  0
  -23.4198  -30.4849   21.5449 C   0  0  2  0  0  0
  -24.8649  -28.9414   20.1124 C   0  0  0  0  0  0
  -22.7476  -29.4624   22.4920 C   0  0  0  0  0  0
  -18.0285  -28.1369   22.8493 C   0  0  0  0  0  0
  -24.1491  -36.7280   23.2639 C   0  0  0  0  0  0
  -25.9618  -30.7919   21.3733 C   0  0  0  0  0  0
  -26.0361  -29.4192   20.7133 C   0  0  0  0  0  0
  -27.2195  -28.6215   20.7011 C   0  0  0  0  0  0
  -26.0269  -26.8980   19.4853 C   0  0  0  0  0  0
  -24.8616  -27.6848   19.4919 C   0  0  0  0  0  0
  -23.6346  -29.8225   20.1594 C   0  0  0  0  0  0
  -25.4120  -36.3073   24.0328 C   0  0  1  0  0  0
  -20.5891  -28.3666   23.1277 C   0  0  2  0  0  0
  -20.6771  -26.9387   22.5399 C   0  0  0  0  0  0
  -19.5745  -26.6364   21.5199 C   0  0  0  0  0  0
  -18.1928  -26.7916   22.1615 C   0  0  0  0  0  0
  -19.1547  -28.8830   23.2883 C   0  0  0  0  0  0
  -18.9471  -30.1439   23.8889 C   0  0  0  0  0  0
  -17.6475  -30.6578   24.0564 C   0  0  0  0  0  0
  -25.9045  -34.9452   23.5097 C   0  0  0  0  0  0
  -16.5358  -29.9081   23.6335 C   0  0  0  0  0  0
  -16.7275  -28.6495   23.0351 C   0  0  0  0  0  0
  -26.4495  -31.6584   25.0709 C   0  0  0  0  0  0
  -25.3742  -31.3749   26.1441 C   0  0  0  0  0  0
  -27.0332  -30.3014   24.6154 C   0  0  0  0  0  0
  -27.6042  -32.4321   25.7494 C   0  0  0  0  0  0
  -27.5581  -37.1796   24.8472 C   0  0  0  0  0  0
  -21.4180  -29.3044   22.3683 N   0  0  0  0  0  0
  -26.4297  -37.3769   23.9411 N   0  0  0  0  0  0
  -24.6883  -31.0627   22.0963 N   0  0  0  0  0  0
  -23.4207  -28.8150   23.2984 O   0  0  0  0  0  0
  -28.3495  -26.4735   20.1424 O   0  0  0  0  0  0
  -26.5605  -34.8920   22.4661 O   0  0  0  0  0  0
  -23.5426  -32.1367   23.7365 O   0  0  0  0  0  0
  -30.9261  -19.2322   19.7920 C   0  0  0  0  0  0
  -30.9156  -17.8133   19.9261 C   0  0  0  0  0  0
  -28.9688  -19.4256   21.1906 C   0  0  0  0  0  0
  -29.9754  -20.0883   20.4181 C   0  0  0  0  0  0
  -29.9444  -17.1515   20.7165 C   0  0  0  0  0  0
  -28.9752  -17.9912   21.3411 C   0  0  0  0  0  0
  -27.9182  -20.2129   21.8682 C   0  0  0  0  0  0
  -29.3391  -24.0553   20.1755 C   0  0  0  0  0  0
  -30.2278  -21.6536   20.3483 C   0  0  0  0  0  0
  -28.1167  -25.0215   19.9338 C   0  0  0  0  0  0
  -27.0150  -20.8591   21.2578 N   0  0  0  0  0  0
  -29.8496  -15.6946   20.8941 N   0  0  0  0  0  0
  -29.1483  -22.6957   20.2399 N   0  0  0  0  0  0
  -30.4711  -24.5377   20.2693 O   0  0  0  0  0  0
  -27.7707  -17.2121   22.3200 Cl  0  0  0  0  0  0
  -31.4793  -12.5111   19.1575 H   0  0  0  0  0  0
  -30.3689  -11.3963   19.9018 H   0  0  0  0  0  0
  -29.7731  -11.7508   17.4863 H   0  0  0  0  0  0
  -29.6522  -13.4736   17.7484 H   0  0  0  0  0  0
  -27.8747  -11.2897   18.8797 H   0  0  0  0  0  0
  -27.3758  -12.5645   17.8006 H   0  0  0  0  0  0
  -27.6727  -14.2517   19.5234 H   0  0  0  0  0  0
  -28.7096  -12.0617   21.3910 H   0  0  0  0  0  0
  -28.4434  -13.7192   21.8445 H   0  0  0  0  0  0
  -25.2760   -9.5692   22.4753 H   0  0  0  0  0  0
  -24.0007   -7.4638   22.7470 H   0  0  0  0  0  0
  -21.0847   -8.8773   19.8944 H   0  0  0  0  0  0
  -22.3697  -10.9674   19.6165 H   0  0  0  0  0  0
  -21.1999   -7.6148   23.9717 H   0  0  0  0  0  0
  -21.1485   -6.0518   25.9078 H   0  0  0  0  0  0
  -22.0596   -2.7609   23.2842 H   0  0  0  0  0  0
  -22.4109  -11.9868   22.4781 H   0  0  0  0  0  0
  -21.1113  -13.1244   22.2633 H   0  0  0  0  0  0
  -24.6638  -15.8446   20.5343 H   0  0  0  0  0  0
  -26.2857  -15.6334   20.1158 H   0  0  0  0  0  0
  -26.7178  -32.5443   23.1101 H   0  0  0  0  0  0
  -25.0120  -33.9737   25.0453 H   0  0  0  0  0  0
  -22.7145  -31.3062   21.4034 H   0  0  0  0  0  0
  -23.3750  -35.9612   23.3298 H   0  0  0  0  0  0
  -24.3599  -36.8895   22.2055 H   0  0  0  0  0  0
  -23.7249  -37.6486   23.6660 H   0  0  0  0  0  0
  -26.0985  -31.5578   20.6091 H   0  0  0  0  0  0
  -26.8412  -30.8362   22.0032 H   0  0  0  0  0  0
  -28.1191  -28.9855   21.1781 H   0  0  0  0  0  0
  -25.9497  -25.9418   18.9903 H   0  0  0  0  0  0
  -23.9640  -27.3110   19.0173 H   0  0  0  0  0  0
  -23.7580  -30.6002   19.4044 H   0  0  0  0  0  0
  -22.7535  -29.2537   19.8555 H   0  0  0  0  0  0
  -25.1310  -36.1907   25.0821 H   0  0  0  0  0  0
  -21.0000  -28.3214   24.1388 H   0  0  0  0  0  0
  -20.5639  -26.2274   23.3599 H   0  0  0  0  0  0
  -21.6642  -26.7391   22.1210 H   0  0  0  0  0  0
  -19.6903  -25.6272   21.1225 H   0  0  0  0  0  0
  -19.6681  -27.3178   20.6736 H   0  0  0  0  0  0
  -17.4198  -26.6653   21.4018 H   0  0  0  0  0  0
  -18.0330  -26.0062   22.9015 H   0  0  0  0  0  0
  -19.7949  -30.7260   24.2233 H   0  0  0  0  0  0
  -17.5033  -31.6259   24.5156 H   0  0  0  0  0  0
  -15.5361  -30.2984   23.7657 H   0  0  0  0  0  0
  -15.8672  -28.0819   22.7058 H   0  0  0  0  0  0
  -24.5912  -30.7096   25.7789 H   0  0  0  0  0  0
  -24.8947  -32.2932   26.4840 H   0  0  0  0  0  0
  -25.8072  -30.8954   27.0225 H   0  0  0  0  0  0
  -26.2900  -29.6769   24.1184 H   0  0  0  0  0  0
  -27.4049  -29.7265   25.4642 H   0  0  0  0  0  0
  -27.8759  -30.4315   23.9366 H   0  0  0  0  0  0
  -27.2642  -33.3633   26.2044 H   0  0  0  0  0  0
  -28.3872  -32.6852   25.0333 H   0  0  0  0  0  0
  -28.0672  -31.8454   26.5437 H   0  0  0  0  0  0
  -28.2586  -38.0098   24.7508 H   0  0  0  0  0  0
  -28.1077  -36.2628   24.6298 H   0  0  0  0  0  0
  -27.2306  -37.1448   25.8875 H   0  0  0  0  0  0
  -20.9323  -29.8827   21.6972 H   0  0  0  0  0  0
  -26.0159  -38.2835   24.1408 H   0  0  0  0  0  0
  -31.7181  -19.6738   19.2021 H   0  0  0  0  0  0
  -31.6796  -17.2441   19.4156 H   0  0  0  0  0  0
  -27.9486  -20.2158   22.9612 H   0  0  0  0  0  0
  -30.9057  -21.8318   19.5111 H   0  0  0  0  0  0
  -30.8119  -21.8987   21.2369 H   0  0  0  0  0  0
  -27.2924  -24.6842   20.5638 H   0  0  0  0  0  0
  -27.8213  -24.8629   18.8961 H   0  0  0  0  0  0
  -27.0879  -20.7254   20.2551 H   0  0  0  0  0  0
  -28.9796  -15.4027   21.3139 H   0  0  0  0  0  0
  -28.1923  -22.3611   20.2426 H   0  0  0  0  0  0
  1 25  1  0  0  0
  1 30  2  0  0  0
  1 82  1  0  0  0
  2  3  1  0  0  0
  2 25  1  0  0  0
  2 86  1  0  0  0
  2 87  1  0  0  0
  3  4  1  0  0  0
  3 88  1  0  0  0
  3 89  1  0  0  0
  4  5  1  0  0  0
  4 90  1  0  0  0
  4 91  1  0  0  0
  5  6  1  0  0  0
  5 26  1  0  0  0
  5 92  1  0  0  0
  6 25  1  0  0  0
  6 93  1  0  0  0
  6 94  1  0  0  0
  7  8  2  0  0  0
  7 26  1  0  0  0
  7 29  1  0  0  0
  8  9  1  0  0  0
  8 22  1  0  0  0
  9 10  1  0  0  0
  9 27  2  0  0  0
 10 11  2  0  0  0
 10 15  1  0  0  0
 11 12  1  0  0  0
 11 95  1  0  0  0
 12 13  2  0  0  0
 12 96  1  0  0  0
 13 14  1  0  0  0
 13 31  1  0  0  0
 14 15  2  0  0  0
 14 97  1  0  0  0
 15 98  1  0  0  0
 16 17  2  0  0  0
 16 21  1  0  0  0
 16 31  1  0  0  0
 17 18  1  0  0  0
 17 99  1  0  0  0
 18 19  2  0  0  0
 18100  1  0  0  0
 19 20  1  0  0  0
 19 24  1  0  0  0
 20 21  2  0  0  0
 20101  1  0  0  0
 21 23  1  0  0  0
 22 28  1  0  0  0
 22 32  2  0  0  0
 26 27  1  0  0  0
 28102  1  0  0  0
 28103  1  0  0  0
 29104  1  0  0  0
 29105  1  0  0  0
 33 34  1  0  0  0
 33 66  1  0  0  0
 33 70  2  0  0  0
 34 36  1  0  0  0
 34 59  1  0  0  0
 34106  1  0  0  0
 35 44  2  0  0  0
 35 45  1  0  0  0
 35 68  1  0  0  0
 36 56  1  0  0  0
 36107  1  0  0  0
 37 39  1  0  0  0
 37 47  1  0  0  0
 37 66  1  0  0  0
 37108  1  0  0  0
 38 43  2  0  0  0
 38 46  1  0  0  0
 38 47  1  0  0  0
 39 64  1  0  0  0
 39 67  2  0  0  0
 40 52  1  0  0  0
 40 53  2  0  0  0
 40 58  1  0  0  0
 41109  1  0  0  0
 41110  1  0  0  0
 41111  1  0  0  0
 41 48  1  0  0  0
 42 43  1  0  0  0
 42 66  1  0  0  0
 42112  1  0  0  0
 42113  1  0  0  0
 43 44  1  0  0  0
 44114  1  0  0  0
 45 46  2  0  0  0
 45115  1  0  0  0
 46116  1  0  0  0
 47117  1  0  0  0
 47118  1  0  0  0
 48 56  1  0  0  0
 48 65  1  0  0  0
 48119  1  0  0  0
 49 50  1  0  0  0
 49 53  1  0  0  0
 49 64  1  0  0  0
 49120  1  0  0  0
 50 51  1  0  0  0
 50121  1  0  0  0
 50122  1  0  0  0
 51 52  1  0  0  0
 51123  1  0  0  0
 51124  1  0  0  0
 52125  1  0  0  0
 52126  1  0  0  0
 53 54  1  0  0  0
 54 55  2  0  0  0
 54127  1  0  0  0
 55 57  1  0  0  0
 55128  1  0  0  0
 56 69  2  0  0  0
 57 58  2  0  0  0
 57129  1  0  0  0
 58130  1  0  0  0
 59 60  1  0  0  0
 59 61  1  0  0  0
 59 62  1  0  0  0
 60131  1  0  0  0
 60132  1  0  0  0
 60133  1  0  0  0
 61134  1  0  0  0
 61135  1  0  0  0
 61136  1  0  0  0
 62137  1  0  0  0
 62138  1  0  0  0
 62139  1  0  0  0
 63 65  1  0  0  0
 63140  1  0  0  0
 63141  1  0  0  0
 63142  1  0  0  0
 64143  1  0  0  0
 65144  1  0  0  0
 68 80  1  0  0  0
 71 72  2  0  0  0
 71 74  1  0  0  0
 71145  1  0  0  0
 72 75  1  0  0  0
 72146  1  0  0  0
 73 74  2  0  0  0
 73 76  1  0  0  0
 73 77  1  0  0  0
 74 79  1  0  0  0
 75 76  2  0  0  0
 75 82  1  0  0  0
 76 85  1  0  0  0
 77 81  2  0  0  0
 77147  1  0  0  0
 78 80  1  0  0  0
 78 83  1  0  0  0
 78 84  2  0  0  0
 79 83  1  0  0  0
 79148  1  0  0  0
 79149  1  0  0  0
 80150  1  0  0  0
 80151  1  0  0  0
 81152  1  0  0  0
 82153  1  0  0  0
 83154  1  0  0  0
M  ISO  4   1 100  68 101  80 101  82 100
M  END
> <chiral flag>
0

> <version>
0

> <s_m_source_file>
/data/baiqing/PycharmProjects/Reinvent-master-3.2/result/LINK_invent/BTK/process_docking_weight1_custom_product_contain_oxygen_bond_distance_aromatic_linkinvent_7_9_3/rearranged_h_0049.sdf

> <i_m_source_file_index>
73

> <r_mmod_Potential_Energy-OPLS-2005>
-5.88271617889404

> <r_mmod_Stretch_Energy-OPLS-2005>
84.6445922851562

> <r_mmod_Bend_Energy-OPLS-2005>
144.560592651367

> <r_mmod_Torsional_Energy-OPLS-2005>
235.520278930664

> <r_mmod_Improper_Torsional_Energy-OPLS-2005>
4.09000825881958

> <r_mmod_Van_der_Waal_Energy-OPLS-2005>
153.001937866211

> <r_mmod_Electrostatic_Energy-OPLS-2005>
-428.169281005859

> <r_mmod_Solvation_Energy-OPLS-2005>
-247.238708496094

> <b_mmod_Minimization_Converged-OPLS-2005>
0

> <r_mmod_RMS_Derivative-OPLS-2005>
1.93219971656799

$$$$
73
                    3D
 Structure written by MMmdl.
170179  0  0  1  0            999 V2000
  -30.5677  -14.6609   20.4610 C   0  0  0  0  0  0
  -30.4483  -12.3976   19.4450 C   0  0  0  0  0  0
  -29.5119  -12.5106   18.2203 C   0  0  0  0  0  0
  -28.0323  -12.3350   18.6280 C   0  0  0  0  0  0
  -27.6533  -13.1800   19.8720 C   0  0  2  0  0  0
  -28.7034  -13.0406   20.9950 C   0  0  0  0  0  0
  -25.2581  -13.8062   20.5727 C   0  0  0  0  0  0
  -24.1817  -13.0383   20.9238 C   0  0  0  0  0  0
  -24.6341  -11.6842   20.8762 C   0  0  0  0  0  0
  -23.9011  -10.4253   21.0420 C   0  0  0  0  0  0
  -24.3587   -9.4181   21.9198 C   0  0  0  0  0  0
  -23.6279   -8.2213   22.0759 C   0  0  0  0  0  0
  -22.4262   -8.0253   21.3540 C   0  0  0  0  0  0
  -21.9879   -9.0223   20.4636 C   0  0  0  0  0  0
  -22.7193  -10.2108   20.3057 C   0  0  0  0  0  0
  -21.6840   -6.0716   22.5284 C   0  0  0  0  0  0
  -21.3990   -6.5627   23.8212 C   0  0  0  0  0  0
  -21.3662   -5.6781   24.9176 C   0  0  0  0  0  0
  -21.6053   -4.3048   24.7219 C   0  0  0  0  0  0
  -21.8827   -3.8136   23.4340 C   0  0  0  0  0  0
  -21.9190   -4.6950   22.3395 C   0  0  0  0  0  0
  -22.7852  -13.5223   21.1873 C   0  0  0  0  0  0
  -22.1671   -4.2132   21.0977 F   0  0  0  0  0  0
  -21.5644   -3.4532   25.7740 F   0  0  0  0  0  0
  -30.0113  -13.4090   20.4240 N   0  0  0  0  0  0
  -26.2962  -12.9162   20.3339 N   0  0  0  0  0  0
  -25.9251  -11.6356   20.5766 N   0  0  0  0  0  0
  -22.0448  -12.8249   22.0415 N   0  0  0  0  0  0
  -25.4288  -15.1774   20.4171 N   0  0  0  0  0  0
  -31.7377  -14.8615   20.1185 O   0  0  0  0  0  0
  -21.6625   -6.8855   21.4242 O   0  0  0  0  0  0
  -22.3575  -14.5530   20.6696 O   0  0  0  0  0  0
  -24.6209  -31.8583   23.2000 C   0  0  0  0  0  0
  -25.9069  -32.4759   23.8345 C   0  0  1  0  0  0
  -27.2551  -27.3584   20.1186 C   0  0  0  0  0  0
  -25.5898  -33.8562   24.2283 N   0  0  0  0  0  0
  -23.4145  -30.4752   21.5392 C   0  0  2  0  0  0
  -24.8668  -28.9209   20.1074 C   0  0  0  0  0  0
  -22.7440  -29.4606   22.4941 C   0  0  0  0  0  0
  -18.0267  -28.1385   22.8475 C   0  0  0  0  0  0
  -24.1487  -36.7297   23.2651 C   0  0  0  0  0  0
  -25.9460  -30.8008   21.3608 C   0  0  0  0  0  0
  -26.0234  -29.4269   20.7105 C   0  0  0  0  0  0
  -27.2098  -28.6528   20.7088 C   0  0  0  0  0  0
  -26.0813  -26.8791   19.4966 C   0  0  0  0  0  0
  -24.8961  -27.6530   19.4929 C   0  0  0  0  0  0
  -23.6287  -29.7942   20.1573 C   0  0  0  0  0  0
  -25.4104  -36.3072   24.0344 C   0  0  1  0  0  0
  -20.5859  -28.3687   23.1294 C   0  0  2  0  0  0
  -20.6748  -26.9414   22.5410 C   0  0  0  0  0  0
  -19.5731  -26.6387   21.5201 C   0  0  0  0  0  0
  -18.1912  -26.7927   22.1613 C   0  0  0  0  0  0
  -19.1517  -28.8850   23.2881 C   0  0  0  0  0  0
  -18.9442  -30.1445   23.8909 C   0  0  0  0  0  0
  -17.6447  -30.6590   24.0553 C   0  0  0  0  0  0
  -25.9041  -34.9439   23.5120 C   0  0  0  0  0  0
  -16.5335  -29.9087   23.6331 C   0  0  0  0  0  0
  -16.7253  -28.6501   23.0352 C   0  0  0  0  0  0
  -26.4481  -31.6557   25.0701 C   0  0  0  0  0  0
  -25.3739  -31.3656   26.1443 C   0  0  0  0  0  0
  -27.0318  -30.2989   24.6118 C   0  0  0  0  0  0
  -27.6052  -32.4283   25.7467 C   0  0  0  0  0  0
  -27.5575  -37.1799   24.8466 C   0  0  0  0  0  0
  -21.4158  -29.3029   22.3687 N   0  0  0  0  0  0
  -26.4281  -37.3765   23.9417 N   0  0  0  0  0  0
  -24.6790  -31.0621   22.0919 N   0  0  0  0  0  0
  -23.4167  -28.8176   23.3036 O   0  0  0  0  0  0
  -28.4445  -26.6412   20.2340 O   0  0  0  0  0  0
  -26.5618  -34.8907   22.4687 O   0  0  0  0  0  0
  -23.5388  -32.1367   23.7356 O   0  0  0  0  0  0
  -30.3813  -18.0663   21.1366 C   0  0  0  0  0  0
  -30.0794  -19.4652   21.0730 C   0  0  0  0  0  0
  -28.9692  -19.9711   20.3214 C   0  0  0  0  0  0
  -28.2363  -18.9907   19.5729 C   0  0  0  0  0  0
  -29.6279  -17.0975   20.4294 C   0  0  0  0  0  0
  -28.6008  -17.6080   19.5896 C   0  0  0  0  0  0
  -29.2796  -22.7068   18.3073 C   0  0  0  0  0  0
  -29.1831  -21.6245   17.5115 C   0  0  0  0  0  0
  -28.8995  -25.2597   18.2012 C   0  0  0  0  0  0
  -28.2039  -23.9552   20.2505 C   0  0  0  0  0  0
  -29.7970  -24.0725   17.8023 C   0  0  2  0  0  0
  -28.7914  -25.3116   19.7167 C   0  0  1  0  0  0
  -30.9312  -20.4030   21.9152 C   0  0  0  0  0  0
  -26.9830  -19.3607   18.7683 C   0  0  0  0  0  0
  -30.0761  -24.1193   16.2856 C   0  0  0  0  0  0
  -28.4292  -21.4585   20.4988 C   0  0  0  0  0  0
  -29.6770  -15.6648   20.7272 N   0  0  0  0  0  0
  -28.9830  -22.7117   19.8116 N   0  3  2  0  0  0
  -27.7415  -16.5166   18.5601 Cl  0  0  0  0  0  0
  -31.4869  -12.5456   19.1445 H   0  0  0  0  0  0
  -30.4022  -11.3988   19.8818 H   0  0  0  0  0  0
  -29.7837  -11.7671   17.4691 H   0  0  0  0  0  0
  -29.6452  -13.4863   17.7493 H   0  0  0  0  0  0
  -27.8641  -11.2787   18.8368 H   0  0  0  0  0  0
  -27.3796  -12.5864   17.7908 H   0  0  0  0  0  0
  -27.6677  -14.2056   19.5423 H   0  0  0  0  0  0
  -28.7277  -12.0169   21.3705 H   0  0  0  0  0  0
  -28.4449  -13.6629   21.8527 H   0  0  0  0  0  0
  -25.2732   -9.5667   22.4768 H   0  0  0  0  0  0
  -23.9982   -7.4603   22.7481 H   0  0  0  0  0  0
  -21.0802   -8.8742   19.8949 H   0  0  0  0  0  0
  -22.3661  -10.9653   19.6167 H   0  0  0  0  0  0
  -21.1967   -7.6133   23.9714 H   0  0  0  0  0  0
  -21.1491   -6.0504   25.9082 H   0  0  0  0  0  0
  -22.0606   -2.7596   23.2838 H   0  0  0  0  0  0
  -22.4007  -11.9898   22.4826 H   0  0  0  0  0  0
  -21.1075  -13.1326   22.2585 H   0  0  0  0  0  0
  -24.6473  -15.8153   20.5146 H   0  0  0  0  0  0
  -26.2220  -15.5977   19.9474 H   0  0  0  0  0  0
  -26.7140  -32.5447   23.1107 H   0  0  0  0  0  0
  -25.0011  -33.9695   25.0407 H   0  0  0  0  0  0
  -22.7071  -31.2945   21.3908 H   0  0  0  0  0  0
  -23.3736  -35.9642   23.3296 H   0  0  0  0  0  0
  -24.3593  -36.8929   22.2071 H   0  0  0  0  0  0
  -23.7242  -37.6502   23.6670 H   0  0  0  0  0  0
  -26.0651  -31.5621   20.5884 H   0  0  0  0  0  0
  -26.8312  -30.8586   21.9824 H   0  0  0  0  0  0
  -28.0981  -29.0391   21.1900 H   0  0  0  0  0  0
  -26.0680  -25.9039   19.0323 H   0  0  0  0  0  0
  -24.0067  -27.2600   19.0186 H   0  0  0  0  0  0
  -23.7376  -30.5640   19.3928 H   0  0  0  0  0  0
  -22.7530  -29.2122   19.8653 H   0  0  0  0  0  0
  -25.1277  -36.1929   25.0838 H   0  0  0  0  0  0
  -20.9945  -28.3261   24.1416 H   0  0  0  0  0  0
  -20.5624  -26.2305   23.3610 H   0  0  0  0  0  0
  -21.6625  -26.7432   22.1223 H   0  0  0  0  0  0
  -19.6897  -25.6296   21.1238 H   0  0  0  0  0  0
  -19.6682  -27.3193   20.6730 H   0  0  0  0  0  0
  -17.4184  -26.6664   21.4018 H   0  0  0  0  0  0
  -18.0322  -26.0072   22.9016 H   0  0  0  0  0  0
  -19.7917  -30.7233   24.2317 H   0  0  0  0  0  0
  -17.5004  -31.6274   24.5147 H   0  0  0  0  0  0
  -15.5334  -30.2990   23.7661 H   0  0  0  0  0  0
  -15.8644  -28.0820   22.7077 H   0  0  0  0  0  0
  -24.5930  -30.6988   25.7767 H   0  0  0  0  0  0
  -24.8915  -32.2804   26.4899 H   0  0  0  0  0  0
  -25.8102  -30.8819   27.0193 H   0  0  0  0  0  0
  -26.2868  -29.6730   24.1191 H   0  0  0  0  0  0
  -27.4084  -29.7241   25.4591 H   0  0  0  0  0  0
  -27.8707  -30.4282   23.9272 H   0  0  0  0  0  0
  -27.2673  -33.3576   26.2056 H   0  0  0  0  0  0
  -28.3854  -32.6845   25.0289 H   0  0  0  0  0  0
  -28.0727  -31.8398   26.5369 H   0  0  0  0  0  0
  -28.2576  -38.0111   24.7504 H   0  0  0  0  0  0
  -28.1078  -36.2632   24.6279 H   0  0  0  0  0  0
  -27.2301  -37.1441   25.8874 H   0  0  0  0  0  0
  -20.9346  -29.8725   21.6872 H   0  0  0  0  0  0
  -26.0161  -38.2848   24.1392 H   0  0  0  0  0  0
  -31.1624  -17.7244   21.8017 H   0  0  0  0  0  0
  -29.4222  -21.6723   16.4616 H   0  0  0  0  0  0
  -28.8991  -20.6558   17.8506 H   0  0  0  0  0  0
  -27.9137  -25.1789   17.7430 H   0  0  0  0  0  0
  -29.3376  -26.1926   17.8434 H   0  0  0  0  0  0
  -27.1677  -23.8603   19.9266 H   0  0  0  0  0  0
  -28.1771  -23.9945   21.3400 H   0  0  0  0  0  0
  -30.7677  -24.2099   18.2826 H   0  0  0  0  0  0
  -29.8229  -25.2829   20.0712 H   0  0  0  0  0  0
  -31.8457  -19.9098   22.2497 H   0  0  0  0  0  0
  -30.3897  -20.7290   22.8046 H   0  0  0  0  0  0
  -31.2333  -21.2826   21.3464 H   0  0  0  0  0  0
  -26.8081  -20.4247   18.6365 H   0  0  0  0  0  0
  -26.0954  -18.9367   19.2395 H   0  0  0  0  0  0
  -27.0441  -18.9604   17.7563 H   0  0  0  0  0  0
  -29.1825  -23.8948   15.7012 H   0  0  0  0  0  0
  -30.8567  -23.4122   16.0042 H   0  0  0  0  0  0
  -30.4253  -25.1041   15.9737 H   0  0  0  0  0  0
  -28.5091  -21.6540   21.5684 H   0  0  0  0  0  0
  -27.3516  -21.4628   20.3578 H   0  0  0  0  0  0
  -28.7671  -15.2802   20.9285 H   0  0  0  0  0  0
  -29.8826  -22.8160   20.2573 H   0  0  0  0  0  0
  1 25  1  0  0  0
  1 30  2  0  0  0
  1 87  1  0  0  0
  2  3  1  0  0  0
  2 25  1  0  0  0
  2 90  1  0  0  0
  2 91  1  0  0  0
  3  4  1  0  0  0
  3 92  1  0  0  0
  3 93  1  0  0  0
  4  5  1  0  0  0
  4 94  1  0  0  0
  4 95  1  0  0  0
  5  6  1  0  0  0
  5 26  1  0  0  0
  5 96  1  0  0  0
  6 25  1  0  0  0
  6 97  1  0  0  0
  6 98  1  0  0  0
  7  8  2  0  0  0
  7 26  1  0  0  0
  7 29  1  0  0  0
  8  9  1  0  0  0
  8 22  1  0  0  0
  9 10  1  0  0  0
  9 27  2  0  0  0
 10 11  2  0  0  0
 10 15  1  0  0  0
 11 12  1  0  0  0
 11 99  1  0  0  0
 12 13  2  0  0  0
 12100  1  0  0  0
 13 14  1  0  0  0
 13 31  1  0  0  0
 14 15  2  0  0  0
 14101  1  0  0  0
 15102  1  0  0  0
 16 17  2  0  0  0
 16 21  1  0  0  0
 16 31  1  0  0  0
 17 18  1  0  0  0
 17103  1  0  0  0
 18 19  2  0  0  0
 18104  1  0  0  0
 19 20  1  0  0  0
 19 24  1  0  0  0
 20 21  2  0  0  0
 20105  1  0  0  0
 21 23  1  0  0  0
 22 28  1  0  0  0
 22 32  2  0  0  0
 26 27  1  0  0  0
 28106  1  0  0  0
 28107  1  0  0  0
 29108  1  0  0  0
 29109  1  0  0  0
 33 34  1  0  0  0
 33 66  1  0  0  0
 33 70  2  0  0  0
 34 36  1  0  0  0
 34 59  1  0  0  0
 34110  1  0  0  0
 35 44  2  0  0  0
 35 45  1  0  0  0
 35 68  1  0  0  0
 36 56  1  0  0  0
 36111  1  0  0  0
 37 39  1  0  0  0
 37 47  1  0  0  0
 37 66  1  0  0  0
 37112  1  0  0  0
 38 43  2  0  0  0
 38 46  1  0  0  0
 38 47  1  0  0  0
 39 64  1  0  0  0
 39 67  2  0  0  0
 40 52  1  0  0  0
 40 53  2  0  0  0
 40 58  1  0  0  0
 41113  1  0  0  0
 41114  1  0  0  0
 41115  1  0  0  0
 41 48  1  0  0  0
 42 43  1  0  0  0
 42 66  1  0  0  0
 42116  1  0  0  0
 42117  1  0  0  0
 43 44  1  0  0  0
 44118  1  0  0  0
 45 46  2  0  0  0
 45119  1  0  0  0
 46120  1  0  0  0
 47121  1  0  0  0
 47122  1  0  0  0
 48 56  1  0  0  0
 48 65  1  0  0  0
 48123  1  0  0  0
 49 50  1  0  0  0
 49 53  1  0  0  0
 49 64  1  0  0  0
 49124  1  0  0  0
 50 51  1  0  0  0
 50125  1  0  0  0
 50126  1  0  0  0
 51 52  1  0  0  0
 51127  1  0  0  0
 51128  1  0  0  0
 52129  1  0  0  0
 52130  1  0  0  0
 53 54  1  0  0  0
 54 55  2  0  0  0
 54131  1  0  0  0
 55 57  1  0  0  0
 55132  1  0  0  0
 56 69  2  0  0  0
 57 58  2  0  0  0
 57133  1  0  0  0
 58134  1  0  0  0
 59 60  1  0  0  0
 59 61  1  0  0  0
 59 62  1  0  0  0
 60135  1  0  0  0
 60136  1  0  0  0
 60137  1  0  0  0
 61138  1  0  0  0
 61139  1  0  0  0
 61140  1  0  0  0
 62141  1  0  0  0
 62142  1  0  0  0
 62143  1  0  0  0
 63 65  1  0  0  0
 63144  1  0  0  0
 63145  1  0  0  0
 63146  1  0  0  0
 64147  1  0  0  0
 65148  1  0  0  0
 68 82  1  0  0  0
 71 72  2  0  0  0
 71 75  1  0  0  0
 71149  1  0  0  0
 72 73  1  0  0  0
 72 83  1  0  0  0
 73 74  2  0  0  0
 73 86  1  0  0  0
 74 76  1  0  0  0
 74 84  1  0  0  0
 75 76  2  0  0  0
 75 87  1  0  0  0
 76 89  1  0  0  0
 77 78  2  0  0  0
 77 81  1  0  0  0
 77 88  1  0  0  0
 78150  1  0  0  0
 78151  1  0  0  0
 79 81  1  0  0  0
 79 82  1  0  0  0
 79152  1  0  0  0
 79153  1  0  0  0
 80 82  1  0  0  0
 80 88  1  0  0  0
 80154  1  0  0  0
 80155  1  0  0  0
 81 85  1  0  0  0
 81156  1  0  0  0
 82157  1  0  0  0
 83158  1  0  0  0
 83159  1  0  0  0
 83160  1  0  0  0
 84161  1  0  0  0
 84162  1  0  0  0
 84163  1  0  0  0
 85164  1  0  0  0
 85165  1  0  0  0
 85166  1  0  0  0
 86167  1  0  0  0
 86168  1  0  0  0
 86 88  1  0  0  0
 87169  1  0  0  0
 88170  1  0  0  0
M  CHG  1  88   1
M  ISO  4   1 100  68 101  82 101  87 100
M  END
> <chiral flag>
0

> <version>
0

> <s_m_source_file>
/data/baiqing/PycharmProjects/Reinvent-master-3.2/result/LINK_invent/BTK/process_docking_weight1_custom_product_contain_oxygen_bond_distance_aromatic_linkinvent_7_9_3/rearranged_h_0049.sdf

> <i_m_source_file_index>
74

> <r_mmod_Potential_Energy-OPLS-2005>
62.9224586486816

> <r_mmod_Stretch_Energy-OPLS-2005>
87.3214721679688

> <r_mmod_Bend_Energy-OPLS-2005>
221.425689697266

> <r_mmod_Torsional_Energy-OPLS-2005>
247.975234985352

> <r_mmod_Improper_Torsional_Energy-OPLS-2005>
9.28641510009766

> <r_mmod_Van_der_Waal_Energy-OPLS-2005>
159.146286010742

> <r_mmod_Electrostatic_Energy-OPLS-2005>
-287.724456787109

> <r_mmod_Solvation_Energy-OPLS-2005>
-422.618255615234

> <b_mmod_Minimization_Converged-OPLS-2005>
0

> <r_mmod_RMS_Derivative-OPLS-2005>
2.04168939590454

$$$$
74
                    3D
 Structure written by MMmdl.
164173  0  0  1  0            999 V2000
  -30.5969  -14.6174   20.5268 C   0  0  0  0  0  0
  -30.4454  -12.3839   19.4494 C   0  0  0  0  0  0
  -29.5077  -12.5000   18.2260 C   0  0  0  0  0  0
  -28.0311  -12.3380   18.6348 C   0  0  0  0  0  0
  -27.6565  -13.2017   19.8662 C   0  0  2  0  0  0
  -28.6962  -13.0216   20.9961 C   0  0  0  0  0  0
  -25.2572  -13.8132   20.5648 C   0  0  0  0  0  0
  -24.1801  -13.0438   20.9156 C   0  0  0  0  0  0
  -24.6334  -11.6908   20.8728 C   0  0  0  0  0  0
  -23.8997  -10.4309   21.0413 C   0  0  0  0  0  0
  -24.3568   -9.4237   21.9189 C   0  0  0  0  0  0
  -23.6271   -8.2260   22.0748 C   0  0  0  0  0  0
  -22.4262   -8.0272   21.3526 C   0  0  0  0  0  0
  -21.9878   -9.0247   20.4637 C   0  0  0  0  0  0
  -22.7178  -10.2149   20.3059 C   0  0  0  0  0  0
  -21.6854   -6.0738   22.5282 C   0  0  0  0  0  0
  -21.4016   -6.5635   23.8212 C   0  0  0  0  0  0
  -21.3657   -5.6791   24.9166 C   0  0  0  0  0  0
  -21.6054   -4.3052   24.7228 C   0  0  0  0  0  0
  -21.8818   -3.8139   23.4338 C   0  0  0  0  0  0
  -21.9197   -4.6968   22.3395 C   0  0  0  0  0  0
  -22.7834  -13.5275   21.1860 C   0  0  0  0  0  0
  -22.1664   -4.2144   21.0981 F   0  0  0  0  0  0
  -21.5642   -3.4532   25.7738 F   0  0  0  0  0  0
  -30.0141  -13.3805   20.4458 N   0  0  0  0  0  0
  -26.2967  -12.9287   20.3288 N   0  0  0  0  0  0
  -25.9249  -11.6467   20.5711 N   0  0  0  0  0  0
  -22.0453  -12.8282   22.0418 N   0  0  0  0  0  0
  -25.4373  -15.1849   20.4064 N   0  0  0  0  0  0
  -31.7304  -14.8316   20.0876 O   0  0  0  0  0  0
  -21.6634   -6.8865   21.4230 O   0  0  0  0  0  0
  -22.3545  -14.5607   20.6741 O   0  0  0  0  0  0
  -24.6258  -31.8631   23.2054 C   0  0  0  0  0  0
  -25.9138  -32.4770   23.8347 C   0  0  1  0  0  0
  -27.2013  -27.3301   20.1132 C   0  0  0  0  0  0
  -25.5965  -33.8576   24.2270 N   0  0  0  0  0  0
  -23.4141  -30.4914   21.5486 C   0  0  2  0  0  0
  -24.8578  -28.9589   20.1030 C   0  0  0  0  0  0
  -22.7444  -29.4623   22.4912 C   0  0  0  0  0  0
  -18.0270  -28.1337   22.8515 C   0  0  0  0  0  0
  -24.1507  -36.7294   23.2633 C   0  0  0  0  0  0
  -25.9556  -30.7979   21.3775 C   0  0  0  0  0  0
  -26.0282  -29.4307   20.7124 C   0  0  0  0  0  0
  -27.2050  -28.6269   20.7097 C   0  0  0  0  0  0
  -26.0215  -26.9336   19.4409 C   0  0  0  0  0  0
  -24.8580  -27.7172   19.4531 C   0  0  0  0  0  0
  -23.6270  -29.8378   20.1601 C   0  0  0  0  0  0
  -25.4123  -36.3072   24.0323 C   0  0  1  0  0  0
  -20.5872  -28.3665   23.1296 C   0  0  2  0  0  0
  -20.6787  -26.9396   22.5399 C   0  0  0  0  0  0
  -19.5738  -26.6387   21.5204 C   0  0  0  0  0  0
  -18.1933  -26.7877   22.1668 C   0  0  0  0  0  0
  -19.1523  -28.8825   23.2888 C   0  0  0  0  0  0
  -18.9438  -30.1460   23.8847 C   0  0  0  0  0  0
  -17.6418  -30.6570   24.0512 C   0  0  0  0  0  0
  -25.9062  -34.9439   23.5096 C   0  0  0  0  0  0
  -16.5323  -29.9034   23.6312 C   0  0  0  0  0  0
  -16.7255  -28.6435   23.0372 C   0  0  0  0  0  0
  -26.4519  -31.6568   25.0696 C   0  0  0  0  0  0
  -25.3741  -31.3724   26.1406 C   0  0  0  0  0  0
  -27.0367  -30.2991   24.6146 C   0  0  0  0  0  0
  -27.6072  -32.4301   25.7467 C   0  0  0  0  0  0
  -27.5582  -37.1797   24.8464 C   0  0  0  0  0  0
  -21.4168  -29.3033   22.3687 N   0  0  0  0  0  0
  -26.4306  -37.3761   23.9397 N   0  0  0  0  0  0
  -24.6838  -31.0652   22.1022 N   0  0  0  0  0  0
  -23.4207  -28.8144   23.2957 O   0  0  0  0  0  0
  -28.2818  -26.4429   20.2283 O   0  0  0  0  0  0
  -26.5611  -34.8917   22.4646 O   0  0  0  0  0  0
  -23.5443  -32.1456   23.7389 O   0  0  0  0  0  0
  -30.2266  -19.2541   19.9171 C   0  0  0  0  0  0
  -30.3191  -17.8297   19.9064 C   0  0  0  0  0  0
  -29.1951  -17.7721   22.0241 C   0  0  0  0  0  0
  -29.6581  -19.9884   21.0008 C   0  0  0  0  0  0
  -29.1289  -19.1959   22.0765 C   0  0  0  0  0  0
  -29.8167  -17.0525   20.9778 C   0  0  0  0  0  0
  -27.3505  -22.2710   21.0649 C   0  0  0  0  0  0
  -26.5811  -21.2729   20.6004 C   0  0  0  0  0  0
  -26.9155  -23.3197   22.0840 C   0  0  0  0  0  0
  -27.0043  -24.7768   21.5776 C   0  0  0  0  0  0
  -29.1511  -23.9734   20.5264 C   0  0  0  0  0  0
  -27.9595  -24.9969   20.3742 C   0  0  2  0  0  0
  -29.8149  -21.5634   21.0314 C   0  0  0  0  0  0
  -28.4730  -19.7657   23.3394 C   0  0  0  0  0  0
  -29.7898  -15.5980   21.0300 N   0  0  0  0  0  0
  -28.7325  -22.5062   20.5301 N   0  3  2  0  0  0
  -28.8979  -19.0886   24.4066 F   0  0  0  0  0  0
  -28.7268  -21.0486   23.5690 F   0  0  0  0  0  0
  -27.1536  -19.6096   23.2502 F   0  0  0  0  0  0
  -31.4806  -12.5361   19.1405 H   0  0  0  0  0  0
  -30.4067  -11.3815   19.8800 H   0  0  0  0  0  0
  -29.7720  -11.7500   17.4808 H   0  0  0  0  0  0
  -29.6488  -13.4694   17.7459 H   0  0  0  0  0  0
  -27.8714  -11.2846   18.8662 H   0  0  0  0  0  0
  -27.3760  -12.5750   17.7961 H   0  0  0  0  0  0
  -27.6870  -14.2406   19.5376 H   0  0  0  0  0  0
  -28.7064  -11.9869   21.3479 H   0  0  0  0  0  0
  -28.4272  -13.6206   21.8664 H   0  0  0  0  0  0
  -25.2713   -9.5752   22.4749 H   0  0  0  0  0  0
  -24.0009   -7.4660   22.7468 H   0  0  0  0  0  0
  -21.0809   -8.8754   19.8926 H   0  0  0  0  0  0
  -22.3620  -10.9686   19.6172 H   0  0  0  0  0  0
  -21.1991   -7.6138   23.9716 H   0  0  0  0  0  0
  -21.1484   -6.0507   25.9077 H   0  0  0  0  0  0
  -22.0592   -2.7596   23.2838 H   0  0  0  0  0  0
  -22.4048  -11.9931   22.4791 H   0  0  0  0  0  0
  -21.1068  -13.1335   22.2626 H   0  0  0  0  0  0
  -24.6804  -15.8484   20.5241 H   0  0  0  0  0  0
  -26.2924  -15.6103   20.0693 H   0  0  0  0  0  0
  -26.7180  -32.5444   23.1074 H   0  0  0  0  0  0
  -25.0115  -33.9697   25.0422 H   0  0  0  0  0  0
  -22.7064  -31.3127   21.4157 H   0  0  0  0  0  0
  -23.3760  -35.9642   23.3316 H   0  0  0  0  0  0
  -24.3586  -36.8896   22.2043 H   0  0  0  0  0  0
  -23.7289  -37.6515   23.6644 H   0  0  0  0  0  0
  -26.0851  -31.5654   20.6134 H   0  0  0  0  0  0
  -26.8364  -30.8394   22.0055 H   0  0  0  0  0  0
  -28.0963  -28.9704   21.2165 H   0  0  0  0  0  0
  -25.9554  -25.9938   18.9179 H   0  0  0  0  0  0
  -23.9657  -27.3588   18.9580 H   0  0  0  0  0  0
  -23.7445  -30.6235   19.4134 H   0  0  0  0  0  0
  -22.7439  -29.2763   19.8528 H   0  0  0  0  0  0
  -25.1312  -36.1911   25.0816 H   0  0  0  0  0  0
  -20.9964  -28.3268   24.1414 H   0  0  0  0  0  0
  -20.5767  -26.2258   23.3595 H   0  0  0  0  0  0
  -21.6664  -26.7497   22.1178 H   0  0  0  0  0  0
  -19.6952  -25.6327   21.1183 H   0  0  0  0  0  0
  -19.6572  -27.3223   20.6741 H   0  0  0  0  0  0
  -17.4153  -26.6505   21.4134 H   0  0  0  0  0  0
  -18.0422  -26.0079   22.9136 H   0  0  0  0  0  0
  -19.7895  -30.7335   24.2140 H   0  0  0  0  0  0
  -17.4910  -31.6273   24.5034 H   0  0  0  0  0  0
  -15.5300  -30.2910   23.7584 H   0  0  0  0  0  0
  -15.8655  -28.0731   22.7148 H   0  0  0  0  0  0
  -24.5895  -30.7105   25.7716 H   0  0  0  0  0  0
  -24.8967  -32.2918   26.4805 H   0  0  0  0  0  0
  -25.8031  -30.8889   27.0185 H   0  0  0  0  0  0
  -26.2936  -29.6711   24.1203 H   0  0  0  0  0  0
  -27.4126  -29.7257   25.4632 H   0  0  0  0  0  0
  -27.8786  -30.4293   23.9335 H   0  0  0  0  0  0
  -27.2661  -33.3585   26.2056 H   0  0  0  0  0  0
  -28.3860  -32.6870   25.0275 H   0  0  0  0  0  0
  -28.0761  -31.8414   26.5363 H   0  0  0  0  0  0
  -28.2594  -38.0093   24.7471 H   0  0  0  0  0  0
  -28.1072  -36.2610   24.6337 H   0  0  0  0  0  0
  -27.2276  -37.1502   25.8861 H   0  0  0  0  0  0
  -20.9349  -29.8770   21.6899 H   0  0  0  0  0  0
  -26.0186  -38.2839   24.1393 H   0  0  0  0  0  0
  -30.6471  -19.7911   19.0759 H   0  0  0  0  0  0
  -30.7707  -17.3368   19.0560 H   0  0  0  0  0  0
  -28.7577  -17.2155   22.8400 H   0  0  0  0  0  0
  -25.5739  -21.1343   20.9655 H   0  0  0  0  0  0
  -26.9322  -20.5790   19.8507 H   0  0  0  0  0  0
  -27.5210  -23.2014   22.9824 H   0  0  0  0  0  0
  -25.8877  -23.1167   22.3908 H   0  0  0  0  0  0
  -27.3033  -25.4194   22.4089 H   0  0  0  0  0  0
  -25.9988  -25.0989   21.3138 H   0  0  0  0  0  0
  -29.6866  -24.1990   21.4493 H   0  0  0  0  0  0
  -29.8607  -24.1207   19.7139 H   0  0  0  0  0  0
  -27.4617  -24.6787   19.4605 H   0  0  0  0  0  0
  -30.6817  -21.7833   20.4101 H   0  0  0  0  0  0
  -30.1483  -21.8809   22.0168 H   0  0  0  0  0  0
  -28.9722  -15.2142   21.4756 H   0  0  0  0  0  0
  -28.6753  -22.2749   19.5485 H   0  0  0  0  0  0
  1 25  1  0  0  0
  1 30  2  0  0  0
  1 85  1  0  0  0
  2  3  1  0  0  0
  2 25  1  0  0  0
  2 90  1  0  0  0
  2 91  1  0  0  0
  3  4  1  0  0  0
  3 92  1  0  0  0
  3 93  1  0  0  0
  4  5  1  0  0  0
  4 94  1  0  0  0
  4 95  1  0  0  0
  5  6  1  0  0  0
  5 26  1  0  0  0
  5 96  1  0  0  0
  6 25  1  0  0  0
  6 97  1  0  0  0
  6 98  1  0  0  0
  7  8  2  0  0  0
  7 26  1  0  0  0
  7 29  1  0  0  0
  8  9  1  0  0  0
  8 22  1  0  0  0
  9 10  1  0  0  0
  9 27  2  0  0  0
 10 11  2  0  0  0
 10 15  1  0  0  0
 11 12  1  0  0  0
 11 99  1  0  0  0
 12 13  2  0  0  0
 12100  1  0  0  0
 13 14  1  0  0  0
 13 31  1  0  0  0
 14 15  2  0  0  0
 14101  1  0  0  0
 15102  1  0  0  0
 16 17  2  0  0  0
 16 21  1  0  0  0
 16 31  1  0  0  0
 17 18  1  0  0  0
 17103  1  0  0  0
 18 19  2  0  0  0
 18104  1  0  0  0
 19 20  1  0  0  0
 19 24  1  0  0  0
 20 21  2  0  0  0
 20105  1  0  0  0
 21 23  1  0  0  0
 22 28  1  0  0  0
 22 32  2  0  0  0
 26 27  1  0  0  0
 28106  1  0  0  0
 28107  1  0  0  0
 29108  1  0  0  0
 29109  1  0  0  0
 33 34  1  0  0  0
 33 66  1  0  0  0
 33 70  2  0  0  0
 34 36  1  0  0  0
 34 59  1  0  0  0
 34110  1  0  0  0
 35 44  2  0  0  0
 35 45  1  0  0  0
 35 68  1  0  0  0
 36 56  1  0  0  0
 36111  1  0  0  0
 37 39  1  0  0  0
 37 47  1  0  0  0
 37 66  1  0  0  0
 37112  1  0  0  0
 38 43  2  0  0  0
 38 46  1  0  0  0
 38 47  1  0  0  0
 39 64  1  0  0  0
 39 67  2  0  0  0
 40 52  1  0  0  0
 40 53  2  0  0  0
 40 58  1  0  0  0
 41113  1  0  0  0
 41114  1  0  0  0
 41115  1  0  0  0
 41 48  1  0  0  0
 42 43  1  0  0  0
 42 66  1  0  0  0
 42116  1  0  0  0
 42117  1  0  0  0
 43 44  1  0  0  0
 44118  1  0  0  0
 45 46  2  0  0  0
 45119  1  0  0  0
 46120  1  0  0  0
 47121  1  0  0  0
 47122  1  0  0  0
 48 56  1  0  0  0
 48 65  1  0  0  0
 48123  1  0  0  0
 49 50  1  0  0  0
 49 53  1  0  0  0
 49 64  1  0  0  0
 49124  1  0  0  0
 50 51  1  0  0  0
 50125  1  0  0  0
 50126  1  0  0  0
 51 52  1  0  0  0
 51127  1  0  0  0
 51128  1  0  0  0
 52129  1  0  0  0
 52130  1  0  0  0
 53 54  1  0  0  0
 54 55  2  0  0  0
 54131  1  0  0  0
 55 57  1  0  0  0
 55132  1  0  0  0
 56 69  2  0  0  0
 57 58  2  0  0  0
 57133  1  0  0  0
 58134  1  0  0  0
 59 60  1  0  0  0
 59 61  1  0  0  0
 59 62  1  0  0  0
 60135  1  0  0  0
 60136  1  0  0  0
 60137  1  0  0  0
 61138  1  0  0  0
 61139  1  0  0  0
 61140  1  0  0  0
 62141  1  0  0  0
 62142  1  0  0  0
 62143  1  0  0  0
 63 65  1  0  0  0
 63144  1  0  0  0
 63145  1  0  0  0
 63146  1  0  0  0
 64147  1  0  0  0
 65148  1  0  0  0
 68 82  1  0  0  0
 71 72  2  0  0  0
 71 74  1  0  0  0
 71149  1  0  0  0
 72 76  1  0  0  0
 72150  1  0  0  0
 73 75  1  0  0  0
 73 76  2  0  0  0
 73151  1  0  0  0
 74 75  2  0  0  0
 74 83  1  0  0  0
 75 84  1  0  0  0
 76 85  1  0  0  0
 77 78  2  0  0  0
 77 79  1  0  0  0
 77 86  1  0  0  0
 78152  1  0  0  0
 78153  1  0  0  0
 79 80  1  0  0  0
 79154  1  0  0  0
 79155  1  0  0  0
 80 82  1  0  0  0
 80156  1  0  0  0
 80157  1  0  0  0
 81 82  1  0  0  0
 81 86  1  0  0  0
 81158  1  0  0  0
 81159  1  0  0  0
 82160  1  0  0  0
 83161  1  0  0  0
 83162  1  0  0  0
 83 86  1  0  0  0
 84 87  1  0  0  0
 84 88  1  0  0  0
 84 89  1  0  0  0
 85163  1  0  0  0
 86164  1  0  0  0
M  CHG  1  86   1
M  ISO  4   1 100  68 101  82 101  85 100
M  END
> <chiral flag>
0

> <version>
0

> <s_m_source_file>
/data/baiqing/PycharmProjects/Reinvent-master-3.2/result/LINK_invent/BTK/process_docking_weight1_custom_product_contain_oxygen_bond_distance_aromatic_linkinvent_7_9_3/rearranged_h_0049.sdf

> <i_m_source_file_index>
75

> <r_mmod_Potential_Energy-OPLS-2005>
-13.3806953430176

> <r_mmod_Stretch_Energy-OPLS-2005>
78.9431228637695

> <r_mmod_Bend_Energy-OPLS-2005>
155.816436767578

> <r_mmod_Torsional_Energy-OPLS-2005>
247.64079284668

> <r_mmod_Improper_Torsional_Energy-OPLS-2005>
4.0512318611145

> <r_mmod_Van_der_Waal_Energy-OPLS-2005>
158.418106079102

> <r_mmod_Electrostatic_Energy-OPLS-2005>
-278.740844726562

> <r_mmod_Solvation_Energy-OPLS-2005>
-430.049530029297

> <b_mmod_Minimization_Converged-OPLS-2005>
0

> <r_mmod_RMS_Derivative-OPLS-2005>
4.28039789199829

$$$$
75
                    3D
 Structure written by MMmdl.
161170  0  0  1  0            999 V2000
  -30.5792  -14.6159   20.5814 C   0  0  0  0  0  0
  -30.4662  -12.3920   19.4471 C   0  0  0  0  0  0
  -29.5157  -12.4871   18.2308 C   0  0  0  0  0  0
  -28.0368  -12.3212   18.6378 C   0  0  0  0  0  0
  -27.6605  -13.1897   19.8654 C   0  0  2  0  0  0
  -28.7012  -12.9813   20.9912 C   0  0  0  0  0  0
  -25.2662  -13.8063   20.5663 C   0  0  0  0  0  0
  -24.1892  -13.0382   20.9111 C   0  0  0  0  0  0
  -24.6411  -11.6848   20.8781 C   0  0  0  0  0  0
  -23.9082  -10.4252   21.0436 C   0  0  0  0  0  0
  -24.3618   -9.4172   21.9218 C   0  0  0  0  0  0
  -23.6262   -8.2213   22.0769 C   0  0  0  0  0  0
  -22.4251   -8.0264   21.3550 C   0  0  0  0  0  0
  -21.9933   -9.0254   20.4682 C   0  0  0  0  0  0
  -22.7253  -10.2119   20.3077 C   0  0  0  0  0  0
  -21.6822   -6.0737   22.5274 C   0  0  0  0  0  0
  -21.3968   -6.5660   23.8198 C   0  0  0  0  0  0
  -21.3673   -5.6825   24.9168 C   0  0  0  0  0  0
  -21.6049   -4.3079   24.7213 C   0  0  0  0  0  0
  -21.8817   -3.8172   23.4346 C   0  0  0  0  0  0
  -21.9158   -4.6976   22.3388 C   0  0  0  0  0  0
  -22.7931  -13.5217   21.1714 C   0  0  0  0  0  0
  -22.1644   -4.2184   21.0950 F   0  0  0  0  0  0
  -21.5666   -3.4544   25.7729 F   0  0  0  0  0  0
  -30.0187  -13.3716   20.4531 N   0  0  0  0  0  0
  -26.3044  -12.9177   20.3296 N   0  0  0  0  0  0
  -25.9324  -11.6375   20.5826 N   0  0  0  0  0  0
  -22.0606  -12.8267   22.0333 N   0  0  0  0  0  0
  -25.4372  -15.1732   20.3959 N   0  0  0  0  0  0
  -31.7132  -14.8711   20.1542 O   0  0  0  0  0  0
  -21.6580   -6.8879   21.4252 O   0  0  0  0  0  0
  -22.3678  -14.5533   20.6554 O   0  0  0  0  0  0
  -24.6246  -31.8636   23.2057 C   0  0  0  0  0  0
  -25.9104  -32.4802   23.8367 C   0  0  1  0  0  0
  -27.2193  -27.3197   20.1435 C   0  0  0  0  0  0
  -25.5910  -33.8608   24.2275 N   0  0  0  0  0  0
  -23.4174  -30.4868   21.5494 C   0  0  2  0  0  0
  -24.8648  -28.9489   20.1067 C   0  0  0  0  0  0
  -22.7478  -29.4631   22.4975 C   0  0  0  0  0  0
  -18.0283  -28.1390   22.8481 C   0  0  0  0  0  0
  -24.1484  -36.7303   23.2641 C   0  0  0  0  0  0
  -25.9593  -30.7917   21.3800 C   0  0  0  0  0  0
  -26.0308  -29.4226   20.7192 C   0  0  0  0  0  0
  -27.2096  -28.6237   20.7278 C   0  0  0  0  0  0
  -26.0427  -26.9150   19.4707 C   0  0  0  0  0  0
  -24.8773  -27.7034   19.4630 C   0  0  0  0  0  0
  -23.6297  -29.8266   20.1624 C   0  0  0  0  0  0
  -25.4111  -36.3100   24.0330 C   0  0  1  0  0  0
  -20.5885  -28.3701   23.1301 C   0  0  2  0  0  0
  -20.6788  -26.9430   22.5439 C   0  0  0  0  0  0
  -19.5767  -26.6384   21.5234 C   0  0  0  0  0  0
  -18.1932  -26.7934   22.1621 C   0  0  0  0  0  0
  -19.1536  -28.8858   23.2875 C   0  0  0  0  0  0
  -18.9455  -30.1461   23.8884 C   0  0  0  0  0  0
  -17.6455  -30.6602   24.0561 C   0  0  0  0  0  0
  -25.9052  -34.9475   23.5108 C   0  0  0  0  0  0
  -16.5341  -29.9091   23.6352 C   0  0  0  0  0  0
  -16.7262  -28.6511   23.0354 C   0  0  0  0  0  0
  -26.4459  -31.6642   25.0764 C   0  0  0  0  0  0
  -25.3667  -31.3808   26.1471 C   0  0  0  0  0  0
  -27.0329  -30.3061   24.6279 C   0  0  0  0  0  0
  -27.6023  -32.4391   25.7523 C   0  0  0  0  0  0
  -27.5586  -37.1817   24.8459 C   0  0  0  0  0  0
  -21.4193  -29.3035   22.3687 N   0  0  0  0  0  0
  -26.4285  -37.3795   23.9412 N   0  0  0  0  0  0
  -24.6866  -31.0627   22.1017 N   0  0  0  0  0  0
  -23.4220  -28.8182   23.3066 O   0  0  0  0  0  0
  -28.3355  -26.4691   20.2695 O   0  0  0  0  0  0
  -26.5633  -34.8922   22.4676 O   0  0  0  0  0  0
  -23.5413  -32.1413   23.7392 O   0  0  0  0  0  0
  -30.4013  -19.3613   20.9331 C   0  0  0  0  0  0
  -30.6334  -17.9504   20.8211 C   0  0  0  0  0  0
  -28.3439  -17.5508   21.4185 C   0  0  0  0  0  0
  -29.1440  -19.9058   21.3342 C   0  0  0  0  0  0
  -29.6052  -17.0056   21.0747 C   0  0  0  0  0  0
  -28.1215  -18.9438   21.5858 C   0  0  0  0  0  0
  -27.8926  -22.3206   19.5236 C   0  0  0  0  0  0
  -26.6987  -21.7230   19.6675 C   0  0  0  0  0  0
  -28.3209  -23.1503   18.3145 C   0  0  0  0  0  0
  -28.6908  -24.6105   18.6971 C   0  0  0  0  0  0
  -28.8161  -23.9723   21.1413 C   0  0  0  0  0  0
  -28.1810  -25.0003   20.0977 C   0  0  1  0  0  0
  -28.9713  -21.4390   21.6985 C   0  0  0  0  0  0
  -29.7214  -15.5487   21.0978 N   0  0  0  0  0  0
  -28.8628  -22.5255   20.6398 N   0  3  1  0  0  0
  -26.5780  -19.3854   22.2290 Cl  0  0  0  0  0  0
  -31.5009  -12.5696   19.1400 H   0  0  0  0  0  0
  -30.4493  -11.3907   19.8749 H   0  0  0  0  0  0
  -29.7719  -11.7283   17.4922 H   0  0  0  0  0  0
  -29.6521  -13.4521   17.7476 H   0  0  0  0  0  0
  -27.8685  -11.2692   18.8747 H   0  0  0  0  0  0
  -27.3845  -12.5440   17.7889 H   0  0  0  0  0  0
  -27.6974  -14.2280   19.5431 H   0  0  0  0  0  0
  -28.7024  -11.9316   21.2907 H   0  0  0  0  0  0
  -28.4256  -13.5094   21.9018 H   0  0  0  0  0  0
  -25.2798   -9.5603   22.4763 H   0  0  0  0  0  0
  -23.9947   -7.4585   22.7461 H   0  0  0  0  0  0
  -21.0887   -8.8788   19.8968 H   0  0  0  0  0  0
  -22.3741  -10.9650   19.6160 H   0  0  0  0  0  0
  -21.1927   -7.6151   23.9730 H   0  0  0  0  0  0
  -21.1516   -6.0520   25.9073 H   0  0  0  0  0  0
  -22.0567   -2.7639   23.2798 H   0  0  0  0  0  0
  -22.4261  -11.9904   22.4641 H   0  0  0  0  0  0
  -21.1224  -13.1287   22.2577 H   0  0  0  0  0  0
  -24.6453  -15.8084   20.4267 H   0  0  0  0  0  0
  -26.2501  -15.5642   19.9422 H   0  0  0  0  0  0
  -26.7175  -32.5457   23.1123 H   0  0  0  0  0  0
  -25.0039  -33.9749   25.0398 H   0  0  0  0  0  0
  -22.7079  -31.3078   21.4157 H   0  0  0  0  0  0
  -23.3756  -35.9633   23.3314 H   0  0  0  0  0  0
  -24.3556  -36.8915   22.2054 H   0  0  0  0  0  0
  -23.7225  -37.6505   23.6642 H   0  0  0  0  0  0
  -26.0997  -31.5612   20.6201 H   0  0  0  0  0  0
  -26.8335  -30.8333   22.0176 H   0  0  0  0  0  0
  -28.0978  -28.9840   21.2264 H   0  0  0  0  0  0
  -25.9806  -25.9753   18.9450 H   0  0  0  0  0  0
  -23.9927  -27.3395   18.9548 H   0  0  0  0  0  0
  -23.7470  -30.6108   19.4136 H   0  0  0  0  0  0
  -22.7470  -29.2592   19.8572 H   0  0  0  0  0  0
  -25.1294  -36.1979   25.0826 H   0  0  0  0  0  0
  -20.9924  -28.3274   24.1438 H   0  0  0  0  0  0
  -20.5723  -26.2304   23.3619 H   0  0  0  0  0  0
  -21.6655  -26.7500   22.1205 H   0  0  0  0  0  0
  -19.6944  -25.6285   21.1276 H   0  0  0  0  0  0
  -19.6719  -27.3184   20.6741 H   0  0  0  0  0  0
  -17.4218  -26.6681   21.3998 H   0  0  0  0  0  0
  -18.0323  -26.0074   22.9011 H   0  0  0  0  0  0
  -19.7924  -30.7295   24.2242 H   0  0  0  0  0  0
  -17.5002  -31.6282   24.5170 H   0  0  0  0  0  0
  -15.5334  -30.2985   23.7694 H   0  0  0  0  0  0
  -15.8650  -28.0825   22.7075 H   0  0  0  0  0  0
  -24.5836  -30.7160   25.7786 H   0  0  0  0  0  0
  -24.8837  -32.2991   26.4841 H   0  0  0  0  0  0
  -25.7940  -30.9014   27.0291 H   0  0  0  0  0  0
  -26.2931  -29.6795   24.1274 H   0  0  0  0  0  0
  -27.3977  -29.7349   25.4834 H   0  0  0  0  0  0
  -27.8815  -30.4342   23.9551 H   0  0  0  0  0  0
  -27.2632  -33.3710   26.2058 H   0  0  0  0  0  0
  -28.3825  -32.6936   25.0338 H   0  0  0  0  0  0
  -28.0686  -31.8554   26.5469 H   0  0  0  0  0  0
  -28.2610  -38.0111   24.7521 H   0  0  0  0  0  0
  -28.1079  -36.2656   24.6268 H   0  0  0  0  0  0
  -27.2305  -37.1442   25.8857 H   0  0  0  0  0  0
  -20.9382  -29.8699   21.6827 H   0  0  0  0  0  0
  -26.0196  -38.2892   24.1374 H   0  0  0  0  0  0
  -31.2290  -20.0382   20.7611 H   0  0  0  0  0  0
  -31.6262  -17.5961   20.5886 H   0  0  0  0  0  0
  -27.5148  -16.8894   21.6243 H   0  0  0  0  0  0
  -25.9856  -21.6941   18.8572 H   0  0  0  0  0  0
  -26.3847  -21.3020   20.6026 H   0  0  0  0  0  0
  -29.1540  -22.6673   17.8074 H   0  0  0  0  0  0
  -27.4986  -23.1667   17.5983 H   0  0  0  0  0  0
  -28.2907  -25.2958   17.9509 H   0  0  0  0  0  0
  -29.7713  -24.7486   18.6721 H   0  0  0  0  0  0
  -28.2519  -24.0148   22.0742 H   0  0  0  0  0  0
  -29.8285  -24.2862   21.3888 H   0  0  0  0  0  0
  -27.1235  -24.7565   20.1566 H   0  0  0  0  0  0
  -29.8269  -21.6927   22.3225 H   0  0  0  0  0  0
  -28.1158  -21.5429   22.3623 H   0  0  0  0  0  0
  -28.8971  -15.0903   21.4490 H   0  0  0  0  0  0
  -29.7737  -22.4738   20.2079 H   0  0  0  0  0  0
  1 25  1  0  0  0
  1 30  2  0  0  0
  1 84  1  0  0  0
  2  3  1  0  0  0
  2 25  1  0  0  0
  2 87  1  0  0  0
  2 88  1  0  0  0
  3  4  1  0  0  0
  3 89  1  0  0  0
  3 90  1  0  0  0
  4  5  1  0  0  0
  4 91  1  0  0  0
  4 92  1  0  0  0
  5  6  1  0  0  0
  5 26  1  0  0  0
  5 93  1  0  0  0
  6 25  1  0  0  0
  6 94  1  0  0  0
  6 95  1  0  0  0
  7  8  2  0  0  0
  7 26  1  0  0  0
  7 29  1  0  0  0
  8  9  1  0  0  0
  8 22  1  0  0  0
  9 10  1  0  0  0
  9 27  2  0  0  0
 10 11  2  0  0  0
 10 15  1  0  0  0
 11 12  1  0  0  0
 11 96  1  0  0  0
 12 13  2  0  0  0
 12 97  1  0  0  0
 13 14  1  0  0  0
 13 31  1  0  0  0
 14 15  2  0  0  0
 14 98  1  0  0  0
 15 99  1  0  0  0
 16 17  2  0  0  0
 16 21  1  0  0  0
 16 31  1  0  0  0
 17 18  1  0  0  0
 17100  1  0  0  0
 18 19  2  0  0  0
 18101  1  0  0  0
 19 20  1  0  0  0
 19 24  1  0  0  0
 20 21  2  0  0  0
 20102  1  0  0  0
 21 23  1  0  0  0
 22 28  1  0  0  0
 22 32  2  0  0  0
 26 27  1  0  0  0
 28103  1  0  0  0
 28104  1  0  0  0
 29105  1  0  0  0
 29106  1  0  0  0
 33 34  1  0  0  0
 33 66  1  0  0  0
 33 70  2  0  0  0
 34 36  1  0  0  0
 34 59  1  0  0  0
 34107  1  0  0  0
 35 44  2  0  0  0
 35 45  1  0  0  0
 35 68  1  0  0  0
 36 56  1  0  0  0
 36108  1  0  0  0
 37 39  1  0  0  0
 37 47  1  0  0  0
 37 66  1  0  0  0
 37109  1  0  0  0
 38 43  2  0  0  0
 38 46  1  0  0  0
 38 47  1  0  0  0
 39 64  1  0  0  0
 39 67  2  0  0  0
 40 52  1  0  0  0
 40 53  2  0  0  0
 40 58  1  0  0  0
 41110  1  0  0  0
 41111  1  0  0  0
 41112  1  0  0  0
 41 48  1  0  0  0
 42 43  1  0  0  0
 42 66  1  0  0  0
 42113  1  0  0  0
 42114  1  0  0  0
 43 44  1  0  0  0
 44115  1  0  0  0
 45 46  2  0  0  0
 45116  1  0  0  0
 46117  1  0  0  0
 47118  1  0  0  0
 47119  1  0  0  0
 48 56  1  0  0  0
 48 65  1  0  0  0
 48120  1  0  0  0
 49 50  1  0  0  0
 49 53  1  0  0  0
 49 64  1  0  0  0
 49121  1  0  0  0
 50 51  1  0  0  0
 50122  1  0  0  0
 50123  1  0  0  0
 51 52  1  0  0  0
 51124  1  0  0  0
 51125  1  0  0  0
 52126  1  0  0  0
 52127  1  0  0  0
 53 54  1  0  0  0
 54 55  2  0  0  0
 54128  1  0  0  0
 55 57  1  0  0  0
 55129  1  0  0  0
 56 69  2  0  0  0
 57 58  2  0  0  0
 57130  1  0  0  0
 58131  1  0  0  0
 59 60  1  0  0  0
 59 61  1  0  0  0
 59 62  1  0  0  0
 60132  1  0  0  0
 60133  1  0  0  0
 60134  1  0  0  0
 61135  1  0  0  0
 61136  1  0  0  0
 61137  1  0  0  0
 62138  1  0  0  0
 62139  1  0  0  0
 62140  1  0  0  0
 63 65  1  0  0  0
 63141  1  0  0  0
 63142  1  0  0  0
 63143  1  0  0  0
 64144  1  0  0  0
 65145  1  0  0  0
 68 82  1  0  0  0
 71 72  2  0  0  0
 71 74  1  0  0  0
 71146  1  0  0  0
 72 75  1  0  0  0
 72147  1  0  0  0
 73 75  2  0  0  0
 73 76  1  0  0  0
 73148  1  0  0  0
 74 76  2  0  0  0
 74 83  1  0  0  0
 75 84  1  0  0  0
 76 86  1  0  0  0
 77 78  2  0  0  0
 77 79  1  0  0  0
 77 85  1  0  0  0
 78149  1  0  0  0
 78150  1  0  0  0
 79 80  1  0  0  0
 79151  1  0  0  0
 79152  1  0  0  0
 80 82  1  0  0  0
 80153  1  0  0  0
 80154  1  0  0  0
 81 82  1  0  0  0
 81 85  1  0  0  0
 81155  1  0  0  0
 81156  1  0  0  0
 82157  1  0  0  0
 83158  1  0  0  0
 83159  1  0  0  0
 83 85  1  0  0  0
 84160  1  0  0  0
 85161  1  0  0  0
M  CHG  1  85   1
M  ISO  4   1 100  68 101  82 101  84 100
M  END
> <chiral flag>
0

> <version>
0

> <s_m_source_file>
/data/baiqing/PycharmProjects/Reinvent-master-3.2/result/LINK_invent/BTK/process_docking_weight1_custom_product_contain_oxygen_bond_distance_aromatic_linkinvent_7_9_3/rearranged_h_0049.sdf

> <i_m_source_file_index>
76

> <r_mmod_Potential_Energy-OPLS-2005>
10.9280004501343

> <r_mmod_Stretch_Energy-OPLS-2005>
84.2774353027344

> <r_mmod_Bend_Energy-OPLS-2005>
169.690979003906

> <r_mmod_Torsional_Energy-OPLS-2005>
246.020751953125

> <r_mmod_Improper_Torsional_Energy-OPLS-2005>
6.48282527923584

> <r_mmod_Van_der_Waal_Energy-OPLS-2005>
158.30842590332

> <r_mmod_Electrostatic_Energy-OPLS-2005>
-279.581237792969

> <r_mmod_Solvation_Energy-OPLS-2005>
-426.339263916016

> <b_mmod_Minimization_Converged-OPLS-2005>
0

> <r_mmod_RMS_Derivative-OPLS-2005>
7.65322017669678

$$$$
76
                    3D
 Structure written by MMmdl.
158166  0  0  1  0            999 V2000
  -30.7833  -14.3699   20.6759 C   0  0  0  0  0  0
  -30.4066  -12.3025   19.3851 C   0  0  0  0  0  0
  -29.4757  -12.5439   18.1840 C   0  0  0  0  0  0
  -27.9973  -12.4106   18.6019 C   0  0  0  0  0  0
  -27.6625  -13.2134   19.8869 C   0  0  2  0  0  0
  -28.7111  -12.9372   20.9889 C   0  0  0  0  0  0
  -25.2501  -13.8115   20.5546 C   0  0  0  0  0  0
  -24.1794  -13.0401   20.9155 C   0  0  0  0  0  0
  -24.6385  -11.6885   20.8768 C   0  0  0  0  0  0
  -23.9047  -10.4280   21.0415 C   0  0  0  0  0  0
  -24.3594   -9.4190   21.9182 C   0  0  0  0  0  0
  -23.6288   -8.2215   22.0742 C   0  0  0  0  0  0
  -22.4270   -8.0247   21.3539 C   0  0  0  0  0  0
  -21.9878   -9.0235   20.4666 C   0  0  0  0  0  0
  -22.7202  -10.2133   20.3080 C   0  0  0  0  0  0
  -21.6841   -6.0726   22.5278 C   0  0  0  0  0  0
  -21.4012   -6.5631   23.8207 C   0  0  0  0  0  0
  -21.3658   -5.6778   24.9163 C   0  0  0  0  0  0
  -21.6034   -4.3043   24.7219 C   0  0  0  0  0  0
  -21.8814   -3.8148   23.4338 C   0  0  0  0  0  0
  -21.9180   -4.6956   22.3400 C   0  0  0  0  0  0
  -22.7807  -13.5193   21.1785 C   0  0  0  0  0  0
  -22.1650   -4.2149   21.0971 F   0  0  0  0  0  0
  -21.5623   -3.4517   25.7732 F   0  0  0  0  0  0
  -30.0379  -13.2554   20.4431 N   0  0  0  0  0  0
  -26.3033  -12.9343   20.3459 N   0  0  0  0  0  0
  -25.9346  -11.6492   20.5890 N   0  0  0  0  0  0
  -22.0464  -12.8216   22.0380 N   0  0  0  0  0  0
  -25.4025  -15.1780   20.3572 N   0  0  0  0  0  0
  -31.8437  -14.5905   20.0863 O   0  0  0  0  0  0
  -21.6626   -6.8863   21.4235 O   0  0  0  0  0  0
  -22.3506  -14.5518   20.6650 O   0  0  0  0  0  0
  -24.6117  -31.8728   23.2122 C   0  0  0  0  0  0
  -25.9042  -32.4843   23.8406 C   0  0  1  0  0  0
  -27.2275  -27.4865   20.0861 C   0  0  0  0  0  0
  -25.5914  -33.8640   24.2350 N   0  0  0  0  0  0
  -23.3926  -30.4986   21.5530 C   0  0  2  0  0  0
  -24.8367  -28.9734   20.1100 C   0  0  0  0  0  0
  -22.7379  -29.4668   22.4988 C   0  0  0  0  0  0
  -18.0280  -28.1364   22.8513 C   0  0  0  0  0  0
  -24.1480  -36.7323   23.2633 C   0  0  0  0  0  0
  -25.9157  -30.8537   21.3575 C   0  0  0  0  0  0
  -25.9936  -29.4943   20.7021 C   0  0  0  0  0  0
  -27.1947  -28.7583   20.6873 C   0  0  0  0  0  0
  -26.0625  -26.9697   19.4810 C   0  0  0  0  0  0
  -24.8642  -27.7087   19.4953 C   0  0  0  0  0  0
  -23.5960  -29.8333   20.1650 C   0  0  0  0  0  0
  -25.4097  -36.3117   24.0352 C   0  0  1  0  0  0
  -20.5871  -28.3641   23.1337 C   0  0  2  0  0  0
  -20.6775  -26.9385   22.5420 C   0  0  0  0  0  0
  -19.5750  -26.6379   21.5223 C   0  0  0  0  0  0
  -18.1923  -26.7911   22.1633 C   0  0  0  0  0  0
  -19.1523  -28.8829   23.2920 C   0  0  0  0  0  0
  -18.9438  -30.1443   23.8922 C   0  0  0  0  0  0
  -17.6435  -30.6576   24.0578 C   0  0  0  0  0  0
  -25.9029  -34.9485   23.5130 C   0  0  0  0  0  0
  -16.5334  -29.9084   23.6325 C   0  0  0  0  0  0
  -16.7264  -28.6498   23.0353 C   0  0  0  0  0  0
  -26.4464  -31.6599   25.0721 C   0  0  0  0  0  0
  -25.3753  -31.3723   26.1491 C   0  0  0  0  0  0
  -27.0274  -30.3043   24.6063 C   0  0  0  0  0  0
  -27.6046  -32.4301   25.7496 C   0  0  0  0  0  0
  -27.5577  -37.1821   24.8463 C   0  0  0  0  0  0
  -21.4117  -29.3018   22.3746 N   0  0  0  0  0  0
  -26.4281  -37.3814   23.9416 N   0  0  0  0  0  0
  -24.6579  -31.0872   22.1005 N   0  0  0  0  0  0
  -23.4171  -28.8244   23.3035 O   0  0  0  0  0  0
  -28.3818  -26.7515   20.1168 O   0  0  0  0  0  0
  -26.5543  -34.8939   22.4672 O   0  0  0  0  0  0
  -23.5331  -32.1455   23.7556 O   0  0  0  0  0  0
  -28.1874  -16.0979   22.2309 C   0  0  0  0  0  0
  -27.1996  -17.0913   22.1417 C   0  0  0  0  0  0
  -28.5766  -18.3516   20.5676 C   0  0  0  0  0  0
  -29.3679  -16.1992   21.4678 C   0  0  0  0  0  0
  -27.3775  -18.2032   21.3027 C   0  0  0  0  0  0
  -29.5824  -17.3549   20.6679 C   0  0  0  0  0  0
  -28.8170  -23.2508   20.6304 C   0  0  0  0  0  0
  -28.1047  -24.3651   20.3903 C   0  0  0  0  0  0
  -28.5221  -22.0307   19.8895 C   0  0  0  0  0  0
  -29.7361  -20.8125   21.7048 C   0  0  0  0  0  0
  -28.7848  -19.6010   19.7075 C   0  0  0  0  0  0
  -28.3308  -25.6942   21.0705 C   0  0  0  0  0  0
  -30.3850  -15.2190   21.6367 N   0  0  0  0  0  0
  -28.9773  -20.8715   20.4407 N   0  0  0  0  0  0
  -27.9142  -22.0505   18.8143 O   0  0  0  0  0  0
  -26.1159  -19.3826   21.2183 Cl  0  0  0  0  0  0
  -31.0999  -17.5837   19.8630 Cl  0  0  0  0  0  0
  -31.4493  -12.3924   19.0748 H   0  0  0  0  0  0
  -30.2979  -11.2798   19.7485 H   0  0  0  0  0  0
  -29.7015  -11.8388   17.3822 H   0  0  0  0  0  0
  -29.6560  -13.5406   17.7768 H   0  0  0  0  0  0
  -27.7856  -11.3519   18.7562 H   0  0  0  0  0  0
  -27.3469  -12.7329   17.7878 H   0  0  0  0  0  0
  -27.7194  -14.2712   19.6291 H   0  0  0  0  0  0
  -28.6821  -11.8869   21.2811 H   0  0  0  0  0  0
  -28.4962  -13.4760   21.9046 H   0  0  0  0  0  0
  -25.2755   -9.5644   22.4731 H   0  0  0  0  0  0
  -24.0009   -7.4586   22.7417 H   0  0  0  0  0  0
  -21.0805   -8.8736   19.8995 H   0  0  0  0  0  0
  -22.3644  -10.9658   19.6180 H   0  0  0  0  0  0
  -21.2036   -7.6142   23.9720 H   0  0  0  0  0  0
  -21.1471   -6.0505   25.9068 H   0  0  0  0  0  0
  -22.0613   -2.7614   23.2833 H   0  0  0  0  0  0
  -22.4085  -11.9895   22.4806 H   0  0  0  0  0  0
  -21.1091  -13.1224   22.2627 H   0  0  0  0  0  0
  -24.6096  -15.8073   20.3931 H   0  0  0  0  0  0
  -26.2402  -15.6092   19.9916 H   0  0  0  0  0  0
  -26.7153  -32.5578   23.1213 H   0  0  0  0  0  0
  -25.0134  -33.9811   25.0542 H   0  0  0  0  0  0
  -22.6769  -31.3128   21.4211 H   0  0  0  0  0  0
  -23.3740  -35.9662   23.3298 H   0  0  0  0  0  0
  -24.3572  -36.8911   22.2043 H   0  0  0  0  0  0
  -23.7238  -37.6546   23.6619 H   0  0  0  0  0  0
  -26.0170  -31.6215   20.5868 H   0  0  0  0  0  0
  -26.8102  -30.9078   21.9662 H   0  0  0  0  0  0
  -28.0896  -29.1560   21.1488 H   0  0  0  0  0  0
  -26.0739  -26.0053   18.9987 H   0  0  0  0  0  0
  -23.9782  -27.3025   19.0272 H   0  0  0  0  0  0
  -23.6957  -30.6090   19.4037 H   0  0  0  0  0  0
  -22.7212  -29.2490   19.8767 H   0  0  0  0  0  0
  -25.1279  -36.1975   25.0854 H   0  0  0  0  0  0
  -20.9973  -28.3206   24.1456 H   0  0  0  0  0  0
  -20.5682  -26.2250   23.3592 H   0  0  0  0  0  0
  -21.6643  -26.7437   22.1214 H   0  0  0  0  0  0
  -19.6882  -25.6299   21.1223 H   0  0  0  0  0  0
  -19.6685  -27.3209   20.6760 H   0  0  0  0  0  0
  -17.4198  -26.6699   21.4011 H   0  0  0  0  0  0
  -18.0310  -26.0030   22.8998 H   0  0  0  0  0  0
  -19.7910  -30.7277   24.2264 H   0  0  0  0  0  0
  -17.4991  -31.6263   24.5176 H   0  0  0  0  0  0
  -15.5338  -30.3006   23.7623 H   0  0  0  0  0  0
  -15.8659  -28.0842   22.7039 H   0  0  0  0  0  0
  -24.5934  -30.7037   25.7868 H   0  0  0  0  0  0
  -24.8940  -32.2900   26.4910 H   0  0  0  0  0  0
  -25.8138  -30.8946   27.0262 H   0  0  0  0  0  0
  -26.2806  -29.6849   24.1077 H   0  0  0  0  0  0
  -27.4009  -29.7232   25.4498 H   0  0  0  0  0  0
  -27.8657  -30.4365   23.9215 H   0  0  0  0  0  0
  -27.2664  -33.3598   26.2093 H   0  0  0  0  0  0
  -28.3861  -32.6862   25.0330 H   0  0  0  0  0  0
  -28.0708  -31.8410   26.5405 H   0  0  0  0  0  0
  -28.2621  -38.0095   24.7517 H   0  0  0  0  0  0
  -28.1047  -36.2635   24.6279 H   0  0  0  0  0  0
  -27.2296  -37.1479   25.8866 H   0  0  0  0  0  0
  -20.9237  -29.8739   21.6999 H   0  0  0  0  0  0
  -26.0165  -38.2897   24.1402 H   0  0  0  0  0  0
  -28.0252  -15.2730   22.9082 H   0  0  0  0  0  0
  -26.2891  -16.9959   22.7159 H   0  0  0  0  0  0
  -29.6093  -23.2969   21.3622 H   0  0  0  0  0  0
  -27.3009  -24.3403   19.6683 H   0  0  0  0  0  0
  -30.7194  -21.2625   21.5704 H   0  0  0  0  0  0
  -29.9090  -19.8089   22.0869 H   0  0  0  0  0  0
  -29.2146  -21.3442   22.5026 H   0  0  0  0  0  0
  -27.9067  -19.6469   19.0601 H   0  0  0  0  0  0
  -29.6130  -19.4900   19.0099 H   0  0  0  0  0  0
  -29.2668  -25.6770   21.6316 H   0  0  0  0  0  0
  -27.5388  -25.8365   21.8093 H   0  0  0  0  0  0
  -31.2249  -15.6722   21.9673 H   0  0  0  0  0  0
  1 25  1  0  0  0
  1 30  2  0  0  0
  1 83  1  0  0  0
  2  3  1  0  0  0
  2 25  1  0  0  0
  2 88  1  0  0  0
  2 89  1  0  0  0
  3  4  1  0  0  0
  3 90  1  0  0  0
  3 91  1  0  0  0
  4  5  1  0  0  0
  4 92  1  0  0  0
  4 93  1  0  0  0
  5  6  1  0  0  0
  5 26  1  0  0  0
  5 94  1  0  0  0
  6 25  1  0  0  0
  6 95  1  0  0  0
  6 96  1  0  0  0
  7  8  2  0  0  0
  7 26  1  0  0  0
  7 29  1  0  0  0
  8  9  1  0  0  0
  8 22  1  0  0  0
  9 10  1  0  0  0
  9 27  2  0  0  0
 10 11  2  0  0  0
 10 15  1  0  0  0
 11 12  1  0  0  0
 11 97  1  0  0  0
 12 13  2  0  0  0
 12 98  1  0  0  0
 13 14  1  0  0  0
 13 31  1  0  0  0
 14 15  2  0  0  0
 14 99  1  0  0  0
 15100  1  0  0  0
 16 17  2  0  0  0
 16 21  1  0  0  0
 16 31  1  0  0  0
 17 18  1  0  0  0
 17101  1  0  0  0
 18 19  2  0  0  0
 18102  1  0  0  0
 19 20  1  0  0  0
 19 24  1  0  0  0
 20 21  2  0  0  0
 20103  1  0  0  0
 21 23  1  0  0  0
 22 28  1  0  0  0
 22 32  2  0  0  0
 26 27  1  0  0  0
 28104  1  0  0  0
 28105  1  0  0  0
 29106  1  0  0  0
 29107  1  0  0  0
 33 34  1  0  0  0
 33 66  1  0  0  0
 33 70  2  0  0  0
 34 36  1  0  0  0
 34 59  1  0  0  0
 34108  1  0  0  0
 35 44  2  0  0  0
 35 45  1  0  0  0
 35 68  1  0  0  0
 36 56  1  0  0  0
 36109  1  0  0  0
 37 39  1  0  0  0
 37 47  1  0  0  0
 37 66  1  0  0  0
 37110  1  0  0  0
 38 43  2  0  0  0
 38 46  1  0  0  0
 38 47  1  0  0  0
 39 64  1  0  0  0
 39 67  2  0  0  0
 40 52  1  0  0  0
 40 53  2  0  0  0
 40 58  1  0  0  0
 41111  1  0  0  0
 41112  1  0  0  0
 41113  1  0  0  0
 41 48  1  0  0  0
 42 43  1  0  0  0
 42 66  1  0  0  0
 42114  1  0  0  0
 42115  1  0  0  0
 43 44  1  0  0  0
 44116  1  0  0  0
 45 46  2  0  0  0
 45117  1  0  0  0
 46118  1  0  0  0
 47119  1  0  0  0
 47120  1  0  0  0
 48 56  1  0  0  0
 48 65  1  0  0  0
 48121  1  0  0  0
 49 50  1  0  0  0
 49 53  1  0  0  0
 49 64  1  0  0  0
 49122  1  0  0  0
 50 51  1  0  0  0
 50123  1  0  0  0
 50124  1  0  0  0
 51 52  1  0  0  0
 51125  1  0  0  0
 51126  1  0  0  0
 52127  1  0  0  0
 52128  1  0  0  0
 53 54  1  0  0  0
 54 55  2  0  0  0
 54129  1  0  0  0
 55 57  1  0  0  0
 55130  1  0  0  0
 56 69  2  0  0  0
 57 58  2  0  0  0
 57131  1  0  0  0
 58132  1  0  0  0
 59 60  1  0  0  0
 59 61  1  0  0  0
 59 62  1  0  0  0
 60133  1  0  0  0
 60134  1  0  0  0
 60135  1  0  0  0
 61136  1  0  0  0
 61137  1  0  0  0
 61138  1  0  0  0
 62139  1  0  0  0
 62140  1  0  0  0
 62141  1  0  0  0
 63 65  1  0  0  0
 63142  1  0  0  0
 63143  1  0  0  0
 63144  1  0  0  0
 64145  1  0  0  0
 65146  1  0  0  0
 68 82  1  0  0  0
 71 72  2  0  0  0
 71 74  1  0  0  0
 71147  1  0  0  0
 72 75  1  0  0  0
 72148  1  0  0  0
 73 75  2  0  0  0
 73 76  1  0  0  0
 73 81  1  0  0  0
 74 76  2  0  0  0
 74 83  1  0  0  0
 75 86  1  0  0  0
 76 87  1  0  0  0
 77 78  2  0  0  0
 77 79  1  0  0  0
 77149  1  0  0  0
 78 82  1  0  0  0
 78150  1  0  0  0
 79 84  1  0  0  0
 79 85  2  0  0  0
 80 84  1  0  0  0
 80151  1  0  0  0
 80152  1  0  0  0
 80153  1  0  0  0
 81 84  1  0  0  0
 81154  1  0  0  0
 81155  1  0  0  0
 82156  1  0  0  0
 82157  1  0  0  0
 83158  1  0  0  0
M  ISO  4   1 100  68 101  82 101  83 100
M  END
> <chiral flag>
0

> <version>
0

> <s_m_source_file>
/data/baiqing/PycharmProjects/Reinvent-master-3.2/result/LINK_invent/BTK/process_docking_weight1_custom_product_contain_oxygen_bond_distance_aromatic_linkinvent_7_9_3/rearranged_h_0049.sdf

> <i_m_source_file_index>
77

> <r_mmod_Potential_Energy-OPLS-2005>
-39.9702529907227

> <r_mmod_Stretch_Energy-OPLS-2005>
36.0574111938477

> <r_mmod_Bend_Energy-OPLS-2005>
108.922782897949

> <r_mmod_Torsional_Energy-OPLS-2005>
288.513854980469

> <r_mmod_Improper_Torsional_Energy-OPLS-2005>
8.46403026580811

> <r_mmod_Van_der_Waal_Energy-OPLS-2005>
172.738830566406

> <r_mmod_Electrostatic_Energy-OPLS-2005>
-453.368988037109

> <r_mmod_Solvation_Energy-OPLS-2005>
-210.791854858398

> <b_mmod_Minimization_Converged-OPLS-2005>
0

> <r_mmod_RMS_Derivative-OPLS-2005>
3.56499648094177

$$$$
77
                    3D
 Structure written by MMmdl.
164173  0  0  1  0            999 V2000
  -30.6327  -14.6002   20.5341 C   0  0  0  0  0  0
  -30.4416  -12.3766   19.4411 C   0  0  0  0  0  0
  -29.5063  -12.5148   18.2181 C   0  0  0  0  0  0
  -28.0287  -12.3517   18.6290 C   0  0  0  0  0  0
  -27.6573  -13.2114   19.8658 C   0  0  2  0  0  0
  -28.7008  -13.0347   20.9934 C   0  0  0  0  0  0
  -25.2567  -13.8156   20.5654 C   0  0  0  0  0  0
  -24.1826  -13.0436   20.9180 C   0  0  0  0  0  0
  -24.6383  -11.6906   20.8717 C   0  0  0  0  0  0
  -23.9040  -10.4291   21.0384 C   0  0  0  0  0  0
  -24.3591   -9.4210   21.9159 C   0  0  0  0  0  0
  -23.6285   -8.2241   22.0739 C   0  0  0  0  0  0
  -22.4268   -8.0269   21.3528 C   0  0  0  0  0  0
  -21.9883   -9.0238   20.4632 C   0  0  0  0  0  0
  -22.7207  -10.2125   20.3038 C   0  0  0  0  0  0
  -21.6852   -6.0719   22.5274 C   0  0  0  0  0  0
  -21.4013   -6.5626   23.8203 C   0  0  0  0  0  0
  -21.3660   -5.6782   24.9165 C   0  0  0  0  0  0
  -21.6052   -4.3048   24.7220 C   0  0  0  0  0  0
  -21.8825   -3.8133   23.4340 C   0  0  0  0  0  0
  -21.9197   -4.6945   22.3396 C   0  0  0  0  0  0
  -22.7849  -13.5232   21.1856 C   0  0  0  0  0  0
  -22.1668   -4.2130   21.0975 F   0  0  0  0  0  0
  -21.5628   -3.4535   25.7735 F   0  0  0  0  0  0
  -30.0224  -13.3783   20.4414 N   0  0  0  0  0  0
  -26.2999  -12.9330   20.3302 N   0  0  0  0  0  0
  -25.9307  -11.6498   20.5723 N   0  0  0  0  0  0
  -22.0485  -12.8231   22.0412 N   0  0  0  0  0  0
  -25.4291  -15.1870   20.4040 N   0  0  0  0  0  0
  -31.7795  -14.7854   20.1175 O   0  0  0  0  0  0
  -21.6641   -6.8859   21.4231 O   0  0  0  0  0  0
  -22.3538  -14.5539   20.6712 O   0  0  0  0  0  0
  -24.6214  -31.8622   23.2056 C   0  0  0  0  0  0
  -25.9078  -32.4791   23.8368 C   0  0  1  0  0  0
  -27.2337  -27.3522   20.1151 C   0  0  0  0  0  0
  -25.5922  -33.8588   24.2296 N   0  0  0  0  0  0
  -23.4141  -30.4833   21.5487 C   0  0  2  0  0  0
  -24.8618  -28.9445   20.1107 C   0  0  0  0  0  0
  -22.7457  -29.4619   22.4978 C   0  0  0  0  0  0
  -18.0277  -28.1383   22.8496 C   0  0  0  0  0  0
  -24.1489  -36.7284   23.2635 C   0  0  0  0  0  0
  -25.9505  -30.8026   21.3734 C   0  0  0  0  0  0
  -26.0258  -29.4312   20.7182 C   0  0  0  0  0  0
  -27.2087  -28.6418   20.7203 C   0  0  0  0  0  0
  -26.0494  -26.9147   19.4759 C   0  0  0  0  0  0
  -24.8737  -27.6892   19.4838 C   0  0  0  0  0  0
  -23.6264  -29.8181   20.1624 C   0  0  0  0  0  0
  -25.4109  -36.3079   24.0336 C   0  0  1  0  0  0
  -20.5872  -28.3671   23.1321 C   0  0  2  0  0  0
  -20.6772  -26.9405   22.5430 C   0  0  0  0  0  0
  -19.5749  -26.6384   21.5232 C   0  0  0  0  0  0
  -18.1923  -26.7933   22.1626 C   0  0  0  0  0  0
  -19.1529  -28.8848   23.2899 C   0  0  0  0  0  0
  -18.9445  -30.1455   23.8910 C   0  0  0  0  0  0
  -17.6441  -30.6587   24.0568 C   0  0  0  0  0  0
  -25.9052  -34.9454   23.5111 C   0  0  0  0  0  0
  -16.5332  -29.9081   23.6341 C   0  0  0  0  0  0
  -16.7264  -28.6501   23.0359 C   0  0  0  0  0  0
  -26.4484  -31.6591   25.0723 C   0  0  0  0  0  0
  -25.3746  -31.3733   26.1481 C   0  0  0  0  0  0
  -27.0292  -30.3011   24.6144 C   0  0  0  0  0  0
  -27.6068  -32.4313   25.7469 C   0  0  0  0  0  0
  -27.5591  -37.1776   24.8448 C   0  0  0  0  0  0
  -21.4174  -29.3017   22.3720 N   0  0  0  0  0  0
  -26.4271  -37.3790   23.9440 N   0  0  0  0  0  0
  -24.6801  -31.0652   22.0999 N   0  0  0  0  0  0
  -23.4199  -28.8163   23.3052 O   0  0  0  0  0  0
  -28.3808  -26.5528   20.1930 O   0  0  0  0  0  0
  -26.5605  -34.8917   22.4668 O   0  0  0  0  0  0
  -23.5391  -32.1402   23.7412 O   0  0  0  0  0  0
  -28.6113  -19.1987   20.7550 C   0  0  0  0  0  0
  -28.6774  -17.7947   20.9652 C   0  0  0  0  0  0
  -31.0372  -17.8243   20.5037 C   0  0  0  0  0  0
  -29.7519  -19.9602   20.3920 C   0  0  0  0  0  0
  -30.9926  -19.2423   20.3075 C   0  0  0  0  0  0
  -29.8803  -17.0616   20.8082 C   0  0  0  0  0  0
  -30.3989  -23.7841   20.5890 C   0  0  0  0  0  0
  -31.4897  -24.0459   21.3302 C   0  0  0  0  0  0
  -29.8704  -24.6649   19.4456 C   0  0  0  0  0  0
  -27.5180  -24.0842   20.2186 C   0  0  0  0  0  0
  -28.1607  -23.1002   21.2507 C   0  0  0  0  0  0
  -28.4222  -25.2072   19.6066 C   0  0  1  0  0  0
  -29.5742  -21.4472   19.9021 C   0  0  0  0  0  0
  -32.2959  -19.9535   19.9430 C   0  0  0  0  0  0
  -29.8332  -15.6139   20.9800 N   0  0  0  0  0  0
  -29.5190  -22.5975   20.8869 N   0  3  1  0  0  0
  -33.3656  -19.2467   20.3090 F   0  0  0  0  0  0
  -32.3480  -20.1421   18.6251 F   0  0  0  0  0  0
  -32.3743  -21.1367   20.5517 F   0  0  0  0  0  0
  -31.4821  -12.5078   19.1385 H   0  0  0  0  0  0
  -30.3793  -11.3730   19.8632 H   0  0  0  0  0  0
  -29.7665  -11.7739   17.4605 H   0  0  0  0  0  0
  -29.6491  -13.4905   17.7504 H   0  0  0  0  0  0
  -27.8600  -11.2968   18.8480 H   0  0  0  0  0  0
  -27.3739  -12.5933   17.7908 H   0  0  0  0  0  0
  -27.6837  -14.2516   19.5396 H   0  0  0  0  0  0
  -28.7036  -12.0032   21.3477 H   0  0  0  0  0  0
  -28.4449  -13.6408   21.8640 H   0  0  0  0  0  0
  -25.2735   -9.5704   22.4733 H   0  0  0  0  0  0
  -24.0004   -7.4630   22.7453 H   0  0  0  0  0  0
  -21.0814   -8.8744   19.8942 H   0  0  0  0  0  0
  -22.3648  -10.9651   19.6148 H   0  0  0  0  0  0
  -21.2006   -7.6137   23.9702 H   0  0  0  0  0  0
  -21.1477   -6.0508   25.9067 H   0  0  0  0  0  0
  -22.0608   -2.7598   23.2842 H   0  0  0  0  0  0
  -22.4101  -11.9898   22.4814 H   0  0  0  0  0  0
  -21.1097  -13.1244   22.2614 H   0  0  0  0  0  0
  -24.6554  -15.8362   20.4921 H   0  0  0  0  0  0
  -26.2645  -15.6135   20.0245 H   0  0  0  0  0  0
  -26.7149  -32.5484   23.1124 H   0  0  0  0  0  0
  -25.0119  -33.9741   25.0475 H   0  0  0  0  0  0
  -22.7061  -31.3022   21.4091 H   0  0  0  0  0  0
  -23.3778  -35.9583   23.3225 H   0  0  0  0  0  0
  -24.3618  -36.8971   22.2065 H   0  0  0  0  0  0
  -23.7181  -37.6441   23.6698 H   0  0  0  0  0  0
  -26.0771  -31.5686   20.6064 H   0  0  0  0  0  0
  -26.8311  -30.8520   22.0014 H   0  0  0  0  0  0
  -28.0996  -29.0085   21.2118 H   0  0  0  0  0  0
  -25.9977  -25.9604   18.9759 H   0  0  0  0  0  0
  -23.9825  -27.3106   19.0020 H   0  0  0  0  0  0
  -23.7383  -30.5944   19.4053 H   0  0  0  0  0  0
  -22.7485  -29.2420   19.8647 H   0  0  0  0  0  0
  -25.1278  -36.1922   25.0824 H   0  0  0  0  0  0
  -20.9958  -28.3229   24.1447 H   0  0  0  0  0  0
  -20.5706  -26.2270   23.3615 H   0  0  0  0  0  0
  -21.6634  -26.7465   22.1200 H   0  0  0  0  0  0
  -19.6908  -25.6299   21.1255 H   0  0  0  0  0  0
  -19.6693  -27.3202   20.6770 H   0  0  0  0  0  0
  -17.4207  -26.6704   21.4008 H   0  0  0  0  0  0
  -18.0290  -26.0069   22.9007 H   0  0  0  0  0  0
  -19.7917  -30.7273   24.2280 H   0  0  0  0  0  0
  -17.4992  -31.6274   24.5151 H   0  0  0  0  0  0
  -15.5330  -30.2972   23.7671 H   0  0  0  0  0  0
  -15.8665  -28.0818   22.7069 H   0  0  0  0  0  0
  -24.5891  -30.7112   25.7820 H   0  0  0  0  0  0
  -24.8985  -32.2909   26.4946 H   0  0  0  0  0  0
  -25.8094  -30.8878   27.0227 H   0  0  0  0  0  0
  -26.2826  -29.6783   24.1205 H   0  0  0  0  0  0
  -27.4022  -29.7251   25.4618 H   0  0  0  0  0  0
  -27.8698  -30.4274   23.9318 H   0  0  0  0  0  0
  -27.2699  -33.3632   26.2019 H   0  0  0  0  0  0
  -28.3881  -32.6832   25.0288 H   0  0  0  0  0  0
  -28.0727  -31.8455   26.5401 H   0  0  0  0  0  0
  -28.2538  -38.0146   24.7613 H   0  0  0  0  0  0
  -28.1151  -36.2685   24.6105 H   0  0  0  0  0  0
  -27.2348  -37.1217   25.8856 H   0  0  0  0  0  0
  -20.9351  -29.8719   21.6913 H   0  0  0  0  0  0
  -26.0146  -38.2842   24.1524 H   0  0  0  0  0  0
  -27.6468  -19.6828   20.8198 H   0  0  0  0  0  0
  -27.7617  -17.2728   21.2108 H   0  0  0  0  0  0
  -31.9856  -17.3187   20.3944 H   0  0  0  0  0  0
  -32.0938  -24.9182   21.1299 H   0  0  0  0  0  0
  -31.7999  -23.4132   22.1487 H   0  0  0  0  0  0
  -29.9100  -24.0534   18.5444 H   0  0  0  0  0  0
  -30.5616  -25.4884   19.2604 H   0  0  0  0  0  0
  -26.6247  -24.5200   20.6656 H   0  0  0  0  0  0
  -27.1508  -23.4771   19.3908 H   0  0  0  0  0  0
  -27.4923  -22.2613   21.4491 H   0  0  0  0  0  0
  -28.2555  -23.6284   22.2008 H   0  0  0  0  0  0
  -28.0811  -25.3625   18.5814 H   0  0  0  0  0  0
  -28.6806  -21.4890   19.2794 H   0  0  0  0  0  0
  -30.3759  -21.6539   19.1957 H   0  0  0  0  0  0
  -28.9477  -15.2661   21.3141 H   0  0  0  0  0  0
  -29.8637  -22.1872   21.7434 H   0  0  0  0  0  0
  1 25  1  0  0  0
  1 30  2  0  0  0
  1 85  1  0  0  0
  2  3  1  0  0  0
  2 25  1  0  0  0
  2 90  1  0  0  0
  2 91  1  0  0  0
  3  4  1  0  0  0
  3 92  1  0  0  0
  3 93  1  0  0  0
  4  5  1  0  0  0
  4 94  1  0  0  0
  4 95  1  0  0  0
  5  6  1  0  0  0
  5 26  1  0  0  0
  5 96  1  0  0  0
  6 25  1  0  0  0
  6 97  1  0  0  0
  6 98  1  0  0  0
  7  8  2  0  0  0
  7 26  1  0  0  0
  7 29  1  0  0  0
  8  9  1  0  0  0
  8 22  1  0  0  0
  9 10  1  0  0  0
  9 27  2  0  0  0
 10 11  2  0  0  0
 10 15  1  0  0  0
 11 12  1  0  0  0
 11 99  1  0  0  0
 12 13  2  0  0  0
 12100  1  0  0  0
 13 14  1  0  0  0
 13 31  1  0  0  0
 14 15  2  0  0  0
 14101  1  0  0  0
 15102  1  0  0  0
 16 17  2  0  0  0
 16 21  1  0  0  0
 16 31  1  0  0  0
 17 18  1  0  0  0
 17103  1  0  0  0
 18 19  2  0  0  0
 18104  1  0  0  0
 19 20  1  0  0  0
 19 24  1  0  0  0
 20 21  2  0  0  0
 20105  1  0  0  0
 21 23  1  0  0  0
 22 28  1  0  0  0
 22 32  2  0  0  0
 26 27  1  0  0  0
 28106  1  0  0  0
 28107  1  0  0  0
 29108  1  0  0  0
 29109  1  0  0  0
 33 34  1  0  0  0
 33 66  1  0  0  0
 33 70  2  0  0  0
 34 36  1  0  0  0
 34 59  1  0  0  0
 34110  1  0  0  0
 35 44  2  0  0  0
 35 45  1  0  0  0
 35 68  1  0  0  0
 36 56  1  0  0  0
 36111  1  0  0  0
 37 39  1  0  0  0
 37 47  1  0  0  0
 37 66  1  0  0  0
 37112  1  0  0  0
 38 43  2  0  0  0
 38 46  1  0  0  0
 38 47  1  0  0  0
 39 64  1  0  0  0
 39 67  2  0  0  0
 40 52  1  0  0  0
 40 53  2  0  0  0
 40 58  1  0  0  0
 41113  1  0  0  0
 41114  1  0  0  0
 41115  1  0  0  0
 41 48  1  0  0  0
 42 43  1  0  0  0
 42 66  1  0  0  0
 42116  1  0  0  0
 42117  1  0  0  0
 43 44  1  0  0  0
 44118  1  0  0  0
 45 46  2  0  0  0
 45119  1  0  0  0
 46120  1  0  0  0
 47121  1  0  0  0
 47122  1  0  0  0
 48 56  1  0  0  0
 48 65  1  0  0  0
 48123  1  0  0  0
 49 50  1  0  0  0
 49 53  1  0  0  0
 49 64  1  0  0  0
 49124  1  0  0  0
 50 51  1  0  0  0
 50125  1  0  0  0
 50126  1  0  0  0
 51 52  1  0  0  0
 51127  1  0  0  0
 51128  1  0  0  0
 52129  1  0  0  0
 52130  1  0  0  0
 53 54  1  0  0  0
 54 55  2  0  0  0
 54131  1  0  0  0
 55 57  1  0  0  0
 55132  1  0  0  0
 56 69  2  0  0  0
 57 58  2  0  0  0
 57133  1  0  0  0
 58134  1  0  0  0
 59 60  1  0  0  0
 59 61  1  0  0  0
 59 62  1  0  0  0
 60135  1  0  0  0
 60136  1  0  0  0
 60137  1  0  0  0
 61138  1  0  0  0
 61139  1  0  0  0
 61140  1  0  0  0
 62141  1  0  0  0
 62142  1  0  0  0
 62143  1  0  0  0
 63 65  1  0  0  0
 63144  1  0  0  0
 63145  1  0  0  0
 63146  1  0  0  0
 64147  1  0  0  0
 65148  1  0  0  0
 68 82  1  0  0  0
 71 72  2  0  0  0
 71 74  1  0  0  0
 71149  1  0  0  0
 72 76  1  0  0  0
 72150  1  0  0  0
 73 75  1  0  0  0
 73 76  2  0  0  0
 73151  1  0  0  0
 74 75  2  0  0  0
 74 83  1  0  0  0
 75 84  1  0  0  0
 76 85  1  0  0  0
 77 78  2  0  0  0
 77 79  1  0  0  0
 77 86  1  0  0  0
 78152  1  0  0  0
 78153  1  0  0  0
 79 82  1  0  0  0
 79154  1  0  0  0
 79155  1  0  0  0
 80 81  1  0  0  0
 80 82  1  0  0  0
 80156  1  0  0  0
 80157  1  0  0  0
 81 86  1  0  0  0
 81158  1  0  0  0
 81159  1  0  0  0
 82160  1  0  0  0
 83161  1  0  0  0
 83162  1  0  0  0
 83 86  1  0  0  0
 84 87  1  0  0  0
 84 88  1  0  0  0
 84 89  1  0  0  0
 85163  1  0  0  0
 86164  1  0  0  0
M  CHG  1  86   1
M  ISO  4   1 100  68 101  82 101  85 100
M  END
> <chiral flag>
0

> <version>
0

> <s_m_source_file>
/data/baiqing/PycharmProjects/Reinvent-master-3.2/result/LINK_invent/BTK/process_docking_weight1_custom_product_contain_oxygen_bond_distance_aromatic_linkinvent_7_9_3/rearranged_h_0049.sdf

> <i_m_source_file_index>
78

> <r_mmod_Potential_Energy-OPLS-2005>
-67.1762008666992

> <r_mmod_Stretch_Energy-OPLS-2005>
69.7980346679688

> <r_mmod_Bend_Energy-OPLS-2005>
159.27734375

> <r_mmod_Torsional_Energy-OPLS-2005>
239.654632568359

> <r_mmod_Improper_Torsional_Energy-OPLS-2005>
5.31299638748169

> <r_mmod_Van_der_Waal_Energy-OPLS-2005>
148.304290771484

> <r_mmod_Electrostatic_Energy-OPLS-2005>
-281.631927490234

> <r_mmod_Solvation_Energy-OPLS-2005>
-443.757476806641

> <b_mmod_Minimization_Converged-OPLS-2005>
0

> <r_mmod_RMS_Derivative-OPLS-2005>
2.03882837295532

$$$$
78
                    3D
 Structure written by MMmdl.
168177  0  0  1  0            999 V2000
  -30.5664  -14.9359   20.3943 C   0  0  0  0  0  0
  -30.4219  -12.5672   19.5131 C   0  0  0  0  0  0
  -29.5082  -12.4784   18.2669 C   0  0  0  0  0  0
  -28.0435  -12.2877   18.6869 C   0  0  0  0  0  0
  -27.6229  -13.2474   19.8313 C   0  0  2  0  0  0
  -28.6603  -13.3046   20.9733 C   0  0  0  0  0  0
  -25.2459  -13.8213   20.5703 C   0  0  0  0  0  0
  -24.1764  -13.0421   20.9199 C   0  0  0  0  0  0
  -24.6382  -11.6911   20.8756 C   0  0  0  0  0  0
  -23.9076  -10.4276   21.0412 C   0  0  0  0  0  0
  -24.3630   -9.4193   21.9189 C   0  0  0  0  0  0
  -23.6306   -8.2231   22.0752 C   0  0  0  0  0  0
  -22.4297   -8.0273   21.3528 C   0  0  0  0  0  0
  -21.9922   -9.0243   20.4630 C   0  0  0  0  0  0
  -22.7251  -10.2117   20.3047 C   0  0  0  0  0  0
  -21.6849   -6.0726   22.5280 C   0  0  0  0  0  0
  -21.4022   -6.5637   23.8215 C   0  0  0  0  0  0
  -21.3658   -5.6794   24.9183 C   0  0  0  0  0  0
  -21.6052   -4.3054   24.7239 C   0  0  0  0  0  0
  -21.8813   -3.8135   23.4364 C   0  0  0  0  0  0
  -21.9197   -4.6952   22.3417 C   0  0  0  0  0  0
  -22.7803  -13.5204   21.1880 C   0  0  0  0  0  0
  -22.1662   -4.2135   21.0991 F   0  0  0  0  0  0
  -21.5636   -3.4546   25.7752 F   0  0  0  0  0  0
  -29.9408  -13.6898   20.3714 N   0  0  0  0  0  0
  -26.2861  -12.9439   20.3232 N   0  0  0  0  0  0
  -25.9309  -11.6567   20.5759 N   0  0  0  0  0  0
  -22.0501  -12.8152   22.0438 N   0  0  0  0  0  0
  -25.4162  -15.1931   20.4151 N   0  0  0  0  0  0
  -31.7834  -14.9383   20.1860 O   0  0  0  0  0  0
  -21.6649   -6.8876   21.4239 O   0  0  0  0  0  0
  -22.3469  -14.5524   20.6769 O   0  0  0  0  0  0
  -24.6399  -31.8456   23.1839 C   0  0  0  0  0  0
  -25.9181  -32.4698   23.8240 C   0  0  1  0  0  0
  -27.2333  -27.1540   20.1775 C   0  0  0  0  0  0
  -25.5940  -33.8501   24.2167 N   0  0  0  0  0  0
  -23.4430  -30.4600   21.5265 C   0  0  2  0  0  0
  -24.8982  -28.8797   20.1122 C   0  0  0  0  0  0
  -22.7546  -29.4571   22.4843 C   0  0  0  0  0  0
  -18.0309  -28.1396   22.8474 C   0  0  0  0  0  0
  -24.1483  -36.7237   23.2645 C   0  0  0  0  0  0
  -25.9957  -30.7258   21.3781 C   0  0  0  0  0  0
  -26.0704  -29.3348   20.7294 C   0  0  0  0  0  0
  -27.2379  -28.4901   20.7396 C   0  0  0  0  0  0
  -26.0385  -26.7865   19.5245 C   0  0  0  0  0  0
  -24.8959  -27.6196   19.4894 C   0  0  0  0  0  0
  -23.6683  -29.7734   20.1502 C   0  0  0  0  0  0
  -25.4118  -36.3022   24.0317 C   0  0  1  0  0  0
  -20.5920  -28.3728   23.1220 C   0  0  2  0  0  0
  -20.6800  -26.9423   22.5401 C   0  0  0  0  0  0
  -19.5785  -26.6363   21.5216 C   0  0  0  0  0  0
  -18.1955  -26.7927   22.1604 C   0  0  0  0  0  0
  -19.1561  -28.8880   23.2841 C   0  0  0  0  0  0
  -18.9495  -30.1476   23.8879 C   0  0  0  0  0  0
  -17.6493  -30.6604   24.0563 C   0  0  0  0  0  0
  -25.9077  -34.9409   23.5050 C   0  0  0  0  0  0
  -16.5385  -29.9098   23.6341 C   0  0  0  0  0  0
  -16.7294  -28.6509   23.0365 C   0  0  0  0  0  0
  -26.4508  -31.6580   25.0699 C   0  0  0  0  0  0
  -25.3676  -31.3778   26.1383 C   0  0  0  0  0  0
  -27.0377  -30.2979   24.6276 C   0  0  0  0  0  0
  -27.6036  -32.4342   25.7472 C   0  0  0  0  0  0
  -27.5571  -37.1755   24.8454 C   0  0  0  0  0  0
  -21.4244  -29.3065   22.3594 N   0  0  0  0  0  0
  -26.4263  -37.3752   23.9433 N   0  0  0  0  0  0
  -24.7122  -31.0327   22.0841 N   0  0  0  0  0  0
  -23.4197  -28.8131   23.2995 O   0  0  0  0  0  0
  -28.3248  -26.2200   20.2292 O   0  0  0  0  0  0
  -26.5664  -34.8915   22.4629 O   0  0  0  0  0  0
  -23.5522  -32.1309   23.7070 O   0  0  0  0  0  0
  -28.0456  -18.4875   17.4993 C   0  0  0  0  0  0
  -29.0158  -17.5409   17.1789 C   0  0  0  0  0  0
  -28.1148  -19.1110   18.7471 C   0  0  0  0  0  0
  -29.8909  -17.0467   18.1626 C   0  0  0  0  0  0
  -29.0442  -18.7310   19.7425 C   0  0  0  0  0  0
  -29.7197  -17.3825   19.5494 C   0  0  0  0  0  0
  -28.9931  -22.2737   19.2152 C   0  0  0  0  0  0
  -31.0688  -20.4552   16.7342 C   0  0  0  0  0  0
  -29.6392  -21.9244   18.0797 C   0  0  0  0  0  0
  -30.6551  -20.8938   17.9335 C   0  0  0  0  0  0
  -28.1114  -23.6250   19.2626 C   0  0  0  0  0  0
  -29.1650  -24.0020   21.4604 C   0  0  0  0  0  0
  -28.9126  -22.4319   21.6861 C   0  0  0  0  0  0
  -28.1666  -24.6898   20.4636 C   0  0  1  0  0  0
  -31.0069  -16.1712   17.6201 C   0  0  0  0  0  0
  -29.1369  -19.9374   20.8375 C   0  0  0  0  0  0
  -29.8438  -16.1659   20.4838 N   0  0  0  0  0  0
  -29.2922  -21.5137   20.5437 N   0  3  1  0  0  0
  -31.4599  -12.6985   19.2066 H   0  0  0  0  0  0
  -30.3930  -11.6263   20.0661 H   0  0  0  0  0  0
  -29.8231  -11.6562   17.6233 H   0  0  0  0  0  0
  -29.5817  -13.3742   17.6573 H   0  0  0  0  0  0
  -27.9323  -11.2524   19.0117 H   0  0  0  0  0  0
  -27.3813  -12.4023   17.8279 H   0  0  0  0  0  0
  -27.5832  -14.2418   19.3843 H   0  0  0  0  0  0
  -28.7356  -12.3460   21.4885 H   0  0  0  0  0  0
  -28.3575  -14.0380   21.7228 H   0  0  0  0  0  0
  -25.2783   -9.5669   22.4754 H   0  0  0  0  0  0
  -24.0005   -7.4632   22.7480 H   0  0  0  0  0  0
  -21.0848   -8.8754   19.8953 H   0  0  0  0  0  0
  -22.3712  -10.9648   19.6142 H   0  0  0  0  0  0
  -21.2009   -7.6145   23.9713 H   0  0  0  0  0  0
  -21.1486   -6.0527   25.9079 H   0  0  0  0  0  0
  -22.0593   -2.7598   23.2873 H   0  0  0  0  0  0
  -22.4154  -11.9770   22.4711 H   0  0  0  0  0  0
  -21.1127  -13.1141   22.2754 H   0  0  0  0  0  0
  -24.6506  -15.8497   20.5260 H   0  0  0  0  0  0
  -26.2712  -15.6288   20.0928 H   0  0  0  0  0  0
  -26.7251  -32.5318   23.0969 H   0  0  0  0  0  0
  -25.0113  -33.9628   25.0329 H   0  0  0  0  0  0
  -22.7482  -31.2867   21.3633 H   0  0  0  0  0  0
  -23.3778  -35.9533   23.3248 H   0  0  0  0  0  0
  -24.3577  -36.8925   22.2073 H   0  0  0  0  0  0
  -23.7192  -37.6394   23.6720 H   0  0  0  0  0  0
  -26.1496  -31.4762   20.6014 H   0  0  0  0  0  0
  -26.8671  -30.7811   22.0189 H   0  0  0  0  0  0
  -28.1327  -28.8388   21.2346 H   0  0  0  0  0  0
  -25.9785  -25.8183   19.0481 H   0  0  0  0  0  0
  -24.0038  -27.2678   18.9888 H   0  0  0  0  0  0
  -23.7870  -30.5357   19.3791 H   0  0  0  0  0  0
  -22.7894  -29.1965   19.8550 H   0  0  0  0  0  0
  -25.1299  -36.1829   25.0807 H   0  0  0  0  0  0
  -21.0034  -28.3339   24.1332 H   0  0  0  0  0  0
  -20.5687  -26.2369   23.3639 H   0  0  0  0  0  0
  -21.6670  -26.7431   22.1218 H   0  0  0  0  0  0
  -19.6957  -25.6265   21.1284 H   0  0  0  0  0  0
  -19.6724  -27.3148   20.6729 H   0  0  0  0  0  0
  -17.4233  -26.6696   21.3992 H   0  0  0  0  0  0
  -18.0332  -26.0065   22.8989 H   0  0  0  0  0  0
  -19.7981  -30.7281   24.2231 H   0  0  0  0  0  0
  -17.5067  -31.6280   24.5153 H   0  0  0  0  0  0
  -15.5391  -30.3008   23.7677 H   0  0  0  0  0  0
  -15.8682  -28.0821   22.7106 H   0  0  0  0  0  0
  -24.5902  -30.7066   25.7716 H   0  0  0  0  0  0
  -24.8808  -32.2964   26.4678 H   0  0  0  0  0  0
  -25.7949  -30.9063   27.0241 H   0  0  0  0  0  0
  -26.3006  -29.6700   24.1267 H   0  0  0  0  0  0
  -27.3990  -29.7281   25.4849 H   0  0  0  0  0  0
  -27.8898  -30.4234   23.9592 H   0  0  0  0  0  0
  -27.2650  -33.3688   26.1948 H   0  0  0  0  0  0
  -28.3891  -32.6820   25.0325 H   0  0  0  0  0  0
  -28.0649  -31.8531   26.5465 H   0  0  0  0  0  0
  -28.2530  -38.0111   24.7570 H   0  0  0  0  0  0
  -28.1110  -36.2636   24.6158 H   0  0  0  0  0  0
  -27.2301  -37.1256   25.8857 H   0  0  0  0  0  0
  -20.9461  -29.8763   21.6751 H   0  0  0  0  0  0
  -26.0112  -38.2794   24.1503 H   0  0  0  0  0  0
  -27.3510  -18.8332   16.7476 H   0  0  0  0  0  0
  -29.0827  -17.1907   16.1596 H   0  0  0  0  0  0
  -27.4814  -19.9745   18.9025 H   0  0  0  0  0  0
  -31.8304  -19.6921   16.6525 H   0  0  0  0  0  0
  -30.6472  -20.8385   15.8154 H   0  0  0  0  0  0
  -29.4405  -22.5200   17.1993 H   0  0  0  0  0  0
  -31.1223  -20.4544   18.8031 H   0  0  0  0  0  0
  -27.0727  -23.3141   19.1418 H   0  0  0  0  0  0
  -28.3343  -24.1820   18.3529 H   0  0  0  0  0  0
  -30.1943  -24.1735   21.1385 H   0  0  0  0  0  0
  -29.0876  -24.5151   22.4204 H   0  0  0  0  0  0
  -27.8547  -22.2898   21.9045 H   0  0  0  0  0  0
  -29.4448  -22.1002   22.5781 H   0  0  0  0  0  0
  -27.2041  -24.6104   20.9706 H   0  0  0  0  0  0
  -31.2122  -16.4096   16.5751 H   0  0  0  0  0  0
  -30.7525  -15.1193   17.6604 H   0  0  0  0  0  0
  -31.9387  -16.3474   18.1548 H   0  0  0  0  0  0
  -29.9416  -19.6687   21.5208 H   0  0  0  0  0  0
  -28.2325  -19.8308   21.4354 H   0  0  0  0  0  0
  -29.0158  -16.0510   21.0512 H   0  0  0  0  0  0
  -30.2988  -21.5594   20.6025 H   0  0  0  0  0  0
  1 25  1  0  0  0
  1 30  2  0  0  0
  1 87  1  0  0  0
  2  3  1  0  0  0
  2 25  1  0  0  0
  2 89  1  0  0  0
  2 90  1  0  0  0
  3  4  1  0  0  0
  3 91  1  0  0  0
  3 92  1  0  0  0
  4  5  1  0  0  0
  4 93  1  0  0  0
  4 94  1  0  0  0
  5  6  1  0  0  0
  5 26  1  0  0  0
  5 95  1  0  0  0
  6 25  1  0  0  0
  6 96  1  0  0  0
  6 97  1  0  0  0
  7  8  2  0  0  0
  7 26  1  0  0  0
  7 29  1  0  0  0
  8  9  1  0  0  0
  8 22  1  0  0  0
  9 10  1  0  0  0
  9 27  2  0  0  0
 10 11  2  0  0  0
 10 15  1  0  0  0
 11 12  1  0  0  0
 11 98  1  0  0  0
 12 13  2  0  0  0
 12 99  1  0  0  0
 13 14  1  0  0  0
 13 31  1  0  0  0
 14 15  2  0  0  0
 14100  1  0  0  0
 15101  1  0  0  0
 16 17  2  0  0  0
 16 21  1  0  0  0
 16 31  1  0  0  0
 17 18  1  0  0  0
 17102  1  0  0  0
 18 19  2  0  0  0
 18103  1  0  0  0
 19 20  1  0  0  0
 19 24  1  0  0  0
 20 21  2  0  0  0
 20104  1  0  0  0
 21 23  1  0  0  0
 22 28  1  0  0  0
 22 32  2  0  0  0
 26 27  1  0  0  0
 28105  1  0  0  0
 28106  1  0  0  0
 29107  1  0  0  0
 29108  1  0  0  0
 33 34  1  0  0  0
 33 66  1  0  0  0
 33 70  2  0  0  0
 34 36  1  0  0  0
 34 59  1  0  0  0
 34109  1  0  0  0
 35 44  2  0  0  0
 35 45  1  0  0  0
 35 68  1  0  0  0
 36 56  1  0  0  0
 36110  1  0  0  0
 37 39  1  0  0  0
 37 47  1  0  0  0
 37 66  1  0  0  0
 37111  1  0  0  0
 38 43  2  0  0  0
 38 46  1  0  0  0
 38 47  1  0  0  0
 39 64  1  0  0  0
 39 67  2  0  0  0
 40 52  1  0  0  0
 40 53  2  0  0  0
 40 58  1  0  0  0
 41112  1  0  0  0
 41113  1  0  0  0
 41114  1  0  0  0
 41 48  1  0  0  0
 42 43  1  0  0  0
 42 66  1  0  0  0
 42115  1  0  0  0
 42116  1  0  0  0
 43 44  1  0  0  0
 44117  1  0  0  0
 45 46  2  0  0  0
 45118  1  0  0  0
 46119  1  0  0  0
 47120  1  0  0  0
 47121  1  0  0  0
 48 56  1  0  0  0
 48 65  1  0  0  0
 48122  1  0  0  0
 49 50  1  0  0  0
 49 53  1  0  0  0
 49 64  1  0  0  0
 49123  1  0  0  0
 50 51  1  0  0  0
 50124  1  0  0  0
 50125  1  0  0  0
 51 52  1  0  0  0
 51126  1  0  0  0
 51127  1  0  0  0
 52128  1  0  0  0
 52129  1  0  0  0
 53 54  1  0  0  0
 54 55  2  0  0  0
 54130  1  0  0  0
 55 57  1  0  0  0
 55131  1  0  0  0
 56 69  2  0  0  0
 57 58  2  0  0  0
 57132  1  0  0  0
 58133  1  0  0  0
 59 60  1  0  0  0
 59 61  1  0  0  0
 59 62  1  0  0  0
 60134  1  0  0  0
 60135  1  0  0  0
 60136  1  0  0  0
 61137  1  0  0  0
 61138  1  0  0  0
 61139  1  0  0  0
 62140  1  0  0  0
 62141  1  0  0  0
 62142  1  0  0  0
 63 65  1  0  0  0
 63143  1  0  0  0
 63144  1  0  0  0
 63145  1  0  0  0
 64146  1  0  0  0
 65147  1  0  0  0
 68 84  1  0  0  0
 71 72  2  0  0  0
 71 73  1  0  0  0
 71148  1  0  0  0
 72 74  1  0  0  0
 72149  1  0  0  0
 73 75  2  0  0  0
 73150  1  0  0  0
 74 76  2  0  0  0
 74 85  1  0  0  0
 75 76  1  0  0  0
 75 86  1  0  0  0
 76 87  1  0  0  0
 77 79  2  0  0  0
 77 81  1  0  0  0
 77 88  1  0  0  0
 78 80  2  0  0  0
 78151  1  0  0  0
 78152  1  0  0  0
 79 80  1  0  0  0
 79153  1  0  0  0
 80154  1  0  0  0
 81 84  1  0  0  0
 81155  1  0  0  0
 81156  1  0  0  0
 82 83  1  0  0  0
 82 84  1  0  0  0
 82157  1  0  0  0
 82158  1  0  0  0
 83 88  1  0  0  0
 83159  1  0  0  0
 83160  1  0  0  0
 84161  1  0  0  0
 85162  1  0  0  0
 85163  1  0  0  0
 85164  1  0  0  0
 86165  1  0  0  0
 86166  1  0  0  0
 86 88  1  0  0  0
 87167  1  0  0  0
 88168  1  0  0  0
M  CHG  1  88   1
M  ISO  4   1 100  68 101  84 101  87 100
M  END
> <chiral flag>
0

> <version>
0

> <s_m_source_file>
/data/baiqing/PycharmProjects/Reinvent-master-3.2/result/LINK_invent/BTK/process_docking_weight1_custom_product_contain_oxygen_bond_distance_aromatic_linkinvent_7_9_3/rearranged_h_0049.sdf

> <i_m_source_file_index>
79

> <r_mmod_Potential_Energy-OPLS-2005>
580.163391113281

> <r_mmod_Stretch_Energy-OPLS-2005>
256.445037841797

> <r_mmod_Bend_Energy-OPLS-2005>
335.200469970703

> <r_mmod_Torsional_Energy-OPLS-2005>
400.699951171875

> <r_mmod_Improper_Torsional_Energy-OPLS-2005>
10.3952236175537

> <r_mmod_Van_der_Waal_Energy-OPLS-2005>
141.866836547852

> <r_mmod_Electrostatic_Energy-OPLS-2005>
-294.764251708984

> <r_mmod_Solvation_Energy-OPLS-2005>
-448.749389648438

> <b_mmod_Minimization_Converged-OPLS-2005>
0

> <r_mmod_RMS_Derivative-OPLS-2005>
3.45215964317322

$$$$
79
                    3D
 Structure written by MMmdl.
176185  0  0  1  0            999 V2000
  -30.7779  -14.3956   20.5719 C   0  0  0  0  0  0
  -30.4089  -12.2557   19.4310 C   0  0  0  0  0  0
  -29.4971  -12.5057   18.2136 C   0  0  0  0  0  0
  -28.0163  -12.3849   18.6207 C   0  0  0  0  0  0
  -27.6719  -13.2154   19.8886 C   0  0  2  0  0  0
  -28.7149  -12.9925   21.0100 C   0  0  0  0  0  0
  -25.2627  -13.8177   20.5764 C   0  0  0  0  0  0
  -24.1860  -13.0440   20.9199 C   0  0  0  0  0  0
  -24.6437  -11.6912   20.8739 C   0  0  0  0  0  0
  -23.9081  -10.4301   21.0416 C   0  0  0  0  0  0
  -24.3628   -9.4204   21.9212 C   0  0  0  0  0  0
  -23.6290   -8.2249   22.0779 C   0  0  0  0  0  0
  -22.4272   -8.0290   21.3566 C   0  0  0  0  0  0
  -21.9915   -9.0262   20.4653 C   0  0  0  0  0  0
  -22.7247  -10.2138   20.3056 C   0  0  0  0  0  0
  -21.6814   -6.0755   22.5294 C   0  0  0  0  0  0
  -21.3994   -6.5671   23.8221 C   0  0  0  0  0  0
  -21.3676   -5.6839   24.9201 C   0  0  0  0  0  0
  -21.6036   -4.3101   24.7232 C   0  0  0  0  0  0
  -21.8820   -3.8179   23.4361 C   0  0  0  0  0  0
  -21.9188   -4.6997   22.3412 C   0  0  0  0  0  0
  -22.7876  -13.5201   21.1889 C   0  0  0  0  0  0
  -22.1668   -4.2198   21.0974 F   0  0  0  0  0  0
  -21.5622   -3.4570   25.7731 F   0  0  0  0  0  0
  -30.0593  -13.2453   20.4624 N   0  0  0  0  0  0
  -26.3099  -12.9393   20.3453 N   0  0  0  0  0  0
  -25.9365  -11.6532   20.5769 N   0  0  0  0  0  0
  -22.0539  -12.8166   22.0421 N   0  0  0  0  0  0
  -25.4295  -15.1890   20.4166 N   0  0  0  0  0  0
  -31.8590  -14.5716   20.0118 O   0  0  0  0  0  0
  -21.6626   -6.8899   21.4250 O   0  0  0  0  0  0
  -22.3549  -14.5546   20.6809 O   0  0  0  0  0  0
  -24.6134  -31.8713   23.2162 C   0  0  0  0  0  0
  -25.9031  -32.4882   23.8456 C   0  0  1  0  0  0
  -27.2378  -27.4689   20.1070 C   0  0  0  0  0  0
  -25.5907  -33.8676   24.2376 N   0  0  0  0  0  0
  -23.4025  -30.4939   21.5517 C   0  0  2  0  0  0
  -24.8556  -28.9709   20.1116 C   0  0  0  0  0  0
  -22.7411  -29.4677   22.4984 C   0  0  0  0  0  0
  -18.0294  -28.1381   22.8525 C   0  0  0  0  0  0
  -24.1481  -36.7289   23.2620 C   0  0  0  0  0  0
  -25.9306  -30.8476   21.3693 C   0  0  0  0  0  0
  -26.0130  -29.4889   20.7073 C   0  0  0  0  0  0
  -27.2121  -28.7433   20.7038 C   0  0  0  0  0  0
  -26.0721  -26.9641   19.4850 C   0  0  0  0  0  0
  -24.8781  -27.7064   19.4972 C   0  0  0  0  0  0
  -23.6138  -29.8304   20.1669 C   0  0  0  0  0  0
  -25.4091  -36.3131   24.0343 C   0  0  1  0  0  0
  -20.5878  -28.3686   23.1347 C   0  0  2  0  0  0
  -20.6762  -26.9422   22.5432 C   0  0  0  0  0  0
  -19.5752  -26.6384   21.5232 C   0  0  0  0  0  0
  -18.1944  -26.7900   22.1694 C   0  0  0  0  0  0
  -19.1541  -28.8849   23.2922 C   0  0  0  0  0  0
  -18.9452  -30.1480   23.8896 C   0  0  0  0  0  0
  -17.6454  -30.6606   24.0525 C   0  0  0  0  0  0
  -25.9025  -34.9498   23.5155 C   0  0  0  0  0  0
  -16.5345  -29.9081   23.6356 C   0  0  0  0  0  0
  -16.7273  -28.6492   23.0376 C   0  0  0  0  0  0
  -26.4465  -31.6642   25.0776 C   0  0  0  0  0  0
  -25.3760  -31.3696   26.1553 C   0  0  0  0  0  0
  -27.0304  -30.3090   24.6140 C   0  0  0  0  0  0
  -27.6085  -32.4328   25.7520 C   0  0  0  0  0  0
  -27.5568  -37.1775   24.8477 C   0  0  0  0  0  0
  -21.4138  -29.3086   22.3750 N   0  0  0  0  0  0
  -26.4273  -37.3810   23.9449 N   0  0  0  0  0  0
  -24.6659  -31.0858   22.1027 N   0  0  0  0  0  0
  -23.4208  -28.8124   23.2935 O   0  0  0  0  0  0
  -28.3546  -26.6770   20.2053 O   0  0  0  0  0  0
  -26.5556  -34.8928   22.4696 O   0  0  0  0  0  0
  -23.5321  -32.1425   23.7567 O   0  0  0  0  0  0
  -31.6599  -20.8469   19.4391 C   0  0  0  0  0  0
  -30.4667  -21.5160   19.7466 C   0  0  0  0  0  0
  -31.9730  -19.6533   20.1073 C   0  0  0  0  0  0
  -29.6573  -21.0723   20.8121 C   0  0  0  0  0  0
  -31.1498  -19.1513   21.1441 C   0  0  0  0  0  0
  -30.0424  -19.9326   21.5732 C   0  0  0  0  0  0
  -27.7907  -23.5591   22.8333 C   0  0  0  0  0  0
  -24.1987  -22.7318   22.5125 C   0  0  0  0  0  0
  -26.4922  -23.3337   23.1322 C   0  0  0  0  0  0
  -25.5210  -22.5668   22.3656 C   0  0  0  0  0  0
  -32.7689  -17.2127   21.7821 C   0  0  0  0  0  0
  -28.6359  -24.6414   23.4841 C   0  0  0  0  0  0
  -28.6800  -25.8926   22.5541 C   0  0  0  0  0  0
  -28.6961  -24.2494   20.5880 C   0  0  0  0  0  0
  -28.1512  -25.5893   21.1243 C   0  0  2  0  0  0
  -29.2616  -19.5139   22.8206 C   0  0  0  0  0  0
  -28.3390  -21.7975   21.0478 C   0  0  0  0  0  0
  -30.3790  -16.8123   20.7806 C   0  0  0  0  0  0
  -31.3105  -17.7011   21.6516 C   0  0  2  0  0  0
  -30.1705  -15.4136   21.1898 N   0  0  0  0  0  0
  -28.5497  -23.1542   21.6031 N   0  3  2  0  0  0
  -33.4904  -16.9788   20.8056 O   0  0  0  0  0  0
  -31.4597  -12.2886   19.1377 H   0  0  0  0  0  0
  -30.2501  -11.2473   19.8180 H   0  0  0  0  0  0
  -29.7219  -11.7924   17.4220 H   0  0  0  0  0  0
  -29.6907  -13.4988   17.8032 H   0  0  0  0  0  0
  -27.8078  -11.3273   18.7960 H   0  0  0  0  0  0
  -27.3722  -12.6856   17.7930 H   0  0  0  0  0  0
  -27.7200  -14.2674   19.6004 H   0  0  0  0  0  0
  -28.6531  -11.9706   21.3833 H   0  0  0  0  0  0
  -28.4938  -13.6177   21.8767 H   0  0  0  0  0  0
  -25.2808   -9.5654   22.4764 H   0  0  0  0  0  0
  -24.0017   -7.4615   22.7467 H   0  0  0  0  0  0
  -21.0880   -8.8753   19.8912 H   0  0  0  0  0  0
  -22.3752  -10.9670   19.6118 H   0  0  0  0  0  0
  -21.1987   -7.6183   23.9751 H   0  0  0  0  0  0
  -21.1484   -6.0568   25.9110 H   0  0  0  0  0  0
  -22.0580   -2.7644   23.2844 H   0  0  0  0  0  0
  -22.4171  -11.9737   22.4640 H   0  0  0  0  0  0
  -21.1129  -13.1089   22.2657 H   0  0  0  0  0  0
  -24.6601  -15.8389   20.5243 H   0  0  0  0  0  0
  -26.2807  -15.6393   20.1046 H   0  0  0  0  0  0
  -26.7091  -32.5599   23.1211 H   0  0  0  0  0  0
  -25.0174  -33.9863   25.0603 H   0  0  0  0  0  0
  -22.6953  -31.3121   21.4117 H   0  0  0  0  0  0
  -23.3801  -35.9587   23.3325 H   0  0  0  0  0  0
  -24.3535  -36.8873   22.2028 H   0  0  0  0  0  0
  -23.7196  -37.6472   23.6627 H   0  0  0  0  0  0
  -26.0520  -31.6232   20.6101 H   0  0  0  0  0  0
  -26.8109  -30.8910   21.9968 H   0  0  0  0  0  0
  -28.0994  -29.1214   21.1894 H   0  0  0  0  0  0
  -26.0832  -25.9863   19.0223 H   0  0  0  0  0  0
  -23.9841  -27.2987   19.0457 H   0  0  0  0  0  0
  -23.7275  -30.6090   19.4128 H   0  0  0  0  0  0
  -22.7392  -29.2502   19.8689 H   0  0  0  0  0  0
  -25.1267  -36.1964   25.0834 H   0  0  0  0  0  0
  -20.9965  -28.3218   24.1478 H   0  0  0  0  0  0
  -20.5713  -26.2277   23.3617 H   0  0  0  0  0  0
  -21.6604  -26.7496   22.1163 H   0  0  0  0  0  0
  -19.6936  -25.6298   21.1265 H   0  0  0  0  0  0
  -19.6647  -27.3198   20.6762 H   0  0  0  0  0  0
  -17.4141  -26.6617   21.4156 H   0  0  0  0  0  0
  -18.0407  -26.0072   22.9147 H   0  0  0  0  0  0
  -19.7912  -30.7313   24.2241 H   0  0  0  0  0  0
  -17.4991  -31.6311   24.5057 H   0  0  0  0  0  0
  -15.5334  -30.2951   23.7672 H   0  0  0  0  0  0
  -15.8684  -28.0773   22.7135 H   0  0  0  0  0  0
  -24.6031  -30.6903   25.7921 H   0  0  0  0  0  0
  -24.8822  -32.2814   26.4936 H   0  0  0  0  0  0
  -25.8159  -30.8979   27.0354 H   0  0  0  0  0  0
  -26.2875  -29.6850   24.1166 H   0  0  0  0  0  0
  -27.4056  -29.7297   25.4582 H   0  0  0  0  0  0
  -27.8723  -30.4442   23.9346 H   0  0  0  0  0  0
  -27.2804  -33.3679   26.2072 H   0  0  0  0  0  0
  -28.3915  -32.6775   25.0327 H   0  0  0  0  0  0
  -28.0761  -31.8460   26.5442 H   0  0  0  0  0  0
  -28.2574  -38.0069   24.7562 H   0  0  0  0  0  0
  -28.1057  -36.2614   24.6284 H   0  0  0  0  0  0
  -27.2290  -37.1388   25.8866 H   0  0  0  0  0  0
  -20.9272  -29.8932   21.7090 H   0  0  0  0  0  0
  -26.0181  -38.2877   24.1523 H   0  0  0  0  0  0
  -32.2888  -21.2098   18.6376 H   0  0  0  0  0  0
  -30.1773  -22.3751   19.1568 H   0  0  0  0  0  0
  -32.8335  -19.1026   19.7580 H   0  0  0  0  0  0
  -23.5005  -22.1438   21.9334 H   0  0  0  0  0  0
  -23.7855  -23.4629   23.1941 H   0  0  0  0  0  0
  -26.1212  -23.8222   24.0252 H   0  0  0  0  0  0
  -25.8176  -21.8230   21.6446 H   0  0  0  0  0  0
  -33.1210  -17.0869   22.8049 H   0  0  0  0  0  0
  -29.6421  -24.2394   23.6186 H   0  0  0  0  0  0
  -28.2791  -24.8894   24.4842 H   0  0  0  0  0  0
  -29.6934  -26.2904   22.5127 H   0  0  0  0  0  0
  -28.0693  -26.6840   22.9903 H   0  0  0  0  0  0
  -29.7513  -24.3619   20.3356 H   0  0  0  0  0  0
  -28.1730  -24.0004   19.6662 H   0  0  0  0  0  0
  -27.0787  -25.4165   21.2309 H   0  0  0  0  0  0
  -28.7813  -20.3537   23.3194 H   0  0  0  0  0  0
  -29.9262  -19.1056   23.5805 H   0  0  0  0  0  0
  -28.5043  -18.7651   22.5822 H   0  0  0  0  0  0
  -27.7406  -21.1920   21.7144 H   0  0  0  0  0  0
  -27.7716  -21.8386   20.1188 H   0  0  0  0  0  0
  -30.6949  -16.8776   19.7372 H   0  0  0  0  0  0
  -29.3812  -17.2476   20.7879 H   0  0  0  0  0  0
  -30.9474  -17.6302   22.6701 H   0  0  0  0  0  0
  -29.3220  -15.1914   21.6914 H   0  0  0  0  0  0
  -29.4979  -23.0607   21.9338 H   0  0  0  0  0  0
  1 25  1  0  0  0
  1 30  2  0  0  0
  1 90  1  0  0  0
  2  3  1  0  0  0
  2 25  1  0  0  0
  2 93  1  0  0  0
  2 94  1  0  0  0
  3  4  1  0  0  0
  3 95  1  0  0  0
  3 96  1  0  0  0
  4  5  1  0  0  0
  4 97  1  0  0  0
  4 98  1  0  0  0
  5  6  1  0  0  0
  5 26  1  0  0  0
  5 99  1  0  0  0
  6 25  1  0  0  0
  6100  1  0  0  0
  6101  1  0  0  0
  7  8  2  0  0  0
  7 26  1  0  0  0
  7 29  1  0  0  0
  8  9  1  0  0  0
  8 22  1  0  0  0
  9 10  1  0  0  0
  9 27  2  0  0  0
 10 11  2  0  0  0
 10 15  1  0  0  0
 11 12  1  0  0  0
 11102  1  0  0  0
 12 13  2  0  0  0
 12103  1  0  0  0
 13 14  1  0  0  0
 13 31  1  0  0  0
 14 15  2  0  0  0
 14104  1  0  0  0
 15105  1  0  0  0
 16 17  2  0  0  0
 16 21  1  0  0  0
 16 31  1  0  0  0
 17 18  1  0  0  0
 17106  1  0  0  0
 18 19  2  0  0  0
 18107  1  0  0  0
 19 20  1  0  0  0
 19 24  1  0  0  0
 20 21  2  0  0  0
 20108  1  0  0  0
 21 23  1  0  0  0
 22 28  1  0  0  0
 22 32  2  0  0  0
 26 27  1  0  0  0
 28109  1  0  0  0
 28110  1  0  0  0
 29111  1  0  0  0
 29112  1  0  0  0
 33 34  1  0  0  0
 33 66  1  0  0  0
 33 70  2  0  0  0
 34 36  1  0  0  0
 34 59  1  0  0  0
 34113  1  0  0  0
 35 44  2  0  0  0
 35 45  1  0  0  0
 35 68  1  0  0  0
 36 56  1  0  0  0
 36114  1  0  0  0
 37 39  1  0  0  0
 37 47  1  0  0  0
 37 66  1  0  0  0
 37115  1  0  0  0
 38 43  2  0  0  0
 38 46  1  0  0  0
 38 47  1  0  0  0
 39 64  1  0  0  0
 39 67  2  0  0  0
 40 52  1  0  0  0
 40 53  2  0  0  0
 40 58  1  0  0  0
 41116  1  0  0  0
 41117  1  0  0  0
 41118  1  0  0  0
 41 48  1  0  0  0
 42 43  1  0  0  0
 42 66  1  0  0  0
 42119  1  0  0  0
 42120  1  0  0  0
 43 44  1  0  0  0
 44121  1  0  0  0
 45 46  2  0  0  0
 45122  1  0  0  0
 46123  1  0  0  0
 47124  1  0  0  0
 47125  1  0  0  0
 48 56  1  0  0  0
 48 65  1  0  0  0
 48126  1  0  0  0
 49 50  1  0  0  0
 49 53  1  0  0  0
 49 64  1  0  0  0
 49127  1  0  0  0
 50 51  1  0  0  0
 50128  1  0  0  0
 50129  1  0  0  0
 51 52  1  0  0  0
 51130  1  0  0  0
 51131  1  0  0  0
 52132  1  0  0  0
 52133  1  0  0  0
 53 54  1  0  0  0
 54 55  2  0  0  0
 54134  1  0  0  0
 55 57  1  0  0  0
 55135  1  0  0  0
 56 69  2  0  0  0
 57 58  2  0  0  0
 57136  1  0  0  0
 58137  1  0  0  0
 59 60  1  0  0  0
 59 61  1  0  0  0
 59 62  1  0  0  0
 60138  1  0  0  0
 60139  1  0  0  0
 60140  1  0  0  0
 61141  1  0  0  0
 61142  1  0  0  0
 61143  1  0  0  0
 62144  1  0  0  0
 62145  1  0  0  0
 62146  1  0  0  0
 63 65  1  0  0  0
 63147  1  0  0  0
 63148  1  0  0  0
 63149  1  0  0  0
 64150  1  0  0  0
 65151  1  0  0  0
 68 85  1  0  0  0
 71 72  2  0  0  0
 71 73  1  0  0  0
 71152  1  0  0  0
 72 74  1  0  0  0
 72153  1  0  0  0
 73 75  2  0  0  0
 73154  1  0  0  0
 74 76  2  0  0  0
 74 87  1  0  0  0
 75 76  1  0  0  0
 75 89  1  0  0  0
 76 86  1  0  0  0
 77 79  2  0  0  0
 77 82  1  0  0  0
 77 91  1  0  0  0
 78 80  2  0  0  0
 78155  1  0  0  0
 78156  1  0  0  0
 79 80  1  0  0  0
 79157  1  0  0  0
 80158  1  0  0  0
 81 89  1  0  0  0
 81 92  2  0  0  0
 81159  1  0  0  0
 82 83  1  0  0  0
 82160  1  0  0  0
 82161  1  0  0  0
 83 85  1  0  0  0
 83162  1  0  0  0
 83163  1  0  0  0
 84 85  1  0  0  0
 84 91  1  0  0  0
 84164  1  0  0  0
 84165  1  0  0  0
 85166  1  0  0  0
 86167  1  0  0  0
 86168  1  0  0  0
 86169  1  0  0  0
 87170  1  0  0  0
 87171  1  0  0  0
 87 91  1  0  0  0
 88 90  1  0  0  0
 88172  1  0  0  0
 88173  1  0  0  0
 88 89  1  0  0  0
 89174  1  0  0  0
 90175  1  0  0  0
 91176  1  0  0  0
M  CHG  1  91   1
M  ISO  4   1 100  68 101  85 101  90 100
M  END
> <chiral flag>
0

> <version>
0

> <s_m_source_file>
/data/baiqing/PycharmProjects/Reinvent-master-3.2/result/LINK_invent/BTK/process_docking_weight1_custom_product_contain_oxygen_bond_distance_aromatic_linkinvent_7_9_3/rearranged_h_0049.sdf

> <i_m_source_file_index>
80

> <r_mmod_Potential_Energy-OPLS-2005>
-6.58469867706299

> <r_mmod_Stretch_Energy-OPLS-2005>
43.0978355407715

> <r_mmod_Bend_Energy-OPLS-2005>
132.477432250977

> <r_mmod_Torsional_Energy-OPLS-2005>
278.970672607422

> <r_mmod_Improper_Torsional_Energy-OPLS-2005>
7.27218961715698

> <r_mmod_Van_der_Waal_Energy-OPLS-2005>
183.892639160156

> <r_mmod_Electrostatic_Energy-OPLS-2005>
-225.631774902344

> <r_mmod_Solvation_Energy-OPLS-2005>
-440.622253417969

> <b_mmod_Minimization_Converged-OPLS-2005>
0

> <r_mmod_RMS_Derivative-OPLS-2005>
6.57185935974121

$$$$
80
                    3D
 Structure written by MMmdl.
157165  0  0  1  0            999 V2000
  -30.6165  -14.7486   20.4602 C   0  0  0  0  0  0
  -30.4263  -12.4561   19.4753 C   0  0  0  0  0  0
  -29.5067  -12.5014   18.2362 C   0  0  0  0  0  0
  -28.0339  -12.3260   18.6518 C   0  0  0  0  0  0
  -27.6381  -13.2329   19.8477 C   0  0  2  0  0  0
  -28.6819  -13.1783   20.9842 C   0  0  0  0  0  0
  -25.2500  -13.8207   20.5705 C   0  0  0  0  0  0
  -24.1798  -13.0443   20.9211 C   0  0  0  0  0  0
  -24.6395  -11.6922   20.8756 C   0  0  0  0  0  0
  -23.9075  -10.4296   21.0412 C   0  0  0  0  0  0
  -24.3625   -9.4210   21.9192 C   0  0  0  0  0  0
  -23.6299   -8.2244   22.0759 C   0  0  0  0  0  0
  -22.4279   -8.0289   21.3552 C   0  0  0  0  0  0
  -21.9922   -9.0256   20.4650 C   0  0  0  0  0  0
  -22.7248  -10.2135   20.3058 C   0  0  0  0  0  0
  -21.6853   -6.0745   22.5281 C   0  0  0  0  0  0
  -21.4010   -6.5644   23.8216 C   0  0  0  0  0  0
  -21.3659   -5.6792   24.9177 C   0  0  0  0  0  0
  -21.6043   -4.3054   24.7220 C   0  0  0  0  0  0
  -21.8821   -3.8153   23.4337 C   0  0  0  0  0  0
  -21.9189   -4.6974   22.3397 C   0  0  0  0  0  0
  -22.7819  -13.5220   21.1862 C   0  0  0  0  0  0
  -22.1662   -4.2164   21.0973 F   0  0  0  0  0  0
  -21.5628   -3.4533   25.7729 F   0  0  0  0  0  0
  -29.9808  -13.5275   20.3977 N   0  0  0  0  0  0
  -26.2920  -12.9415   20.3278 N   0  0  0  0  0  0
  -25.9324  -11.6555   20.5763 N   0  0  0  0  0  0
  -22.0462  -12.8215   22.0420 N   0  0  0  0  0  0
  -25.4161  -15.1935   20.4139 N   0  0  0  0  0  0
  -31.8086  -14.8115   20.1464 O   0  0  0  0  0  0
  -21.6639   -6.8887   21.4245 O   0  0  0  0  0  0
  -22.3507  -14.5524   20.6706 O   0  0  0  0  0  0
  -24.6310  -31.8555   23.1964 C   0  0  0  0  0  0
  -25.9128  -32.4760   23.8325 C   0  0  1  0  0  0
  -27.2221  -27.2580   20.1249 C   0  0  0  0  0  0
  -25.5929  -33.8561   24.2256 N   0  0  0  0  0  0
  -23.4275  -30.4775   21.5396 C   0  0  2  0  0  0
  -24.8744  -28.9228   20.1064 C   0  0  0  0  0  0
  -22.7496  -29.4608   22.4907 C   0  0  0  0  0  0
  -18.0289  -28.1389   22.8492 C   0  0  0  0  0  0
  -24.1486  -36.7285   23.2643 C   0  0  0  0  0  0
  -25.9723  -30.7679   21.3744 C   0  0  0  0  0  0
  -26.0433  -29.3880   20.7195 C   0  0  0  0  0  0
  -27.2145  -28.5658   20.7204 C   0  0  0  0  0  0
  -26.0252  -26.8556   19.4899 C   0  0  0  0  0  0
  -24.8715  -27.6657   19.4824 C   0  0  0  0  0  0
  -23.6451  -29.8101   20.1547 C   0  0  0  0  0  0
  -25.4113  -36.3069   24.0331 C   0  0  1  0  0  0
  -20.5894  -28.3696   23.1271 C   0  0  2  0  0  0
  -20.6784  -26.9415   22.5408 C   0  0  0  0  0  0
  -19.5753  -26.6384   21.5215 C   0  0  0  0  0  0
  -18.1931  -26.7935   22.1623 C   0  0  0  0  0  0
  -19.1544  -28.8858   23.2878 C   0  0  0  0  0  0
  -18.9463  -30.1459   23.8898 C   0  0  0  0  0  0
  -17.6465  -30.6592   24.0559 C   0  0  0  0  0  0
  -25.9049  -34.9445   23.5097 C   0  0  0  0  0  0
  -16.5356  -29.9090   23.6325 C   0  0  0  0  0  0
  -16.7273  -28.6503   23.0356 C   0  0  0  0  0  0
  -26.4494  -31.6583   25.0716 C   0  0  0  0  0  0
  -25.3708  -31.3732   26.1428 C   0  0  0  0  0  0
  -27.0345  -30.3011   24.6184 C   0  0  0  0  0  0
  -27.6054  -32.4309   25.7483 C   0  0  0  0  0  0
  -27.5572  -37.1805   24.8467 C   0  0  0  0  0  0
  -21.4201  -29.3051   22.3661 N   0  0  0  0  0  0
  -26.4285  -37.3770   23.9407 N   0  0  0  0  0  0
  -24.6963  -31.0522   22.0932 N   0  0  0  0  0  0
  -23.4204  -28.8151   23.3000 O   0  0  0  0  0  0
  -28.3389  -26.3937   20.2162 O   0  0  0  0  0  0
  -26.5619  -34.8926   22.4662 O   0  0  0  0  0  0
  -23.5456  -32.1361   23.7262 O   0  0  0  0  0  0
  -31.9457  -19.0817   20.9690 C   0  0  0  0  0  0
  -31.5665  -17.7288   20.8813 C   0  0  0  0  0  0
  -31.0147  -20.1383   20.8641 C   0  0  0  0  0  0
  -29.6396  -19.8667   20.6308 C   0  0  0  0  0  0
  -30.2219  -17.3465   20.6752 C   0  0  0  0  0  0
  -29.2730  -18.4495   20.5580 C   0  0  0  0  0  0
  -28.4199  -23.7006   20.4567 C   0  0  0  0  0  0
  -31.5369  -21.5512   21.0684 C   0  0  0  0  0  0
  -29.2649  -22.3503   18.5668 C   0  0  0  0  0  0
  -28.5702  -21.0657   20.5997 C   0  0  0  0  0  0
  -28.4418  -25.0405   19.5589 C   0  0  0  0  0  0
  -29.8520  -15.8988   20.6497 N   0  0  0  0  0  0
  -28.7972  -22.4467   19.9509 N   0  0  0  0  0  0
  -28.0168  -23.8054   21.6190 O   0  0  0  0  0  0
  -27.9662  -18.1322   20.3917 F   0  0  0  0  0  0
  -31.4683  -12.5714   19.1726 H   0  0  0  0  0  0
  -30.3656  -11.4825   19.9643 H   0  0  0  0  0  0
  -29.7912  -11.7228   17.5277 H   0  0  0  0  0  0
  -29.6326  -13.4518   17.7146 H   0  0  0  0  0  0
  -27.8962  -11.2783   18.9236 H   0  0  0  0  0  0
  -27.3735  -12.5075   17.8030 H   0  0  0  0  0  0
  -27.6293  -14.2516   19.4595 H   0  0  0  0  0  0
  -28.7191  -12.1853   21.4350 H   0  0  0  0  0  0
  -28.4156  -13.8689   21.7859 H   0  0  0  0  0  0
  -25.2770   -9.5681   22.4770 H   0  0  0  0  0  0
  -24.0004   -7.4631   22.7481 H   0  0  0  0  0  0
  -21.0855   -8.8773   19.8951 H   0  0  0  0  0  0
  -22.3712  -10.9674   19.6165 H   0  0  0  0  0  0
  -21.2005   -7.6153   23.9727 H   0  0  0  0  0  0
  -21.1481   -6.0519   25.9082 H   0  0  0  0  0  0
  -22.0602   -2.7617   23.2825 H   0  0  0  0  0  0
  -22.4072  -11.9861   22.4784 H   0  0  0  0  0  0
  -21.1087  -13.1257   22.2639 H   0  0  0  0  0  0
  -24.6441  -15.8400   20.5343 H   0  0  0  0  0  0
  -26.2592  -15.6466   20.0864 H   0  0  0  0  0  0
  -26.7200  -32.5411   23.1074 H   0  0  0  0  0  0
  -25.0115  -33.9708   25.0428 H   0  0  0  0  0  0
  -22.7247  -31.3002   21.3930 H   0  0  0  0  0  0
  -23.3756  -35.9607   23.3301 H   0  0  0  0  0  0
  -24.3580  -36.8904   22.2057 H   0  0  0  0  0  0
  -23.7232  -37.6490   23.6658 H   0  0  0  0  0  0
  -26.1094  -31.5256   20.6015 H   0  0  0  0  0  0
  -26.8518  -30.8207   22.0046 H   0  0  0  0  0  0
  -28.1081  -28.9180   21.2169 H   0  0  0  0  0  0
  -25.9326  -25.8899   19.0205 H   0  0  0  0  0  0
  -23.9725  -27.3028   19.0028 H   0  0  0  0  0  0
  -23.7699  -30.5861   19.3980 H   0  0  0  0  0  0
  -22.7621  -29.2454   19.8498 H   0  0  0  0  0  0
  -25.1298  -36.1920   25.0825 H   0  0  0  0  0  0
  -20.9991  -28.3263   24.1387 H   0  0  0  0  0  0
  -20.5688  -26.2304   23.3615 H   0  0  0  0  0  0
  -21.6650  -26.7445   22.1194 H   0  0  0  0  0  0
  -19.6913  -25.6291   21.1249 H   0  0  0  0  0  0
  -19.6687  -27.3192   20.6742 H   0  0  0  0  0  0
  -17.4207  -26.6682   21.4021 H   0  0  0  0  0  0
  -18.0318  -26.0084   22.9019 H   0  0  0  0  0  0
  -19.7939  -30.7270   24.2278 H   0  0  0  0  0  0
  -17.5016  -31.6274   24.5161 H   0  0  0  0  0  0
  -15.5356  -30.2995   23.7659 H   0  0  0  0  0  0
  -15.8667  -28.0820   22.7085 H   0  0  0  0  0  0
  -24.5904  -30.7054   25.7754 H   0  0  0  0  0  0
  -24.8879  -32.2908   26.4803 H   0  0  0  0  0  0
  -25.8027  -30.8950   27.0230 H   0  0  0  0  0  0
  -26.2931  -29.6761   24.1201 H   0  0  0  0  0  0
  -27.4049  -29.7259   25.4680 H   0  0  0  0  0  0
  -27.8789  -30.4317   23.9413 H   0  0  0  0  0  0
  -27.2686  -33.3635   26.2021 H   0  0  0  0  0  0
  -28.3893  -32.6822   25.0321 H   0  0  0  0  0  0
  -28.0690  -31.8451   26.5432 H   0  0  0  0  0  0
  -28.2598  -38.0092   24.7512 H   0  0  0  0  0  0
  -28.1062  -36.2636   24.6296 H   0  0  0  0  0  0
  -27.2298  -37.1455   25.8869 H   0  0  0  0  0  0
  -20.9372  -29.8791   21.6894 H   0  0  0  0  0  0
  -26.0169  -38.2847   24.1397 H   0  0  0  0  0  0
  -32.9886  -19.3038   21.1526 H   0  0  0  0  0  0
  -32.3442  -16.9914   21.0112 H   0  0  0  0  0  0
  -32.5232  -21.5450   21.5339 H   0  0  0  0  0  0
  -30.8831  -22.1236   21.7258 H   0  0  0  0  0  0
  -31.6292  -22.0722   20.1167 H   0  0  0  0  0  0
  -30.1653  -22.9459   18.4133 H   0  0  0  0  0  0
  -28.4996  -22.6999   17.8724 H   0  0  0  0  0  0
  -29.5066  -21.3252   18.2865 H   0  0  0  0  0  0
  -28.2783  -21.2257   21.6378 H   0  0  0  0  0  0
  -27.6740  -20.6633   20.1261 H   0  0  0  0  0  0
  -27.7416  -24.9217   18.7365 H   0  0  0  0  0  0
  -29.4168  -25.0601   19.0737 H   0  0  0  0  0  0
  -28.8650  -15.7237   20.7583 H   0  0  0  0  0  0
  1 25  1  0  0  0
  1 30  2  0  0  0
  1 82  1  0  0  0
  2  3  1  0  0  0
  2 25  1  0  0  0
  2 86  1  0  0  0
  2 87  1  0  0  0
  3  4  1  0  0  0
  3 88  1  0  0  0
  3 89  1  0  0  0
  4  5  1  0  0  0
  4 90  1  0  0  0
  4 91  1  0  0  0
  5  6  1  0  0  0
  5 26  1  0  0  0
  5 92  1  0  0  0
  6 25  1  0  0  0
  6 93  1  0  0  0
  6 94  1  0  0  0
  7  8  2  0  0  0
  7 26  1  0  0  0
  7 29  1  0  0  0
  8  9  1  0  0  0
  8 22  1  0  0  0
  9 10  1  0  0  0
  9 27  2  0  0  0
 10 11  2  0  0  0
 10 15  1  0  0  0
 11 12  1  0  0  0
 11 95  1  0  0  0
 12 13  2  0  0  0
 12 96  1  0  0  0
 13 14  1  0  0  0
 13 31  1  0  0  0
 14 15  2  0  0  0
 14 97  1  0  0  0
 15 98  1  0  0  0
 16 17  2  0  0  0
 16 21  1  0  0  0
 16 31  1  0  0  0
 17 18  1  0  0  0
 17 99  1  0  0  0
 18 19  2  0  0  0
 18100  1  0  0  0
 19 20  1  0  0  0
 19 24  1  0  0  0
 20 21  2  0  0  0
 20101  1  0  0  0
 21 23  1  0  0  0
 22 28  1  0  0  0
 22 32  2  0  0  0
 26 27  1  0  0  0
 28102  1  0  0  0
 28103  1  0  0  0
 29104  1  0  0  0
 29105  1  0  0  0
 33 34  1  0  0  0
 33 66  1  0  0  0
 33 70  2  0  0  0
 34 36  1  0  0  0
 34 59  1  0  0  0
 34106  1  0  0  0
 35 44  2  0  0  0
 35 45  1  0  0  0
 35 68  1  0  0  0
 36 56  1  0  0  0
 36107  1  0  0  0
 37 39  1  0  0  0
 37 47  1  0  0  0
 37 66  1  0  0  0
 37108  1  0  0  0
 38 43  2  0  0  0
 38 46  1  0  0  0
 38 47  1  0  0  0
 39 64  1  0  0  0
 39 67  2  0  0  0
 40 52  1  0  0  0
 40 53  2  0  0  0
 40 58  1  0  0  0
 41109  1  0  0  0
 41110  1  0  0  0
 41111  1  0  0  0
 41 48  1  0  0  0
 42 43  1  0  0  0
 42 66  1  0  0  0
 42112  1  0  0  0
 42113  1  0  0  0
 43 44  1  0  0  0
 44114  1  0  0  0
 45 46  2  0  0  0
 45115  1  0  0  0
 46116  1  0  0  0
 47117  1  0  0  0
 47118  1  0  0  0
 48 56  1  0  0  0
 48 65  1  0  0  0
 48119  1  0  0  0
 49 50  1  0  0  0
 49 53  1  0  0  0
 49 64  1  0  0  0
 49120  1  0  0  0
 50 51  1  0  0  0
 50121  1  0  0  0
 50122  1  0  0  0
 51 52  1  0  0  0
 51123  1  0  0  0
 51124  1  0  0  0
 52125  1  0  0  0
 52126  1  0  0  0
 53 54  1  0  0  0
 54 55  2  0  0  0
 54127  1  0  0  0
 55 57  1  0  0  0
 55128  1  0  0  0
 56 69  2  0  0  0
 57 58  2  0  0  0
 57129  1  0  0  0
 58130  1  0  0  0
 59 60  1  0  0  0
 59 61  1  0  0  0
 59 62  1  0  0  0
 60131  1  0  0  0
 60132  1  0  0  0
 60133  1  0  0  0
 61134  1  0  0  0
 61135  1  0  0  0
 61136  1  0  0  0
 62137  1  0  0  0
 62138  1  0  0  0
 62139  1  0  0  0
 63 65  1  0  0  0
 63140  1  0  0  0
 63141  1  0  0  0
 63142  1  0  0  0
 64143  1  0  0  0
 65144  1  0  0  0
 68 81  1  0  0  0
 71 72  2  0  0  0
 71 73  1  0  0  0
 71145  1  0  0  0
 72 75  1  0  0  0
 72146  1  0  0  0
 73 74  2  0  0  0
 73 78  1  0  0  0
 74 76  1  0  0  0
 74 80  1  0  0  0
 75 76  2  0  0  0
 75 82  1  0  0  0
 76 85  1  0  0  0
 77 81  1  0  0  0
 77 83  1  0  0  0
 77 84  2  0  0  0
 78147  1  0  0  0
 78148  1  0  0  0
 78149  1  0  0  0
 79 83  1  0  0  0
 79150  1  0  0  0
 79151  1  0  0  0
 79152  1  0  0  0
 80 83  1  0  0  0
 80153  1  0  0  0
 80154  1  0  0  0
 81155  1  0  0  0
 81156  1  0  0  0
 82157  1  0  0  0
M  ISO  4   1 100  68 101  81 101  82 100
M  END
> <chiral flag>
0

> <version>
0

> <s_m_source_file>
/data/baiqing/PycharmProjects/Reinvent-master-3.2/result/LINK_invent/BTK/process_docking_weight1_custom_product_contain_oxygen_bond_distance_aromatic_linkinvent_7_9_3/rearranged_h_0049.sdf

> <i_m_source_file_index>
81

> <r_mmod_Potential_Energy-OPLS-2005>
176.681945800781

> <r_mmod_Stretch_Energy-OPLS-2005>
138.445083618164

> <r_mmod_Bend_Energy-OPLS-2005>
177.823806762695

> <r_mmod_Torsional_Energy-OPLS-2005>
219.161590576172

> <r_mmod_Improper_Torsional_Energy-OPLS-2005>
5.9980583190918

> <r_mmod_Van_der_Waal_Energy-OPLS-2005>
145.040496826172

> <r_mmod_Electrostatic_Energy-OPLS-2005>
-371.623291015625

> <r_mmod_Solvation_Energy-OPLS-2005>
-223.869186401367

> <b_mmod_Minimization_Converged-OPLS-2005>
0

> <r_mmod_RMS_Derivative-OPLS-2005>
1.35492539405823

$$$$
81
                    3D
 Structure written by MMmdl.
162170  0  0  1  0            999 V2000
  -30.5216  -15.0539   20.3544 C   0  0  0  0  0  0
  -30.4362  -12.6431   19.5225 C   0  0  0  0  0  0
  -29.5229  -12.4492   18.2868 C   0  0  0  0  0  0
  -28.0557  -12.2682   18.7089 C   0  0  0  0  0  0
  -27.6194  -13.2501   19.8269 C   0  0  2  0  0  0
  -28.6584  -13.3586   20.9618 C   0  0  0  0  0  0
  -25.2429  -13.8221   20.5728 C   0  0  0  0  0  0
  -24.1746  -13.0437   20.9242 C   0  0  0  0  0  0
  -24.6367  -11.6920   20.8777 C   0  0  0  0  0  0
  -23.9061  -10.4282   21.0415 C   0  0  0  0  0  0
  -24.3620   -9.4191   21.9181 C   0  0  0  0  0  0
  -23.6303   -8.2222   22.0746 C   0  0  0  0  0  0
  -22.4283   -8.0264   21.3537 C   0  0  0  0  0  0
  -21.9907   -9.0238   20.4645 C   0  0  0  0  0  0
  -22.7234  -10.2124   20.3059 C   0  0  0  0  0  0
  -21.6848   -6.0722   22.5270 C   0  0  0  0  0  0
  -21.4013   -6.5628   23.8201 C   0  0  0  0  0  0
  -21.3664   -5.6789   24.9165 C   0  0  0  0  0  0
  -21.6054   -4.3052   24.7223 C   0  0  0  0  0  0
  -21.8818   -3.8135   23.4343 C   0  0  0  0  0  0
  -21.9189   -4.6948   22.3394 C   0  0  0  0  0  0
  -22.7765  -13.5208   21.1890 C   0  0  0  0  0  0
  -22.1657   -4.2131   21.0971 F   0  0  0  0  0  0
  -21.5639   -3.4544   25.7736 F   0  0  0  0  0  0
  -29.9181  -13.7869   20.3423 N   0  0  0  0  0  0
  -26.2837  -12.9458   20.3256 N   0  0  0  0  0  0
  -25.9306  -11.6592   20.5816 N   0  0  0  0  0  0
  -22.0421  -12.8195   22.0452 N   0  0  0  0  0  0
  -25.4124  -15.1940   20.4096 N   0  0  0  0  0  0
  -31.7413  -15.0550   20.1441 O   0  0  0  0  0  0
  -21.6639   -6.8866   21.4229 O   0  0  0  0  0  0
  -22.3437  -14.5505   20.6725 O   0  0  0  0  0  0
  -24.6482  -31.8384   23.1838 C   0  0  0  0  0  0
  -25.9230  -32.4661   23.8244 C   0  0  1  0  0  0
  -27.2120  -27.0751   20.1690 C   0  0  0  0  0  0
  -25.5958  -33.8473   24.2148 N   0  0  0  0  0  0
  -23.4550  -30.4551   21.5301 C   0  0  2  0  0  0
  -24.9059  -28.8725   20.1076 C   0  0  0  0  0  0
  -22.7592  -29.4507   22.4834 C   0  0  0  0  0  0
  -18.0313  -28.1402   22.8485 C   0  0  0  0  0  0
  -24.1494  -36.7241   23.2642 C   0  0  0  0  0  0
  -26.0145  -30.6914   21.3941 C   0  0  0  0  0  0
  -26.0826  -29.2971   20.7362 C   0  0  0  0  0  0
  -27.2334  -28.4141   20.7501 C   0  0  0  0  0  0
  -26.0163  -26.7712   19.4829 C   0  0  0  0  0  0
  -24.8903  -27.6265   19.4620 C   0  0  0  0  0  0
  -23.6855  -29.7819   20.1500 C   0  0  0  0  0  0
  -25.4130  -36.3006   24.0301 C   0  0  1  0  0  0
  -20.5928  -28.3727   23.1236 C   0  0  2  0  0  0
  -20.6792  -26.9421   22.5418 C   0  0  0  0  0  0
  -19.5766  -26.6378   21.5227 C   0  0  0  0  0  0
  -18.1945  -26.7941   22.1630 C   0  0  0  0  0  0
  -19.1571  -28.8884   23.2849 C   0  0  0  0  0  0
  -18.9477  -30.1481   23.8870 C   0  0  0  0  0  0
  -17.6471  -30.6597   24.0561 C   0  0  0  0  0  0
  -25.9084  -34.9387   23.5034 C   0  0  0  0  0  0
  -16.5365  -29.9084   23.6342 C   0  0  0  0  0  0
  -16.7296  -28.6507   23.0357 C   0  0  0  0  0  0
  -26.4528  -31.6565   25.0723 C   0  0  0  0  0  0
  -25.3687  -31.3788   26.1401 C   0  0  0  0  0  0
  -27.0393  -30.2946   24.6360 C   0  0  0  0  0  0
  -27.6044  -32.4350   25.7512 C   0  0  0  0  0  0
  -27.5575  -37.1777   24.8457 C   0  0  0  0  0  0
  -21.4277  -29.3035   22.3592 N   0  0  0  0  0  0
  -26.4280  -37.3732   23.9401 N   0  0  0  0  0  0
  -24.7259  -31.0182   22.0904 N   0  0  0  0  0  0
  -23.4211  -28.8056   23.3004 O   0  0  0  0  0  0
  -28.2471  -26.0578   20.2807 O   0  0  0  0  0  0
  -26.5679  -34.8896   22.4617 O   0  0  0  0  0  0
  -23.5586  -32.1277   23.7032 O   0  0  0  0  0  0
  -30.6655  -19.9003   18.7119 C   0  0  0  0  0  0
  -31.2728  -19.3719   17.5750 C   0  0  0  0  0  0
  -29.8964  -19.1487   19.6482 C   0  0  0  0  0  0
  -30.3592  -17.2106   18.1472 C   0  0  0  0  0  0
  -29.9966  -17.6013   19.4916 C   0  0  0  0  0  0
  -31.0471  -18.0466   17.2539 C   0  0  0  0  0  0
  -29.2380  -20.3005   20.5594 C   0  0  0  0  0  0
  -29.9536  -15.8837   17.5220 C   0  0  0  0  0  0
  -28.1561  -23.0582   22.1521 C   0  0  0  0  0  0
  -30.2742  -23.6415   20.9803 C   0  0  0  0  0  0
  -28.0640  -24.5078   19.9948 C   0  0  0  0  0  0
  -28.8238  -23.1705   20.7691 C   0  0  0  0  0  0
  -29.0209  -20.0163   21.8386 N   0  0  0  0  0  0
  -29.7852  -16.3095   20.3556 N   0  0  0  0  0  0
  -28.9566  -21.6731   20.1432 N   0  3  0  0  0  0
  -31.4848  -17.5720   16.0604 F   0  0  0  0  0  0
  -31.4643  -12.8026   19.1950 H   0  0  0  0  0  0
  -30.4614  -11.7310   20.1211 H   0  0  0  0  0  0
  -29.8517  -11.5740   17.7241 H   0  0  0  0  0  0
  -29.6084  -13.2821   17.5976 H   0  0  0  0  0  0
  -27.9627  -11.2455   19.0753 H   0  0  0  0  0  0
  -27.3916  -12.3440   17.8468 H   0  0  0  0  0  0
  -27.5606  -14.2282   19.3503 H   0  0  0  0  0  0
  -28.7716  -12.4100   21.4885 H   0  0  0  0  0  0
  -28.3395  -14.0924   21.7031 H   0  0  0  0  0  0
  -25.2757   -9.5683   22.4754 H   0  0  0  0  0  0
  -24.0009   -7.4617   22.7470 H   0  0  0  0  0  0
  -21.0832   -8.8762   19.8955 H   0  0  0  0  0  0
  -22.3679  -10.9665   19.6176 H   0  0  0  0  0  0
  -21.1999   -7.6133   23.9707 H   0  0  0  0  0  0
  -21.1498   -6.0508   25.9074 H   0  0  0  0  0  0
  -22.0596   -2.7593   23.2840 H   0  0  0  0  0  0
  -22.4051  -11.9867   22.4837 H   0  0  0  0  0  0
  -21.1043  -13.1206   22.2681 H   0  0  0  0  0  0
  -24.6450  -15.8495   20.5152 H   0  0  0  0  0  0
  -26.2601  -15.6286   20.0689 H   0  0  0  0  0  0
  -26.7292  -32.5235   23.0966 H   0  0  0  0  0  0
  -25.0075  -33.9586   25.0272 H   0  0  0  0  0  0
  -22.7600  -31.2821   21.3724 H   0  0  0  0  0  0
  -23.3762  -35.9566   23.3285 H   0  0  0  0  0  0
  -24.3574  -36.8902   22.2059 H   0  0  0  0  0  0
  -23.7247  -37.6424   23.6706 H   0  0  0  0  0  0
  -26.1801  -31.4423   20.6203 H   0  0  0  0  0  0
  -26.8807  -30.7407   22.0423 H   0  0  0  0  0  0
  -28.1242  -28.7311   21.2742 H   0  0  0  0  0  0
  -25.9144  -25.8236   18.9759 H   0  0  0  0  0  0
  -23.9957  -27.3011   18.9489 H   0  0  0  0  0  0
  -23.8273  -30.5551   19.3941 H   0  0  0  0  0  0
  -22.7991  -29.2275   19.8379 H   0  0  0  0  0  0
  -25.1325  -36.1820   25.0792 H   0  0  0  0  0  0
  -21.0026  -28.3322   24.1356 H   0  0  0  0  0  0
  -20.5697  -26.2328   23.3637 H   0  0  0  0  0  0
  -21.6652  -26.7423   22.1206 H   0  0  0  0  0  0
  -19.6920  -25.6281   21.1272 H   0  0  0  0  0  0
  -19.6713  -27.3175   20.6746 H   0  0  0  0  0  0
  -17.4217  -26.6704   21.4024 H   0  0  0  0  0  0
  -18.0329  -26.0089   22.9032 H   0  0  0  0  0  0
  -19.7944  -30.7317   24.2219 H   0  0  0  0  0  0
  -17.5014  -31.6271   24.5166 H   0  0  0  0  0  0
  -15.5358  -30.2968   23.7686 H   0  0  0  0  0  0
  -15.8695  -28.0816   22.7075 H   0  0  0  0  0  0
  -24.5879  -30.7124   25.7718 H   0  0  0  0  0  0
  -24.8862  -32.2982   26.4726 H   0  0  0  0  0  0
  -25.7945  -30.9024   27.0240 H   0  0  0  0  0  0
  -26.3023  -29.6669   24.1340 H   0  0  0  0  0  0
  -27.3934  -29.7260   25.4967 H   0  0  0  0  0  0
  -27.8966  -30.4150   23.9734 H   0  0  0  0  0  0
  -27.2621  -33.3670   26.2020 H   0  0  0  0  0  0
  -28.3892  -32.6884   25.0373 H   0  0  0  0  0  0
  -28.0675  -31.8529   26.5488 H   0  0  0  0  0  0
  -28.2569  -38.0094   24.7509 H   0  0  0  0  0  0
  -28.1092  -36.2621   24.6275 H   0  0  0  0  0  0
  -27.2293  -37.1409   25.8860 H   0  0  0  0  0  0
  -20.9499  -29.8724   21.6746 H   0  0  0  0  0  0
  -26.0140  -38.2789   24.1424 H   0  0  0  0  0  0
  -30.8226  -20.9645   18.8119 H   0  0  0  0  0  0
  -31.8179  -20.0072   16.8931 H   0  0  0  0  0  0
  -29.0889  -15.4469   18.0161 H   0  0  0  0  0  0
  -30.7931  -15.1895   17.5217 H   0  0  0  0  0  0
  -29.6489  -16.0227   16.4838 H   0  0  0  0  0  0
  -28.0109  -24.0454   22.5935 H   0  0  0  0  0  0
  -28.7600  -22.4906   22.8591 H   0  0  0  0  0  0
  -27.1736  -22.5897   22.0796 H   0  0  0  0  0  0
  -30.3227  -24.4852   21.6699 H   0  0  0  0  0  0
  -30.7214  -23.9687   20.0416 H   0  0  0  0  0  0
  -30.9070  -22.8529   21.3861 H   0  0  0  0  0  0
  -26.9994  -24.3084   20.1061 H   0  0  0  0  0  0
  -28.2408  -24.3931   18.9258 H   0  0  0  0  0  0
  -29.2423  -19.0975   22.1915 H   0  0  0  0  0  0
  -28.5918  -20.6858   22.4541 H   0  0  0  0  0  0
  -28.8726  -16.2396   20.7808 H   0  0  0  0  0  0
  -29.0032  -21.7346   19.1325 H   0  0  0  0  0  0
  1 25  1  0  0  0
  1 30  2  0  0  0
  1 84  1  0  0  0
  2  3  1  0  0  0
  2 25  1  0  0  0
  2 87  1  0  0  0
  2 88  1  0  0  0
  3  4  1  0  0  0
  3 89  1  0  0  0
  3 90  1  0  0  0
  4  5  1  0  0  0
  4 91  1  0  0  0
  4 92  1  0  0  0
  5  6  1  0  0  0
  5 26  1  0  0  0
  5 93  1  0  0  0
  6 25  1  0  0  0
  6 94  1  0  0  0
  6 95  1  0  0  0
  7  8  2  0  0  0
  7 26  1  0  0  0
  7 29  1  0  0  0
  8  9  1  0  0  0
  8 22  1  0  0  0
  9 10  1  0  0  0
  9 27  2  0  0  0
 10 11  2  0  0  0
 10 15  1  0  0  0
 11 12  1  0  0  0
 11 96  1  0  0  0
 12 13  2  0  0  0
 12 97  1  0  0  0
 13 14  1  0  0  0
 13 31  1  0  0  0
 14 15  2  0  0  0
 14 98  1  0  0  0
 15 99  1  0  0  0
 16 17  2  0  0  0
 16 21  1  0  0  0
 16 31  1  0  0  0
 17 18  1  0  0  0
 17100  1  0  0  0
 18 19  2  0  0  0
 18101  1  0  0  0
 19 20  1  0  0  0
 19 24  1  0  0  0
 20 21  2  0  0  0
 20102  1  0  0  0
 21 23  1  0  0  0
 22 28  1  0  0  0
 22 32  2  0  0  0
 26 27  1  0  0  0
 28103  1  0  0  0
 28104  1  0  0  0
 29105  1  0  0  0
 29106  1  0  0  0
 33 34  1  0  0  0
 33 66  1  0  0  0
 33 70  2  0  0  0
 34 36  1  0  0  0
 34 59  1  0  0  0
 34107  1  0  0  0
 35 44  2  0  0  0
 35 45  1  0  0  0
 35 68  1  0  0  0
 36 56  1  0  0  0
 36108  1  0  0  0
 37 39  1  0  0  0
 37 47  1  0  0  0
 37 66  1  0  0  0
 37109  1  0  0  0
 38 43  2  0  0  0
 38 46  1  0  0  0
 38 47  1  0  0  0
 39 64  1  0  0  0
 39 67  2  0  0  0
 40 52  1  0  0  0
 40 53  2  0  0  0
 40 58  1  0  0  0
 41110  1  0  0  0
 41111  1  0  0  0
 41112  1  0  0  0
 41 48  1  0  0  0
 42 43  1  0  0  0
 42 66  1  0  0  0
 42113  1  0  0  0
 42114  1  0  0  0
 43 44  1  0  0  0
 44115  1  0  0  0
 45 46  2  0  0  0
 45116  1  0  0  0
 46117  1  0  0  0
 47118  1  0  0  0
 47119  1  0  0  0
 48 56  1  0  0  0
 48 65  1  0  0  0
 48120  1  0  0  0
 49 50  1  0  0  0
 49 53  1  0  0  0
 49 64  1  0  0  0
 49121  1  0  0  0
 50 51  1  0  0  0
 50122  1  0  0  0
 50123  1  0  0  0
 51 52  1  0  0  0
 51124  1  0  0  0
 51125  1  0  0  0
 52126  1  0  0  0
 52127  1  0  0  0
 53 54  1  0  0  0
 54 55  2  0  0  0
 54128  1  0  0  0
 55 57  1  0  0  0
 55129  1  0  0  0
 56 69  2  0  0  0
 57 58  2  0  0  0
 57130  1  0  0  0
 58131  1  0  0  0
 59 60  1  0  0  0
 59 61  1  0  0  0
 59 62  1  0  0  0
 60132  1  0  0  0
 60133  1  0  0  0
 60134  1  0  0  0
 61135  1  0  0  0
 61136  1  0  0  0
 61137  1  0  0  0
 62138  1  0  0  0
 62139  1  0  0  0
 62140  1  0  0  0
 63 65  1  0  0  0
 63141  1  0  0  0
 63142  1  0  0  0
 63143  1  0  0  0
 64144  1  0  0  0
 65145  1  0  0  0
 68 81  1  0  0  0
 71 72  2  0  0  0
 71 73  1  0  0  0
 71146  1  0  0  0
 72 76  1  0  0  0
 72147  1  0  0  0
 73 75  2  0  0  0
 73 77  1  0  0  0
 74 75  1  0  0  0
 74 76  2  0  0  0
 74 78  1  0  0  0
 75 84  1  0  0  0
 76 86  1  0  0  0
 77 83  1  0  0  0
 77 85  2  0  0  0
 78148  1  0  0  0
 78149  1  0  0  0
 78150  1  0  0  0
 79151  1  0  0  0
 79152  1  0  0  0
 79153  1  0  0  0
 79 82  1  0  0  0
 80 82  1  0  0  0
 80154  1  0  0  0
 80155  1  0  0  0
 80156  1  0  0  0
 81 82  1  0  0  0
 81157  1  0  0  0
 81158  1  0  0  0
 82 85  1  0  0  0
 83159  1  0  0  0
 83160  1  0  0  0
 84161  1  0  0  0
 85162  1  0  0  0
M  CHG  1  85   1
M  ISO  4   1 100  68 101  81 101  84 100
M  END
> <chiral flag>
0

> <version>
0

> <s_m_source_file>
/data/baiqing/PycharmProjects/Reinvent-master-3.2/result/LINK_invent/BTK/process_docking_weight1_custom_product_contain_oxygen_bond_distance_aromatic_linkinvent_7_9_3/rearranged_h_0049.sdf

> <i_m_source_file_index>
82

> <r_mmod_Potential_Energy-OPLS-2005>
775.597839355469

> <r_mmod_Stretch_Energy-OPLS-2005>
386.271392822266

> <r_mmod_Bend_Energy-OPLS-2005>
377.594818115234

> <r_mmod_Torsional_Energy-OPLS-2005>
309.508697509766

> <r_mmod_Improper_Torsional_Energy-OPLS-2005>
7.49113655090332

> <r_mmod_Van_der_Waal_Energy-OPLS-2005>
155.985473632812

> <r_mmod_Electrostatic_Energy-OPLS-2005>
-304.224731445312

> <r_mmod_Solvation_Energy-OPLS-2005>
-425.926818847656

> <b_mmod_Minimization_Converged-OPLS-2005>
0

> <r_mmod_RMS_Derivative-OPLS-2005>
1.9026837348938

$$$$
82
                    3D
 Structure written by MMmdl.
158166  0  0  1  0            999 V2000
  -30.7269  -14.5484   20.5222 C   0  0  0  0  0  0
  -30.4042  -12.3338   19.4605 C   0  0  0  0  0  0
  -29.5026  -12.5084   18.2231 C   0  0  0  0  0  0
  -28.0176  -12.3828   18.6218 C   0  0  0  0  0  0
  -27.6521  -13.2399   19.8621 C   0  0  2  0  0  0
  -28.6947  -13.0934   20.9937 C   0  0  0  0  0  0
  -25.2554  -13.8252   20.5697 C   0  0  0  0  0  0
  -24.1808  -13.0446   20.9159 C   0  0  0  0  0  0
  -24.6416  -11.6947   20.8672 C   0  0  0  0  0  0
  -23.9050  -10.4292   21.0315 C   0  0  0  0  0  0
  -24.3593   -9.4233   21.9102 C   0  0  0  0  0  0
  -23.6280   -8.2268   22.0705 C   0  0  0  0  0  0
  -22.4260   -8.0268   21.3510 C   0  0  0  0  0  0
  -21.9878   -9.0245   20.4632 C   0  0  0  0  0  0
  -22.7200  -10.2115   20.3007 C   0  0  0  0  0  0
  -21.6865   -6.0728   22.5272 C   0  0  0  0  0  0
  -21.4042   -6.5635   23.8198 C   0  0  0  0  0  0
  -21.3675   -5.6795   24.9169 C   0  0  0  0  0  0
  -21.6058   -4.3056   24.7236 C   0  0  0  0  0  0
  -21.8829   -3.8133   23.4353 C   0  0  0  0  0  0
  -21.9199   -4.6958   22.3407 C   0  0  0  0  0  0
  -22.7829  -13.5190   21.1898 C   0  0  0  0  0  0
  -22.1639   -4.2127   21.0991 F   0  0  0  0  0  0
  -21.5639   -3.4547   25.7762 F   0  0  0  0  0  0
  -30.0265  -13.3763   20.4351 N   0  0  0  0  0  0
  -26.2990  -12.9472   20.3301 N   0  0  0  0  0  0
  -25.9342  -11.6593   20.5660 N   0  0  0  0  0  0
  -22.0514  -12.8110   22.0503 N   0  0  0  0  0  0
  -25.4307  -15.1979   20.4208 N   0  0  0  0  0  0
  -31.8925  -14.6267   20.1228 O   0  0  0  0  0  0
  -21.6649   -6.8862   21.4235 O   0  0  0  0  0  0
  -22.3428  -14.5451   20.6754 O   0  0  0  0  0  0
  -24.6135  -31.8627   23.2099 C   0  0  0  0  0  0
  -25.9021  -32.4818   23.8383 C   0  0  1  0  0  0
  -27.2566  -27.3875   20.1393 C   0  0  0  0  0  0
  -25.5903  -33.8623   24.2273 N   0  0  0  0  0  0
  -23.4014  -30.4828   21.5498 C   0  0  2  0  0  0
  -24.8544  -28.9366   20.1091 C   0  0  0  0  0  0
  -22.7372  -29.4623   22.4989 C   0  0  0  0  0  0
  -18.0263  -28.1403   22.8477 C   0  0  0  0  0  0
  -24.1494  -36.7287   23.2634 C   0  0  0  0  0  0
  -25.9304  -30.8164   21.3665 C   0  0  0  0  0  0
  -26.0090  -29.4472   20.7099 C   0  0  0  0  0  0
  -27.2019  -28.6829   20.7131 C   0  0  0  0  0  0
  -26.0771  -26.8869   19.5453 C   0  0  0  0  0  0
  -24.8876  -27.6561   19.5165 C   0  0  0  0  0  0
  -23.6068  -29.8021   20.1675 C   0  0  0  0  0  0
  -25.4124  -36.3088   24.0317 C   0  0  1  0  0  0
  -20.5840  -28.3652   23.1356 C   0  0  2  0  0  0
  -20.6775  -26.9391   22.5448 C   0  0  0  0  0  0
  -19.5786  -26.6382   21.5235 C   0  0  0  0  0  0
  -18.1937  -26.7962   22.1593 C   0  0  0  0  0  0
  -19.1496  -28.8839   23.2918 C   0  0  0  0  0  0
  -18.9459  -30.1453   23.8915 C   0  0  0  0  0  0
  -17.6476  -30.6616   24.0571 C   0  0  0  0  0  0
  -25.9041  -34.9465   23.5066 C   0  0  0  0  0  0
  -16.5360  -29.9099   23.6389 C   0  0  0  0  0  0
  -16.7252  -28.6521   23.0373 C   0  0  0  0  0  0
  -26.4474  -31.6657   25.0735 C   0  0  0  0  0  0
  -25.3777  -31.3837   26.1529 C   0  0  0  0  0  0
  -27.0273  -30.3084   24.6147 C   0  0  0  0  0  0
  -27.6055  -32.4389   25.7472 C   0  0  0  0  0  0
  -27.5579  -37.1791   24.8455 C   0  0  0  0  0  0
  -21.4079  -29.2994   22.3710 N   0  0  0  0  0  0
  -26.4283  -37.3794   23.9411 N   0  0  0  0  0  0
  -24.6682  -31.0663   22.1037 N   0  0  0  0  0  0
  -23.4122  -28.8167   23.3052 O   0  0  0  0  0  0
  -28.4621  -26.6909   20.2241 O   0  0  0  0  0  0
  -26.5569  -34.8919   22.4609 O   0  0  0  0  0  0
  -23.5338  -32.1373   23.7505 O   0  0  0  0  0  0
  -30.3850  -17.1335   18.9737 C   0  0  0  0  0  0
  -30.5501  -18.3812   18.3627 C   0  0  0  0  0  0
  -30.3288  -18.2248   21.1645 C   0  0  0  0  0  0
  -30.4490  -19.5264   20.5316 C   0  0  0  0  0  0
  -30.2797  -17.0121   20.3781 C   0  0  0  0  0  0
  -30.5861  -19.5598   19.1202 C   0  0  0  0  0  0
  -28.7355  -24.2079   20.7234 C   0  0  0  0  0  0
  -29.4211  -23.0233   20.5825 C   0  0  0  0  0  0
  -28.7354  -21.8146   22.5717 C   0  0  0  0  0  0
  -30.3307  -18.1271   22.6882 C   0  0  0  0  0  0
  -30.6311  -20.8781   21.3087 C   0  0  0  0  0  0
  -28.7001  -25.3635   19.6846 C   0  0  0  0  0  0
  -30.0673  -15.6744   20.9173 N   0  0  0  0  0  0
  -29.5129  -21.8869   21.4628 N   0  0  0  0  0  0
  -28.8422  -20.9619   23.4598 O   0  0  0  0  0  0
  -30.9066  -21.0167   18.2523 Cl  0  0  0  0  0  0
  -31.4566  -12.3701   19.1780 H   0  0  0  0  0  0
  -30.2496  -11.3460   19.8947 H   0  0  0  0  0  0
  -29.7460  -11.7748   17.4549 H   0  0  0  0  0  0
  -29.6911  -13.4850   17.7784 H   0  0  0  0  0  0
  -27.8191  -11.3322   18.8339 H   0  0  0  0  0  0
  -27.3752  -12.6520   17.7848 H   0  0  0  0  0  0
  -27.6712  -14.2784   19.5311 H   0  0  0  0  0  0
  -28.6666  -12.0828   21.4058 H   0  0  0  0  0  0
  -28.4603  -13.7628   21.8206 H   0  0  0  0  0  0
  -25.2740   -9.5748   22.4682 H   0  0  0  0  0  0
  -24.0031   -7.4682   22.7417 H   0  0  0  0  0  0
  -21.0792   -8.8755   19.8953 H   0  0  0  0  0  0
  -22.3617  -10.9656   19.6130 H   0  0  0  0  0  0
  -21.2027   -7.6140   23.9724 H   0  0  0  0  0  0
  -21.1473   -6.0501   25.9068 H   0  0  0  0  0  0
  -22.0586   -2.7606   23.2870 H   0  0  0  0  0  0
  -22.4080  -11.9717   22.4839 H   0  0  0  0  0  0
  -21.1204  -13.1214   22.2895 H   0  0  0  0  0  0
  -24.6851  -15.8744   20.5472 H   0  0  0  0  0  0
  -26.3085  -15.6307   20.1665 H   0  0  0  0  0  0
  -26.7025  -32.5507   23.1095 H   0  0  0  0  0  0
  -25.0209  -33.9840   25.0510 H   0  0  0  0  0  0
  -22.6950  -31.3047   21.4187 H   0  0  0  0  0  0
  -23.3770  -35.9607   23.3307 H   0  0  0  0  0  0
  -24.3567  -36.8904   22.2043 H   0  0  0  0  0  0
  -23.7240  -37.6484   23.6666 H   0  0  0  0  0  0
  -26.0384  -31.5883   20.6034 H   0  0  0  0  0  0
  -26.8192  -30.8732   21.9825 H   0  0  0  0  0  0
  -28.0897  -29.0723   21.1877 H   0  0  0  0  0  0
  -26.0603  -25.8890   19.1373 H   0  0  0  0  0  0
  -23.9918  -27.2498   19.0642 H   0  0  0  0  0  0
  -23.6868  -30.5817   19.4091 H   0  0  0  0  0  0
  -22.7353  -29.2102   19.8849 H   0  0  0  0  0  0
  -25.1326  -36.1935   25.0818 H   0  0  0  0  0  0
  -20.9947  -28.3241   24.1482 H   0  0  0  0  0  0
  -20.5753  -26.2232   23.3601 H   0  0  0  0  0  0
  -21.6652  -26.7512   22.1212 H   0  0  0  0  0  0
  -19.6974  -25.6291   21.1261 H   0  0  0  0  0  0
  -19.6816  -27.3199   20.6781 H   0  0  0  0  0  0
  -17.4245  -26.6731   21.3949 H   0  0  0  0  0  0
  -18.0305  -26.0092   22.8967 H   0  0  0  0  0  0
  -19.7936  -30.7261   24.2281 H   0  0  0  0  0  0
  -17.5047  -31.6338   24.5117 H   0  0  0  0  0  0
  -15.5356  -30.3027   23.7779 H   0  0  0  0  0  0
  -15.8617  -28.0887   22.7100 H   0  0  0  0  0  0
  -24.5984  -30.7100   25.7959 H   0  0  0  0  0  0
  -24.8930  -32.3023   26.4864 H   0  0  0  0  0  0
  -25.8189  -30.9167   27.0343 H   0  0  0  0  0  0
  -26.2793  -29.6867   24.1204 H   0  0  0  0  0  0
  -27.4013  -29.7345   25.4631 H   0  0  0  0  0  0
  -27.8654  -30.4379   23.9289 H   0  0  0  0  0  0
  -27.2694  -33.3725   26.2002 H   0  0  0  0  0  0
  -28.3896  -32.6887   25.0313 H   0  0  0  0  0  0
  -28.0669  -31.8537   26.5440 H   0  0  0  0  0  0
  -28.2620  -38.0067   24.7495 H   0  0  0  0  0  0
  -28.1058  -36.2603   24.6300 H   0  0  0  0  0  0
  -27.2291  -37.1453   25.8856 H   0  0  0  0  0  0
  -20.9219  -29.8598   21.6832 H   0  0  0  0  0  0
  -26.0162  -38.2851   24.1499 H   0  0  0  0  0  0
  -30.3553  -16.2640   18.3336 H   0  0  0  0  0  0
  -30.6736  -18.4334   17.2900 H   0  0  0  0  0  0
  -28.1615  -24.4159   21.6150 H   0  0  0  0  0  0
  -29.9964  -22.8776   19.6857 H   0  0  0  0  0  0
  -28.0025  -22.6310   22.6312 H   0  0  0  0  0  0
  -30.3726  -17.0966   23.0494 H   0  0  0  0  0  0
  -31.2012  -18.6273   23.1147 H   0  0  0  0  0  0
  -29.4415  -18.5822   23.1159 H   0  0  0  0  0  0
  -31.4864  -21.3710   20.8467 H   0  0  0  0  0  0
  -31.0497  -20.6712   22.2916 H   0  0  0  0  0  0
  -28.0675  -25.1268   18.8299 H   0  0  0  0  0  0
  -29.7075  -25.4219   19.2675 H   0  0  0  0  0  0
  -29.1889  -15.5236   21.3902 H   0  0  0  0  0  0
  1 25  1  0  0  0
  1 30  2  0  0  0
  1 83  1  0  0  0
  2  3  1  0  0  0
  2 25  1  0  0  0
  2 87  1  0  0  0
  2 88  1  0  0  0
  3  4  1  0  0  0
  3 89  1  0  0  0
  3 90  1  0  0  0
  4  5  1  0  0  0
  4 91  1  0  0  0
  4 92  1  0  0  0
  5  6  1  0  0  0
  5 26  1  0  0  0
  5 93  1  0  0  0
  6 25  1  0  0  0
  6 94  1  0  0  0
  6 95  1  0  0  0
  7  8  2  0  0  0
  7 26  1  0  0  0
  7 29  1  0  0  0
  8  9  1  0  0  0
  8 22  1  0  0  0
  9 10  1  0  0  0
  9 27  2  0  0  0
 10 11  2  0  0  0
 10 15  1  0  0  0
 11 12  1  0  0  0
 11 96  1  0  0  0
 12 13  2  0  0  0
 12 97  1  0  0  0
 13 14  1  0  0  0
 13 31  1  0  0  0
 14 15  2  0  0  0
 14 98  1  0  0  0
 15 99  1  0  0  0
 16 17  2  0  0  0
 16 21  1  0  0  0
 16 31  1  0  0  0
 17 18  1  0  0  0
 17100  1  0  0  0
 18 19  2  0  0  0
 18101  1  0  0  0
 19 20  1  0  0  0
 19 24  1  0  0  0
 20 21  2  0  0  0
 20102  1  0  0  0
 21 23  1  0  0  0
 22 28  1  0  0  0
 22 32  2  0  0  0
 26 27  1  0  0  0
 28103  1  0  0  0
 28104  1  0  0  0
 29105  1  0  0  0
 29106  1  0  0  0
 33 34  1  0  0  0
 33 66  1  0  0  0
 33 70  2  0  0  0
 34 36  1  0  0  0
 34 59  1  0  0  0
 34107  1  0  0  0
 35 44  2  0  0  0
 35 45  1  0  0  0
 35 68  1  0  0  0
 36 56  1  0  0  0
 36108  1  0  0  0
 37 39  1  0  0  0
 37 47  1  0  0  0
 37 66  1  0  0  0
 37109  1  0  0  0
 38 43  2  0  0  0
 38 46  1  0  0  0
 38 47  1  0  0  0
 39 64  1  0  0  0
 39 67  2  0  0  0
 40 52  1  0  0  0
 40 53  2  0  0  0
 40 58  1  0  0  0
 41110  1  0  0  0
 41111  1  0  0  0
 41112  1  0  0  0
 41 48  1  0  0  0
 42 43  1  0  0  0
 42 66  1  0  0  0
 42113  1  0  0  0
 42114  1  0  0  0
 43 44  1  0  0  0
 44115  1  0  0  0
 45 46  2  0  0  0
 45116  1  0  0  0
 46117  1  0  0  0
 47118  1  0  0  0
 47119  1  0  0  0
 48 56  1  0  0  0
 48 65  1  0  0  0
 48120  1  0  0  0
 49 50  1  0  0  0
 49 53  1  0  0  0
 49 64  1  0  0  0
 49121  1  0  0  0
 50 51  1  0  0  0
 50122  1  0  0  0
 50123  1  0  0  0
 51 52  1  0  0  0
 51124  1  0  0  0
 51125  1  0  0  0
 52126  1  0  0  0
 52127  1  0  0  0
 53 54  1  0  0  0
 54 55  2  0  0  0
 54128  1  0  0  0
 55 57  1  0  0  0
 55129  1  0  0  0
 56 69  2  0  0  0
 57 58  2  0  0  0
 57130  1  0  0  0
 58131  1  0  0  0
 59 60  1  0  0  0
 59 61  1  0  0  0
 59 62  1  0  0  0
 60132  1  0  0  0
 60133  1  0  0  0
 60134  1  0  0  0
 61135  1  0  0  0
 61136  1  0  0  0
 61137  1  0  0  0
 62138  1  0  0  0
 62139  1  0  0  0
 62140  1  0  0  0
 63 65  1  0  0  0
 63141  1  0  0  0
 63142  1  0  0  0
 63143  1  0  0  0
 64144  1  0  0  0
 65145  1  0  0  0
 68 82  1  0  0  0
 71 72  2  0  0  0
 71 75  1  0  0  0
 71146  1  0  0  0
 72 76  1  0  0  0
 72147  1  0  0  0
 73 74  1  0  0  0
 73 75  2  0  0  0
 73 80  1  0  0  0
 74 76  2  0  0  0
 74 81  1  0  0  0
 75 83  1  0  0  0
 76 86  1  0  0  0
 77 78  2  0  0  0
 77 82  1  0  0  0
 77148  1  0  0  0
 78 84  1  0  0  0
 78149  1  0  0  0
 79 84  1  0  0  0
 79 85  2  0  0  0
 79150  1  0  0  0
 80151  1  0  0  0
 80152  1  0  0  0
 80153  1  0  0  0
 81 84  1  0  0  0
 81154  1  0  0  0
 81155  1  0  0  0
 82156  1  0  0  0
 82157  1  0  0  0
 83158  1  0  0  0
M  ISO  4   1 100  68 101  82 101  83 100
M  END
> <chiral flag>
0

> <version>
0

> <s_m_source_file>
/data/baiqing/PycharmProjects/Reinvent-master-3.2/result/LINK_invent/BTK/process_docking_weight1_custom_product_contain_oxygen_bond_distance_aromatic_linkinvent_7_9_3/rearranged_h_0049.sdf

> <i_m_source_file_index>
83

> <r_mmod_Potential_Energy-OPLS-2005>
79.0009689331055

> <r_mmod_Stretch_Energy-OPLS-2005>
75.6888580322266

> <r_mmod_Bend_Energy-OPLS-2005>
149.705764770508

> <r_mmod_Torsional_Energy-OPLS-2005>
237.403213500977

> <r_mmod_Improper_Torsional_Energy-OPLS-2005>
5.59514141082764

> <r_mmod_Van_der_Waal_Energy-OPLS-2005>
159.949905395508

> <r_mmod_Electrostatic_Energy-OPLS-2005>
-362.727844238281

> <r_mmod_Solvation_Energy-OPLS-2005>
-215.837524414062

> <b_mmod_Minimization_Converged-OPLS-2005>
0

> <r_mmod_RMS_Derivative-OPLS-2005>
7.37428760528564

$$$$
83
                    3D
 Structure written by MMmdl.
155163  0  0  1  0            999 V2000
  -30.7275  -14.4099   20.6307 C   0  0  0  0  0  0
  -30.4155  -12.2824   19.4183 C   0  0  0  0  0  0
  -29.4879  -12.5070   18.2066 C   0  0  0  0  0  0
  -28.0081  -12.3749   18.6148 C   0  0  0  0  0  0
  -27.6624  -13.2011   19.8815 C   0  0  2  0  0  0
  -28.6997  -12.9504   21.0003 C   0  0  0  0  0  0
  -25.2575  -13.8155   20.5671 C   0  0  0  0  0  0
  -24.1817  -13.0441   20.9147 C   0  0  0  0  0  0
  -24.6363  -11.6905   20.8710 C   0  0  0  0  0  0
  -23.9032  -10.4295   21.0383 C   0  0  0  0  0  0
  -24.3595   -9.4212   21.9162 C   0  0  0  0  0  0
  -23.6276   -8.2252   22.0754 C   0  0  0  0  0  0
  -22.4264   -8.0274   21.3544 C   0  0  0  0  0  0
  -21.9887   -9.0237   20.4635 C   0  0  0  0  0  0
  -22.7203  -10.2126   20.3039 C   0  0  0  0  0  0
  -21.6839   -6.0718   22.5264 C   0  0  0  0  0  0
  -21.4013   -6.5635   23.8198 C   0  0  0  0  0  0
  -21.3658   -5.6786   24.9169 C   0  0  0  0  0  0
  -21.6051   -4.3050   24.7227 C   0  0  0  0  0  0
  -21.8820   -3.8140   23.4344 C   0  0  0  0  0  0
  -21.9190   -4.6948   22.3394 C   0  0  0  0  0  0
  -22.7844  -13.5234   21.1824 C   0  0  0  0  0  0
  -22.1654   -4.2134   21.0972 F   0  0  0  0  0  0
  -21.5636   -3.4541   25.7738 F   0  0  0  0  0  0
  -30.0398  -13.2489   20.4617 N   0  0  0  0  0  0
  -26.3005  -12.9319   20.3373 N   0  0  0  0  0  0
  -25.9279  -11.6475   20.5752 N   0  0  0  0  0  0
  -22.0510  -12.8224   22.0405 N   0  0  0  0  0  0
  -25.4313  -15.1885   20.4095 N   0  0  0  0  0  0
  -31.8048  -14.6277   20.0672 O   0  0  0  0  0  0
  -21.6630   -6.8868   21.4233 O   0  0  0  0  0  0
  -22.3515  -14.5531   20.6664 O   0  0  0  0  0  0
  -24.6116  -31.8712   23.2067 C   0  0  0  0  0  0
  -25.9021  -32.4839   23.8361 C   0  0  1  0  0  0
  -27.2419  -27.4603   20.0749 C   0  0  0  0  0  0
  -25.5881  -33.8627   24.2301 N   0  0  0  0  0  0
  -23.3934  -30.4924   21.5505 C   0  0  2  0  0  0
  -24.8389  -28.9567   20.1209 C   0  0  0  0  0  0
  -22.7375  -29.4656   22.5011 C   0  0  0  0  0  0
  -18.0259  -28.1346   22.8496 C   0  0  0  0  0  0
  -24.1471  -36.7312   23.2641 C   0  0  0  0  0  0
  -25.9187  -30.8495   21.3482 C   0  0  0  0  0  0
  -25.9982  -29.4795   20.7058 C   0  0  0  0  0  0
  -27.1965  -28.7346   20.6834 C   0  0  0  0  0  0
  -26.0533  -26.9365   19.5110 C   0  0  0  0  0  0
  -24.8605  -27.6825   19.5287 C   0  0  0  0  0  0
  -23.5963  -29.8179   20.1681 C   0  0  0  0  0  0
  -25.4095  -36.3109   24.0335 C   0  0  1  0  0  0
  -20.5840  -28.3637   23.1332 C   0  0  2  0  0  0
  -20.6741  -26.9378   22.5423 C   0  0  0  0  0  0
  -19.5719  -26.6358   21.5209 C   0  0  0  0  0  0
  -18.1893  -26.7893   22.1621 C   0  0  0  0  0  0
  -19.1508  -28.8803   23.2901 C   0  0  0  0  0  0
  -18.9449  -30.1408   23.8927 C   0  0  0  0  0  0
  -17.6456  -30.6579   24.0540 C   0  0  0  0  0  0
  -25.9047  -34.9487   23.5126 C   0  0  0  0  0  0
  -16.5345  -29.9083   23.6299 C   0  0  0  0  0  0
  -16.7262  -28.6478   23.0363 C   0  0  0  0  0  0
  -26.4441  -31.6602   25.0680 C   0  0  0  0  0  0
  -25.3693  -31.3715   26.1407 C   0  0  0  0  0  0
  -27.0255  -30.3057   24.6009 C   0  0  0  0  0  0
  -27.5998  -32.4301   25.7468 C   0  0  0  0  0  0
  -27.5571  -37.1798   24.8472 C   0  0  0  0  0  0
  -21.4106  -29.3022   22.3766 N   0  0  0  0  0  0
  -26.4283  -37.3799   23.9420 N   0  0  0  0  0  0
  -24.6601  -31.0851   22.0936 N   0  0  0  0  0  0
  -23.4174  -28.8199   23.3025 O   0  0  0  0  0  0
  -28.4640  -26.8216   20.0567 O   0  0  0  0  0  0
  -26.5642  -34.8955   22.4703 O   0  0  0  0  0  0
  -23.5316  -32.1424   23.7513 O   0  0  0  0  0  0
  -29.3004  -17.5941   21.7724 C   0  0  0  0  0  0
  -30.7911  -19.5193   21.6861 C   0  0  0  0  0  0
  -31.6840  -17.2693   21.3892 C   0  0  0  0  0  0
  -29.4930  -18.9944   21.8577 C   0  0  0  0  0  0
  -30.3839  -16.7219   21.5125 C   0  0  0  0  0  0
  -31.8831  -18.6608   21.4646 C   0  0  0  0  0  0
  -28.3147  -23.2505   20.4944 C   0  0  0  0  0  0
  -28.8699  -24.4786   20.4882 C   0  0  0  0  0  0
  -28.6380  -22.3105   21.5556 C   0  0  0  0  0  0
  -28.3167  -19.9151   22.1834 C   0  0  0  0  0  0
  -28.6513  -25.5488   19.4377 C   0  0  0  0  0  0
  -30.1215  -15.3211   21.4165 N   0  0  0  0  0  0
  -28.1844  -21.0768   21.3000 N   0  0  0  0  0  0
  -29.2668  -22.5860   22.5802 O   0  0  0  0  0  0
  -33.4733  -19.3109   21.3052 Cl  0  0  0  0  0  0
  -31.4617  -12.3694   19.1185 H   0  0  0  0  0  0
  -30.3074  -11.2667   19.8019 H   0  0  0  0  0  0
  -29.7182  -11.7919   17.4160 H   0  0  0  0  0  0
  -29.6596  -13.4998   17.7866 H   0  0  0  0  0  0
  -27.8055  -11.3174   18.7902 H   0  0  0  0  0  0
  -27.3637  -12.6728   17.7872 H   0  0  0  0  0  0
  -27.7170  -14.2533   19.6035 H   0  0  0  0  0  0
  -28.6637  -11.9062   21.3144 H   0  0  0  0  0  0
  -28.4520  -13.5230   21.8933 H   0  0  0  0  0  0
  -25.2732   -9.5699   22.4736 H   0  0  0  0  0  0
  -23.9977   -7.4652   22.7489 H   0  0  0  0  0  0
  -21.0823   -8.8738   19.8946 H   0  0  0  0  0  0
  -22.3635  -10.9666   19.6161 H   0  0  0  0  0  0
  -21.2009   -7.6133   23.9702 H   0  0  0  0  0  0
  -21.1481   -6.0520   25.9070 H   0  0  0  0  0  0
  -22.0604   -2.7597   23.2846 H   0  0  0  0  0  0
  -22.4158  -11.9887   22.4751 H   0  0  0  0  0  0
  -21.1146  -13.1259   22.2686 H   0  0  0  0  0  0
  -24.6651  -15.8454   20.5130 H   0  0  0  0  0  0
  -26.2869  -15.6274   20.0903 H   0  0  0  0  0  0
  -26.7123  -32.5606   23.1170 H   0  0  0  0  0  0
  -24.9976  -33.9780   25.0401 H   0  0  0  0  0  0
  -22.6779  -31.3049   21.4110 H   0  0  0  0  0  0
  -23.3731  -35.9642   23.3295 H   0  0  0  0  0  0
  -24.3569  -36.8949   22.2057 H   0  0  0  0  0  0
  -23.7224  -37.6505   23.6682 H   0  0  0  0  0  0
  -26.0167  -31.6095   20.5703 H   0  0  0  0  0  0
  -26.8125  -30.9200   21.9560 H   0  0  0  0  0  0
  -28.1005  -29.1415   21.1158 H   0  0  0  0  0  0
  -26.0104  -25.9660   19.0436 H   0  0  0  0  0  0
  -23.9658  -27.2675   19.0861 H   0  0  0  0  0  0
  -23.6929  -30.5883   19.4017 H   0  0  0  0  0  0
  -22.7238  -29.2283   19.8783 H   0  0  0  0  0  0
  -25.1260  -36.1960   25.0828 H   0  0  0  0  0  0
  -20.9906  -28.3226   24.1457 H   0  0  0  0  0  0
  -20.5613  -26.2253   23.3608 H   0  0  0  0  0  0
  -21.6621  -26.7388   22.1245 H   0  0  0  0  0  0
  -19.6869  -25.6263   21.1255 H   0  0  0  0  0  0
  -19.6660  -27.3144   20.6711 H   0  0  0  0  0  0
  -17.4141  -26.6636   21.4044 H   0  0  0  0  0  0
  -18.0298  -26.0023   22.9008 H   0  0  0  0  0  0
  -19.7935  -30.7184   24.2333 H   0  0  0  0  0  0
  -17.5028  -31.6266   24.5123 H   0  0  0  0  0  0
  -15.5360  -30.3004   23.7591 H   0  0  0  0  0  0
  -15.8660  -28.0799   22.7086 H   0  0  0  0  0  0
  -24.5877  -30.7072   25.7715 H   0  0  0  0  0  0
  -24.8869  -32.2881   26.4794 H   0  0  0  0  0  0
  -25.7996  -30.8905   27.0198 H   0  0  0  0  0  0
  -26.2781  -29.6863   24.1038 H   0  0  0  0  0  0
  -27.4034  -29.7249   25.4433 H   0  0  0  0  0  0
  -27.8601  -30.4399   23.9123 H   0  0  0  0  0  0
  -27.2595  -33.3605   26.2021 H   0  0  0  0  0  0
  -28.3816  -32.6858   25.0307 H   0  0  0  0  0  0
  -28.0642  -31.8433   26.5409 H   0  0  0  0  0  0
  -28.2576  -38.0107   24.7533 H   0  0  0  0  0  0
  -28.1080  -36.2637   24.6271 H   0  0  0  0  0  0
  -27.2301  -37.1410   25.8881 H   0  0  0  0  0  0
  -20.9244  -29.8770   21.7033 H   0  0  0  0  0  0
  -26.0170  -38.2877   24.1425 H   0  0  0  0  0  0
  -28.3062  -17.1878   21.9008 H   0  0  0  0  0  0
  -30.9662  -20.5836   21.7524 H   0  0  0  0  0  0
  -32.5452  -16.6354   21.2400 H   0  0  0  0  0  0
  -27.6324  -22.9647   19.7050 H   0  0  0  0  0  0
  -29.5504  -24.7652   21.2789 H   0  0  0  0  0  0
  -28.4172  -20.2423   23.2203 H   0  0  0  0  0  0
  -27.3828  -19.3536   22.1450 H   0  0  0  0  0  0
  -27.8995  -25.2533   18.7109 H   0  0  0  0  0  0
  -29.5774  -25.6249   18.8652 H   0  0  0  0  0  0
  -29.2462  -15.0045   21.8035 H   0  0  0  0  0  0
  -27.6584  -20.9411   20.4479 H   0  0  0  0  0  0
  1 25  1  0  0  0
  1 30  2  0  0  0
  1 82  1  0  0  0
  2  3  1  0  0  0
  2 25  1  0  0  0
  2 86  1  0  0  0
  2 87  1  0  0  0
  3  4  1  0  0  0
  3 88  1  0  0  0
  3 89  1  0  0  0
  4  5  1  0  0  0
  4 90  1  0  0  0
  4 91  1  0  0  0
  5  6  1  0  0  0
  5 26  1  0  0  0
  5 92  1  0  0  0
  6 25  1  0  0  0
  6 93  1  0  0  0
  6 94  1  0  0  0
  7  8  2  0  0  0
  7 26  1  0  0  0
  7 29  1  0  0  0
  8  9  1  0  0  0
  8 22  1  0  0  0
  9 10  1  0  0  0
  9 27  2  0  0  0
 10 11  2  0  0  0
 10 15  1  0  0  0
 11 12  1  0  0  0
 11 95  1  0  0  0
 12 13  2  0  0  0
 12 96  1  0  0  0
 13 14  1  0  0  0
 13 31  1  0  0  0
 14 15  2  0  0  0
 14 97  1  0  0  0
 15 98  1  0  0  0
 16 17  2  0  0  0
 16 21  1  0  0  0
 16 31  1  0  0  0
 17 18  1  0  0  0
 17 99  1  0  0  0
 18 19  2  0  0  0
 18100  1  0  0  0
 19 20  1  0  0  0
 19 24  1  0  0  0
 20 21  2  0  0  0
 20101  1  0  0  0
 21 23  1  0  0  0
 22 28  1  0  0  0
 22 32  2  0  0  0
 26 27  1  0  0  0
 28102  1  0  0  0
 28103  1  0  0  0
 29104  1  0  0  0
 29105  1  0  0  0
 33 34  1  0  0  0
 33 66  1  0  0  0
 33 70  2  0  0  0
 34 36  1  0  0  0
 34 59  1  0  0  0
 34106  1  0  0  0
 35 44  2  0  0  0
 35 45  1  0  0  0
 35 68  1  0  0  0
 36 56  1  0  0  0
 36107  1  0  0  0
 37 39  1  0  0  0
 37 47  1  0  0  0
 37 66  1  0  0  0
 37108  1  0  0  0
 38 43  2  0  0  0
 38 46  1  0  0  0
 38 47  1  0  0  0
 39 64  1  0  0  0
 39 67  2  0  0  0
 40 52  1  0  0  0
 40 53  2  0  0  0
 40 58  1  0  0  0
 41109  1  0  0  0
 41110  1  0  0  0
 41111  1  0  0  0
 41 48  1  0  0  0
 42 43  1  0  0  0
 42 66  1  0  0  0
 42112  1  0  0  0
 42113  1  0  0  0
 43 44  1  0  0  0
 44114  1  0  0  0
 45 46  2  0  0  0
 45115  1  0  0  0
 46116  1  0  0  0
 47117  1  0  0  0
 47118  1  0  0  0
 48 56  1  0  0  0
 48 65  1  0  0  0
 48119  1  0  0  0
 49 50  1  0  0  0
 49 53  1  0  0  0
 49 64  1  0  0  0
 49120  1  0  0  0
 50 51  1  0  0  0
 50121  1  0  0  0
 50122  1  0  0  0
 51 52  1  0  0  0
 51123  1  0  0  0
 51124  1  0  0  0
 52125  1  0  0  0
 52126  1  0  0  0
 53 54  1  0  0  0
 54 55  2  0  0  0
 54127  1  0  0  0
 55 57  1  0  0  0
 55128  1  0  0  0
 56 69  2  0  0  0
 57 58  2  0  0  0
 57129  1  0  0  0
 58130  1  0  0  0
 59 60  1  0  0  0
 59 61  1  0  0  0
 59 62  1  0  0  0
 60131  1  0  0  0
 60132  1  0  0  0
 60133  1  0  0  0
 61134  1  0  0  0
 61135  1  0  0  0
 61136  1  0  0  0
 62137  1  0  0  0
 62138  1  0  0  0
 62139  1  0  0  0
 63 65  1  0  0  0
 63140  1  0  0  0
 63141  1  0  0  0
 63142  1  0  0  0
 64143  1  0  0  0
 65144  1  0  0  0
 68 81  1  0  0  0
 71 74  2  0  0  0
 71 75  1  0  0  0
 71145  1  0  0  0
 72 74  1  0  0  0
 72 76  2  0  0  0
 72146  1  0  0  0
 73 75  2  0  0  0
 73 76  1  0  0  0
 73147  1  0  0  0
 74 80  1  0  0  0
 75 82  1  0  0  0
 76 85  1  0  0  0
 77 78  2  0  0  0
 77 79  1  0  0  0
 77148  1  0  0  0
 78 81  1  0  0  0
 78149  1  0  0  0
 79 83  1  0  0  0
 79 84  2  0  0  0
 80 83  1  0  0  0
 80150  1  0  0  0
 80151  1  0  0  0
 81152  1  0  0  0
 81153  1  0  0  0
 82154  1  0  0  0
 83155  1  0  0  0
M  ISO  4   1 100  68 101  81 101  82 100
M  END
> <chiral flag>
0

> <version>
0

> <s_m_source_file>
/data/baiqing/PycharmProjects/Reinvent-master-3.2/result/LINK_invent/BTK/process_docking_weight1_custom_product_contain_oxygen_bond_distance_aromatic_linkinvent_7_9_3/rearranged_h_0049.sdf

> <i_m_source_file_index>
84

> <r_mmod_Potential_Energy-OPLS-2005>
-196.96321105957

> <r_mmod_Stretch_Energy-OPLS-2005>
34.2164764404297

> <r_mmod_Bend_Energy-OPLS-2005>
105.888069152832

> <r_mmod_Torsional_Energy-OPLS-2005>
195.212554931641

> <r_mmod_Improper_Torsional_Energy-OPLS-2005>
2.79868531227112

> <r_mmod_Van_der_Waal_Energy-OPLS-2005>
160.447448730469

> <r_mmod_Electrostatic_Energy-OPLS-2005>
-459.945861816406

> <r_mmod_Solvation_Energy-OPLS-2005>
-244.585891723633

> <b_mmod_Minimization_Converged-OPLS-2005>
0

> <r_mmod_RMS_Derivative-OPLS-2005>
2.84865784645081

$$$$
84
                    3D
 Structure written by MMmdl.
162170  0  0  1  0            999 V2000
  -30.7458  -14.4223   20.5093 C   0  0  0  0  0  0
  -30.4015  -12.2436   19.4523 C   0  0  0  0  0  0
  -29.5040  -12.4494   18.2148 C   0  0  0  0  0  0
  -28.0195  -12.3500   18.6162 C   0  0  0  0  0  0
  -27.6603  -13.2087   19.8625 C   0  0  2  0  0  0
  -28.6973  -13.0320   20.9979 C   0  0  0  0  0  0
  -25.2579  -13.8158   20.5642 C   0  0  0  0  0  0
  -24.1836  -13.0486   20.9161 C   0  0  0  0  0  0
  -24.6367  -11.6939   20.8731 C   0  0  0  0  0  0
  -23.9051  -10.4337   21.0394 C   0  0  0  0  0  0
  -24.3647   -9.4275   21.9159 C   0  0  0  0  0  0
  -23.6309   -8.2326   22.0770 C   0  0  0  0  0  0
  -22.4282   -8.0334   21.3577 C   0  0  0  0  0  0
  -21.9906   -9.0296   20.4677 C   0  0  0  0  0  0
  -22.7238  -10.2152   20.3049 C   0  0  0  0  0  0
  -21.6855   -6.0777   22.5286 C   0  0  0  0  0  0
  -21.4019   -6.5674   23.8229 C   0  0  0  0  0  0
  -21.3655   -5.6810   24.9181 C   0  0  0  0  0  0
  -21.6051   -4.3079   24.7203 C   0  0  0  0  0  0
  -21.8829   -3.8179   23.4323 C   0  0  0  0  0  0
  -21.9200   -4.7005   22.3389 C   0  0  0  0  0  0
  -22.7864  -13.5302   21.1857 C   0  0  0  0  0  0
  -22.1651   -4.2203   21.0952 F   0  0  0  0  0  0
  -21.5643   -3.4543   25.7708 F   0  0  0  0  0  0
  -30.0358  -13.2706   20.4361 N   0  0  0  0  0  0
  -26.3018  -12.9341   20.3271 N   0  0  0  0  0  0
  -25.9295  -11.6508   20.5741 N   0  0  0  0  0  0
  -22.0515  -12.8256   22.0377 N   0  0  0  0  0  0
  -25.4336  -15.1863   20.4063 N   0  0  0  0  0  0
  -31.9052  -14.5191   20.1025 O   0  0  0  0  0  0
  -21.6660   -6.8928   21.4254 O   0  0  0  0  0  0
  -22.3556  -14.5654   20.6735 O   0  0  0  0  0  0
  -24.6127  -31.8696   23.2164 C   0  0  0  0  0  0
  -25.9063  -32.4824   23.8393 C   0  0  1  0  0  0
  -27.2246  -27.4677   20.0624 C   0  0  0  0  0  0
  -25.5968  -33.8620   24.2382 N   0  0  0  0  0  0
  -23.3901  -30.4904   21.5629 C   0  0  2  0  0  0
  -24.8294  -28.9600   20.1197 C   0  0  0  0  0  0
  -22.7354  -29.4636   22.5138 C   0  0  0  0  0  0
  -18.0220  -28.1294   22.8412 C   0  0  0  0  0  0
  -24.1502  -36.7282   23.2624 C   0  0  0  0  0  0
  -25.9161  -30.8381   21.3646 C   0  0  0  0  0  0
  -25.9859  -29.4686   20.7217 C   0  0  0  0  0  0
  -27.1781  -28.7190   20.7107 C   0  0  0  0  0  0
  -26.0540  -26.9752   19.4408 C   0  0  0  0  0  0
  -24.8553  -27.7081   19.4848 C   0  0  0  0  0  0
  -23.5881  -29.8188   20.1759 C   0  0  0  0  0  0
  -25.4137  -36.3133   24.0363 C   0  0  1  0  0  0
  -20.5809  -28.3563   23.1364 C   0  0  2  0  0  0
  -20.6675  -26.9301   22.5450 C   0  0  0  0  0  0
  -19.5740  -26.6434   21.5088 C   0  0  0  0  0  0
  -18.1911  -26.7885   22.1496 C   0  0  0  0  0  0
  -19.1464  -28.8757   23.2872 C   0  0  0  0  0  0
  -18.9380  -30.1335   23.8931 C   0  0  0  0  0  0
  -17.6371  -30.6463   24.0578 C   0  0  0  0  0  0
  -25.9059  -34.9470   23.5150 C   0  0  0  0  0  0
  -16.5279  -29.9006   23.6229 C   0  0  0  0  0  0
  -16.7218  -28.6417   23.0274 C   0  0  0  0  0  0
  -26.4522  -31.6512   25.0623 C   0  0  0  0  0  0
  -25.3844  -31.3492   26.1383 C   0  0  0  0  0  0
  -27.0345  -30.3000   24.5815 C   0  0  0  0  0  0
  -27.6146  -32.4157   25.7352 C   0  0  0  0  0  0
  -27.5621  -37.1778   24.8473 C   0  0  0  0  0  0
  -21.4114  -29.2907   22.3785 N   0  0  0  0  0  0
  -26.4347  -37.3795   23.9399 N   0  0  0  0  0  0
  -24.6572  -31.0821   22.1063 N   0  0  0  0  0  0
  -23.4125  -28.8235   23.3237 O   0  0  0  0  0  0
  -28.4241  -26.7962   20.0693 O   0  0  0  0  0  0
  -26.5554  -34.8896   22.4666 O   0  0  0  0  0  0
  -23.5353  -32.1474   23.7575 O   0  0  0  0  0  0
  -29.4568  -20.2832   22.8161 C   0  0  0  0  0  0
  -30.1565  -19.2044   23.3764 C   0  0  0  0  0  0
  -29.0177  -20.2540   21.4715 C   0  0  0  0  0  0
  -29.2787  -19.1000   20.6680 C   0  0  0  0  0  0
  -30.0355  -18.0281   21.2337 C   0  0  0  0  0  0
  -30.4541  -18.0870   22.5838 C   0  0  0  0  0  0
  -28.3622  -21.4820   20.9963 C   0  0  0  0  0  0
  -28.8143  -19.0064   19.2120 C   0  0  0  0  0  0
  -30.5297  -16.8549   20.3927 C   0  0  0  0  0  0
  -28.2263  -24.3924   19.4703 C   0  0  0  0  0  0
  -28.6121  -24.0343   20.9161 C   0  0  0  0  0  0
  -28.6882  -25.8087   19.0748 C   0  0  0  0  0  0
  -27.1150  -21.4834   20.5294 N   0  0  0  0  0  0
  -30.0428  -15.5261   20.7902 N   0  0  0  0  0  0
  -29.0434  -22.6335   21.0868 N   0  3  0  0  0  0
  -31.1798  -17.0740   23.1198 F   0  0  0  0  0  0
  -31.4564  -12.2743   19.1806 H   0  0  0  0  0  0
  -30.2445  -11.2508   19.8762 H   0  0  0  0  0  0
  -29.7363  -11.6997   17.4558 H   0  0  0  0  0  0
  -29.6984  -13.4199   17.7504 H   0  0  0  0  0  0
  -27.8139  -11.2989   18.8162 H   0  0  0  0  0  0
  -27.3801  -12.6239   17.7773 H   0  0  0  0  0  0
  -27.6983  -14.2503   19.5416 H   0  0  0  0  0  0
  -28.6413  -12.0254   21.4106 H   0  0  0  0  0  0
  -28.4728  -13.7040   21.8298 H   0  0  0  0  0  0
  -25.2814   -9.5740   22.4717 H   0  0  0  0  0  0
  -24.0052   -7.4736   22.7486 H   0  0  0  0  0  0
  -21.0846   -8.8812   19.8983 H   0  0  0  0  0  0
  -22.3711  -10.9702   19.6159 H   0  0  0  0  0  0
  -21.2000   -7.6180   23.9721 H   0  0  0  0  0  0
  -21.1432   -6.0538   25.9081 H   0  0  0  0  0  0
  -22.0581   -2.7634   23.2781 H   0  0  0  0  0  0
  -22.4110  -11.9847   22.4675 H   0  0  0  0  0  0
  -21.1170  -13.1314   22.2710 H   0  0  0  0  0  0
  -24.6675  -15.8438   20.5027 H   0  0  0  0  0  0
  -26.2785  -15.6071   20.0449 H   0  0  0  0  0  0
  -26.7128  -32.5555   23.1162 H   0  0  0  0  0  0
  -25.0320  -33.9768   25.0660 H   0  0  0  0  0  0
  -22.6747  -31.3024   21.4274 H   0  0  0  0  0  0
  -23.3802  -35.9572   23.3311 H   0  0  0  0  0  0
  -24.3611  -36.8869   22.2036 H   0  0  0  0  0  0
  -23.7151  -37.6458   23.6590 H   0  0  0  0  0  0
  -26.0047  -31.5924   20.5847 H   0  0  0  0  0  0
  -26.8133  -30.9096   21.9644 H   0  0  0  0  0  0
  -28.0758  -29.1059   21.1698 H   0  0  0  0  0  0
  -26.0390  -26.0383   18.9070 H   0  0  0  0  0  0
  -23.9650  -27.3202   19.0068 H   0  0  0  0  0  0
  -23.6739  -30.5824   19.4026 H   0  0  0  0  0  0
  -22.7111  -29.2304   19.8993 H   0  0  0  0  0  0
  -25.1315  -36.2073   25.0878 H   0  0  0  0  0  0
  -20.9852  -28.3115   24.1486 H   0  0  0  0  0  0
  -20.5343  -26.2233   23.3657 H   0  0  0  0  0  0
  -21.6591  -26.7149   22.1386 H   0  0  0  0  0  0
  -19.6893  -25.6445   21.0843 H   0  0  0  0  0  0
  -19.6689  -27.3436   20.6772 H   0  0  0  0  0  0
  -17.4193  -26.6586   21.3887 H   0  0  0  0  0  0
  -18.0331  -25.9944   22.8795 H   0  0  0  0  0  0
  -19.7843  -30.7096   24.2421 H   0  0  0  0  0  0
  -17.4857  -31.6061   24.5350 H   0  0  0  0  0  0
  -15.5275  -30.2861   23.7505 H   0  0  0  0  0  0
  -15.8598  -28.0725   22.7033 H   0  0  0  0  0  0
  -24.6155  -30.6651   25.7737 H   0  0  0  0  0  0
  -24.8838  -32.2560   26.4780 H   0  0  0  0  0  0
  -25.8312  -30.8757   27.0121 H   0  0  0  0  0  0
  -26.2812  -29.6656   24.1118 H   0  0  0  0  0  0
  -27.4525  -29.7265   25.4073 H   0  0  0  0  0  0
  -27.8425  -30.4395   23.8636 H   0  0  0  0  0  0
  -27.2926  -33.3525   26.1869 H   0  0  0  0  0  0
  -28.4001  -32.6585   25.0186 H   0  0  0  0  0  0
  -28.0705  -31.8228   26.5284 H   0  0  0  0  0  0
  -28.2687  -38.0045   24.7646 H   0  0  0  0  0  0
  -28.1113  -36.2605   24.6288 H   0  0  0  0  0  0
  -27.2286  -37.1428   25.8850 H   0  0  0  0  0  0
  -20.9333  -29.8528   21.6883 H   0  0  0  0  0  0
  -26.0283  -38.2894   24.1358 H   0  0  0  0  0  0
  -29.2657  -21.1516   23.4325 H   0  0  0  0  0  0
  -30.4961  -19.2349   24.4015 H   0  0  0  0  0  0
  -28.2874  -18.0632   19.0468 H   0  0  0  0  0  0
  -28.1305  -19.7919   18.9018 H   0  0  0  0  0  0
  -29.6623  -19.0529   18.5280 H   0  0  0  0  0  0
  -31.6179  -16.9029   20.4721 H   0  0  0  0  0  0
  -30.3401  -16.9830   19.3300 H   0  0  0  0  0  0
  -27.1446  -24.2830   19.3656 H   0  0  0  0  0  0
  -28.6588  -23.6813   18.7658 H   0  0  0  0  0  0
  -27.7958  -24.2641   21.6063 H   0  0  0  0  0  0
  -29.4407  -24.6685   21.2367 H   0  0  0  0  0  0
  -28.3183  -26.1132   18.0929 H   0  0  0  0  0  0
  -29.7742  -25.7857   18.9726 H   0  0  0  0  0  0
  -26.5903  -20.6207   20.5105 H   0  0  0  0  0  0
  -26.6783  -22.3168   20.1754 H   0  0  0  0  0  0
  -29.0793  -15.4221   21.0706 H   0  0  0  0  0  0
  -30.0231  -22.5197   21.3220 H   0  0  0  0  0  0
  1 25  1  0  0  0
  1 30  2  0  0  0
  1 84  1  0  0  0
  2  3  1  0  0  0
  2 25  1  0  0  0
  2 87  1  0  0  0
  2 88  1  0  0  0
  3  4  1  0  0  0
  3 89  1  0  0  0
  3 90  1  0  0  0
  4  5  1  0  0  0
  4 91  1  0  0  0
  4 92  1  0  0  0
  5  6  1  0  0  0
  5 26  1  0  0  0
  5 93  1  0  0  0
  6 25  1  0  0  0
  6 94  1  0  0  0
  6 95  1  0  0  0
  7  8  2  0  0  0
  7 26  1  0  0  0
  7 29  1  0  0  0
  8  9  1  0  0  0
  8 22  1  0  0  0
  9 10  1  0  0  0
  9 27  2  0  0  0
 10 11  2  0  0  0
 10 15  1  0  0  0
 11 12  1  0  0  0
 11 96  1  0  0  0
 12 13  2  0  0  0
 12 97  1  0  0  0
 13 14  1  0  0  0
 13 31  1  0  0  0
 14 15  2  0  0  0
 14 98  1  0  0  0
 15 99  1  0  0  0
 16 17  2  0  0  0
 16 21  1  0  0  0
 16 31  1  0  0  0
 17 18  1  0  0  0
 17100  1  0  0  0
 18 19  2  0  0  0
 18101  1  0  0  0
 19 20  1  0  0  0
 19 24  1  0  0  0
 20 21  2  0  0  0
 20102  1  0  0  0
 21 23  1  0  0  0
 22 28  1  0  0  0
 22 32  2  0  0  0
 26 27  1  0  0  0
 28103  1  0  0  0
 28104  1  0  0  0
 29105  1  0  0  0
 29106  1  0  0  0
 33 34  1  0  0  0
 33 66  1  0  0  0
 33 70  2  0  0  0
 34 36  1  0  0  0
 34 59  1  0  0  0
 34107  1  0  0  0
 35 44  2  0  0  0
 35 45  1  0  0  0
 35 68  1  0  0  0
 36 56  1  0  0  0
 36108  1  0  0  0
 37 39  1  0  0  0
 37 47  1  0  0  0
 37 66  1  0  0  0
 37109  1  0  0  0
 38 43  2  0  0  0
 38 46  1  0  0  0
 38 47  1  0  0  0
 39 64  1  0  0  0
 39 67  2  0  0  0
 40 52  1  0  0  0
 40 53  2  0  0  0
 40 58  1  0  0  0
 41110  1  0  0  0
 41111  1  0  0  0
 41112  1  0  0  0
 41 48  1  0  0  0
 42 43  1  0  0  0
 42 66  1  0  0  0
 42113  1  0  0  0
 42114  1  0  0  0
 43 44  1  0  0  0
 44115  1  0  0  0
 45 46  2  0  0  0
 45116  1  0  0  0
 46117  1  0  0  0
 47118  1  0  0  0
 47119  1  0  0  0
 48 56  1  0  0  0
 48 65  1  0  0  0
 48120  1  0  0  0
 49 50  1  0  0  0
 49 53  1  0  0  0
 49 64  1  0  0  0
 49121  1  0  0  0
 50 51  1  0  0  0
 50122  1  0  0  0
 50123  1  0  0  0
 51 52  1  0  0  0
 51124  1  0  0  0
 51125  1  0  0  0
 52126  1  0  0  0
 52127  1  0  0  0
 53 54  1  0  0  0
 54 55  2  0  0  0
 54128  1  0  0  0
 55 57  1  0  0  0
 55129  1  0  0  0
 56 69  2  0  0  0
 57 58  2  0  0  0
 57130  1  0  0  0
 58131  1  0  0  0
 59 60  1  0  0  0
 59 61  1  0  0  0
 59 62  1  0  0  0
 60132  1  0  0  0
 60133  1  0  0  0
 60134  1  0  0  0
 61135  1  0  0  0
 61136  1  0  0  0
 61137  1  0  0  0
 62138  1  0  0  0
 62139  1  0  0  0
 62140  1  0  0  0
 63 65  1  0  0  0
 63141  1  0  0  0
 63142  1  0  0  0
 63143  1  0  0  0
 64144  1  0  0  0
 65145  1  0  0  0
 68 82  1  0  0  0
 71 72  2  0  0  0
 71 73  1  0  0  0
 71146  1  0  0  0
 72 76  1  0  0  0
 72147  1  0  0  0
 73 74  2  0  0  0
 73 77  1  0  0  0
 74 75  1  0  0  0
 74 78  1  0  0  0
 75 76  2  0  0  0
 75 79  1  0  0  0
 76 86  1  0  0  0
 77 83  1  0  0  0
 77 85  2  0  0  0
 78148  1  0  0  0
 78149  1  0  0  0
 78150  1  0  0  0
 79 84  1  0  0  0
 79151  1  0  0  0
 79152  1  0  0  0
 80 81  1  0  0  0
 80 82  1  0  0  0
 80153  1  0  0  0
 80154  1  0  0  0
 81 85  1  0  0  0
 81155  1  0  0  0
 81156  1  0  0  0
 82157  1  0  0  0
 82158  1  0  0  0
 83159  1  0  0  0
 83160  1  0  0  0
 84161  1  0  0  0
 85162  1  0  0  0
M  CHG  1  85   1
M  ISO  4   1 100  68 101  82 101  84 100
M  END
> <chiral flag>
0

> <version>
0

> <s_m_source_file>
/data/baiqing/PycharmProjects/Reinvent-master-3.2/result/LINK_invent/BTK/process_docking_weight1_custom_product_contain_oxygen_bond_distance_aromatic_linkinvent_7_9_3/rearranged_h_0049.sdf

> <i_m_source_file_index>
85

> <r_mmod_Potential_Energy-OPLS-2005>
-184.855529785156

> <r_mmod_Stretch_Energy-OPLS-2005>
35.8150939941406

> <r_mmod_Bend_Energy-OPLS-2005>
112.404945373535

> <r_mmod_Torsional_Energy-OPLS-2005>
226.638061523438

> <r_mmod_Improper_Torsional_Energy-OPLS-2005>
7.66989231109619

> <r_mmod_Van_der_Waal_Energy-OPLS-2005>
167.370956420898

> <r_mmod_Electrostatic_Energy-OPLS-2005>
-339.315979003906

> <r_mmod_Solvation_Energy-OPLS-2005>
-412.962249755859

> <b_mmod_Minimization_Converged-OPLS-2005>
0

> <r_mmod_RMS_Derivative-OPLS-2005>
6.37424468994141

$$$$
85
                    3D
 Structure written by MMmdl.
170179  0  0  1  0            999 V2000
  -30.7313  -14.4187   20.6570 C   0  0  0  0  0  0
  -30.4172  -12.2939   19.4280 C   0  0  0  0  0  0
  -29.5015  -12.5418   18.2139 C   0  0  0  0  0  0
  -28.0214  -12.3846   18.6177 C   0  0  0  0  0  0
  -27.6668  -13.2089   19.8848 C   0  0  2  0  0  0
  -28.7007  -12.9638   21.0050 C   0  0  0  0  0  0
  -25.2585  -13.8174   20.5628 C   0  0  0  0  0  0
  -24.1853  -13.0454   20.9100 C   0  0  0  0  0  0
  -24.6402  -11.6911   20.8682 C   0  0  0  0  0  0
  -23.9083  -10.4282   21.0364 C   0  0  0  0  0  0
  -24.3626   -9.4243   21.9169 C   0  0  0  0  0  0
  -23.6310   -8.2279   22.0774 C   0  0  0  0  0  0
  -22.4294   -8.0261   21.3538 C   0  0  0  0  0  0
  -21.9910   -9.0247   20.4657 C   0  0  0  0  0  0
  -22.7236  -10.2123   20.3057 C   0  0  0  0  0  0
  -21.6876   -6.0739   22.5275 C   0  0  0  0  0  0
  -21.4040   -6.5644   23.8202 C   0  0  0  0  0  0
  -21.3695   -5.6798   24.9168 C   0  0  0  0  0  0
  -21.6076   -4.3056   24.7224 C   0  0  0  0  0  0
  -21.8830   -3.8155   23.4326 C   0  0  0  0  0  0
  -21.9202   -4.6978   22.3392 C   0  0  0  0  0  0
  -22.7864  -13.5220   21.1812 C   0  0  0  0  0  0
  -22.1661   -4.2174   21.0960 F   0  0  0  0  0  0
  -21.5659   -3.4524   25.7714 F   0  0  0  0  0  0
  -30.0501  -13.2540   20.4797 N   0  0  0  0  0  0
  -26.3056  -12.9374   20.3376 N   0  0  0  0  0  0
  -25.9354  -11.6505   20.5746 N   0  0  0  0  0  0
  -22.0529  -12.8252   22.0392 N   0  0  0  0  0  0
  -25.4229  -15.1906   20.4083 N   0  0  0  0  0  0
  -31.7576  -14.7093   20.0318 O   0  0  0  0  0  0
  -21.6645   -6.8886   21.4234 O   0  0  0  0  0  0
  -22.3551  -14.5545   20.6660 O   0  0  0  0  0  0
  -24.6105  -31.8700   23.2100 C   0  0  0  0  0  0
  -25.9000  -32.4828   23.8418 C   0  0  1  0  0  0
  -27.2462  -27.4831   20.0607 C   0  0  0  0  0  0
  -25.5850  -33.8632   24.2314 N   0  0  0  0  0  0
  -23.3985  -30.4873   21.5522 C   0  0  2  0  0  0
  -24.8461  -28.9535   20.1211 C   0  0  0  0  0  0
  -22.7387  -29.4634   22.5041 C   0  0  0  0  0  0
  -18.0250  -28.1376   22.8496 C   0  0  0  0  0  0
  -24.1478  -36.7318   23.2646 C   0  0  0  0  0  0
  -25.9194  -30.8471   21.3567 C   0  0  0  0  0  0
  -26.0033  -29.4812   20.7073 C   0  0  0  0  0  0
  -27.2120  -28.7524   20.6744 C   0  0  0  0  0  0
  -26.0750  -26.9546   19.4855 C   0  0  0  0  0  0
  -24.8714  -27.6849   19.5147 C   0  0  0  0  0  0
  -23.6034  -29.8135   20.1687 C   0  0  0  0  0  0
  -25.4096  -36.3125   24.0356 C   0  0  1  0  0  0
  -20.5838  -28.3636   23.1350 C   0  0  2  0  0  0
  -20.6734  -26.9382   22.5440 C   0  0  0  0  0  0
  -19.5713  -26.6389   21.5216 C   0  0  0  0  0  0
  -18.1895  -26.7923   22.1637 C   0  0  0  0  0  0
  -19.1504  -28.8828   23.2918 C   0  0  0  0  0  0
  -18.9440  -30.1434   23.8930 C   0  0  0  0  0  0
  -17.6447  -30.6591   24.0575 C   0  0  0  0  0  0
  -25.9020  -34.9486   23.5138 C   0  0  0  0  0  0
  -16.5331  -29.9109   23.6319 C   0  0  0  0  0  0
  -16.7251  -28.6523   23.0348 C   0  0  0  0  0  0
  -26.4447  -31.6635   25.0739 C   0  0  0  0  0  0
  -25.3733  -31.3731   26.1495 C   0  0  0  0  0  0
  -27.0249  -30.3096   24.6046 C   0  0  0  0  0  0
  -27.6033  -32.4357   25.7477 C   0  0  0  0  0  0
  -27.5571  -37.1810   24.8461 C   0  0  0  0  0  0
  -21.4119  -29.3007   22.3774 N   0  0  0  0  0  0
  -26.4285  -37.3797   23.9403 N   0  0  0  0  0  0
  -24.6597  -31.0811   22.0997 N   0  0  0  0  0  0
  -23.4152  -28.8152   23.3072 O   0  0  0  0  0  0
  -28.4220  -26.7881   19.9543 O   0  0  0  0  0  0
  -26.5611  -34.8942   22.4700 O   0  0  0  0  0  0
  -23.5310  -32.1417   23.7527 O   0  0  0  0  0  0
  -29.6397  -18.5861   23.0524 C   0  0  0  0  0  0
  -30.1499  -20.8066   16.7706 C   0  0  0  0  0  0
  -29.8163  -17.1978   22.9292 C   0  0  0  0  0  0
  -30.2140  -21.3860   15.4949 C   0  0  0  0  0  0
  -30.3887  -17.4979   20.5889 C   0  0  0  0  0  0
  -30.7737  -23.5105   16.5194 C   0  0  0  0  0  0
  -30.2060  -18.9091   20.6873 C   0  0  0  0  0  0
  -30.7168  -22.9487   17.8169 C   0  0  0  0  0  0
  -29.8164  -19.4542   21.9539 C   0  0  0  0  0  0
  -30.4077  -21.5551   17.9587 C   0  0  0  0  0  0
  -30.1835  -16.6350   21.6941 C   0  0  0  0  0  0
  -30.5095  -22.7465   15.3696 C   0  0  0  0  0  0
  -30.4098  -19.6858   19.4208 C   0  0  0  0  0  0
  -31.0258  -23.8845   18.9644 C   0  0  0  0  0  0
  -29.5328  -20.9265   22.2483 C   0  0  0  0  0  0
  -30.5176  -24.8145   22.2429 C   0  0  0  0  0  0
  -28.5971  -25.7953   20.9464 C   0  0  0  0  0  0
  -30.0193  -25.2111   20.8429 C   0  0  2  0  0  0
  -30.3256  -20.9538   19.2358 N   0  0  0  0  0  0
  -30.2412  -15.2103   21.6257 N   0  0  0  0  0  0
  -30.0581  -24.0997   19.8716 N   0  0  0  0  0  0
  -32.0893  -24.5124   18.9734 O   0  0  0  0  0  0
  -30.5308  -23.4724   13.8041 Cl  0  0  0  0  0  0
  -31.4664  -12.3749   19.1398 H   0  0  0  0  0  0
  -30.2783  -11.2765   19.7948 H   0  0  0  0  0  0
  -29.7463  -11.8520   17.4083 H   0  0  0  0  0  0
  -29.6826  -13.5468   17.8271 H   0  0  0  0  0  0
  -27.8322  -11.3258   18.7997 H   0  0  0  0  0  0
  -27.3815  -12.6719   17.7851 H   0  0  0  0  0  0
  -27.7219  -14.2606   19.6053 H   0  0  0  0  0  0
  -28.6677  -11.9253   21.3304 H   0  0  0  0  0  0
  -28.4306  -13.5423   21.8892 H   0  0  0  0  0  0
  -25.2785   -9.5734   22.4735 H   0  0  0  0  0  0
  -24.0069   -7.4694   22.7499 H   0  0  0  0  0  0
  -21.0848   -8.8737   19.8922 H   0  0  0  0  0  0
  -22.3684  -10.9661   19.6148 H   0  0  0  0  0  0
  -21.2014   -7.6141   23.9723 H   0  0  0  0  0  0
  -21.1515   -6.0513   25.9078 H   0  0  0  0  0  0
  -22.0559   -2.7610   23.2833 H   0  0  0  0  0  0
  -22.4105  -11.9906   22.4802 H   0  0  0  0  0  0
  -21.1141  -13.1273   22.2549 H   0  0  0  0  0  0
  -24.6503  -15.8424   20.5163 H   0  0  0  0  0  0
  -26.2925  -15.6401   20.1554 H   0  0  0  0  0  0
  -26.7058  -32.5563   23.1195 H   0  0  0  0  0  0
  -25.0014  -33.9808   25.0466 H   0  0  0  0  0  0
  -22.6831  -31.2992   21.4092 H   0  0  0  0  0  0
  -23.3755  -35.9635   23.3338 H   0  0  0  0  0  0
  -24.3557  -36.8894   22.2045 H   0  0  0  0  0  0
  -23.7210  -37.6532   23.6627 H   0  0  0  0  0  0
  -26.0193  -31.6162   20.5878 H   0  0  0  0  0  0
  -26.8106  -30.9049   21.9727 H   0  0  0  0  0  0
  -28.1153  -29.1658   21.0987 H   0  0  0  0  0  0
  -26.1065  -25.9900   19.0003 H   0  0  0  0  0  0
  -23.9821  -27.2696   19.0587 H   0  0  0  0  0  0
  -23.6971  -30.5816   19.3980 H   0  0  0  0  0  0
  -22.7316  -29.2209   19.8895 H   0  0  0  0  0  0
  -25.1279  -36.2020   25.0863 H   0  0  0  0  0  0
  -20.9918  -28.3189   24.1474 H   0  0  0  0  0  0
  -20.5603  -26.2251   23.3608 H   0  0  0  0  0  0
  -21.6609  -26.7396   22.1241 H   0  0  0  0  0  0
  -19.6866  -25.6305   21.1237 H   0  0  0  0  0  0
  -19.6678  -27.3209   20.6750 H   0  0  0  0  0  0
  -17.4160  -26.6674   21.4043 H   0  0  0  0  0  0
  -18.0294  -26.0063   22.9033 H   0  0  0  0  0  0
  -19.7926  -30.7235   24.2328 H   0  0  0  0  0  0
  -17.5013  -31.6268   24.5173 H   0  0  0  0  0  0
  -15.5337  -30.3028   23.7627 H   0  0  0  0  0  0
  -15.8647  -28.0856   22.7051 H   0  0  0  0  0  0
  -24.5891  -30.7077   25.7846 H   0  0  0  0  0  0
  -24.8947  -32.2889   26.4984 H   0  0  0  0  0  0
  -25.8126  -30.8888   27.0224 H   0  0  0  0  0  0
  -26.2750  -29.6888   24.1117 H   0  0  0  0  0  0
  -27.4059  -29.7293   25.4459 H   0  0  0  0  0  0
  -27.8574  -30.4432   23.9125 H   0  0  0  0  0  0
  -27.2650  -33.3638   26.2099 H   0  0  0  0  0  0
  -28.3825  -32.6959   25.0296 H   0  0  0  0  0  0
  -28.0718  -31.8463   26.5363 H   0  0  0  0  0  0
  -28.2631  -38.0080   24.7527 H   0  0  0  0  0  0
  -28.1052  -36.2621   24.6303 H   0  0  0  0  0  0
  -27.2296  -37.1490   25.8873 H   0  0  0  0  0  0
  -20.9256  -29.8821   21.7090 H   0  0  0  0  0  0
  -26.0214  -38.2884   24.1437 H   0  0  0  0  0  0
  -29.3531  -18.9984   24.0094 H   0  0  0  0  0  0
  -29.8736  -19.7662   16.7939 H   0  0  0  0  0  0
  -29.6464  -16.5757   23.7979 H   0  0  0  0  0  0
  -30.0241  -20.7823   14.6214 H   0  0  0  0  0  0
  -30.6564  -17.0699   19.6350 H   0  0  0  0  0  0
  -31.0083  -24.5568   16.4021 H   0  0  0  0  0  0
  -30.6486  -19.0413   18.5690 H   0  0  0  0  0  0
  -30.1280  -21.2688   23.0983 H   0  0  0  0  0  0
  -28.4843  -21.0378   22.5269 H   0  0  0  0  0  0
  -29.7180  -21.6332   21.4537 H   0  0  0  0  0  0
  -30.3789  -25.6492   22.9328 H   0  0  0  0  0  0
  -31.5815  -24.5965   22.2545 H   0  0  0  0  0  0
  -29.9698  -23.9643   22.6486 H   0  0  0  0  0  0
  -28.4542  -26.2761   21.9161 H   0  0  0  0  0  0
  -27.8369  -25.0178   20.8641 H   0  0  0  0  0  0
  -30.6786  -26.0129   20.4998 H   0  0  0  0  0  0
  -29.6356  -14.7275   22.2735 H   0  0  0  0  0  0
  -29.2167  -23.5520   19.7551 H   0  0  0  0  0  0
  1 25  1  0  0  0
  1 30  2  0  0  0
  1 90  1  0  0  0
  2  3  1  0  0  0
  2 25  1  0  0  0
  2 94  1  0  0  0
  2 95  1  0  0  0
  3  4  1  0  0  0
  3 96  1  0  0  0
  3 97  1  0  0  0
  4  5  1  0  0  0
  4 98  1  0  0  0
  4 99  1  0  0  0
  5  6  1  0  0  0
  5 26  1  0  0  0
  5100  1  0  0  0
  6 25  1  0  0  0
  6101  1  0  0  0
  6102  1  0  0  0
  7  8  2  0  0  0
  7 26  1  0  0  0
  7 29  1  0  0  0
  8  9  1  0  0  0
  8 22  1  0  0  0
  9 10  1  0  0  0
  9 27  2  0  0  0
 10 11  2  0  0  0
 10 15  1  0  0  0
 11 12  1  0  0  0
 11103  1  0  0  0
 12 13  2  0  0  0
 12104  1  0  0  0
 13 14  1  0  0  0
 13 31  1  0  0  0
 14 15  2  0  0  0
 14105  1  0  0  0
 15106  1  0  0  0
 16 17  2  0  0  0
 16 21  1  0  0  0
 16 31  1  0  0  0
 17 18  1  0  0  0
 17107  1  0  0  0
 18 19  2  0  0  0
 18108  1  0  0  0
 19 20  1  0  0  0
 19 24  1  0  0  0
 20 21  2  0  0  0
 20109  1  0  0  0
 21 23  1  0  0  0
 22 28  1  0  0  0
 22 32  2  0  0  0
 26 27  1  0  0  0
 28110  1  0  0  0
 28111  1  0  0  0
 29112  1  0  0  0
 29113  1  0  0  0
 33 34  1  0  0  0
 33 66  1  0  0  0
 33 70  2  0  0  0
 34 36  1  0  0  0
 34 59  1  0  0  0
 34114  1  0  0  0
 35 44  2  0  0  0
 35 45  1  0  0  0
 35 68  1  0  0  0
 36 56  1  0  0  0
 36115  1  0  0  0
 37 39  1  0  0  0
 37 47  1  0  0  0
 37 66  1  0  0  0
 37116  1  0  0  0
 38 43  2  0  0  0
 38 46  1  0  0  0
 38 47  1  0  0  0
 39 64  1  0  0  0
 39 67  2  0  0  0
 40 52  1  0  0  0
 40 53  2  0  0  0
 40 58  1  0  0  0
 41117  1  0  0  0
 41118  1  0  0  0
 41119  1  0  0  0
 41 48  1  0  0  0
 42 43  1  0  0  0
 42 66  1  0  0  0
 42120  1  0  0  0
 42121  1  0  0  0
 43 44  1  0  0  0
 44122  1  0  0  0
 45 46  2  0  0  0
 45123  1  0  0  0
 46124  1  0  0  0
 47125  1  0  0  0
 47126  1  0  0  0
 48 56  1  0  0  0
 48 65  1  0  0  0
 48127  1  0  0  0
 49 50  1  0  0  0
 49 53  1  0  0  0
 49 64  1  0  0  0
 49128  1  0  0  0
 50 51  1  0  0  0
 50129  1  0  0  0
 50130  1  0  0  0
 51 52  1  0  0  0
 51131  1  0  0  0
 51132  1  0  0  0
 52133  1  0  0  0
 52134  1  0  0  0
 53 54  1  0  0  0
 54 55  2  0  0  0
 54135  1  0  0  0
 55 57  1  0  0  0
 55136  1  0  0  0
 56 69  2  0  0  0
 57 58  2  0  0  0
 57137  1  0  0  0
 58138  1  0  0  0
 59 60  1  0  0  0
 59 61  1  0  0  0
 59 62  1  0  0  0
 60139  1  0  0  0
 60140  1  0  0  0
 60141  1  0  0  0
 61142  1  0  0  0
 61143  1  0  0  0
 61144  1  0  0  0
 62145  1  0  0  0
 62146  1  0  0  0
 62147  1  0  0  0
 63 65  1  0  0  0
 63148  1  0  0  0
 63149  1  0  0  0
 63150  1  0  0  0
 64151  1  0  0  0
 65152  1  0  0  0
 68 87  1  0  0  0
 71 73  2  0  0  0
 71 79  1  0  0  0
 71153  1  0  0  0
 72 74  2  0  0  0
 72 80  1  0  0  0
 72154  1  0  0  0
 73 81  1  0  0  0
 73155  1  0  0  0
 74 82  1  0  0  0
 74156  1  0  0  0
 75 77  1  0  0  0
 75 81  2  0  0  0
 75157  1  0  0  0
 76 78  1  0  0  0
 76 82  2  0  0  0
 76158  1  0  0  0
 77 79  2  0  0  0
 77 83  1  0  0  0
 78 80  2  0  0  0
 78 84  1  0  0  0
 79 85  1  0  0  0
 80 89  1  0  0  0
 81 90  1  0  0  0
 82 93  1  0  0  0
 83 89  2  0  0  0
 83159  1  0  0  0
 84 91  1  0  0  0
 84 92  2  0  0  0
 85160  1  0  0  0
 85161  1  0  0  0
 85162  1  0  0  0
 86163  1  0  0  0
 86164  1  0  0  0
 86165  1  0  0  0
 86 88  1  0  0  0
 87 88  1  0  0  0
 87166  1  0  0  0
 87167  1  0  0  0
 88 91  1  0  0  0
 88168  1  0  0  0
 90169  1  0  0  0
 91170  1  0  0  0
M  ISO  4   1 100  68 101  87 101  90 100
M  END
> <chiral flag>
0

> <version>
0

> <s_m_source_file>
/data/baiqing/PycharmProjects/Reinvent-master-3.2/result/LINK_invent/BTK/process_docking_weight1_custom_product_contain_oxygen_bond_distance_aromatic_linkinvent_7_9_3/rearranged_h_0049.sdf

> <i_m_source_file_index>
86

> <r_mmod_Potential_Energy-OPLS-2005>
-18.8107509613037

> <r_mmod_Stretch_Energy-OPLS-2005>
45.5452499389648

> <r_mmod_Bend_Energy-OPLS-2005>
124.340309143066

> <r_mmod_Torsional_Energy-OPLS-2005>
273.769195556641

> <r_mmod_Improper_Torsional_Energy-OPLS-2005>
4.87441825866699

> <r_mmod_Van_der_Waal_Energy-OPLS-2005>
183.016662597656

> <r_mmod_Electrostatic_Energy-OPLS-2005>
-423.481658935547

> <r_mmod_Solvation_Energy-OPLS-2005>
-235.277420043945

> <b_mmod_Minimization_Converged-OPLS-2005>
0

> <r_mmod_RMS_Derivative-OPLS-2005>
6.10385847091675

$$$$
86
                    3D
 Structure written by MMmdl.
154162  0  0  1  0            999 V2000
  -30.6676  -14.5677   20.5233 C   0  0  0  0  0  0
  -30.4272  -12.3659   19.4370 C   0  0  0  0  0  0
  -29.4952  -12.5183   18.2144 C   0  0  0  0  0  0
  -28.0202  -12.3585   18.6315 C   0  0  0  0  0  0
  -27.6541  -13.2174   19.8707 C   0  0  2  0  0  0
  -28.7004  -13.0607   20.9996 C   0  0  0  0  0  0
  -25.2545  -13.8176   20.5690 C   0  0  0  0  0  0
  -24.1818  -13.0438   20.9193 C   0  0  0  0  0  0
  -24.6400  -11.6916   20.8746 C   0  0  0  0  0  0
  -23.9080  -10.4284   21.0400 C   0  0  0  0  0  0
  -24.3624   -9.4212   21.9193 C   0  0  0  0  0  0
  -23.6304   -8.2243   22.0760 C   0  0  0  0  0  0
  -22.4278   -8.0293   21.3556 C   0  0  0  0  0  0
  -21.9921   -9.0262   20.4648 C   0  0  0  0  0  0
  -22.7243  -10.2143   20.3065 C   0  0  0  0  0  0
  -21.6866   -6.0740   22.5272 C   0  0  0  0  0  0
  -21.4006   -6.5642   23.8204 C   0  0  0  0  0  0
  -21.3658   -5.6795   24.9167 C   0  0  0  0  0  0
  -21.6054   -4.3057   24.7216 C   0  0  0  0  0  0
  -21.8826   -3.8154   23.4338 C   0  0  0  0  0  0
  -21.9189   -4.6967   22.3393 C   0  0  0  0  0  0
  -22.7845  -13.5240   21.1848 C   0  0  0  0  0  0
  -22.1661   -4.2159   21.0973 F   0  0  0  0  0  0
  -21.5635   -3.4545   25.7728 F   0  0  0  0  0  0
  -30.0215  -13.3713   20.4337 N   0  0  0  0  0  0
  -26.2995  -12.9356   20.3374 N   0  0  0  0  0  0
  -25.9319  -11.6509   20.5782 N   0  0  0  0  0  0
  -22.0484  -12.8234   22.0406 N   0  0  0  0  0  0
  -25.4201  -15.1895   20.4074 N   0  0  0  0  0  0
  -31.8241  -14.7242   20.1222 O   0  0  0  0  0  0
  -21.6660   -6.8884   21.4238 O   0  0  0  0  0  0
  -22.3519  -14.5553   20.6716 O   0  0  0  0  0  0
  -24.6169  -31.8646   23.2077 C   0  0  0  0  0  0
  -25.9055  -32.4797   23.8389 C   0  0  1  0  0  0
  -27.2138  -27.3794   20.0889 C   0  0  0  0  0  0
  -25.5914  -33.8612   24.2318 N   0  0  0  0  0  0
  -23.4090  -30.4899   21.5456 C   0  0  2  0  0  0
  -24.8494  -28.9555   20.1069 C   0  0  0  0  0  0
  -22.7414  -29.4657   22.4922 C   0  0  0  0  0  0
  -18.0264  -28.1358   22.8543 C   0  0  0  0  0  0
  -24.1497  -36.7316   23.2642 C   0  0  0  0  0  0
  -25.9434  -30.8070   21.3758 C   0  0  0  0  0  0
  -26.0114  -29.4395   20.7195 C   0  0  0  0  0  0
  -27.1920  -28.6525   20.7190 C   0  0  0  0  0  0
  -26.0353  -26.9370   19.4466 C   0  0  0  0  0  0
  -24.8579  -27.7036   19.4726 C   0  0  0  0  0  0
  -23.6175  -29.8304   20.1586 C   0  0  0  0  0  0
  -25.4117  -36.3107   24.0334 C   0  0  1  0  0  0
  -20.5835  -28.3775   23.1312 C   0  0  2  0  0  0
  -20.6709  -26.9461   22.5546 C   0  0  0  0  0  0
  -19.5763  -26.6501   21.5246 C   0  0  0  0  0  0
  -18.1991  -26.7876   22.1763 C   0  0  0  0  0  0
  -19.1483  -28.8897   23.2892 C   0  0  0  0  0  0
  -18.9364  -30.1500   23.8867 C   0  0  0  0  0  0
  -17.6357  -30.6624   24.0481 C   0  0  0  0  0  0
  -25.9040  -34.9458   23.5121 C   0  0  0  0  0  0
  -16.5282  -29.9064   23.6288 C   0  0  0  0  0  0
  -16.7246  -28.6437   23.0392 C   0  0  0  0  0  0
  -26.4487  -31.6611   25.0735 C   0  0  0  0  0  0
  -25.3757  -31.3709   26.1482 C   0  0  0  0  0  0
  -27.0318  -30.3043   24.6152 C   0  0  0  0  0  0
  -27.6052  -32.4350   25.7522 C   0  0  0  0  0  0
  -27.5583  -37.1814   24.8460 C   0  0  0  0  0  0
  -21.4141  -29.3057   22.3646 N   0  0  0  0  0  0
  -26.4297  -37.3789   23.9398 N   0  0  0  0  0  0
  -24.6739  -31.0705   22.1001 N   0  0  0  0  0  0
  -23.4145  -28.8200   23.2998 O   0  0  0  0  0  0
  -28.3640  -26.6035   20.1577 O   0  0  0  0  0  0
  -26.5595  -34.8915   22.4680 O   0  0  0  0  0  0
  -23.5349  -32.1445   23.7410 O   0  0  0  0  0  0
  -28.2728  -17.9537   21.9335 C   0  0  0  0  0  0
  -27.3343  -18.9547   22.2385 C   0  0  0  0  0  0
  -29.1826  -19.3766   20.1779 C   0  0  0  0  0  0
  -29.2165  -18.1445   20.9017 C   0  0  0  0  0  0
  -28.2058  -20.3876   20.4494 C   0  0  0  0  0  0
  -27.2905  -20.1584   21.5090 C   0  0  0  0  0  0
  -27.9046  -24.0804   19.9467 C   0  0  0  0  0  0
  -30.2738  -17.0527   20.5996 C   0  0  0  0  0  0
  -28.0120  -21.5944   19.4954 C   0  0  0  0  0  0
  -28.5297  -25.3924   19.3639 C   0  0  0  0  0  0
  -28.6002  -22.9210   19.8156 N   0  0  0  0  0  0
  -29.9070  -15.6354   20.8589 N   0  0  0  0  0  0
  -26.7609  -24.0928   20.4015 O   0  0  0  0  0  0
  -26.0509  -21.2935   21.9076 Cl  0  0  0  0  0  0
  -31.4658  -12.4867   19.1259 H   0  0  0  0  0  0
  -30.3582  -11.3670   19.8653 H   0  0  0  0  0  0
  -29.7526  -11.7800   17.4540 H   0  0  0  0  0  0
  -29.6410  -13.4949   17.7500 H   0  0  0  0  0  0
  -27.8530  -11.3035   18.8469 H   0  0  0  0  0  0
  -27.3639  -12.6087   17.7966 H   0  0  0  0  0  0
  -27.6751  -14.2561   19.5425 H   0  0  0  0  0  0
  -28.6992  -12.0471   21.4003 H   0  0  0  0  0  0
  -28.4552  -13.7118   21.8395 H   0  0  0  0  0  0
  -25.2767   -9.5718   22.4763 H   0  0  0  0  0  0
  -24.0035   -7.4638   22.7474 H   0  0  0  0  0  0
  -21.0862   -8.8776   19.8941 H   0  0  0  0  0  0
  -22.3699  -10.9689   19.6183 H   0  0  0  0  0  0
  -21.1991   -7.6154   23.9706 H   0  0  0  0  0  0
  -21.1477   -6.0532   25.9073 H   0  0  0  0  0  0
  -22.0602   -2.7623   23.2833 H   0  0  0  0  0  0
  -22.4117  -11.9934   22.4839 H   0  0  0  0  0  0
  -21.1065  -13.1203   22.2528 H   0  0  0  0  0  0
  -24.6487  -15.8379   20.5235 H   0  0  0  0  0  0
  -26.2686  -15.6371   20.0860 H   0  0  0  0  0  0
  -26.7097  -32.5474   23.1124 H   0  0  0  0  0  0
  -25.0097  -33.9808   25.0486 H   0  0  0  0  0  0
  -22.6995  -31.3085   21.4050 H   0  0  0  0  0  0
  -23.3752  -35.9661   23.3320 H   0  0  0  0  0  0
  -24.3580  -36.8919   22.2051 H   0  0  0  0  0  0
  -23.7259  -37.6527   23.6654 H   0  0  0  0  0  0
  -26.0720  -31.5720   20.6096 H   0  0  0  0  0  0
  -26.8257  -30.8525   22.0020 H   0  0  0  0  0  0
  -28.0837  -29.0091   21.2187 H   0  0  0  0  0  0
  -25.9867  -25.9877   18.9378 H   0  0  0  0  0  0
  -23.9650  -27.3282   18.9933 H   0  0  0  0  0  0
  -23.7415  -30.6071   19.4013 H   0  0  0  0  0  0
  -22.7391  -29.2593   19.8498 H   0  0  0  0  0  0
  -25.1299  -36.1982   25.0826 H   0  0  0  0  0  0
  -20.9886  -28.3443   24.1439 H   0  0  0  0  0  0
  -20.5341  -26.2409   23.3755 H   0  0  0  0  0  0
  -21.6625  -26.7323   22.1566 H   0  0  0  0  0  0
  -19.6969  -25.6447   21.1220 H   0  0  0  0  0  0
  -19.6708  -27.3415   20.6861 H   0  0  0  0  0  0
  -17.4182  -26.6358   21.4308 H   0  0  0  0  0  0
  -18.0614  -26.0072   22.9275 H   0  0  0  0  0  0
  -19.7794  -30.7358   24.2222 H   0  0  0  0  0  0
  -17.4867  -31.6341   24.4993 H   0  0  0  0  0  0
  -15.5281  -30.2944   23.7534 H   0  0  0  0  0  0
  -15.8677  -28.0691   22.7130 H   0  0  0  0  0  0
  -24.5938  -30.7061   25.7806 H   0  0  0  0  0  0
  -24.8960  -32.2853   26.4973 H   0  0  0  0  0  0
  -25.8127  -30.8845   27.0213 H   0  0  0  0  0  0
  -26.2858  -29.6813   24.1208 H   0  0  0  0  0  0
  -27.4044  -29.7288   25.4638 H   0  0  0  0  0  0
  -27.8731  -30.4337   23.9346 H   0  0  0  0  0  0
  -27.2658  -33.3635   26.2136 H   0  0  0  0  0  0
  -28.3870  -32.6941   25.0370 H   0  0  0  0  0  0
  -28.0731  -31.8461   26.5424 H   0  0  0  0  0  0
  -28.2600  -38.0106   24.7489 H   0  0  0  0  0  0
  -28.1072  -36.2628   24.6321 H   0  0  0  0  0  0
  -27.2281  -37.1509   25.8857 H   0  0  0  0  0  0
  -20.9367  -29.8622   21.6712 H   0  0  0  0  0  0
  -26.0187  -38.2872   24.1391 H   0  0  0  0  0  0
  -28.2622  -17.0386   22.5059 H   0  0  0  0  0  0
  -26.6101  -18.7840   23.0241 H   0  0  0  0  0  0
  -29.8814  -19.5253   19.3653 H   0  0  0  0  0  0
  -31.1719  -17.2962   21.1716 H   0  0  0  0  0  0
  -30.5580  -17.1354   19.5499 H   0  0  0  0  0  0
  -26.9442  -21.6992   19.2935 H   0  0  0  0  0  0
  -28.4296  -21.3050   18.5295 H   0  0  0  0  0  0
  -28.1636  -25.5502   18.3475 H   0  0  0  0  0  0
  -29.6030  -25.2388   19.2587 H   0  0  0  0  0  0
  -29.5635  -23.0252   19.5329 H   0  0  0  0  0  0
  -28.9620  -15.4444   21.1451 H   0  0  0  0  0  0
  1 25  1  0  0  0
  1 30  2  0  0  0
  1 82  1  0  0  0
  2  3  1  0  0  0
  2 25  1  0  0  0
  2 85  1  0  0  0
  2 86  1  0  0  0
  3  4  1  0  0  0
  3 87  1  0  0  0
  3 88  1  0  0  0
  4  5  1  0  0  0
  4 89  1  0  0  0
  4 90  1  0  0  0
  5  6  1  0  0  0
  5 26  1  0  0  0
  5 91  1  0  0  0
  6 25  1  0  0  0
  6 92  1  0  0  0
  6 93  1  0  0  0
  7  8  2  0  0  0
  7 26  1  0  0  0
  7 29  1  0  0  0
  8  9  1  0  0  0
  8 22  1  0  0  0
  9 10  1  0  0  0
  9 27  2  0  0  0
 10 11  2  0  0  0
 10 15  1  0  0  0
 11 12  1  0  0  0
 11 94  1  0  0  0
 12 13  2  0  0  0
 12 95  1  0  0  0
 13 14  1  0  0  0
 13 31  1  0  0  0
 14 15  2  0  0  0
 14 96  1  0  0  0
 15 97  1  0  0  0
 16 17  2  0  0  0
 16 21  1  0  0  0
 16 31  1  0  0  0
 17 18  1  0  0  0
 17 98  1  0  0  0
 18 19  2  0  0  0
 18 99  1  0  0  0
 19 20  1  0  0  0
 19 24  1  0  0  0
 20 21  2  0  0  0
 20100  1  0  0  0
 21 23  1  0  0  0
 22 28  1  0  0  0
 22 32  2  0  0  0
 26 27  1  0  0  0
 28101  1  0  0  0
 28102  1  0  0  0
 29103  1  0  0  0
 29104  1  0  0  0
 33 34  1  0  0  0
 33 66  1  0  0  0
 33 70  2  0  0  0
 34 36  1  0  0  0
 34 59  1  0  0  0
 34105  1  0  0  0
 35 44  2  0  0  0
 35 45  1  0  0  0
 35 68  1  0  0  0
 36 56  1  0  0  0
 36106  1  0  0  0
 37 39  1  0  0  0
 37 47  1  0  0  0
 37 66  1  0  0  0
 37107  1  0  0  0
 38 43  2  0  0  0
 38 46  1  0  0  0
 38 47  1  0  0  0
 39 64  1  0  0  0
 39 67  2  0  0  0
 40 52  1  0  0  0
 40 53  2  0  0  0
 40 58  1  0  0  0
 41108  1  0  0  0
 41109  1  0  0  0
 41110  1  0  0  0
 41 48  1  0  0  0
 42 43  1  0  0  0
 42 66  1  0  0  0
 42111  1  0  0  0
 42112  1  0  0  0
 43 44  1  0  0  0
 44113  1  0  0  0
 45 46  2  0  0  0
 45114  1  0  0  0
 46115  1  0  0  0
 47116  1  0  0  0
 47117  1  0  0  0
 48 56  1  0  0  0
 48 65  1  0  0  0
 48118  1  0  0  0
 49 50  1  0  0  0
 49 53  1  0  0  0
 49 64  1  0  0  0
 49119  1  0  0  0
 50 51  1  0  0  0
 50120  1  0  0  0
 50121  1  0  0  0
 51 52  1  0  0  0
 51122  1  0  0  0
 51123  1  0  0  0
 52124  1  0  0  0
 52125  1  0  0  0
 53 54  1  0  0  0
 54 55  2  0  0  0
 54126  1  0  0  0
 55 57  1  0  0  0
 55127  1  0  0  0
 56 69  2  0  0  0
 57 58  2  0  0  0
 57128  1  0  0  0
 58129  1  0  0  0
 59 60  1  0  0  0
 59 61  1  0  0  0
 59 62  1  0  0  0
 60130  1  0  0  0
 60131  1  0  0  0
 60132  1  0  0  0
 61133  1  0  0  0
 61134  1  0  0  0
 61135  1  0  0  0
 62136  1  0  0  0
 62137  1  0  0  0
 62138  1  0  0  0
 63 65  1  0  0  0
 63139  1  0  0  0
 63140  1  0  0  0
 63141  1  0  0  0
 64142  1  0  0  0
 65143  1  0  0  0
 68 80  1  0  0  0
 71 72  2  0  0  0
 71 74  1  0  0  0
 71144  1  0  0  0
 72 76  1  0  0  0
 72145  1  0  0  0
 73 74  2  0  0  0
 73 75  1  0  0  0
 73146  1  0  0  0
 74 78  1  0  0  0
 75 76  2  0  0  0
 75 79  1  0  0  0
 76 84  1  0  0  0
 77 80  1  0  0  0
 77 81  1  0  0  0
 77 83  2  0  0  0
 78 82  1  0  0  0
 78147  1  0  0  0
 78148  1  0  0  0
 79 81  1  0  0  0
 79149  1  0  0  0
 79150  1  0  0  0
 80151  1  0  0  0
 80152  1  0  0  0
 81153  1  0  0  0
 82154  1  0  0  0
M  ISO  4   1 100  68 101  80 101  82 100
M  END
> <chiral flag>
0

> <version>
0

> <s_m_source_file>
/data/baiqing/PycharmProjects/Reinvent-master-3.2/result/LINK_invent/BTK/process_docking_weight1_custom_product_contain_oxygen_bond_distance_aromatic_linkinvent_7_9_3/rearranged_h_0049.sdf

> <i_m_source_file_index>
87

> <r_mmod_Potential_Energy-OPLS-2005>
-105.054550170898

> <r_mmod_Stretch_Energy-OPLS-2005>
51.7291030883789

> <r_mmod_Bend_Energy-OPLS-2005>
118.696029663086

> <r_mmod_Torsional_Energy-OPLS-2005>
214.512969970703

> <r_mmod_Improper_Torsional_Energy-OPLS-2005>
9.23788833618164

> <r_mmod_Van_der_Waal_Energy-OPLS-2005>
143.873733520508

> <r_mmod_Electrostatic_Energy-OPLS-2005>
-422.4013671875

> <r_mmod_Solvation_Energy-OPLS-2005>
-249.790374755859

> <b_mmod_Minimization_Converged-OPLS-2005>
0

> <r_mmod_RMS_Derivative-OPLS-2005>
4.19771003723145

$$$$
87
                    3D
 Structure written by MMmdl.
157165  0  0  1  0            999 V2000
  -30.7321  -14.4993   20.6328 C   0  0  0  0  0  0
  -30.4214  -12.3574   19.4191 C   0  0  0  0  0  0
  -29.4919  -12.5343   18.2000 C   0  0  0  0  0  0
  -28.0139  -12.3792   18.6058 C   0  0  0  0  0  0
  -27.6586  -13.1965   19.8762 C   0  0  2  0  0  0
  -28.7009  -12.9215   20.9792 C   0  0  0  0  0  0
  -25.2570  -13.8124   20.5656 C   0  0  0  0  0  0
  -24.1829  -13.0420   20.9157 C   0  0  0  0  0  0
  -24.6375  -11.6880   20.8733 C   0  0  0  0  0  0
  -23.9077  -10.4275   21.0437 C   0  0  0  0  0  0
  -24.3618   -9.4178   21.9214 C   0  0  0  0  0  0
  -23.6285   -8.2228   22.0781 C   0  0  0  0  0  0
  -22.4267   -8.0284   21.3572 C   0  0  0  0  0  0
  -21.9915   -9.0265   20.4682 C   0  0  0  0  0  0
  -22.7258  -10.2140   20.3091 C   0  0  0  0  0  0
  -21.6820   -6.0734   22.5280 C   0  0  0  0  0  0
  -21.3971   -6.5636   23.8209 C   0  0  0  0  0  0
  -21.3670   -5.6802   24.9191 C   0  0  0  0  0  0
  -21.6069   -4.3066   24.7238 C   0  0  0  0  0  0
  -21.8794   -3.8149   23.4355 C   0  0  0  0  0  0
  -21.9167   -4.6963   22.3408 C   0  0  0  0  0  0
  -22.7857  -13.5242   21.1830 C   0  0  0  0  0  0
  -22.1637   -4.2156   21.0987 F   0  0  0  0  0  0
  -21.5678   -3.4545   25.7747 F   0  0  0  0  0  0
  -30.0185  -13.3338   20.4604 N   0  0  0  0  0  0
  -26.2999  -12.9274   20.3342 N   0  0  0  0  0  0
  -25.9279  -11.6446   20.5701 N   0  0  0  0  0  0
  -22.0474  -12.8253   22.0398 N   0  0  0  0  0  0
  -25.4297  -15.1845   20.4094 N   0  0  0  0  0  0
  -31.8367  -14.6103   20.0875 O   0  0  0  0  0  0
  -21.6620   -6.8879   21.4250 O   0  0  0  0  0  0
  -22.3566  -14.5568   20.6701 O   0  0  0  0  0  0
  -24.6142  -31.8691   23.2107 C   0  0  0  0  0  0
  -25.9016  -32.4837   23.8421 C   0  0  1  0  0  0
  -27.2266  -27.4133   20.0980 C   0  0  0  0  0  0
  -25.5874  -33.8639   24.2373 N   0  0  0  0  0  0
  -23.4025  -30.4956   21.5529 C   0  0  2  0  0  0
  -24.8477  -28.9657   20.1110 C   0  0  0  0  0  0
  -22.7416  -29.4688   22.5014 C   0  0  0  0  0  0
  -18.0276  -28.1363   22.8480 C   0  0  0  0  0  0
  -24.1483  -36.7321   23.2649 C   0  0  0  0  0  0
  -25.9328  -30.8335   21.3595 C   0  0  0  0  0  0
  -26.0116  -29.4651   20.7093 C   0  0  0  0  0  0
  -27.2030  -28.6969   20.7003 C   0  0  0  0  0  0
  -26.0405  -26.9506   19.4740 C   0  0  0  0  0  0
  -24.8608  -27.7109   19.4867 C   0  0  0  0  0  0
  -23.6073  -29.8297   20.1667 C   0  0  0  0  0  0
  -25.4094  -36.3145   24.0375 C   0  0  1  0  0  0
  -20.5863  -28.3661   23.1316 C   0  0  2  0  0  0
  -20.6766  -26.9394   22.5434 C   0  0  0  0  0  0
  -19.5763  -26.6377   21.5207 C   0  0  0  0  0  0
  -18.1929  -26.7916   22.1590 C   0  0  0  0  0  0
  -19.1524  -28.8831   23.2887 C   0  0  0  0  0  0
  -18.9448  -30.1430   23.8907 C   0  0  0  0  0  0
  -17.6451  -30.6572   24.0561 C   0  0  0  0  0  0
  -25.9016  -34.9494   23.5178 C   0  0  0  0  0  0
  -16.5343  -29.9077   23.6319 C   0  0  0  0  0  0
  -16.7263  -28.6491   23.0348 C   0  0  0  0  0  0
  -26.4472  -31.6582   25.0707 C   0  0  0  0  0  0
  -25.3784  -31.3621   26.1488 C   0  0  0  0  0  0
  -27.0291  -30.3063   24.5978 C   0  0  0  0  0  0
  -27.6081  -32.4295   25.7419 C   0  0  0  0  0  0
  -27.5592  -37.1810   24.8473 C   0  0  0  0  0  0
  -21.4151  -29.3022   22.3725 N   0  0  0  0  0  0
  -26.4300  -37.3812   23.9433 N   0  0  0  0  0  0
  -24.6696  -31.0794   22.1002 N   0  0  0  0  0  0
  -23.4194  -28.8227   23.3051 O   0  0  0  0  0  0
  -28.3792  -26.6371   20.1436 O   0  0  0  0  0  0
  -26.5577  -34.8938   22.4732 O   0  0  0  0  0  0
  -23.5336  -32.1433   23.7502 O   0  0  0  0  0  0
  -28.7869  -18.9945   18.8201 C   0  0  0  0  0  0
  -28.9647  -20.3010   19.3156 C   0  0  0  0  0  0
  -29.3986  -17.8971   19.4570 C   0  0  0  0  0  0
  -30.3753  -19.4186   21.0905 C   0  0  0  0  0  0
  -29.7631  -20.5343   20.4595 C   0  0  0  0  0  0
  -30.2007  -18.0961   20.6001 C   0  0  0  0  0  0
  -29.3591  -24.3332   20.4109 C   0  0  0  0  0  0
  -29.0483  -15.6697   22.1719 C   0  0  0  0  0  0
  -30.0009  -21.9564   21.0022 C   0  0  0  0  0  0
  -30.9170  -16.9109   21.2707 C   0  0  0  0  0  0
  -28.2140  -25.2227   19.8709 C   0  0  0  0  0  0
  -29.1185  -23.0055   20.4633 N   0  0  0  0  0  0
  -30.1980  -15.6050   21.2614 N   0  0  0  0  0  0
  -30.4290  -24.8266   20.7771 O   0  0  0  0  0  0
  -31.4569  -12.4699   19.0994 H   0  0  0  0  0  0
  -30.3567  -11.3367   19.8006 H   0  0  0  0  0  0
  -29.7486  -11.8112   17.4224 H   0  0  0  0  0  0
  -29.6463  -13.5197   17.7565 H   0  0  0  0  0  0
  -27.8252  -11.3171   18.7749 H   0  0  0  0  0  0
  -27.3730  -12.6765   17.7755 H   0  0  0  0  0  0
  -27.7136  -14.2513   19.6126 H   0  0  0  0  0  0
  -28.7157  -11.8508   21.1870 H   0  0  0  0  0  0
  -28.4104  -13.3295   21.9379 H   0  0  0  0  0  0
  -25.2765   -9.5630   22.4802 H   0  0  0  0  0  0
  -23.9993   -7.4587   22.7447 H   0  0  0  0  0  0
  -21.0881   -8.8804   19.8940 H   0  0  0  0  0  0
  -22.3751  -10.9704   19.6215 H   0  0  0  0  0  0
  -21.1915   -7.6133   23.9715 H   0  0  0  0  0  0
  -21.1543   -6.0541   25.9104 H   0  0  0  0  0  0
  -22.0558   -2.7610   23.2851 H   0  0  0  0  0  0
  -22.4079  -11.9957   22.4867 H   0  0  0  0  0  0
  -21.1082  -13.1286   22.2506 H   0  0  0  0  0  0
  -24.6648  -15.8377   20.5350 H   0  0  0  0  0  0
  -26.2912  -15.6320   20.1237 H   0  0  0  0  0  0
  -26.7067  -32.5568   23.1175 H   0  0  0  0  0  0
  -25.0067  -33.9799   25.0557 H   0  0  0  0  0  0
  -22.6901  -31.3117   21.4162 H   0  0  0  0  0  0
  -23.3767  -35.9630   23.3309 H   0  0  0  0  0  0
  -24.3594  -36.8918   22.2062 H   0  0  0  0  0  0
  -23.7188  -37.6520   23.6634 H   0  0  0  0  0  0
  -26.0334  -31.5957   20.5850 H   0  0  0  0  0  0
  -26.8255  -30.8988   21.9688 H   0  0  0  0  0  0
  -28.0980  -29.0794   21.1709 H   0  0  0  0  0  0
  -25.9947  -25.9981   18.9668 H   0  0  0  0  0  0
  -23.9678  -27.3293   19.0106 H   0  0  0  0  0  0
  -23.7016  -30.6027   19.4031 H   0  0  0  0  0  0
  -22.7320  -29.2433   19.8798 H   0  0  0  0  0  0
  -25.1263  -36.2052   25.0874 H   0  0  0  0  0  0
  -20.9942  -28.3230   24.1436 H   0  0  0  0  0  0
  -20.5642  -26.2279   23.3626 H   0  0  0  0  0  0
  -21.6650  -26.7423   22.1245 H   0  0  0  0  0  0
  -19.6932  -25.6289   21.1235 H   0  0  0  0  0  0
  -19.6718  -27.3196   20.6740 H   0  0  0  0  0  0
  -17.4219  -26.6693   21.3961 H   0  0  0  0  0  0
  -18.0288  -26.0038   22.8956 H   0  0  0  0  0  0
  -19.7929  -30.7233   24.2298 H   0  0  0  0  0  0
  -17.5010  -31.6253   24.5157 H   0  0  0  0  0  0
  -15.5347  -30.2980   23.7634 H   0  0  0  0  0  0
  -15.8659  -28.0805   22.7063 H   0  0  0  0  0  0
  -24.5946  -30.6975   25.7831 H   0  0  0  0  0  0
  -24.8973  -32.2732   26.5061 H   0  0  0  0  0  0
  -25.8190  -30.8715   27.0176 H   0  0  0  0  0  0
  -26.2769  -29.6800   24.1162 H   0  0  0  0  0  0
  -27.4281  -29.7314   25.4342 H   0  0  0  0  0  0
  -27.8512  -30.4467   23.8956 H   0  0  0  0  0  0
  -27.2735  -33.3574   26.2077 H   0  0  0  0  0  0
  -28.3800  -32.6894   25.0157 H   0  0  0  0  0  0
  -28.0848  -31.8369   26.5239 H   0  0  0  0  0  0
  -28.2642  -38.0085   24.7535 H   0  0  0  0  0  0
  -28.1069  -36.2627   24.6286 H   0  0  0  0  0  0
  -27.2327  -37.1448   25.8883 H   0  0  0  0  0  0
  -20.9331  -29.8729   21.6917 H   0  0  0  0  0  0
  -26.0222  -38.2914   24.1429 H   0  0  0  0  0  0
  -28.1831  -18.8336   17.9369 H   0  0  0  0  0  0
  -28.4897  -21.1196   18.7936 H   0  0  0  0  0  0
  -29.2572  -16.9036   19.0541 H   0  0  0  0  0  0
  -30.9947  -19.5802   21.9628 H   0  0  0  0  0  0
  -29.1722  -14.9623   22.9932 H   0  0  0  0  0  0
  -28.1165  -15.4881   21.6385 H   0  0  0  0  0  0
  -28.9311  -16.6473   22.6427 H   0  0  0  0  0  0
  -31.0450  -22.2159   20.8199 H   0  0  0  0  0  0
  -29.8791  -21.9390   22.0861 H   0  0  0  0  0  0
  -31.1315  -17.1695   22.3091 H   0  0  0  0  0  0
  -31.9050  -16.8530   20.8146 H   0  0  0  0  0  0
  -27.3064  -24.8474   20.3465 H   0  0  0  0  0  0
  -28.1211  -25.0673   18.7949 H   0  0  0  0  0  0
  -28.2111  -22.6986   20.1438 H   0  0  0  0  0  0
  1 25  1  0  0  0
  1 30  2  0  0  0
  1 83  1  0  0  0
  2  3  1  0  0  0
  2 25  1  0  0  0
  2 85  1  0  0  0
  2 86  1  0  0  0
  3  4  1  0  0  0
  3 87  1  0  0  0
  3 88  1  0  0  0
  4  5  1  0  0  0
  4 89  1  0  0  0
  4 90  1  0  0  0
  5  6  1  0  0  0
  5 26  1  0  0  0
  5 91  1  0  0  0
  6 25  1  0  0  0
  6 92  1  0  0  0
  6 93  1  0  0  0
  7  8  2  0  0  0
  7 26  1  0  0  0
  7 29  1  0  0  0
  8  9  1  0  0  0
  8 22  1  0  0  0
  9 10  1  0  0  0
  9 27  2  0  0  0
 10 11  2  0  0  0
 10 15  1  0  0  0
 11 12  1  0  0  0
 11 94  1  0  0  0
 12 13  2  0  0  0
 12 95  1  0  0  0
 13 14  1  0  0  0
 13 31  1  0  0  0
 14 15  2  0  0  0
 14 96  1  0  0  0
 15 97  1  0  0  0
 16 17  2  0  0  0
 16 21  1  0  0  0
 16 31  1  0  0  0
 17 18  1  0  0  0
 17 98  1  0  0  0
 18 19  2  0  0  0
 18 99  1  0  0  0
 19 20  1  0  0  0
 19 24  1  0  0  0
 20 21  2  0  0  0
 20100  1  0  0  0
 21 23  1  0  0  0
 22 28  1  0  0  0
 22 32  2  0  0  0
 26 27  1  0  0  0
 28101  1  0  0  0
 28102  1  0  0  0
 29103  1  0  0  0
 29104  1  0  0  0
 33 34  1  0  0  0
 33 66  1  0  0  0
 33 70  2  0  0  0
 34 36  1  0  0  0
 34 59  1  0  0  0
 34105  1  0  0  0
 35 44  2  0  0  0
 35 45  1  0  0  0
 35 68  1  0  0  0
 36 56  1  0  0  0
 36106  1  0  0  0
 37 39  1  0  0  0
 37 47  1  0  0  0
 37 66  1  0  0  0
 37107  1  0  0  0
 38 43  2  0  0  0
 38 46  1  0  0  0
 38 47  1  0  0  0
 39 64  1  0  0  0
 39 67  2  0  0  0
 40 52  1  0  0  0
 40 53  2  0  0  0
 40 58  1  0  0  0
 41108  1  0  0  0
 41109  1  0  0  0
 41110  1  0  0  0
 41 48  1  0  0  0
 42 43  1  0  0  0
 42 66  1  0  0  0
 42111  1  0  0  0
 42112  1  0  0  0
 43 44  1  0  0  0
 44113  1  0  0  0
 45 46  2  0  0  0
 45114  1  0  0  0
 46115  1  0  0  0
 47116  1  0  0  0
 47117  1  0  0  0
 48 56  1  0  0  0
 48 65  1  0  0  0
 48118  1  0  0  0
 49 50  1  0  0  0
 49 53  1  0  0  0
 49 64  1  0  0  0
 49119  1  0  0  0
 50 51  1  0  0  0
 50120  1  0  0  0
 50121  1  0  0  0
 51 52  1  0  0  0
 51122  1  0  0  0
 51123  1  0  0  0
 52124  1  0  0  0
 52125  1  0  0  0
 53 54  1  0  0  0
 54 55  2  0  0  0
 54126  1  0  0  0
 55 57  1  0  0  0
 55127  1  0  0  0
 56 69  2  0  0  0
 57 58  2  0  0  0
 57128  1  0  0  0
 58129  1  0  0  0
 59 60  1  0  0  0
 59 61  1  0  0  0
 59 62  1  0  0  0
 60130  1  0  0  0
 60131  1  0  0  0
 60132  1  0  0  0
 61133  1  0  0  0
 61134  1  0  0  0
 61135  1  0  0  0
 62136  1  0  0  0
 62137  1  0  0  0
 62138  1  0  0  0
 63 65  1  0  0  0
 63139  1  0  0  0
 63140  1  0  0  0
 63141  1  0  0  0
 64142  1  0  0  0
 65143  1  0  0  0
 68 81  1  0  0  0
 71 72  2  0  0  0
 71 73  1  0  0  0
 71144  1  0  0  0
 72 75  1  0  0  0
 72145  1  0  0  0
 73 76  2  0  0  0
 73146  1  0  0  0
 74 75  2  0  0  0
 74 76  1  0  0  0
 74147  1  0  0  0
 75 79  1  0  0  0
 76 80  1  0  0  0
 77 81  1  0  0  0
 77 82  1  0  0  0
 77 84  2  0  0  0
 78 83  1  0  0  0
 78148  1  0  0  0
 78149  1  0  0  0
 78150  1  0  0  0
 79 82  1  0  0  0
 79151  1  0  0  0
 79152  1  0  0  0
 80 83  1  0  0  0
 80153  1  0  0  0
 80154  1  0  0  0
 81155  1  0  0  0
 81156  1  0  0  0
 82157  1  0  0  0
M  ISO  4   1 100  68 101  81 101  83 100
M  END
> <chiral flag>
0

> <version>
0

> <s_m_source_file>
/data/baiqing/PycharmProjects/Reinvent-master-3.2/result/LINK_invent/BTK/process_docking_weight1_custom_product_contain_oxygen_bond_distance_aromatic_linkinvent_7_9_3/rearranged_h_0049.sdf

> <i_m_source_file_index>
88

> <r_mmod_Potential_Energy-OPLS-2005>
16.4646244049072

> <r_mmod_Stretch_Energy-OPLS-2005>
50.8352546691895

> <r_mmod_Bend_Energy-OPLS-2005>
129.707214355469

> <r_mmod_Torsional_Energy-OPLS-2005>
223.545745849609

> <r_mmod_Improper_Torsional_Energy-OPLS-2005>
3.52294993400574

> <r_mmod_Van_der_Waal_Energy-OPLS-2005>
175.360092163086

> <r_mmod_Electrostatic_Energy-OPLS-2005>
-346.744201660156

> <r_mmod_Solvation_Energy-OPLS-2005>
-236.717803955078

> <b_mmod_Minimization_Converged-OPLS-2005>
0

> <r_mmod_RMS_Derivative-OPLS-2005>
3.12129211425781

$$$$
88
                    3D
 Structure written by MMmdl.
157165  0  0  1  0            999 V2000
  -30.6767  -14.5238   20.4697 C   0  0  0  0  0  0
  -30.4259  -12.3116   19.4467 C   0  0  0  0  0  0
  -29.5032  -12.4746   18.2190 C   0  0  0  0  0  0
  -28.0223  -12.3377   18.6289 C   0  0  0  0  0  0
  -27.6535  -13.2070   19.8601 C   0  0  2  0  0  0
  -28.6988  -13.0521   20.9894 C   0  0  0  0  0  0
  -25.2563  -13.8150   20.5681 C   0  0  0  0  0  0
  -24.1821  -13.0434   20.9200 C   0  0  0  0  0  0
  -24.6369  -11.6904   20.8738 C   0  0  0  0  0  0
  -23.9036  -10.4300   21.0421 C   0  0  0  0  0  0
  -24.3591   -9.4213   21.9185 C   0  0  0  0  0  0
  -23.6274   -8.2251   22.0749 C   0  0  0  0  0  0
  -22.4257   -8.0292   21.3550 C   0  0  0  0  0  0
  -21.9890   -9.0260   20.4649 C   0  0  0  0  0  0
  -22.7219  -10.2140   20.3066 C   0  0  0  0  0  0
  -21.6845   -6.0749   22.5294 C   0  0  0  0  0  0
  -21.4017   -6.5648   23.8230 C   0  0  0  0  0  0
  -21.3651   -5.6793   24.9181 C   0  0  0  0  0  0
  -21.6033   -4.3056   24.7224 C   0  0  0  0  0  0
  -21.8808   -3.8151   23.4344 C   0  0  0  0  0  0
  -21.9185   -4.6977   22.3407 C   0  0  0  0  0  0
  -22.7846  -13.5247   21.1838 C   0  0  0  0  0  0
  -22.1661   -4.2180   21.0982 F   0  0  0  0  0  0
  -21.5613   -3.4535   25.7726 F   0  0  0  0  0  0
  -30.0267  -13.3307   20.4247 N   0  0  0  0  0  0
  -26.2980  -12.9311   20.3301 N   0  0  0  0  0  0
  -25.9290  -11.6479   20.5750 N   0  0  0  0  0  0
  -22.0459  -12.8292   22.0408 N   0  0  0  0  0  0
  -25.4264  -15.1875   20.4122 N   0  0  0  0  0  0
  -31.8830  -14.6295   20.2356 O   0  0  0  0  0  0
  -21.6626   -6.8892   21.4255 O   0  0  0  0  0  0
  -22.3560  -14.5556   20.6673 O   0  0  0  0  0  0
  -24.6191  -31.8701   23.2096 C   0  0  0  0  0  0
  -25.9085  -32.4838   23.8397 C   0  0  1  0  0  0
  -27.2208  -27.4106   20.0911 C   0  0  0  0  0  0
  -25.5932  -33.8630   24.2348 N   0  0  0  0  0  0
  -23.4064  -30.4962   21.5538 C   0  0  2  0  0  0
  -24.8466  -28.9625   20.1176 C   0  0  0  0  0  0
  -22.7445  -29.4688   22.5012 C   0  0  0  0  0  0
  -18.0297  -28.1377   22.8505 C   0  0  0  0  0  0
  -24.1495  -36.7301   23.2636 C   0  0  0  0  0  0
  -25.9397  -30.8262   21.3679 C   0  0  0  0  0  0
  -26.0137  -29.4611   20.7118 C   0  0  0  0  0  0
  -27.2053  -28.6934   20.6941 C   0  0  0  0  0  0
  -26.0323  -26.9420   19.4842 C   0  0  0  0  0  0
  -24.8513  -27.7009   19.5067 C   0  0  0  0  0  0
  -23.6130  -29.8324   20.1674 C   0  0  0  0  0  0
  -25.4114  -36.3118   24.0349 C   0  0  1  0  0  0
  -20.5891  -28.3685   23.1312 C   0  0  2  0  0  0
  -20.6803  -26.9424   22.5418 C   0  0  0  0  0  0
  -19.5761  -26.6389   21.5233 C   0  0  0  0  0  0
  -18.1938  -26.7930   22.1630 C   0  0  0  0  0  0
  -19.1550  -28.8842   23.2899 C   0  0  0  0  0  0
  -18.9465  -30.1453   23.8915 C   0  0  0  0  0  0
  -17.6466  -30.6580   24.0569 C   0  0  0  0  0  0
  -25.9036  -34.9489   23.5136 C   0  0  0  0  0  0
  -16.5362  -29.9085   23.6326 C   0  0  0  0  0  0
  -16.7283  -28.6491   23.0363 C   0  0  0  0  0  0
  -26.4497  -31.6610   25.0724 C   0  0  0  0  0  0
  -25.3751  -31.3749   26.1467 C   0  0  0  0  0  0
  -27.0336  -30.3050   24.6117 C   0  0  0  0  0  0
  -27.6065  -32.4344   25.7491 C   0  0  0  0  0  0
  -27.5598  -37.1810   24.8472 C   0  0  0  0  0  0
  -21.4175  -29.3058   22.3723 N   0  0  0  0  0  0
  -26.4309  -37.3796   23.9412 N   0  0  0  0  0  0
  -24.6737  -31.0782   22.1016 N   0  0  0  0  0  0
  -23.4207  -28.8239   23.3064 O   0  0  0  0  0  0
  -28.3739  -26.6419   20.1012 O   0  0  0  0  0  0
  -26.5579  -34.8940   22.4687 O   0  0  0  0  0  0
  -23.5370  -32.1484   23.7467 O   0  0  0  0  0  0
  -30.6118  -19.6124   19.1789 C   0  0  0  0  0  0
  -31.1017  -18.5298   18.4318 C   0  0  0  0  0  0
  -29.6009  -18.0493   20.7437 C   0  0  0  0  0  0
  -29.7955  -19.3892   20.3070 C   0  0  0  0  0  0
  -30.1414  -16.9385   20.0365 C   0  0  0  0  0  0
  -30.8324  -17.2023   18.8138 C   0  0  0  0  0  0
  -29.3991  -23.0442   21.0149 C   0  0  0  0  0  0
  -28.4694  -21.8990   19.0330 C   0  0  0  0  0  0
  -29.1171  -20.5592   21.0486 C   0  0  0  0  0  0
  -29.4886  -24.3923   20.2550 C   0  0  0  0  0  0
  -28.1819  -25.2204   20.2975 C   0  0  0  0  0  0
  -29.8770  -15.6120   20.5385 N   0  0  0  0  0  0
  -29.0782  -21.8866   20.3701 N   0  0  0  0  0  0
  -29.6747  -23.0601   22.2198 O   0  0  0  0  0  0
  -31.2888  -15.9769   17.6771 Cl  0  0  0  0  0  0
  -31.4733  -12.4078   19.1527 H   0  0  0  0  0  0
  -30.3262  -11.3163   19.8828 H   0  0  0  0  0  0
  -29.7540  -11.7352   17.4567 H   0  0  0  0  0  0
  -29.6691  -13.4495   17.7582 H   0  0  0  0  0  0
  -27.8421  -11.2857   18.8533 H   0  0  0  0  0  0
  -27.3748  -12.5845   17.7868 H   0  0  0  0  0  0
  -27.6755  -14.2409   19.5173 H   0  0  0  0  0  0
  -28.6742  -12.0394   21.3934 H   0  0  0  0  0  0
  -28.4752  -13.7158   21.8260 H   0  0  0  0  0  0
  -25.2730   -9.5694   22.4777 H   0  0  0  0  0  0
  -24.0001   -7.4626   22.7437 H   0  0  0  0  0  0
  -21.0834   -8.8765   19.8940 H   0  0  0  0  0  0
  -22.3667  -10.9681   19.6187 H   0  0  0  0  0  0
  -21.2039   -7.6160   23.9748 H   0  0  0  0  0  0
  -21.1475   -6.0522   25.9089 H   0  0  0  0  0  0
  -22.0592   -2.7628   23.2824 H   0  0  0  0  0  0
  -22.4024  -11.9998   22.4918 H   0  0  0  0  0  0
  -21.1053  -13.1339   22.2497 H   0  0  0  0  0  0
  -24.6499  -15.8338   20.5130 H   0  0  0  0  0  0
  -26.2639  -15.6307   20.0592 H   0  0  0  0  0  0
  -26.7170  -32.5549   23.1166 H   0  0  0  0  0  0
  -25.0187  -33.9797   25.0568 H   0  0  0  0  0  0
  -22.6972  -31.3149   21.4160 H   0  0  0  0  0  0
  -23.3769  -35.9620   23.3308 H   0  0  0  0  0  0
  -24.3585  -36.8897   22.2045 H   0  0  0  0  0  0
  -23.7240  -37.6512   23.6630 H   0  0  0  0  0  0
  -26.0617  -31.5952   20.6036 H   0  0  0  0  0  0
  -26.8234  -30.8721   21.9922 H   0  0  0  0  0  0
  -28.1061  -29.0681   21.1608 H   0  0  0  0  0  0
  -25.9816  -25.9943   18.9718 H   0  0  0  0  0  0
  -23.9552  -27.3099   19.0453 H   0  0  0  0  0  0
  -23.7270  -30.6083   19.4099 H   0  0  0  0  0  0
  -22.7339  -29.2596   19.8689 H   0  0  0  0  0  0
  -25.1290  -36.1994   25.0843 H   0  0  0  0  0  0
  -20.9981  -28.3252   24.1432 H   0  0  0  0  0  0
  -20.5754  -26.2286   23.3608 H   0  0  0  0  0  0
  -21.6659  -26.7495   22.1176 H   0  0  0  0  0  0
  -19.6920  -25.6306   21.1249 H   0  0  0  0  0  0
  -19.6681  -27.3214   20.6770 H   0  0  0  0  0  0
  -17.4224  -26.6729   21.4016 H   0  0  0  0  0  0
  -18.0286  -26.0058   22.8996 H   0  0  0  0  0  0
  -19.7943  -30.7274   24.2283 H   0  0  0  0  0  0
  -17.5017  -31.6264   24.5177 H   0  0  0  0  0  0
  -15.5358  -30.2981   23.7634 H   0  0  0  0  0  0
  -15.8689  -28.0801   22.7072 H   0  0  0  0  0  0
  -24.5889  -30.7135   25.7815 H   0  0  0  0  0  0
  -24.8975  -32.2924   26.4920 H   0  0  0  0  0  0
  -25.8066  -30.8912   27.0238 H   0  0  0  0  0  0
  -26.2884  -29.6802   24.1173 H   0  0  0  0  0  0
  -27.4132  -29.7297   25.4576 H   0  0  0  0  0  0
  -27.8713  -30.4386   23.9261 H   0  0  0  0  0  0
  -27.2670  -33.3634   26.2095 H   0  0  0  0  0  0
  -28.3846  -32.6940   25.0296 H   0  0  0  0  0  0
  -28.0770  -31.8469   26.5394 H   0  0  0  0  0  0
  -28.2628  -38.0099   24.7512 H   0  0  0  0  0  0
  -28.1090  -36.2634   24.6302 H   0  0  0  0  0  0
  -27.2313  -37.1457   25.8876 H   0  0  0  0  0  0
  -20.9351  -29.8751   21.6917 H   0  0  0  0  0  0
  -26.0215  -38.2893   24.1367 H   0  0  0  0  0  0
  -30.8269  -20.6149   18.8382 H   0  0  0  0  0  0
  -31.6577  -18.7232   17.5241 H   0  0  0  0  0  0
  -29.0101  -17.8756   21.6318 H   0  0  0  0  0  0
  -27.6079  -22.5654   18.9934 H   0  0  0  0  0  0
  -28.1080  -20.9112   18.7436 H   0  0  0  0  0  0
  -29.1846  -22.2196   18.2744 H   0  0  0  0  0  0
  -29.5927  -20.6284   22.0274 H   0  0  0  0  0  0
  -28.0856  -20.2723   21.2559 H   0  0  0  0  0  0
  -29.8247  -24.2480   19.2280 H   0  0  0  0  0  0
  -30.2769  -24.9727   20.7365 H   0  0  0  0  0  0
  -27.6660  -25.0663   21.2467 H   0  0  0  0  0  0
  -27.5450  -24.7990   19.5264 H   0  0  0  0  0  0
  -28.9422  -15.4486   20.8781 H   0  0  0  0  0  0
  1 25  1  0  0  0
  1 30  2  0  0  0
  1 82  1  0  0  0
  2  3  1  0  0  0
  2 25  1  0  0  0
  2 86  1  0  0  0
  2 87  1  0  0  0
  3  4  1  0  0  0
  3 88  1  0  0  0
  3 89  1  0  0  0
  4  5  1  0  0  0
  4 90  1  0  0  0
  4 91  1  0  0  0
  5  6  1  0  0  0
  5 26  1  0  0  0
  5 92  1  0  0  0
  6 25  1  0  0  0
  6 93  1  0  0  0
  6 94  1  0  0  0
  7  8  2  0  0  0
  7 26  1  0  0  0
  7 29  1  0  0  0
  8  9  1  0  0  0
  8 22  1  0  0  0
  9 10  1  0  0  0
  9 27  2  0  0  0
 10 11  2  0  0  0
 10 15  1  0  0  0
 11 12  1  0  0  0
 11 95  1  0  0  0
 12 13  2  0  0  0
 12 96  1  0  0  0
 13 14  1  0  0  0
 13 31  1  0  0  0
 14 15  2  0  0  0
 14 97  1  0  0  0
 15 98  1  0  0  0
 16 17  2  0  0  0
 16 21  1  0  0  0
 16 31  1  0  0  0
 17 18  1  0  0  0
 17 99  1  0  0  0
 18 19  2  0  0  0
 18100  1  0  0  0
 19 20  1  0  0  0
 19 24  1  0  0  0
 20 21  2  0  0  0
 20101  1  0  0  0
 21 23  1  0  0  0
 22 28  1  0  0  0
 22 32  2  0  0  0
 26 27  1  0  0  0
 28102  1  0  0  0
 28103  1  0  0  0
 29104  1  0  0  0
 29105  1  0  0  0
 33 34  1  0  0  0
 33 66  1  0  0  0
 33 70  2  0  0  0
 34 36  1  0  0  0
 34 59  1  0  0  0
 34106  1  0  0  0
 35 44  2  0  0  0
 35 45  1  0  0  0
 35 68  1  0  0  0
 36 56  1  0  0  0
 36107  1  0  0  0
 37 39  1  0  0  0
 37 47  1  0  0  0
 37 66  1  0  0  0
 37108  1  0  0  0
 38 43  2  0  0  0
 38 46  1  0  0  0
 38 47  1  0  0  0
 39 64  1  0  0  0
 39 67  2  0  0  0
 40 52  1  0  0  0
 40 53  2  0  0  0
 40 58  1  0  0  0
 41109  1  0  0  0
 41110  1  0  0  0
 41111  1  0  0  0
 41 48  1  0  0  0
 42 43  1  0  0  0
 42 66  1  0  0  0
 42112  1  0  0  0
 42113  1  0  0  0
 43 44  1  0  0  0
 44114  1  0  0  0
 45 46  2  0  0  0
 45115  1  0  0  0
 46116  1  0  0  0
 47117  1  0  0  0
 47118  1  0  0  0
 48 56  1  0  0  0
 48 65  1  0  0  0
 48119  1  0  0  0
 49 50  1  0  0  0
 49 53  1  0  0  0
 49 64  1  0  0  0
 49120  1  0  0  0
 50 51  1  0  0  0
 50121  1  0  0  0
 50122  1  0  0  0
 51 52  1  0  0  0
 51123  1  0  0  0
 51124  1  0  0  0
 52125  1  0  0  0
 52126  1  0  0  0
 53 54  1  0  0  0
 54 55  2  0  0  0
 54127  1  0  0  0
 55 57  1  0  0  0
 55128  1  0  0  0
 56 69  2  0  0  0
 57 58  2  0  0  0
 57129  1  0  0  0
 58130  1  0  0  0
 59 60  1  0  0  0
 59 61  1  0  0  0
 59 62  1  0  0  0
 60131  1  0  0  0
 60132  1  0  0  0
 60133  1  0  0  0
 61134  1  0  0  0
 61135  1  0  0  0
 61136  1  0  0  0
 62137  1  0  0  0
 62138  1  0  0  0
 62139  1  0  0  0
 63 65  1  0  0  0
 63140  1  0  0  0
 63141  1  0  0  0
 63142  1  0  0  0
 64143  1  0  0  0
 65144  1  0  0  0
 68 81  1  0  0  0
 71 72  2  0  0  0
 71 74  1  0  0  0
 71145  1  0  0  0
 72 76  1  0  0  0
 72146  1  0  0  0
 73 74  2  0  0  0
 73 75  1  0  0  0
 73147  1  0  0  0
 74 79  1  0  0  0
 75 76  2  0  0  0
 75 82  1  0  0  0
 76 85  1  0  0  0
 77 80  1  0  0  0
 77 83  1  0  0  0
 77 84  2  0  0  0
 78 83  1  0  0  0
 78148  1  0  0  0
 78149  1  0  0  0
 78150  1  0  0  0
 79 83  1  0  0  0
 79151  1  0  0  0
 79152  1  0  0  0
 80 81  1  0  0  0
 80153  1  0  0  0
 80154  1  0  0  0
 81155  1  0  0  0
 81156  1  0  0  0
 82157  1  0  0  0
M  ISO  4   1 100  68 101  81 101  82 100
M  END
> <chiral flag>
0

> <version>
0

> <s_m_source_file>
/data/baiqing/PycharmProjects/Reinvent-master-3.2/result/LINK_invent/BTK/process_docking_weight1_custom_product_contain_oxygen_bond_distance_aromatic_linkinvent_7_9_3/rearranged_h_0049.sdf

> <i_m_source_file_index>
89

> <r_mmod_Potential_Energy-OPLS-2005>
-33.3303108215332

> <r_mmod_Stretch_Energy-OPLS-2005>
46.5307731628418

> <r_mmod_Bend_Energy-OPLS-2005>
102.506271362305

> <r_mmod_Torsional_Energy-OPLS-2005>
263.532958984375

> <r_mmod_Improper_Torsional_Energy-OPLS-2005>
6.92274618148804

> <r_mmod_Van_der_Waal_Energy-OPLS-2005>
168.296127319336

> <r_mmod_Electrostatic_Energy-OPLS-2005>
-410.304321289062

> <r_mmod_Solvation_Energy-OPLS-2005>
-237.229721069336

> <b_mmod_Minimization_Converged-OPLS-2005>
0

> <r_mmod_RMS_Derivative-OPLS-2005>
3.14687299728394

$$$$
89
                    3D
 Structure written by MMmdl.
176185  0  0  1  0            999 V2000
  -30.7240  -14.4666   20.5633 C   0  0  0  0  0  0
  -30.4160  -12.3079   19.4093 C   0  0  0  0  0  0
  -29.4863  -12.4902   18.1943 C   0  0  0  0  0  0
  -28.0084  -12.3439   18.6136 C   0  0  0  0  0  0
  -27.6488  -13.1974   19.8585 C   0  0  2  0  0  0
  -28.6995  -13.0250   20.9778 C   0  0  0  0  0  0
  -25.2509  -13.8040   20.5644 C   0  0  0  0  0  0
  -24.1786  -13.0347   20.9174 C   0  0  0  0  0  0
  -24.6358  -11.6841   20.8731 C   0  0  0  0  0  0
  -23.9031  -10.4247   21.0413 C   0  0  0  0  0  0
  -24.3593   -9.4171   21.9182 C   0  0  0  0  0  0
  -23.6292   -8.2202   22.0749 C   0  0  0  0  0  0
  -22.4280   -8.0238   21.3530 C   0  0  0  0  0  0
  -21.9891   -9.0203   20.4634 C   0  0  0  0  0  0
  -22.7209  -10.2088   20.3052 C   0  0  0  0  0  0
  -21.6833   -6.0713   22.5287 C   0  0  0  0  0  0
  -21.3993   -6.5627   23.8215 C   0  0  0  0  0  0
  -21.3666   -5.6785   24.9182 C   0  0  0  0  0  0
  -21.6047   -4.3043   24.7236 C   0  0  0  0  0  0
  -21.8834   -3.8132   23.4358 C   0  0  0  0  0  0
  -21.9192   -4.6945   22.3408 C   0  0  0  0  0  0
  -22.7810  -13.5160   21.1851 C   0  0  0  0  0  0
  -22.1670   -4.2132   21.0979 F   0  0  0  0  0  0
  -21.5642   -3.4523   25.7751 F   0  0  0  0  0  0
  -30.0225  -13.3145   20.4022 N   0  0  0  0  0  0
  -26.2972  -12.9230   20.3338 N   0  0  0  0  0  0
  -25.9279  -11.6401   20.5735 N   0  0  0  0  0  0
  -22.0485  -12.8146   22.0424 N   0  0  0  0  0  0
  -25.4044  -15.1727   20.3982 N   0  0  0  0  0  0
  -31.8855  -14.6096   20.1750 O   0  0  0  0  0  0
  -21.6622   -6.8850   21.4251 O   0  0  0  0  0  0
  -22.3477  -14.5454   20.6710 O   0  0  0  0  0  0
  -24.6117  -31.8669   23.2141 C   0  0  0  0  0  0
  -25.9033  -32.4811   23.8418 C   0  0  1  0  0  0
  -27.2486  -27.4586   20.0729 C   0  0  0  0  0  0
  -25.5918  -33.8616   24.2332 N   0  0  0  0  0  0
  -23.3987  -30.4931   21.5486 C   0  0  2  0  0  0
  -24.8471  -28.9607   20.1134 C   0  0  0  0  0  0
  -22.7406  -29.4672   22.4962 C   0  0  0  0  0  0
  -18.0264  -28.1393   22.8483 C   0  0  0  0  0  0
  -24.1501  -36.7332   23.2631 C   0  0  0  0  0  0
  -25.9245  -30.8346   21.3659 C   0  0  0  0  0  0
  -26.0029  -29.4718   20.7119 C   0  0  0  0  0  0
  -27.1994  -28.7245   20.6975 C   0  0  0  0  0  0
  -26.0671  -26.9501   19.4808 C   0  0  0  0  0  0
  -24.8729  -27.6952   19.5005 C   0  0  0  0  0  0
  -23.6101  -29.8270   20.1620 C   0  0  0  0  0  0
  -25.4118  -36.3099   24.0328 C   0  0  1  0  0  0
  -20.5849  -28.3669   23.1314 C   0  0  2  0  0  0
  -20.6754  -26.9408   22.5410 C   0  0  0  0  0  0
  -19.5735  -26.6391   21.5207 C   0  0  0  0  0  0
  -18.1912  -26.7934   22.1615 C   0  0  0  0  0  0
  -19.1514  -28.8852   23.2887 C   0  0  0  0  0  0
  -18.9436  -30.1446   23.8918 C   0  0  0  0  0  0
  -17.6447  -30.6598   24.0568 C   0  0  0  0  0  0
  -25.9042  -34.9478   23.5122 C   0  0  0  0  0  0
  -16.5342  -29.9097   23.6324 C   0  0  0  0  0  0
  -16.7259  -28.6513   23.0347 C   0  0  0  0  0  0
  -26.4492  -31.6613   25.0742 C   0  0  0  0  0  0
  -25.3794  -31.3720   26.1507 C   0  0  0  0  0  0
  -27.0311  -30.3054   24.6116 C   0  0  0  0  0  0
  -27.6041  -32.4353   25.7521 C   0  0  0  0  0  0
  -27.5580  -37.1809   24.8447 C   0  0  0  0  0  0
  -21.4133  -29.3041   22.3733 N   0  0  0  0  0  0
  -26.4289  -37.3797   23.9426 N   0  0  0  0  0  0
  -24.6626  -31.0813   22.1004 N   0  0  0  0  0  0
  -23.4211  -28.8198   23.2963 O   0  0  0  0  0  0
  -28.4561  -26.7900   20.0814 O   0  0  0  0  0  0
  -26.5571  -34.8909   22.4660 O   0  0  0  0  0  0
  -23.5299  -32.1429   23.7528 O   0  0  0  0  0  0
  -28.2670  -17.1229   18.0803 C   0  0  0  0  0  0
  -29.2194  -16.3935   18.8248 C   0  0  0  0  0  0
  -27.1380  -17.7384   20.1410 C   0  0  0  0  0  0
  -27.2061  -17.7758   18.7366 C   0  0  0  0  0  0
  -28.0598  -16.9765   20.8913 C   0  0  0  0  0  0
  -29.1077  -16.2867   20.2355 C   0  0  0  0  0  0
  -27.4726  -22.9129   17.3522 C   0  0  0  0  0  0
  -26.0270  -20.9321   18.0393 C   0  0  0  0  0  0
  -29.0153  -25.9213   17.8570 C   0  0  0  0  0  0
  -25.2036  -23.1292   14.9180 C   0  0  0  0  0  0
  -26.2466  -24.2313   14.7204 C   0  0  0  0  0  0
  -25.7262  -21.9216   15.7030 C   0  0  0  0  0  0
  -26.6652  -24.8959   16.0375 C   0  0  0  0  0  0
  -26.0853  -22.2247   17.1817 C   0  0  2  0  0  0
  -27.8399  -16.8378   22.3873 C   0  0  0  0  0  0
  -26.0855  -18.4404   17.9514 C   0  0  0  0  0  0
  -29.0036  -24.7806   16.8309 C   0  0  0  0  0  0
  -28.6278  -25.5952   19.3092 C   0  0  0  0  0  0
  -27.6855  -24.1225   16.7665 N   0  0  0  0  0  0
  -30.0418  -15.5324   21.0077 N   0  0  0  0  0  0
  -26.3960  -19.7772   17.4592 N   0  0  0  0  0  0
  -28.3685  -22.3799   18.0191 O   0  0  0  0  0  0
  -25.5725  -20.9728   19.1848 O   0  0  0  0  0  0
  -29.3505  -27.0604   17.5150 O   0  0  0  0  0  0
  -31.4600  -12.4102   19.1014 H   0  0  0  0  0  0
  -30.3139  -11.3045   19.8289 H   0  0  0  0  0  0
  -29.7273  -11.7647   17.4167 H   0  0  0  0  0  0
  -29.6512  -13.4728   17.7495 H   0  0  0  0  0  0
  -27.8261  -11.2886   18.8227 H   0  0  0  0  0  0
  -27.3539  -12.6040   17.7799 H   0  0  0  0  0  0
  -27.6594  -14.2296   19.5236 H   0  0  0  0  0  0
  -28.6810  -12.0095   21.3729 H   0  0  0  0  0  0
  -28.4666  -13.6723   21.8245 H   0  0  0  0  0  0
  -25.2744   -9.5638   22.4733 H   0  0  0  0  0  0
  -23.9998   -7.4583   22.7462 H   0  0  0  0  0  0
  -21.0815   -8.8713   19.8934 H   0  0  0  0  0  0
  -22.3685  -10.9610   19.6140 H   0  0  0  0  0  0
  -21.1969   -7.6131   23.9712 H   0  0  0  0  0  0
  -21.1477   -6.0513   25.9077 H   0  0  0  0  0  0
  -22.0612   -2.7590   23.2869 H   0  0  0  0  0  0
  -22.4121  -11.9811   22.4791 H   0  0  0  0  0  0
  -21.1109  -13.1168   22.2666 H   0  0  0  0  0  0
  -24.6288  -15.8145   20.5074 H   0  0  0  0  0  0
  -26.2703  -15.6325   20.1370 H   0  0  0  0  0  0
  -26.7104  -32.5526   23.1183 H   0  0  0  0  0  0
  -25.0143  -33.9832   25.0510 H   0  0  0  0  0  0
  -22.6826  -31.3060   21.4079 H   0  0  0  0  0  0
  -23.3750  -35.9672   23.3282 H   0  0  0  0  0  0
  -24.3559  -36.8953   22.2032 H   0  0  0  0  0  0
  -23.7259  -37.6538   23.6668 H   0  0  0  0  0  0
  -26.0339  -31.5984   20.5965 H   0  0  0  0  0  0
  -26.8152  -30.8876   21.9802 H   0  0  0  0  0  0
  -28.0936  -29.1212   21.1594 H   0  0  0  0  0  0
  -26.0360  -25.9899   18.9920 H   0  0  0  0  0  0
  -23.9801  -27.2986   19.0377 H   0  0  0  0  0  0
  -23.7219  -30.6023   19.4018 H   0  0  0  0  0  0
  -22.7335  -29.2479   19.8665 H   0  0  0  0  0  0
  -25.1288  -36.1937   25.0813 H   0  0  0  0  0  0
  -20.9937  -28.3205   24.1430 H   0  0  0  0  0  0
  -20.5647  -26.2273   23.3587 H   0  0  0  0  0  0
  -21.6620  -26.7424   22.1211 H   0  0  0  0  0  0
  -19.6891  -25.6296   21.1243 H   0  0  0  0  0  0
  -19.6695  -27.3182   20.6720 H   0  0  0  0  0  0
  -17.4186  -26.6656   21.4028 H   0  0  0  0  0  0
  -18.0318  -26.0084   22.9016 H   0  0  0  0  0  0
  -19.7910  -30.7245   24.2335 H   0  0  0  0  0  0
  -17.5003  -31.6301   24.5125 H   0  0  0  0  0  0
  -15.5346  -30.3015   23.7675 H   0  0  0  0  0  0
  -15.8641  -28.0880   22.7051 H   0  0  0  0  0  0
  -24.5978  -30.7033   25.7902 H   0  0  0  0  0  0
  -24.8991  -32.2869   26.4988 H   0  0  0  0  0  0
  -25.8191  -30.8914   27.0255 H   0  0  0  0  0  0
  -26.2840  -29.6811   24.1201 H   0  0  0  0  0  0
  -27.4098  -29.7285   25.4565 H   0  0  0  0  0  0
  -27.8687  -30.4373   23.9257 H   0  0  0  0  0  0
  -27.2661  -33.3644   26.2141 H   0  0  0  0  0  0
  -28.3881  -32.6939   25.0394 H   0  0  0  0  0  0
  -28.0727  -31.8473   26.5423 H   0  0  0  0  0  0
  -28.2580  -38.0127   24.7510 H   0  0  0  0  0  0
  -28.1102  -36.2642   24.6278 H   0  0  0  0  0  0
  -27.2294  -37.1460   25.8849 H   0  0  0  0  0  0
  -20.9267  -29.8841   21.7053 H   0  0  0  0  0  0
  -26.0157  -38.2869   24.1443 H   0  0  0  0  0  0
  -28.3359  -17.1542   17.0015 H   0  0  0  0  0  0
  -30.0197  -15.9007   18.2919 H   0  0  0  0  0  0
  -26.3171  -18.2357   20.6381 H   0  0  0  0  0  0
  -24.8713  -22.7829   13.9396 H   0  0  0  0  0  0
  -24.3185  -23.5320   15.4131 H   0  0  0  0  0  0
  -25.8137  -24.9897   14.0642 H   0  0  0  0  0  0
  -27.1235  -23.8485   14.1950 H   0  0  0  0  0  0
  -26.5946  -21.5049   15.1884 H   0  0  0  0  0  0
  -24.9492  -21.1530   15.6613 H   0  0  0  0  0  0
  -25.7981  -25.0827   16.6721 H   0  0  0  0  0  0
  -27.0459  -25.8913   15.7970 H   0  0  0  0  0  0
  -25.3311  -22.8954   17.5944 H   0  0  0  0  0  0
  -26.9674  -17.4060   22.7126 H   0  0  0  0  0  0
  -28.7070  -17.1832   22.9479 H   0  0  0  0  0  0
  -27.6565  -15.7934   22.6404 H   0  0  0  0  0  0
  -25.1793  -18.4570   18.5617 H   0  0  0  0  0  0
  -25.8368  -17.8114   17.0943 H   0  0  0  0  0  0
  -29.8099  -24.0877   17.0714 H   0  0  0  0  0  0
  -29.2580  -25.1769   15.8456 H   0  0  0  0  0  0
  -27.7534  -24.9504   19.3599 H   0  0  0  0  0  0
  -29.4460  -25.0219   19.7476 H   0  0  0  0  0  0
  -30.6054  -16.1245   21.5989 H   0  0  0  0  0  0
  -26.7575  -19.8244   16.5167 H   0  0  0  0  0  0
  1 25  1  0  0  0
  1 30  2  0  0  0
  1 90  1  0  0  0
  2  3  1  0  0  0
  2 25  1  0  0  0
  2 95  1  0  0  0
  2 96  1  0  0  0
  3  4  1  0  0  0
  3 97  1  0  0  0
  3 98  1  0  0  0
  4  5  1  0  0  0
  4 99  1  0  0  0
  4100  1  0  0  0
  5  6  1  0  0  0
  5 26  1  0  0  0
  5101  1  0  0  0
  6 25  1  0  0  0
  6102  1  0  0  0
  6103  1  0  0  0
  7  8  2  0  0  0
  7 26  1  0  0  0
  7 29  1  0  0  0
  8  9  1  0  0  0
  8 22  1  0  0  0
  9 10  1  0  0  0
  9 27  2  0  0  0
 10 11  2  0  0  0
 10 15  1  0  0  0
 11 12  1  0  0  0
 11104  1  0  0  0
 12 13  2  0  0  0
 12105  1  0  0  0
 13 14  1  0  0  0
 13 31  1  0  0  0
 14 15  2  0  0  0
 14106  1  0  0  0
 15107  1  0  0  0
 16 17  2  0  0  0
 16 21  1  0  0  0
 16 31  1  0  0  0
 17 18  1  0  0  0
 17108  1  0  0  0
 18 19  2  0  0  0
 18109  1  0  0  0
 19 20  1  0  0  0
 19 24  1  0  0  0
 20 21  2  0  0  0
 20110  1  0  0  0
 21 23  1  0  0  0
 22 28  1  0  0  0
 22 32  2  0  0  0
 26 27  1  0  0  0
 28111  1  0  0  0
 28112  1  0  0  0
 29113  1  0  0  0
 29114  1  0  0  0
 33 34  1  0  0  0
 33 66  1  0  0  0
 33 70  2  0  0  0
 34 36  1  0  0  0
 34 59  1  0  0  0
 34115  1  0  0  0
 35 44  2  0  0  0
 35 45  1  0  0  0
 35 68  1  0  0  0
 36 56  1  0  0  0
 36116  1  0  0  0
 37 39  1  0  0  0
 37 47  1  0  0  0
 37 66  1  0  0  0
 37117  1  0  0  0
 38 43  2  0  0  0
 38 46  1  0  0  0
 38 47  1  0  0  0
 39 64  1  0  0  0
 39 67  2  0  0  0
 40 52  1  0  0  0
 40 53  2  0  0  0
 40 58  1  0  0  0
 41118  1  0  0  0
 41119  1  0  0  0
 41120  1  0  0  0
 41 48  1  0  0  0
 42 43  1  0  0  0
 42 66  1  0  0  0
 42121  1  0  0  0
 42122  1  0  0  0
 43 44  1  0  0  0
 44123  1  0  0  0
 45 46  2  0  0  0
 45124  1  0  0  0
 46125  1  0  0  0
 47126  1  0  0  0
 47127  1  0  0  0
 48 56  1  0  0  0
 48 65  1  0  0  0
 48128  1  0  0  0
 49 50  1  0  0  0
 49 53  1  0  0  0
 49 64  1  0  0  0
 49129  1  0  0  0
 50 51  1  0  0  0
 50130  1  0  0  0
 50131  1  0  0  0
 51 52  1  0  0  0
 51132  1  0  0  0
 51133  1  0  0  0
 52134  1  0  0  0
 52135  1  0  0  0
 53 54  1  0  0  0
 54 55  2  0  0  0
 54136  1  0  0  0
 55 57  1  0  0  0
 55137  1  0  0  0
 56 69  2  0  0  0
 57 58  2  0  0  0
 57138  1  0  0  0
 58139  1  0  0  0
 59 60  1  0  0  0
 59 61  1  0  0  0
 59 62  1  0  0  0
 60140  1  0  0  0
 60141  1  0  0  0
 60142  1  0  0  0
 61143  1  0  0  0
 61144  1  0  0  0
 61145  1  0  0  0
 62146  1  0  0  0
 62147  1  0  0  0
 62148  1  0  0  0
 63 65  1  0  0  0
 63149  1  0  0  0
 63150  1  0  0  0
 63151  1  0  0  0
 64152  1  0  0  0
 65153  1  0  0  0
 68 88  1  0  0  0
 71 72  2  0  0  0
 71 74  1  0  0  0
 71154  1  0  0  0
 72 76  1  0  0  0
 72155  1  0  0  0
 73 74  2  0  0  0
 73 75  1  0  0  0
 73156  1  0  0  0
 74 86  1  0  0  0
 75 76  2  0  0  0
 75 85  1  0  0  0
 76 90  1  0  0  0
 77 84  1  0  0  0
 77 89  1  0  0  0
 77 92  2  0  0  0
 78 91  1  0  0  0
 78 93  2  0  0  0
 78 84  1  0  0  0
 79 87  1  0  0  0
 79 88  1  0  0  0
 79 94  2  0  0  0
 80 81  1  0  0  0
 80 82  1  0  0  0
 80157  1  0  0  0
 80158  1  0  0  0
 81 83  1  0  0  0
 81159  1  0  0  0
 81160  1  0  0  0
 82 84  1  0  0  0
 82161  1  0  0  0
 82162  1  0  0  0
 83 89  1  0  0  0
 83163  1  0  0  0
 83164  1  0  0  0
 84165  1  0  0  0
 85166  1  0  0  0
 85167  1  0  0  0
 85168  1  0  0  0
 86 91  1  0  0  0
 86169  1  0  0  0
 86170  1  0  0  0
 87 89  1  0  0  0
 87171  1  0  0  0
 87172  1  0  0  0
 88173  1  0  0  0
 88174  1  0  0  0
 90175  1  0  0  0
 91176  1  0  0  0
M  ISO  4   1 100  68 101  88 101  90 100
M  END
> <chiral flag>
0

> <version>
0

> <s_m_source_file>
/data/baiqing/PycharmProjects/Reinvent-master-3.2/result/LINK_invent/BTK/process_docking_weight1_custom_product_contain_oxygen_bond_distance_aromatic_linkinvent_7_9_3/rearranged_h_0049.sdf

> <i_m_source_file_index>
90

> <r_mmod_Potential_Energy-OPLS-2005>
-30.2355537414551

> <r_mmod_Stretch_Energy-OPLS-2005>
40.1064262390137

> <r_mmod_Bend_Energy-OPLS-2005>
116.516319274902

> <r_mmod_Torsional_Energy-OPLS-2005>
307.509246826172

> <r_mmod_Improper_Torsional_Energy-OPLS-2005>
8.25401496887207

> <r_mmod_Van_der_Waal_Energy-OPLS-2005>
160.94660949707

> <r_mmod_Electrostatic_Energy-OPLS-2005>
-425.645721435547

> <r_mmod_Solvation_Energy-OPLS-2005>
-254.070617675781

> <b_mmod_Minimization_Converged-OPLS-2005>
0

> <r_mmod_RMS_Derivative-OPLS-2005>
3.99312663078308

$$$$
